#------------------------------------------------------------------------------
#$Date: 2021-01-04 05:06:15 +0200 (Mon, 04 Jan 2021) $
#$Revision: 260415 $
#$URL: file:///home/coder/svn-repositories/cod/cif/4/51/82/4518285.cif $
#------------------------------------------------------------------------------
#
# This file is available in the Crystallography Open Database (COD),
# http://www.crystallography.net/
#
# All data on this site have been placed in the public domain by the
# contributors.
#
data_4518285
loop_
_publ_author_name
'Cametti, Georgia'
'Scheinost, Andreas C.'
'Churakov, Sergey V.'
_publ_section_title
;
 Structural Evolution of Ag-LEV Zeolite upon Heating: An In Situ
 Single-Crystal X-ray Diffraction (SC-XRD) and X-ray Absorption
 Spectroscopy (XAS) Study.
;
_journal_issue                   49
_journal_name_full               'ACS omega'
_journal_page_first              31774
_journal_page_last               31783
_journal_paper_doi               10.1021/acsomega.0c04455
_journal_volume                  5
_journal_year                    2020
_chemical_formula_sum            'Ag7.98 O108 Si54'
_chemical_formula_weight         4105.66
_chemical_name_common            Ag-levyne
_space_group_crystal_system      trigonal
_space_group_IT_number           160
_space_group_name_Hall           'R 3 -2"'
_space_group_name_H-M_alt        'R 3 m :H'
_atom_sites_solution_primary     dual
_atom_sites_solution_secondary   difmap
_audit_creation_method           SHELXL-2014
_cell_angle_alpha                90.00(3)
_cell_angle_beta                 90.00(3)
_cell_angle_gamma                120.00(3)
_cell_formula_units_Z            1
_cell_length_a                   12.955(3)
_cell_length_b                   12.955(3)
_cell_length_c                   23.623(5)
_cell_measurement_reflns_used    2136
_cell_measurement_temperature    296(2)
_cell_measurement_theta_max      22.34
_cell_measurement_theta_min      2.5
_cell_volume                     3433.5(17)
_computing_structure_refinement  'SHELXL-2014 (Sheldrick, 2014)'
_diffrn_ambient_temperature      296(2)
_diffrn_measured_fraction_theta_full 1.000
_diffrn_measured_fraction_theta_max 1.000
_diffrn_measurement_device_type  'APEX II'
_diffrn_radiation_type           MoK\a
_diffrn_radiation_wavelength     0.71073
_diffrn_reflns_av_R_equivalents  0.0761
_diffrn_reflns_av_unetI/netI     0.0537
_diffrn_reflns_Laue_measured_fraction_full 1.000
_diffrn_reflns_Laue_measured_fraction_max 1.000
_diffrn_reflns_limit_h_max       16
_diffrn_reflns_limit_h_min       -16
_diffrn_reflns_limit_k_max       16
_diffrn_reflns_limit_k_min       -12
_diffrn_reflns_limit_l_max       30
_diffrn_reflns_limit_l_min       -22
_diffrn_reflns_number            12120
_diffrn_reflns_point_group_measured_fraction_full 0.928
_diffrn_reflns_point_group_measured_fraction_max 0.910
_diffrn_reflns_theta_full        25.242
_diffrn_reflns_theta_max         26.968
_diffrn_reflns_theta_min         2.009
_diffrn_source                   'fine-focus sealed tube'
_exptl_absorpt_coefficient_mu    1.696
_exptl_absorpt_correction_T_max  0.7455
_exptl_absorpt_correction_T_min  0.4715
_exptl_absorpt_correction_type   multi-scan
_exptl_crystal_colour            gray
_exptl_crystal_density_diffrn    1.986
_exptl_crystal_description       fragment
_exptl_crystal_F_000             1995
_exptl_crystal_size_max          0.180
_exptl_crystal_size_mid          0.150
_exptl_crystal_size_min          0.100
_refine_diff_density_max         0.774
_refine_diff_density_min         -0.788
_refine_diff_density_rms         0.127
_refine_ls_abs_structure_details
;
 Flack x determined using 399 quotients [(I+)-(I-)]/[(I+)+(I-)]
 (Parsons, Flack and Wagner, Acta Cryst. B69 (2013) 249-259).
;
_refine_ls_abs_structure_Flack   0.54(6)
_refine_ls_extinction_method     none
_refine_ls_goodness_of_fit_ref   1.092
_refine_ls_hydrogen_treatment    undef
_refine_ls_matrix_type           full
_refine_ls_number_parameters     98
_refine_ls_number_reflns         1717
_refine_ls_number_restraints     1
_refine_ls_restrained_S_all      1.092
_refine_ls_R_factor_all          0.1198
_refine_ls_R_factor_gt           0.0758
_refine_ls_shift/su_max          0.003
_refine_ls_shift/su_mean         0.001
_refine_ls_structure_factor_coef Fsqd
_refine_ls_weighting_details
'w=1/[\s^2^(Fo^2^)+(0.1033P)^2^+34.2167P] where P=(Fo^2^+2Fc^2^)/3'
_refine_ls_weighting_scheme      calc
_refine_ls_wR_factor_gt          0.2118
_refine_ls_wR_factor_ref         0.2416
_reflns_Friedel_coverage         0.812
_reflns_Friedel_fraction_full    0.856
_reflns_Friedel_fraction_max     0.819
_reflns_number_gt                1049
_reflns_number_total             1717
_reflns_threshold_expression     'I > 2\s(I)'
_cod_data_source_file            ao0c04455_si_008.cif
_cod_data_source_block           shelx
_cod_depositor_comments
'Adding full bibliography for 4518279--4518286.cif.'
_cod_database_code               4518285
_shelx_space_group_comment
;
The symmetry employed for this shelxl refinement is uniquely defined
by the following loop, which should always be used as a source of
symmetry information in preference to the above space-group names.
They are only intended as comments.
;
_shelxl_version_number           2014-1
_shelx_res_file
;
TITL levAg250_0m_c.res in R3m
REM Old TITL Integration of levAg250

REM SHELXT solution in R3m
REM R1 0.259,  Rweak 0.012,  Alpha 0.059,  Orientation as input
REM Flack x = -9.990 ( 9.990 ) from Parsons' quotients
REM Formula found by SHELXT:  C9

CELL  0.71073  12.9550  12.9550  23.6225   90.000   90.000  120.000
ZERR    1.000   0.0030   0.0030   0.0050    0.030    0.030    0.030
LATT -3
SYMM -Y, X-Y, Z
SYMM -X+Y, -X, Z
SYMM -Y, -X, Z
SYMM -X+Y, Y, Z
SYMM X, X-Y, Z
SFAC AG O SI
UNIT 7.98 108 54
TEMP 23.000
L.S. 10
BOND $H
LIST 6
TWIN -1 0 0 0 -1 0 0 0 1
FMAP 2
EADP T11 T11B
PLAN 20
acta
rem EXTI    0.000273
WGHT    0.103300   34.216705
BASF   0.09512
FVAR       0.16035   0.94052
T1    3    0.244498    0.242851    0.515436    11.00000    0.07818    0.06776 =
         0.04759    0.01007    0.01415    0.04410
T11   3    0.242571    0.244068    0.639565    21.00000    0.05204
T11B  3    0.424081    0.344664    0.632496   -21.00000    0.05204
T2    3    0.423901    0.332242    0.411177    11.00000    0.04109    0.04049 =
         0.04744    0.00560   -0.00394    0.01814
O1    2    0.354397    0.313060    0.469871    11.00000    0.07783
O11   2    0.369123    0.372796    0.359292    11.00000    0.06470
O2    2    0.129547    0.259093    0.504845    10.50000    0.09216    0.15819 =
         0.07499    0.00864    0.00432    0.07909
O22   2    0.092740    0.185479    0.634904    10.50000    0.05103    0.09295 =
         0.02577   -0.01260   -0.00630    0.04648
O3    2    0.198211    0.099105    0.527694    10.50000    0.10458
O33   2    0.263069    0.131534    0.655703    10.50000    0.06328
O4    2    0.309605    0.301346    0.578003    11.00000    0.06964
O5    2    0.466710    0.233355    0.408492    10.50000    0.07868
O55   2    0.551788    0.448212    0.434997    10.50000    0.06836
rem extraframework
AG1   1    0.000000    0.000000    0.579688     0.06649    0.07509
AG1A  1    0.000000    0.000000    0.511035     0.00323    0.01310
AG2   1    0.666667    0.333333    0.372178     0.02689    0.06986
AG2A  1    0.666667    0.333333    0.402921     0.02456   10.10000
AG2B  1    0.666667    0.333333    0.435697     0.01559    0.03319
AG4   1    0.498029    0.501971    0.583253     0.09334    0.06814
AG4A  1    0.513528    0.486472    0.545020     0.08122    0.11120
AG5   1    0.369784    0.184892    0.738069     0.05166    0.04826
AG5A  1    0.323156    0.161578    0.745084     0.05322    0.03661
AG5B  1    0.273304    0.136652    0.757804     0.02907    0.11508

HKLF 4

REM  levAg250_0m_c.res in R3m
REM R1 =  0.0758 for    1049 Fo > 4sig(Fo)  and  0.1198 for all    1717 data
REM     98 parameters refined using      1 restraints

END

WGHT      0.1017     34.6891

REM Highest difference peak  0.774,  deepest hole -0.788,  1-sigma level  0.127
Q1    1   0.6667  0.3333  0.6218  10.16667  0.05    0.77
Q2    1   0.3333  0.6667  0.5325  10.16667  0.05    0.67
Q3    1   0.4134  0.2067  0.3906  10.50000  0.05    0.63
Q4    1   0.4882  0.5118  0.5615  10.50000  0.05    0.60
Q5    1   0.3958  0.3471  0.3466  11.00000  0.05    0.56
Q6    1   0.5540  0.4460  0.6264  10.50000  0.05    0.56
Q7    1   0.4544  0.5456  0.6178  10.50000  0.05    0.55
Q8    1   0.5462  0.4538  0.5391  10.50000  0.05    0.54
Q9    1   0.5192  0.4808  0.6040  10.50000  0.05    0.54
Q10   1   0.0000  0.0000  0.4045  10.16667  0.05    0.53
Q11   1   0.5735  0.4265  0.4182  10.50000  0.05    0.53
Q12   1   0.3297  0.3504  0.4647  11.00000  0.05    0.51
Q13   1   0.3098  0.3129  0.3581  11.00000  0.05    0.50
Q14   1   0.5227  0.4773  0.5751  10.50000  0.05    0.50
Q15   1   0.4442  0.5558  0.5274  10.50000  0.05    0.49
Q16   1   0.5785  0.1571  0.7380  10.50000  0.05    0.49
Q17   1   0.4313  0.2157  0.4328  10.50000  0.05    0.47
Q18   1   0.0816  0.1633  0.7499  10.50000  0.05    0.46
Q19   1   0.2550  0.2535  0.5827  11.00000  0.05    0.46
Q20   1   0.6667  0.3333  0.5309  10.16667  0.05    0.45
;
_shelx_res_checksum              43412
_shelx_hkl_file
;
  -2   1   0 2994.64  182.43
  -2   1   0 3035.73  182.44
  -2   1   0 2772.44  181.88
  -1   2   0 2764.22  181.14
   2  -1   0 2887.27  182.39
   2  -1   0 2915.88  182.36
   3   0   0 2402.10  143.40
  -3   3   0 2208.04  143.08
  -3   3   0 2152.52  142.90
  -3   3   0 2181.77  143.28
   0   3   0 2127.81  141.92
  -3   0   0 2473.55  144.33
  -3   0   0 2312.15  143.82
   3  -3   0 2235.05  143.52
   3  -3   0 2261.05  143.51
  -4   2   0  116.12   10.24
   2   2   0  114.49    9.26
  -4   2   0  110.58   10.66
  -4   2   0  128.04   11.15
   4  -2   0  126.57   11.12
   4  -2   0  125.99   11.53
  -2   4   0  109.16    9.08
   4  -5   0  224.23   18.19
   1   4   0  249.44   16.54
  -5   1   0  239.55   19.93
  -5   1   0  194.25   18.06
   1   4   0  290.40   19.42
  -5   1   0  247.74   19.89
  -5   1   0  238.74   18.78
   4  -5   0  247.89   18.24
   5  -1   0  257.87   20.52
  -4   5   0  266.20   18.93
   5  -1   0  218.62   19.17
   4   1   0  244.62   17.31
   4   1   0  247.27   18.20
  -5   4   0  263.58   19.40
  -5   4   0  252.21   19.19
   4   1   0  237.40   17.07
  -5   4   0  270.62   19.48
   4   1   0  259.63   18.60
  -1   5   0  209.92   16.50
  -4  -1   0  239.88   19.04
  -1   5   0  220.06   17.03
  -4  -1   0  223.36   18.71
  -4  -1   0  255.49   19.84
   5  -4   0  250.24   19.79
   5  -4   0  265.72   20.21
   3   3   0 1029.34   71.66
  -6   3   0 1108.71   73.78
  -6   3   0 1075.84   72.51
   3  -6   0 1098.57   69.40
  -6   3   0 1149.91   73.74
   3   3   0 1153.83   71.05
   3   3   0  961.02   71.10
  -6   3   0 1088.17   72.50
  -3  -3   0 1048.35   70.18
   6  -3   0 1188.27   74.54
   6  -3   0 1144.49   74.00
  -3  -3   0 1043.46   70.42
  -3   6   0 1117.98   71.13
  -3  -3   0 1054.08   72.38
   0  -6   0  197.31   16.17
   6   0   0  219.36   18.16
   6   0   0  205.11   16.93
  -6   6   0  223.82   18.14
   6   0   0  202.41   16.58
  -6   6   0  205.08   16.33
  -6   6   0  221.68   16.44
   0   6   0  219.84   17.37
   6  -6   0  195.08   17.95
   6  -6   0  178.70   17.44
  -6   0   0  214.58   17.69
  -6   0   0  207.66   18.86
  -6   0   0  198.72   18.34
   0   6   0  193.46   15.52
   0   6   0  178.27   15.22
  -7   2   0  520.90   39.87
  -7   2   0  562.22   40.44
  -7   2   0  579.25   42.34
  -7   2   0  580.35   42.16
   5  -7   0  588.43   40.07
   2   5   0  541.75   38.81
   2   5   0  544.45   40.15
   5  -7   0  614.73   39.98
   2   5   0  591.88   38.32
  -5   7   0  544.60   40.09
  -2  -5   0  540.58   40.11
   7  -2   0  553.46   41.43
   7  -2   0  558.33   42.56
   5   2   0  520.94   38.86
  -7   5   0  647.04   41.37
  -7   5   0  577.41   40.68
  -7   5   0  556.55   40.52
   5   2   0  538.07   39.14
  -2   7   0  534.85   37.49
   7  -5   0  585.41   41.60
   7  -5   0  595.04   41.93
  -2   7   0  544.23   37.91
  -5  -2   0  554.74   40.98
  -5  -2   0  513.90   39.49
  -5  -2   0  525.81   40.03
   7  -8   0  177.79   17.51
  -8   1   0  167.33   16.41
   7  -8   0  175.34   17.69
  -8   1   0  193.41   17.55
   1   7   0  152.11   16.24
  -8   1   0  202.11   19.67
   1   7   0  171.31   14.92
   1   7   0  158.03   13.68
  -8   1   0  219.00   19.87
  -1  -7   0  169.44   16.22
  -7   8   0  176.31   17.53
   8  -1   0  183.03   18.50
   8  -1   0  174.87   17.11
  -8   4   0 4123.30  271.59
   4  -8   0 4020.68  268.36
  -8   4   0 4190.10  272.70
   4  -8   0 4365.22  268.36
   4   4   0 3928.78  270.11
  -8   4   0 4083.50  272.73
   4   4   0 4643.57  270.26
   4   4   0 4224.85  269.86
  -8   4   0 4425.38  270.66
  -4  -4   0 4433.48  271.77
  -4  -4   0 4238.86  269.29
  -4   8   0 4196.75  270.08
  -4  -4   0 4216.08  270.14
   8  -4   0 4452.64  273.22
  -4   8   0 4169.48  269.68
   8  -4   0 4388.95  273.70
  -8   7   0  177.85   16.67
   1  -8   0  196.09   15.70
  -8   7   0  179.93   17.94
  -8   7   0  160.74   16.00
   7   1   0  150.83   15.86
  -7  -1   0  175.07   17.96
  -1   8   0  191.73   14.68
  -1   8   0  180.81   14.86
   8  -7   0  174.77   18.29
  -1   8   0  195.92   14.38
   8  -7   0  175.11   18.85
  -7  -1   0  147.14   16.97
  -7  -1   0  173.09   18.96
   3   6   0   74.29   10.94
   6  -9   0   65.88   10.41
   6  -9   0   66.62   10.26
   3   6   0   76.81   10.06
   3   6   0   63.83    9.21
  -9   3   0   83.30   11.95
  -9   3   0   82.07   13.11
  -9   3   0   72.11   12.41
  -9   3   0   88.27   11.58
  -6   9   0   64.97   10.90
   9  -3   0   81.98   14.39
  -3  -6   0   74.58   10.99
   9  -3   0   74.93   11.98
  -9   6   0   53.30   10.58
   6   3   0   56.79    9.19
  -9   6   0   73.64   10.40
  -9   6   0   72.09   11.43
  -9   6   0   67.44   11.49
   9  -6   0   78.74   13.49
  -3   9   0   90.28    9.73
  -3   9   0   83.23    9.12
  -6  -3   0   73.63   11.22
  -6  -3   0   68.32   12.68
   9  -6   0   79.64   12.56
  -6  -3   0   52.99   10.64
   0  -9   0  613.94   43.81
   9   0   0  567.15   44.24
  -9   9   0  553.56   46.09
   9   0   0  722.92   49.03
   0   9   0  609.59   41.47
   0   9   0  650.95   42.28
   0   9   0  587.90   41.79
  -9   0   0  623.17   48.26
   9  -9   0  525.39   46.25
  -9   0   0  599.48   46.26
 -10   2   0    6.15    5.92
 -10   2   0   -1.05    6.92
 -10   2   0   -2.36    7.00
   2   8   0    6.25    5.47
   2   8   0    5.81    4.84
  -2  -8   0    8.61    6.66
  -8  10   0   12.14    7.21
 -10   5   0   33.36    8.88
 -10   5   0   30.20    8.64
   5 -10   0   32.24    6.71
   5   5   0   23.10    6.19
 -10   5   0   39.15    8.21
  10  -5   0   17.24    8.02
  10  -5   0   21.05    9.51
  -5  10   0   32.11    7.43
  -5  10   0   31.51    6.65
  -5  -5   0   23.00    8.03
  -5  -5   0   28.10    7.27
 -10   8   0    6.49    7.40
   8   2   0   13.00    5.72
  -8  -2   0   -4.38    5.66
  -2  10   0    2.40    3.94
  10  -8   0    6.64    8.24
  -2  10   0   10.09    5.20
  10  -8   0   13.95    7.64
   1  10   0   25.99    6.48
 -11   1   0   34.45    9.65
  11  -1   0   21.79    7.53
  -1 -10   0   21.24    7.89
 -10  11   0   17.40    8.28
   4   7   0    0.17    4.50
 -11   4   0    6.44    7.57
 -11   4   0   12.86    6.61
  -7  11   0    6.00    5.23
  -7  11   0    3.61    6.23
  -4  -7   0   -1.02    5.75
   7   4   0    2.36    4.72
 -11   7   0   -0.59    6.59
   4 -11   0    4.77    4.86
 -11   7   0    5.27    6.04
  -4  11   0    5.20    5.53
  -7  -4   0   14.11    7.40
  -4  11   0    2.56    3.94
  11  -7   0   11.85    9.10
 -11  10   0    9.17    8.37
  10   1   0   21.84    7.91
  -1  11   0   26.06    6.67
  -1  11   0   32.38    7.22
 -10  -1   0   19.54    8.90
   3   9   0   56.87   11.46
 -12   3   0   88.04   14.33
  -3  -9   0  106.19   15.15
  -9  12   0  110.64   16.62
  -9  12   0   80.54   13.69
   6   6   0    8.15    5.37
 -12   6   0    1.60    6.68
  -6  12   0    8.44    5.64
  -6  12   0    4.21    6.14
  -6  -6   0    3.36    7.29
   9   3   0   83.50   13.73
 -12   9   0   91.83   16.24
  -9  -3   0   90.59   16.00
  -3  12   0   91.20   12.14
  -3  12   0  137.02   15.40
 -12  12   0  349.22   34.92
  12   0   0  301.87   30.85
 -12   0   0  343.17   33.61
   0  12   0  390.92   29.71
   2  11   0    4.66    5.75
 -13   2   0   11.90    9.24
  -2 -11   0   16.50    8.93
  13  -2   0   13.73    7.60
 -11  13   0   15.37    9.95
 -13   5   0  112.16   16.61
   5   8   0   98.34   15.24
  -8  13   0   88.19   15.92
  -5  -8   0  165.59   19.54
   8   5   0  121.64   16.22
  -8  -5   0  154.26   20.20
  -5  13   0   91.52   15.04
  11   2   0    3.15    6.98
 -13  11   0   22.45   11.25
 -11  -2   0    7.76    9.33
  -2  13   0    7.99    7.10
   1  13   0    5.85    6.50
 -14   1   0   -0.66    9.05
  14  -1   0    8.20    7.89
 -13  14   0    1.09   11.31
 -14   4   0    1.91    8.30
   4  10   0   -5.91    5.37
 -10  14   0    4.03    8.56
  -4 -10   0   -1.07    7.63
 -14   7   0    0.28    8.08
   7   7   0    0.43    5.34
  -7  14   0   -2.50    6.62
  -7  -7   0    0.50    8.02
  10   4   0   -6.61    5.09
  -4  14   0   -0.21    6.21
 -10  -4   0  -10.61    7.92
  13   1   0    0.57    6.68
 -14  13   0    9.37   12.09
  -1  14   0   -0.03    6.02
 -13  -1   0    6.93   10.18
 -15   3   0    0.62    9.03
   3  12   0    3.73    5.68
 -12  15   0    1.18   11.23
  15  -3   0    7.09    6.99
   6   9   0   28.90    9.03
 -15   6   0   27.48   11.34
  -6  -9   0   35.63   12.20
  -9  15   0   20.30   10.18
   9   6   0   10.45    7.42
  -9  -6   0   20.35   11.71
  -6  15   0   20.34    9.32
  12   3   0    8.14    7.25
 -12  -3   0   11.67   10.48
  -3  15   0    1.50    6.37
   5  11   0   -4.38    6.23
 -16   5   0    3.23    9.53
   5  11   0    1.87    6.73
  -5 -11   0    9.39    9.96
 -11  16   0    2.22    9.99
  16  -5   0    8.08    8.24
   8   8   0  144.77   20.83
  -8  16   0  134.95   21.24
  -8  -8   0  240.69   28.05
  11   5   0   10.70    8.36
 -11  -5   0   13.56   11.33
  -5  16   0   10.53    8.65
   0   1  -1  323.70   20.69
  -1   0  -1  337.09   20.97
  -1   0  -1  334.02   20.94
   1  -1  -1  276.38   20.69
   0   1  -1  359.83   20.96
  -1   1   1  289.85   20.59
  -1   1   1  300.66   20.73
   0  -1   1  349.52   20.88
   1   0   1  349.27   20.90
   0  -1   1  333.73   20.73
   0  -1   1  295.31   20.60
  -2  -1  -1  101.40    7.36
  -1   3  -1  109.45    7.90
  -1   3  -1  117.84    7.63
   3  -2  -1   87.42    8.66
   3  -2  -1   89.73    8.60
  -2  -1  -1   99.60    7.50
  -3   2   1   94.86    8.43
  -3   2   1   92.29    8.53
  -3   2   1   91.85    8.66
  -2   2  -1  117.77    8.78
  -2   2  -1  121.19    8.81
   2   0  -1   94.60    8.61
  -2   2  -1  105.19    8.70
   2   0  -1  112.43    9.20
  -2   0   1  118.09    9.34
   2  -2   1  112.87    8.76
   2  -2   1  115.93    8.97
  -2   0   1  106.56    8.88
  -2   0   1  108.73    9.72
  -3  -2  -1   11.33    2.84
  -3  -2  -1   12.66    4.03
  -2   5  -1   15.53    3.14
   5  -3  -1   29.08    6.04
  -2   5  -1   14.93    3.16
  -3  -2  -1   15.51    3.52
   5  -3  -1   19.15    4.93
   3   2   1   12.60    3.35
  -5   3   1   24.98    5.44
   3   2   1    8.54    2.89
   3   2   1   13.96    3.46
  -5   3   1   28.99    5.18
  -5   3   1   22.06    4.84
  -3   1  -1  121.89    9.88
  -3   1  -1  131.14    9.84
   1   2  -1  102.64    8.00
  -3   1  -1  113.17    9.02
  -2   3   1   82.51    7.94
   3  -1   1  124.45    9.89
  -1  -2   1   91.79    7.96
   3  -1   1  126.70    9.65
  -3   4  -1   51.33    4.49
   4  -1  -1   33.99    6.61
   4  -1  -1   35.73    6.01
  -3   4  -1   51.10    5.65
  -3   4  -1   47.37    4.49
  -4   1   1   44.56    6.60
  -4   1   1   45.28    6.27
   3  -4   1   49.75    5.42
   3  -4   1   45.65    5.44
  -4   1   1   41.84    6.73
  -4  -3  -1   43.78    7.61
   7  -4  -1   30.52    7.92
   7  -4  -1   29.48    7.18
  -3   7  -1   37.30    5.79
  -4  -3  -1   42.88    6.93
  -3   7  -1   30.64    5.63
  -4  -3  -1   38.56    5.90
   3  -7   1   34.36    4.79
  -7   4   1   31.80    7.37
   4   3   1   37.21    6.15
   4   3   1   34.93    5.79
  -7   4   1   26.34    6.79
  -7   4   1   28.06    7.08
   4   3   1   51.44    7.05
  -7   4   1   34.25    6.29
   4  -4  -1  185.13   15.26
  -4   0  -1  205.17   16.35
   4  -4  -1  179.81   15.38
   0   4  -1  189.22   14.17
  -4   0  -1  228.66   16.37
  -4   4   1  178.45   14.45
  -4   4   1  163.23   14.96
   4   0   1  224.71   15.41
   0  -4   1  180.57   13.40
   4   0   1  223.40   16.05
   3   1  -1   32.05    4.72
  -4   3  -1   51.51    6.33
  -4   3  -1   50.31    6.12
  -4   3  -1   43.79    6.18
   3   1  -1   32.79    4.25
  -3  -1   1   32.92    5.25
  -3  -1   1   37.10    5.97
   4  -3   1   52.32    6.40
   4  -3   1   45.66    6.62
   6  -2  -1   26.29    6.02
  -4   6  -1   21.07    4.74
  -2  -4  -1   12.20    4.32
   6  -2  -1   25.44    6.71
   2   4   1   18.63    3.60
  -6   2   1   17.57    5.36
  -6   2   1   17.42    4.83
  -6   2   1   21.83    6.18
   4  -6   1   29.39    4.96
   2   4   1   22.75    4.42
   2   4   1   12.51    4.05
   4  -6   1   20.76    4.51
  -6   2   1   22.61    5.14
  -4   9  -1   14.75    5.10
  -5  -4  -1    6.87    5.92
  -5  -4  -1   27.88    8.02
   9  -5  -1   11.50    6.50
   9  -5  -1   10.84    7.54
  -4   9  -1   13.27    5.17
  -5  -4  -1   22.51    6.19
   5   4   1   20.79    6.20
  -9   5   1   11.88    6.42
  -9   5   1   19.68    7.46
  -9   5   1   14.21    5.71
   5   4   1   25.41    6.11
  -9   5   1   16.47    7.12
   4  -9   1   22.42    5.61
   4  -9   1   19.76    4.93
   6  -5  -1   49.27    8.42
  -5  -1  -1   57.85    8.46
  -5  -1  -1   49.18    8.27
   6  -5  -1   44.36    7.79
  -5  -1  -1   54.09    7.83
  -1   6  -1   37.06    5.72
  -1   6  -1   38.71    5.39
  -6   5   1   41.54    6.90
   5   1   1   65.44    7.60
   5   1   1   62.36    7.63
  -6   5   1   50.71    7.89
   2   3  -1   13.59    3.70
   2   3  -1   17.78    3.58
  -5   2  -1   12.00    4.61
  -5   2  -1   21.53    4.73
  -5   2  -1   21.75    5.08
  -2  -3   1   14.14    2.72
  -3   5   1   26.97    4.08
   5  -2   1   16.40    4.85
  -2  -3   1   17.43    3.03
   5  -2   1   16.74    5.08
   5   0  -1   65.31    7.18
  -5   5  -1   41.52    6.63
  -5   5  -1   43.69    6.52
  -5   5  -1   44.97    7.36
   5   0  -1   52.51    7.25
   0   5   1   60.54    5.19
   5  -5   1   42.99    7.38
  -5   0   1   79.57    9.42
  -5   0   1   62.08    8.52
  -5   0   1   64.39    8.01
  -5   0   1   63.30    7.53
   0   5   1   57.06    7.36
   5  -5   1   36.21    6.97
   8  -3  -1    1.43    4.84
  -5   8  -1    3.36    4.10
   8  -3  -1    5.72    6.25
  -3  -5  -1    2.10    4.33
  -5   8  -1    1.44    3.12
  -8   3   1    3.56    5.30
  -8   3   1   -1.43    3.74
  -8   3   1   -1.66    4.43
   5  -8   1   -0.42    3.27
  -8   3   1    3.19    4.22
   5  -8   1    1.11    3.65
   3   5   1    8.78    3.89
   3   5   1    0.45    3.09
   3   5   1    0.15    3.27
  -5  11  -1    9.23    5.56
  -5  11  -1    8.71    6.26
  -6  -5  -1   13.57    7.50
  11  -6  -1    0.70    7.89
 -11   6   1   -4.26    5.71
   6   5   1   -1.59    3.89
 -11   6   1    3.59    6.52
  -6  -2  -1   11.82    5.45
   8  -6  -1   10.99    5.18
  -2   8  -1    5.80    3.48
  -6  -2  -1    7.88    6.10
  -2   8  -1    6.17    3.61
   8  -6  -1   -0.05    5.39
  -6  -2  -1    2.23    3.73
  -8   6   1    5.08    4.27
  -8   6   1    1.55    4.17
  -8   6   1   14.06    6.04
   6   2   1   11.51    4.37
   6   2   1    7.48    4.15
  -8   6   1    3.66    3.89
  -6   1  -1   40.79    6.90
   1   5  -1   57.39    5.51
  -6   1  -1   26.26    6.17
  -6   1  -1   52.87    8.79
   1   5  -1   52.08    7.46
   1   5  -1   51.38    6.26
   5  -6  -1   42.16    6.91
  -6   1  -1   39.14    7.66
   5  -6  -1   35.53    6.40
  -5   6   1   45.92    7.31
   6  -1   1   42.86    7.26
  -1  -5   1   54.87    4.81
  -1  -5   1   56.94    7.40
   6  -1   1   51.17    8.86
  -6   4  -1   19.35    5.36
  -6   4  -1   18.10    5.33
   4   2  -1   13.56    4.07
  -6   4  -1   26.59    5.75
   6  -4   1   26.62    6.28
  -2   6   1   20.11    3.47
  -4  -2   1   20.94    5.50
  -4  -2   1   24.18    5.12
   6  -4   1   20.32    5.68
  -2   6   1   19.41    3.31
  -4  -2   1   32.64    5.97
  -6   7  -1   20.49    5.88
  -1  -6  -1   18.06    5.49
   7  -1  -1   43.60    8.94
   7  -1  -1   39.01    7.45
   1   6   1   33.87    4.23
   1   6   1   24.82    5.08
   6  -7   1   22.13    6.26
   6  -7   1   25.52    6.44
  -7   1   1   45.78    8.68
  -7   1   1   43.94    7.28
   1   6   1   29.49    6.33
  -7   1   1   35.25    6.82
  -7   1   1   33.04    8.17
  -4  -6  -1   12.94    8.64
  10  -4  -1   15.07    8.88
  -4  -6  -1    8.76    4.46
  -4  -6  -1   11.60    6.18
  -6  10  -1    9.25    5.39
  -6  10  -1   26.34    7.76
 -10   4   1   10.09    6.55
   4   6   1   10.40    5.20
   6 -10   1   11.90    8.69
   4   6   1    5.67    4.84
 -10   4   1    7.11    6.34
 -10   4   1    7.27    6.27
 -10   4   1    3.95    6.90
  -6  13  -1   -3.17    6.35
  -7  -6  -1    2.66    7.18
   7   6   1   -1.58    5.26
 -13   7   1    1.61    7.48
  -7  -3  -1   10.62    6.79
  -3  10  -1   14.62    5.06
  10  -7  -1    4.94    6.45
  10  -7  -1    4.46    8.23
  -3  10  -1    3.62    5.13
 -10   7   1    6.16    5.48
 -10   7   1    5.57    7.13
   7   3   1   15.49    5.67
  -7   0  -1   35.63    8.57
   7  -7  -1   26.16    7.09
  -7   0  -1   42.35    8.64
   0   7  -1   32.44    4.93
   7  -7  -1   28.84    7.55
   0   7  -1   35.71    5.29
   0   7  -1   44.02    5.93
   0   7  -1   40.55    6.22
  -7   0  -1   37.05    7.47
   0  -7   1   39.77    6.79
   7   0   1   31.86    6.34
   7   0   1   41.82    7.04
  -7   7   1   29.68    6.98
  -7   7   1   25.64    5.05
   7   0   1   28.26    6.70
  -7   3  -1   39.06    6.54
   3   4  -1   49.25    6.57
   3   4  -1   30.93    5.64
   4  -7  -1   29.18    4.65
  -7   3  -1   30.55    7.46
  -7   3  -1   26.75    6.49
   3   4  -1   43.06    6.49
   4  -7  -1   27.68    4.63
  -7   3  -1   28.39    6.71
   7  -3   1   29.76    7.80
  -3  -4   1   38.48    5.93
   7  -3   1   29.88    7.12
  -4   7   1   28.21    5.44
  -3  -4   1   44.69    7.20
  -3  -4   1   46.34    5.64
   6   1  -1   25.27    5.40
   6   1  -1   24.32    4.81
   1  -7  -1   50.29    7.59
  -7   6  -1    7.77    4.07
   6   1  -1   25.02    5.57
  -7   6  -1   20.41    5.68
  -7   6  -1   20.06    6.37
   7  -6   1   20.65    6.57
   7  -6   1   22.09    7.05
  -6  -1   1   28.86    8.03
  -1   7   1   46.19    5.35
  -1   7   1   41.03    4.13
  -6  -1   1   25.58    6.68
  -6  -1   1   21.68    5.86
  -1   7   1   37.57    7.13
   9  -2  -1   12.30    7.59
  -7   9  -1   12.37    6.47
   9  -2  -1   -2.71    7.07
  -2  -7  -1    6.97    5.64
   2   7   1   10.03    5.28
   7  -9   1   14.88    6.59
  -9   2   1    8.87    7.29
  -9   2   1   19.83    7.64
   2   7   1   17.23    5.19
   7  -9   1    9.60    6.04
   2   7   1   13.82    4.76
  -9   2   1   13.11    5.65
  -9   2   1    0.25    6.88
  -7  12  -1   -0.26    4.94
  -5  -7  -1    5.50    7.39
  -7  12  -1   11.54    7.69
 -12   5   1    6.71    6.72
   5   7   1    5.31    5.20
  -8  -7  -1    7.53    9.75
  -7  15  -1    6.78    8.13
   8   7   1    5.96    6.64
  -4  12  -1   11.19    5.93
  -8  -4  -1    9.28    8.03
  -4  12  -1    6.50    6.27
   8   4   1   12.42    6.23
 -12   8   1   -1.27    7.82
 -12   8   1   -1.16    8.29
   9  -8  -1   -0.69    6.04
  -8  -1  -1    0.23    5.18
   9  -8  -1    0.17    7.02
  -8  -1  -1    2.26    6.06
  -1   9  -1   -7.22    3.52
  -8  -1  -1  -10.27    6.13
  -1   9  -1   -5.86    3.90
  -1   9  -1   -0.85    3.96
  -9   8   1   -2.91    5.47
   1  -9   1    2.54    4.73
  -9   8   1   -1.01    4.71
   8   1   1   -1.35    4.02
  -9   8   1    1.19    4.49
  -8   2  -1    7.96    4.86
  -8   2  -1    6.11    4.89
   6  -8  -1    5.82    4.44
   6  -8  -1    4.90    4.35
  -8   2  -1    7.46    6.14
   2   6  -1    1.26    3.35
  -8   2  -1    2.39    5.00
   2   6  -1   11.25    4.20
   2   6  -1    2.61    3.60
  -2  -6   1    5.89    4.59
   8  -2   1    3.48    5.82
   8  -2   1    7.16    4.75
  -6   8   1   -2.77    3.52
  -8   5  -1   -1.28    4.26
  -8   5  -1   -2.18    4.11
  -8   5  -1    1.57    4.43
   5   3  -1   -0.72    3.15
  -8   5  -1    3.12    4.06
   8  -5   1   10.14    6.26
  -5  -3   1    0.36    4.13
  -3   8   1    1.18    3.09
  -3   8   1    0.93    2.58
   8  -5   1    1.47    4.65
  -5  -3   1    0.86    5.35
  -5  -3   1    1.57    4.14
  -8   8  -1   44.44    7.88
  -8   8  -1   49.87    8.03
  -8   8  -1   50.07   10.48
   8   0  -1   77.52   11.80
   8   0  -1   68.52    9.77
   8   0  -1   73.12   10.22
   0  -8  -1   83.95   10.40
  -8   0   1   63.37   11.12
   8  -8   1   36.32    9.53
   8  -8   1   59.71   11.76
  -8   0   1   88.71   13.43
   0   8   1   68.81    8.51
  -8   0   1   81.30   13.59
   0   8   1   74.04    7.99
   0   8   1   85.88    7.31
   0   8   1   63.56    6.73
  -8  11  -1   -1.64    5.46
  -8  11  -1   -2.59    4.55
  -3  -8  -1   -1.77    5.72
 -11   3   1    1.91    6.44
 -11   3   1   -1.21    5.10
   3   8   1   -2.08    4.37
   3   8   1    4.60    4.81
  -8  14  -1    0.61    7.66
  -6  -8  -1    3.23    7.87
   6   8   1    4.06    6.47
 -14   6   1    3.08    7.68
  -5  14  -1   -4.60    6.44
  -9  -5  -1   -5.09    7.72
   9   5   1    3.68    6.48
  -9  -2  -1    1.29    6.63
  -2  11  -1    4.91    4.49
  -2  11  -1    4.17    4.98
  11  -9  -1   14.01    8.46
   9   2   1    0.08    4.89
 -11   9   1   11.59    8.96
  -9   1  -1    9.64    8.13
   1   8  -1   -0.29    3.57
   1   8  -1    7.62    4.54
  -9   1  -1    5.81    6.80
   8  -9  -1    4.78    5.76
   8  -9  -1    5.83    6.96
  -9   1  -1    1.17    5.27
   1   8  -1   -1.98    3.36
   9  -1   1   -1.92    4.01
  -8   9   1    1.75    6.03
  -1  -8   1    4.66    5.03
   5  -9  -1   12.53    4.95
  -9   4  -1   20.77    7.97
  -9   4  -1   17.80    5.91
  -9   4  -1    7.78    6.02
   4   5  -1   25.29    8.83
   5  -9  -1    8.85    4.73
  -9   4  -1   25.48    7.58
   4   5  -1   18.29    5.38
  -4  -5   1   24.96    6.27
  -4  -5   1   14.27    6.65
  -4  -5   1   22.01    7.26
   9  -4   1   28.38    7.84
  -5   9   1   12.00    5.26
   9  -4   1    7.40    7.48
   7   2  -1    5.96    4.57
  -9   7  -1   11.33    5.14
  -9   7  -1   15.73    6.28
  -9   7  -1    6.07    6.12
  -9   7  -1   12.87    6.57
   2  -9  -1   12.85    4.79
  -7  -2   1   15.66    6.77
  -2   9   1    7.56    3.98
  -2   9   1   10.50    3.86
  -7  -2   1    2.92    5.26
   9  -7   1   14.76    6.90
  -7  -2   1   12.08    8.39
  -2   9   1   11.03    3.74
   9  -7   1    6.30    7.18
  10  -1  -1   14.43    6.46
  -9  10  -1    1.36    6.40
  -1  -9  -1   11.39    6.74
   1   9   1    1.30    4.30
 -10   1   1   16.19    9.62
   1   9   1    8.25    5.59
 -10   1   1    9.00    6.77
  -9  13  -1    4.49    7.83
  -4  -9  -1    0.82    7.42
   4   9   1    5.25    5.72
 -13   4   1    0.45    6.64
  -7  -9  -1   -5.73    8.30
  -9  16  -1  -10.45    8.12
   7   9   1   -0.38    6.89
 -16   7   1   -1.54   10.20
  -6  16  -1   -4.05    7.52
 -10  -6  -1   -5.79    9.47
  10   6   1  -10.34    5.98
 -10  -3  -1    6.40    8.47
  -3  13  -1   -3.73    5.96
 -13  10   1    1.55    8.73
  10   3   1    3.85    6.09
 -10   0  -1    9.91    7.23
   0  10  -1    2.68    4.63
 -10  10   1    1.79    6.22
  10   0   1    8.56    5.61
   0 -10   1   -0.99    5.52
 -10   3  -1   11.46    5.63
 -10   3  -1    5.41    7.12
 -10   3  -1    3.45    6.73
   3   7  -1   19.94    6.67
  -3  -7   1   25.05    7.80
  -3  -7   1   19.50    5.57
  -7  10   1   19.10    7.37
 -10   6  -1   13.37    7.02
 -10   6  -1   14.13    5.76
   6   4  -1   12.55    5.57
 -10   6  -1    7.91    6.29
  10  -6   1   17.14    8.34
  -4  10   1    1.97    3.99
  -4  10   1    8.05    4.74
  -6  -4   1    6.21    5.99
  10  -6   1   13.43    8.57
   9   1  -1    4.52    5.61
 -10   9  -1   10.51    7.32
   1 -10  -1   10.36    5.84
  -1  10   1   11.36    4.95
  -1  10   1    8.02    4.34
  -1  10   1    9.01    4.97
  -9  -1   1   10.21    6.76
  10  -9   1    4.16    6.98
 -10  12  -1   -0.36    7.56
  -2 -10  -1    4.73    6.94
  12  -2  -1    6.44    5.96
 -10  12  -1    3.84    6.17
   2  10   1   -0.29    4.25
   2  10   1    1.04    4.06
 -12   2   1   -0.62    6.00
  -5 -10  -1    3.97    8.92
 -10  15  -1    9.18   10.39
 -15   5   1    3.88    8.66
   5  10   1    3.81    6.35
 -11  -4  -1    4.62    9.71
  -4  15  -1   -0.21    6.86
  11   4   1   -6.46    6.11
 -11  -1  -1    1.01    7.60
  -1  12  -1   -4.47    5.07
 -12  11   1    9.37   10.21
  11   1   1    0.27    5.26
 -11   2  -1    6.38    8.42
 -11   2  -1   15.39    7.23
   2   9  -1    3.77    3.75
   2   9  -1   10.99    6.15
  -2  -9   1    1.58    6.19
  -9  11   1    3.64    6.79
 -11   5  -1    8.17    6.77
 -11   5  -1    9.29    7.54
   5   6  -1    3.51    4.58
  -6  11   1    2.04    4.69
  -5  -6   1   18.17    7.84
  -6  11   1    8.20    5.75
   8   3  -1    2.30    5.00
 -11   8  -1    6.34    7.73
  11  -8   1    0.18    7.67
  -3  11   1    7.38    4.96
  -3  11   1    2.69    3.85
  11  -8   1   -1.47    7.89
  -8  -3   1    1.36    5.90
 -11  11  -1    3.40    8.05
  11   0  -1    0.85    5.58
   0  11   1    1.41    4.38
 -11   0   1   -5.97    6.29
  -3 -11  -1    1.39    7.72
  14  -3  -1    1.36    6.52
 -11  14  -1    9.18   10.45
 -14   3   1    0.38    8.24
   3  11   1   -0.56    5.23
   3  11   1    1.97    5.12
  -2  14  -1   10.06    6.95
 -12  -2  -1    0.33    9.61
  12   2   1   -1.83    5.96
 -14  12   1   -0.25   10.45
   1  11  -1    2.66    5.39
 -12   1  -1   -0.78    6.84
 -11  12   1    1.73    8.11
  12  -1   1    1.98    6.05
   4   8  -1   13.43    6.08
 -12   4  -1   -0.55    5.76
 -12   4  -1    1.33    8.01
  -8  12   1    1.24    5.45
  -8  12   1    0.76    6.41
  -4  -8   1   17.86    8.34
   7   5  -1   -3.99    4.68
 -12   7  -1    9.25    8.57
 -12   7  -1   -1.10    5.97
  -5  12   1   -3.68    5.18
  -7  -5   1   -3.94    5.80
  -5  12   1    1.99    4.61
 -12  10  -1   -2.17    8.39
  10   2  -1    5.58    6.23
  -2  12   1   -2.76    5.17
 -10  -2   1    0.41    6.94
 -12  13  -1   14.13   10.31
  13  -1  -1   -2.36    6.54
   1  12   1   -0.16    5.25
 -13   1   1   -0.72    7.18
   0  13  -1    0.88    5.74
 -13   0  -1    6.24    8.92
  13   0   1    5.43    7.70
 -13  13   1    7.60   10.46
 -13   3  -1   -2.26    6.86
   3  10  -1    2.44    5.08
   3  10  -1    0.86    5.11
  -3 -10   1    4.43    7.23
  13  -3   1   -4.53    5.11
 -10  13   1    5.84    7.83
 -13   6  -1    2.41    6.12
   6   7  -1    1.53    5.53
  -6  -7   1    6.61    8.24
  -7  13   1    8.22    7.75
   9   4  -1    5.69    6.09
 -13   9  -1    8.66    9.12
  -9  -4   1    2.23    7.97
  -4  13   1    0.34    5.52
  12   1  -1   -6.05    6.26
 -13  12  -1    3.70    9.66
  -1  13   1   -5.49    5.60
 -12  -1   1    1.58    8.43
  15  -2  -1   15.11    8.79
 -13  15  -1    5.45   11.10
   2  13   1    1.09    6.47
 -15   2   1    7.08    9.68
 -14   2  -1    1.03    8.87
   2  12  -1   -0.85    5.89
  14  -2   1   -2.18    5.82
 -12  14   1   -2.97    8.97
 -14   5  -1   -5.63    7.20
   5   9  -1    0.18    5.81
  -9  14   1    4.95    7.80
  -5  -9   1   -4.23    8.14
   8   6  -1    5.62    6.43
  -6  14   1   -7.62    5.87
  -8  -6   1    4.74    8.92
  11   3  -1    1.14    6.25
 -14  11  -1   -0.58   10.20
  -3  14   1    2.28    6.31
 -11  -3   1    3.27    8.41
 -14  14  -1    8.37   12.73
  14   0  -1    2.34    6.65
 -14   0   1    0.19    9.54
   0  14   1    3.47    6.08
   4  11  -1    7.20    5.85
   4  11  -1   -3.39    5.83
 -15   4  -1   11.08   10.20
 -11  15   1    1.99    9.04
  -4 -11   1   -2.69    8.80
  15  -4   1   -1.34    6.54
   7   8  -1    2.56    5.92
 -15   7  -1    4.70    9.05
  -7  -8   1    5.79    8.76
  -8  15   1   -7.15    6.83
  10   5  -1   -0.04    5.70
  -5  15   1   -0.55    5.96
 -10  -5   1   11.77    9.24
  13   2  -1   -5.74    6.39
 -15  13  -1   -7.12   11.54
 -13  -2   1    0.42   10.53
  -2  15   1    5.40    7.10
   6  10  -1   -1.65    5.93
 -16   6  -1   -1.24    8.94
   6  10  -1    1.75    6.99
 -10  16   1    1.44    8.83
  -6 -10   1   -5.00    8.53
   9   7  -1    1.03    6.52
  -7  16   1    0.90    7.87
  -9  -7   1    2.34    9.98
  -1   1  -2 4132.29  262.83
   1   0  -2 4241.73  262.70
  -1   1  -2 4285.14  262.58
  -1   1  -2 4173.52  262.65
   1   0  -2 4499.01  263.13
  -1   1  -2 4043.45  262.46
   1  -1   2 4000.44  262.57
   1  -1   2 3936.22  262.73
  -1   0   2 4601.14  263.17
  -1   0   2 4286.09  262.37
   1  -1   2 3911.09  262.48
  -2   0  -2  226.13   16.66
   0   2  -2  244.06   16.30
  -2   0  -2  240.05   16.75
   0   2  -2  236.64   16.63
  -2   0  -2  237.62   16.60
   2  -2  -2  241.96   16.48
   0  -2   2  228.98   16.43
   2   0   2  239.97   16.54
  -2   2   2  240.92   16.01
  -2   2   2  292.29   16.80
   0  -2   2  226.50   16.35
   2   0   2  234.39   16.42
  -2   3  -2 1439.55  100.66
  -2   3  -2 1551.92  101.10
   3  -1  -2 1689.70  102.11
   3  -1  -2 1755.00  102.79
  -2   3  -2 1509.44  100.62
  -2   3  -2 1474.58  101.07
  -3   1   2 1749.73  102.31
  -3   1   2 1719.37  101.63
   2  -3   2 1491.30  101.19
   2  -3   2 1487.68  100.93
  -3   1   2 1636.36  102.28
   4  -3  -2  687.21   44.96
  -3  -1  -2  626.43   43.75
  -3  -1  -2  625.83   43.44
   4  -3  -2  681.49   45.14
  -1   4  -2  677.77   43.85
  -1   4  -2  631.16   43.21
  -4   3   2  747.76   44.97
  -4   3   2  663.85   44.73
   1  -4   2  618.46   42.73
   1  -4   2  660.75   43.29
  -4   3   2  706.04   44.75
   2   1  -2 1471.87   96.07
   2   1  -2 1502.49   96.35
  -3   2  -2 1557.32   97.27
  -3   2  -2 1464.11   96.54
  -3   2  -2 1519.36   96.95
   3  -2   2 1596.99   97.36
   3  -2   2 1490.93   97.10
  -2  -1   2 1463.10   96.44
  -2  -1   2 1514.09   97.00
   5  -2  -2  152.51   14.88
  -2  -3  -2  140.76   13.02
  -3   5  -2  181.01   13.30
   5  -2  -2  133.05   13.74
  -3   5  -2  194.58   13.45
  -5   2   2  129.80   13.91
   2   3   2  156.90   12.97
   2   3   2  156.35   11.33
   3  -5   2  170.85   13.15
   3  -5   2  181.24   12.82
   2   3   2  130.59   12.09
  -5   2   2  144.20   13.85
  -5   2   2  145.58   13.33
  -4  -2  -2  614.43   42.56
  -4  -2  -2  642.48   43.25
   6  -4  -2  626.99   45.27
  -4  -2  -2  608.46   44.01
  -2   6  -2  659.32   43.03
   6  -4  -2  643.85   44.93
  -2   6  -2  653.65   42.71
  -6   4   2  691.61   44.91
  -6   4   2  610.57   44.64
   2  -6   2  622.31   41.70
   4   2   2  605.20   42.98
  -6   4   2  638.61   44.30
   4   2   2  588.67   42.80
  -4   1  -2  685.98   43.34
   3  -4  -2  676.16   41.94
  -4   1  -2  704.49   44.57
  -4   1  -2  623.20   43.83
  -1  -3   2  595.99   42.20
   4  -1   2  650.30   43.75
   4  -1   2  725.37   44.65
  -1  -3   2  586.51   41.77
  -3   4   2  659.81   42.65
  -1  -3   2  587.07   41.91
   4   0  -2 9962.99  597.67
   4   0  -2 9659.58  598.18
  -4   4  -2 9404.22  597.13
  -4   4  -2 9999.00  597.56
  -4   4  -2 9215.34  596.92
   4  -4   2 9788.88  597.68
  -4   0   2 9943.12  598.68
  -4   0   2 8827.13  597.59
   4  -4   2 9149.54  597.75
  -4   0   2 9515.04  596.85
  -4   0   2 9304.23  597.79
   7  -3  -2  526.75   41.14
  -4   7  -2  593.17   39.63
   7  -3  -2  543.10   42.27
  -3  -4  -2  595.39   40.36
  -4   7  -2  535.48   39.57
   3   4   2  609.17   39.79
   3   4   2  572.74   38.97
   3   4   2  651.95   38.35
   4  -7   2  585.49   39.13
  -7   3   2  534.34   41.44
  -7   3   2  488.01   39.79
  -7   3   2  551.85   41.38
   4  -7   2  523.20   39.14
  -7   3   2  517.42   39.69
  -5  -3  -2  155.02   16.02
   8  -5  -2  188.17   17.94
   8  -5  -2  183.60   18.60
  -5  -3  -2  153.85   16.47
  -3   8  -2  177.18   15.24
  -3   8  -2  174.40   15.47
  -5  -3  -2  143.61   14.88
   5   3   2  139.19   14.87
   3  -8   2  175.55   14.36
  -8   5   2  198.63   16.32
  -8   5   2  182.42   17.14
  -8   5   2  167.56   17.10
   5   3   2  158.77   15.09
   3  -8   2  168.23   14.38
  -8   5   2  198.46   17.65
   5  -5  -2  211.44   16.98
   5  -5  -2  239.94   17.05
  -5   0  -2  191.23   16.43
   0   5  -2  174.98   15.16
  -5   0  -2  192.41   17.00
  -5   0  -2  181.98   16.64
   0   5  -2  204.00   14.70
   0   5  -2  196.76   14.78
   0   5  -2  211.54   16.10
   0  -5   2  202.23   14.52
  -5   5   2  227.01   16.83
   5   0   2  158.42   15.08
   5   0   2  190.60   15.59
   5   0   2  212.43   16.33
  -5   3  -2  176.58   13.97
  -5   3  -2  183.90   14.91
  -5   3  -2  185.40   14.92
   3   2  -2  164.69   13.20
  -3  -2   2  130.04   13.42
  -3  -2   2  118.17   12.77
  -2   5   2  149.34   11.28
   5  -3   2  193.91   15.24
   5  -3   2  198.69   15.41
  -3  -2   2  141.48   13.04
   6  -1  -2   96.28   11.03
   6  -1  -2  100.72   12.23
  -5   6  -2   94.86    8.76
  -1  -5  -2  100.99    9.98
  -5   6  -2   89.93    8.64
  -5   6  -2   78.35   10.49
  -6   1   2   96.28   11.15
  -6   1   2   86.33   10.78
   5  -6   2   84.31   10.12
   1   5   2  110.07    9.33
   5  -6   2   81.82   10.22
  -6   1   2   84.18    9.81
   1   5   2  125.79   11.01
  -6   1   2  100.14   11.68
  -5   9  -2  315.98   25.45
  -4  -5  -2  318.58   26.69
   9  -4  -2  319.15   29.29
  -5   9  -2  306.91   25.87
   9  -4  -2  283.11   27.16
   5  -9   2  332.31   25.52
  -9   4   2  330.43   26.28
  -9   4   2  325.08   26.77
   4   5   2  328.04   24.94
  -9   4   2  300.07   27.68
   4   5   2  272.19   24.55
  -9   4   2  343.74   28.41
   5  -9   2  291.08   25.42
   4   5   2  337.73   24.89
  -6  -4  -2   42.55    9.58
  10  -6  -2   12.42    8.26
  -4  10  -2   35.28    8.47
  -6  -4  -2   32.50    7.99
  -4  10  -2   40.29    7.50
  10  -6  -2   40.20    9.68
 -10   6   2   45.06    9.93
 -10   6   2   39.46    8.69
   6   4   2   29.48    7.29
 -10   6   2   31.18    9.25
   6   4   2   36.89    7.67
   4 -10   2   44.09    7.80
  -6  -1  -2   32.04    7.59
  -1   7  -2   54.47    6.83
   7  -6  -2   28.46    7.03
   7  -6  -2   31.20    7.75
  -6  -1  -2   25.60    6.66
  -6  -1  -2   30.40    6.85
  -1   7  -2   51.21    6.81
   6   1   2   34.93    6.47
   6   1   2   25.36    5.71
  -7   6   2   41.74    8.16
  -7   6   2   41.09    6.86
   4  -6  -2  620.53   42.44
   4  -6  -2  604.60   42.49
   2   4  -2  678.04   44.64
  -6   2  -2  688.90   46.15
   2   4  -2  649.20   43.27
  -6   2  -2  696.71   46.45
  -6   2  -2  685.29   44.87
  -6   2  -2  633.73   43.84
   6  -2   2  634.42   43.16
  -2  -4   2  591.17   42.88
  -2  -4   2  626.41   42.72
  -2  -4   2  687.74   44.47
  -2  -4   2  605.42   42.74
   6  -2   2  634.29   45.46
  -4   6   2  631.35   43.61
   6  -2   2  686.01   46.50
  -6   5  -2   92.04   10.65
   5   1  -2  127.20   10.56
  -6   5  -2   89.15   11.43
   5   1  -2  127.91   11.26
  -6   5  -2   84.56   10.28
   5   1  -2  127.57   10.32
  -5  -1   2  136.24   12.36
  -5  -1   2  109.62   11.24
   6  -5   2   87.54   11.33
   6  -5   2  103.60   11.60
  -1   6   2   78.62    7.67
   8  -2  -2   56.75    9.84
  -6   8  -2   53.92    9.42
  -6   8  -2   52.18    8.62
   8  -2  -2   64.32   12.06
  -2  -6  -2   63.06    9.36
  -8   2   2   52.22   10.22
   2   6   2   55.87    9.03
   6  -8   2   47.81    9.06
   2   6   2   60.53    8.09
  -8   2   2   59.77    9.30
   2   6   2   64.31    7.15
   6  -8   2   58.52    9.24
  -8   2   2   62.13    9.72
  -8   2   2   49.93   10.60
  -5  -6  -2  108.54   15.23
  11  -5  -2  125.00   18.94
  -6  11  -2   93.39   13.45
  -6  11  -2   95.73   14.13
   5   6   2   95.37   12.75
 -11   5   2  122.16   15.93
   5   6   2   77.84   12.31
 -11   5   2   83.97   14.32
 -11   5   2   89.57   15.67
  -7  -5  -2  101.81   16.34
  12  -7  -2   75.70   17.23
  -5  12  -2   85.84   12.89
  -5  12  -2   93.11   14.38
   7   5   2   69.19   12.31
 -12   7   2   89.19   16.23
 -12   7   2  103.19   14.66
   9  -7  -2  137.97   16.58
  -2   9  -2   81.62   11.24
  -7  -2  -2   88.07   14.67
   9  -7  -2  132.24   14.85
  -7  -2  -2   94.36   13.94
  -2   9  -2   91.46   11.78
  -7  -2  -2   99.67   13.83
   7   2   2  101.22   12.78
  -9   7   2  118.61   12.84
  -9   7   2  141.33   16.11
   2  -9   2   83.44    9.66
  -9   7   2  120.36   11.88
   7   2   2  100.72   12.44
   1   6  -2   25.76    6.44
   6  -7  -2   43.68    7.83
  -7   1  -2   52.75    8.05
   1   6  -2   24.02    4.88
   6  -7  -2   40.23    7.15
  -7   1  -2   46.89    9.25
  -7   1  -2   50.27    8.67
  -7   1  -2   55.37    8.26
   1   6  -2   31.17    5.31
   7  -1   2   63.05    8.79
   7  -1   2   68.39   10.43
  -6   7   2   42.03    7.53
   7  -1   2   56.14    7.55
  -1  -6   2   26.70    6.31
  -7   4  -2  622.87   43.02
  -7   4  -2  554.50   43.27
   4   3  -2  631.82   42.04
  -7   4  -2  593.30   41.04
  -7   4  -2  609.51   43.79
  -4  -3   2  596.77   43.27
   7  -4   2  590.21   43.84
   7  -4   2  620.83   44.38
  -3   7   2  530.88   39.88
  -4  -3   2  623.84   42.30
  -4  -3   2  614.32   42.86
  -7   7  -2   91.86   10.76
  -7   7  -2   94.39   10.93
   0  -7  -2  124.18   11.34
   7   0  -2  119.49   13.50
  -7   7  -2   78.34   12.28
   7   0  -2   99.54   11.63
   7   0  -2  119.26   11.53
  -7   0   2  109.66   11.94
  -7   0   2  119.50   13.12
  -7   0   2  135.54   15.14
  -7   0   2  130.25   13.95
   7  -7   2   97.04   12.62
   7  -7   2   93.12   13.37
   0   7   2  111.83    9.40
   0   7   2  122.96   10.47
   0   7   2  128.46   12.24
  -3  -7  -2   14.63    7.38
  -7  10  -2   17.00    7.55
  10  -3  -2   11.12    9.42
  -7  10  -2   22.73    7.17
   3   7   2   14.04    6.16
 -10   3   2   12.77    7.69
   3   7   2   17.32    5.85
 -10   3   2   11.54    8.18
   3   7   2   14.69    6.54
 -10   3   2   13.28    7.14
  -6  -7  -2    7.39    7.87
  -7  13  -2    2.89    7.32
 -13   6   2    2.26    7.71
   6   7   2    5.76    5.95
  -6  14  -2   -1.48    6.73
  -8  -6  -2   25.38   10.99
   8   6   2    7.83    6.57
 -14   8   2   -6.71    9.71
  -8  -3  -2    5.21    6.80
  -3  11  -2   34.02    8.31
  -3  11  -2   20.41    6.48
  11  -8  -2   10.99    7.70
 -11   8   2   10.33    7.83
 -11   8   2   10.56    6.34
   8   3   2   26.24    7.18
   0   8  -2 1555.21   99.25
  -8   0  -2 1453.17  102.66
  -8   0  -2 1596.02  104.41
  -8   0  -2 1498.09  103.93
   8  -8  -2 1486.32  103.88
   0   8  -2 1547.60   99.97
   8  -8  -2 1559.68  103.75
   0  -8   2 1653.14  100.77
   8   0   2 1561.75   99.35
  -8   8   2 1460.46  102.55
   8   0   2 1360.39  100.91
   8   0   2 1560.49   99.90
   3   5  -2  142.97   14.34
   5  -8  -2  177.44   13.91
  -8   3  -2  186.36   17.58
   3   5  -2  147.35   14.68
   5  -8  -2  149.43   13.47
  -8   3  -2  158.85   15.73
  -8   3  -2  163.13   17.27
  -8   3  -2  152.39   14.49
  -5   8   2  169.38   14.92
  -3  -5   2  140.55   13.75
  -3  -5   2  130.81   14.44
  -3  -5   2  149.47   15.15
   8  -3   2  151.26   16.28
   8  -3   2  202.06   18.85
  -8   6  -2   56.06    9.80
  -8   6  -2   62.51    9.90
  -8   6  -2   52.14    9.22
   6   2  -2   63.59    8.79
  -6  -2   2   64.89   11.82
  -2   8   2   50.44    6.77
   8  -6   2   55.13   11.00
  -2   8   2   51.29    6.08
  -6  -2   2   58.40    9.78
  -2   8   2   60.92    6.67
  -6  -2   2   67.91   10.46
   8  -6   2   69.09   11.55
  -8   9  -2  195.76   19.00
  -1  -8  -2  221.75   18.46
  -8   9  -2  176.87   19.42
   9  -1  -2  151.14   16.72
   1   8   2  195.59   18.29
  -9   1   2  153.53   19.98
   1   8   2  198.16   14.63
   8  -9   2  187.09   19.87
   8  -9   2  170.14   19.23
   1   8   2  247.05   17.34
  -9   1   2  164.17   19.56
  -9   1   2  156.53   18.09
  -4  -8  -2  538.99   39.67
  -8  12  -2  464.90   38.07
  -8  12  -2  456.23   39.48
   4   8   2  502.68   36.50
   4   8   2  379.99   35.66
 -12   4   2  460.93   38.35
  -8  15  -2   -1.36    8.00
  -7  -8  -2   -5.38    7.28
   7   8   2   -3.71    5.83
 -15   7   2    0.71    8.59
  -7  16  -2   18.70   10.26
  -9  -7  -2   35.57   13.26
   9   7   2    7.81    8.10
  -4  13  -2   66.84   12.43
  -9  -4  -2   91.44   15.91
 -13   9   2   38.87   13.94
   9   4   2   80.91   13.17
  -1  10  -2   17.78    6.35
  -9  -1  -2   15.67    7.65
  -1  10  -2   20.03    6.11
   9   1   2   22.29    7.26
 -10   9   2   23.29    8.56
  -9   2  -2  113.81   15.75
   7  -9  -2  109.89   13.12
  -9   2  -2   69.42   12.07
   7  -9  -2  134.52   13.94
   2   7  -2  101.31   12.95
  -9   2  -2  107.26   15.24
   9  -2   2   88.06   15.90
  -7   9   2  147.51   14.53
  -2  -7   2   99.34   10.92
  -2  -7   2  114.32   10.85
  -2  -7   2   91.26   12.79
  -9   5  -2  333.72   25.73
  -9   5  -2  296.36   27.81
  -9   5  -2  333.85   27.87
   5   4  -2  323.44   25.96
  -9   5  -2  332.58   28.50
   9  -5   2  297.26   27.99
   9  -5   2  327.50   29.39
  -5  -4   2  381.93   27.81
  -4   9   2  305.98   24.90
  -4   9   2  321.19   24.75
  -5  -4   2  317.59   27.31
  -5  -4   2  345.86   29.26
   8   1  -2  200.18   17.66
   1  -9  -2  157.49   15.75
   8   1  -2  194.18   16.19
   8   1  -2  180.56   15.36
  -9   8  -2  207.15   19.99
  -8  -1   2  207.31   22.04
  -1   9   2  156.56   14.29
   9  -8   2  175.85   20.51
  -1   9   2  153.85   14.70
  -8  -1   2  186.95   19.71
  -1   9   2  164.56   14.22
  -8  -1   2  202.49   19.47
   9  -8   2  199.49   20.46
  -2  -9  -2   75.19   12.39
  -9  11  -2   74.27   13.88
  -9  11  -2   78.04   12.77
  11  -2  -2   39.42    8.98
   2   9   2   68.90   10.62
 -11   2   2   46.42   11.24
   2   9   2   49.07   10.42
  -9  14  -2    8.40    9.24
  -5  -9  -2    0.68    7.24
 -14   5   2  -10.20    7.10
   5   9   2   -3.34    5.31
 -10  -5  -2   23.98   11.28
  -5  15  -2   20.91    9.71
  10   5   2   15.39    8.65
  -2  12  -2    7.13    6.27
 -10  -2  -2    8.78    7.84
  10   2   2   -5.22    5.18
 -12  10   2    3.38    8.62
   1   9  -2   16.68    5.30
 -10   1  -2   27.87    9.77
 -10   1  -2   17.43    7.87
  -9  10   2   16.37    8.08
  10  -1   2   17.58    6.39
  -1  -9   2   15.69    5.31
  -1  -9   2    9.97    6.67
 -10   4  -2   39.91   10.73
 -10   4  -2   35.35    9.98
 -10   4  -2   28.09    7.80
 -10   4  -2   38.82   10.17
   6 -10  -2   37.75    7.73
   4   6  -2   40.27    8.40
  10  -4   2   35.83   11.15
  -4  -6   2   40.57    8.41
  -6  10   2   25.70    7.65
  -4  -6   2   49.25   10.22
   7   3  -2   14.68    5.90
 -10   7  -2   14.87    8.01
 -10   7  -2   13.65    5.76
  -3  10   2   13.48    5.28
  10  -7   2   14.10    7.73
  10  -7   2    6.36    8.27
  -7  -3   2    7.63    6.43
  -3  10   2   15.28    4.54
  10   0  -2   33.20    9.01
 -10  10  -2   56.09   12.24
   0 -10  -2   47.38    9.78
 -10  10  -2   51.93   10.48
   0  10   2   60.14    8.90
   0  10   2   37.92    6.54
 -10   0   2   38.16   10.10
  -3 -10  -2   -1.62    6.75
 -10  13  -2   11.69    9.49
  13  -3  -2    7.46    6.46
 -13   3   2    2.44    7.12
   3  10   2   -1.51    5.70
  -6 -10  -2    8.45   10.10
 -10  16  -2    6.32   11.00
   6  10   2    1.01    6.13
 -16   6   2  -10.04   10.15
 -11  -3  -2    5.86    8.77
  -3  14  -2    4.72    7.54
  11   3   2    6.60    7.11
 -14  11   2    4.52   10.57
   0  11  -2    0.03    4.93
 -11   0  -2   -2.20    6.65
  11   0   2    6.68    6.64
 -11  11   2   -9.87    7.12
 -11   3  -2   24.48    9.73
 -11   3  -2   27.50   10.19
 -11   3  -2   25.37    8.18
   3   8  -2   10.61    5.84
  -3  -8   2   14.54    7.01
  -8  11   2   13.03    7.08
 -11   6  -2   77.56   12.31
   5 -11  -2   86.02    9.64
 -11   6  -2   72.09   13.74
 -11   6  -2  103.65   20.36
   6   5  -2   76.39   11.84
  -5  11   2   77.58   10.70
  -6  -5   2   79.65   13.55
  11  -6   2   66.17   14.51
  -5  11   2   94.42   12.34
 -11   9  -2   81.94   14.66
   9   2  -2   58.19   10.86
  -2  11   2   44.04    7.50
  -9  -2   2   58.92   12.02
  -2  11   2   64.39    8.97
  11  -9   2   55.41   12.87
 -11  12  -2    8.79    7.79
  -1 -11  -2   16.62    8.22
 -11  12  -2   10.55    8.92
  12  -1  -2   14.94    7.36
   1  11   2   20.65    6.13
   1  11   2   19.37    7.24
 -12   1   2   10.85    8.34
 -11  15  -2    2.26   10.47
  15  -4  -2   -3.38    6.28
  -4 -11  -2    3.41    8.22
   4  11   2    2.86    6.04
 -15   4   2    4.80    9.61
 -12  -1  -2   26.02   11.33
  -1  13  -2   24.42    8.95
 -13  12   2   32.27   13.45
  12   1   2   41.80   10.68
   2  10  -2    2.93    4.62
 -12   2  -2    6.05    6.76
  12  -2   2   14.31    6.97
 -10  12   2    6.41    8.17
  -2 -10   2    7.44    7.82
 -12   5  -2   96.59   21.54
   5   7  -2   70.73   12.13
 -12   5  -2  106.17   14.65
  -7  12   2   94.10   13.93
  -5  -7   2   75.49   14.00
  -7  12   2   83.93   12.49
 -12   8  -2  439.29   38.84
   8   4  -2  388.17   35.57
  -4  12   2  467.89   34.81
  -4  12   2  438.46   33.83
  12  -8   2  490.97   42.43
  -8  -4   2  465.66   39.40
 -12  11  -2   23.13   10.55
  11   1  -2   23.30    7.97
 -12  11  -2   20.59    9.56
  -1  12   2    6.68    5.49
 -11  -1   2   17.40    9.53
  14  -2  -2    0.58    6.42
 -12  14  -2   -8.95    8.33
   2  12   2    0.52    5.18
 -14   2   2    8.77    8.31
  -2  15  -2    3.60    7.70
 -13  -2  -2   -2.46    9.69
 -15  13   2    2.70   12.26
  13   2   2    2.08    7.11
 -13   1  -2   38.82   11.82
   1  12  -2   38.31    9.99
  13  -1   2   29.27    9.49
 -12  13   2   36.84   13.19
 -13   4  -2   65.25   13.09
   4   9  -2   54.23   11.18
   4   9  -2   90.25   11.87
  -9  13   2   28.92   11.11
  -4  -9   2   97.35   15.96
   7   6  -2    9.53    6.23
 -13   7  -2    9.48    8.17
  -6  13   2    9.02    7.17
  -7  -6   2    5.93    8.33
  10   3  -2    1.65    5.06
 -13  10  -2   -3.66    9.16
  -3  13   2    6.03    5.60
 -10  -3   2   -4.76    7.06
  13   0  -2   76.83   13.68
 -13  13  -2   56.69   16.03
   0  13   2   56.66   10.14
 -13   0   2   64.86   15.59
 -14   0  -2    4.26   11.30
   0  14  -2    4.35    6.93
 -14  14   2    7.38   12.28
  14   0   2   -0.03    7.67
 -14   3  -2    4.05    8.39
   3  11  -2    5.63    5.86
  14  -3   2    3.43    6.80
  -3 -11   2   -3.49    8.24
 -11  14   2   -7.63    7.98
 -14   6  -2    4.11    8.33
   6   8  -2    1.37    5.26
  -8  14   2    5.12    7.66
  -6  -8   2    2.34    8.13
   9   5  -2   -1.54    5.46
  -9  -5   2   -1.96    8.19
  -5  14   2    0.01    6.31
  12   2  -2    3.16    6.98
 -14  12  -2    8.91   11.63
 -12  -2   2   -6.72    8.33
  -2  14   2   -3.97    4.66
   2  13  -2    6.71    7.58
 -15   2  -2    2.87   10.15
  15  -2   2    3.29    7.32
 -13  15   2    4.50   11.90
   5  10  -2   25.50    9.18
   5  10  -2   18.53    7.99
 -15   5  -2   26.92   11.82
 -10  15   2   24.53   11.15
  -5 -10   2   25.12   11.24
   8   7  -2    4.83    6.40
  -7  15   2  -10.67    6.62
  -8  -7   2   -5.17    7.51
  11   4  -2   -4.77    6.12
  -4  15   2    4.65    6.71
 -11  -4   2   -0.52    9.31
   7   9  -2   13.88    8.43
  -7  -9   2   16.61   11.54
  -9  16   2    7.67    9.66
  10   6  -2    1.36    6.31
  -6  16   2   -3.31    6.86
 -10  -6   2    1.68    9.88
   0   0  -3  179.38   12.29
   0   0   3  159.12   12.07
   0   0   3  175.83   11.77
  -1   2  -3   30.34    3.87
  -1   2  -3   31.65    3.56
  -1  -1  -3   22.67    2.42
  -1   2  -3   28.97    3.62
  -1   2  -3   31.73    3.44
   2  -1  -3   33.95    4.54
   1   1   3   22.16    2.64
   1  -2   3   32.37    3.50
  -2   1   3   31.95    3.80
   1  -2   3   28.66    3.42
   1   1   3   22.03    2.27
  -2   1   3   35.88    4.15
   1   1   3   19.53    2.49
   1  -2   3   31.73    3.88
   1   1  -3   24.16    3.92
  -2   1  -3   32.67    4.06
  -2   1  -3   29.00    4.27
  -2   1  -3   32.50    4.02
   1   1  -3   23.32    3.32
  -2   1  -3   34.20    3.83
   1   1  -3   23.78    3.66
  -1   2   3   28.76    2.61
   2  -1   3   30.39    4.24
  -1  -1   3   38.01    4.64
   2  -1   3   27.20    4.26
   2  -1   3   33.93    3.81
  -1   2   3   35.60    2.62
  -1  -1   3   30.92    4.39
   4  -2  -3   54.42    6.83
   4  -2  -3   64.91    7.83
  -2  -2  -3   52.09    4.63
  -2   4  -3   52.47    6.06
  -2   4  -3   56.74    5.21
  -2   4  -3   51.56    6.21
  -4   2   3   68.50    7.37
   2  -4   3   69.59    6.73
  -4   2   3   61.12    7.32
   2  -4   3   52.35    5.87
  -4   2   3   57.74    7.31
   2  -4   3   54.80    5.89
   2   2   3   59.10    5.04
  -3   0  -3   11.99    3.40
  -3   0  -3    9.70    2.63
  -3   0  -3   12.75    3.18
   3  -3  -3   14.90    3.29
   0   3  -3   13.33    2.82
   0   3  -3   11.96    2.88
   0  -3   3   10.05    2.59
   0  -3   3   13.19    2.98
   3   0   3   13.94    3.18
  -3   3   3   16.51    2.41
   3   0   3    8.67    2.61
  -3   3   3   13.88    2.31
  -3   3   3   16.62    3.36
  -3   3  -3   67.95    7.40
  -3   3  -3   68.90    7.63
  -3   3  -3   81.27    7.70
   3   0  -3   78.79    7.88
   3   0  -3   91.68    9.04
  -3   3  -3   70.88    7.48
   3  -3   3   71.09    7.75
  -3   0   3   82.18    8.15
  -3   0   3   95.15    7.85
  -3   0   3   90.59    9.19
   3  -3   3   69.22    7.91
  -3   6  -3    0.37    2.45
   6  -3  -3   -1.15    4.22
  -3  -3  -3    1.50    1.54
  -3   6  -3    1.48    3.04
  -3  -3  -3    1.72    3.87
   6  -3  -3    1.71    3.61
  -6   3   3    2.42    4.29
  -6   3   3    1.45    3.61
  -6   3   3    4.14    3.87
   3   3   3    2.86    2.78
  -6   3   3    3.40    4.01
   3  -6   3    7.53    3.62
   3   3   3    3.09    2.81
   3  -6   3    4.62    3.10
   3   3   3    2.84    2.85
  -4  -1  -3   78.84    8.81
  -4  -1  -3   81.72    9.25
   5  -4  -3   92.68   10.10
  -1   5  -3  104.58    9.39
  -4  -1  -3   94.25    9.97
  -1   5  -3  100.02    8.65
   5  -4  -3   92.75    9.82
   4   1   3   81.24    8.64
  -5   4   3   95.80    9.93
   4   1   3   76.10    8.49
   1  -5   3   97.53    8.56
   1  -5   3   90.74    8.28
  -5   4   3   98.52    9.59
   2   2  -3   62.98    5.65
   2   2  -3   61.34    5.95
  -4   2  -3   53.39    6.83
  -4   2  -3   58.01    7.09
  -4   2  -3   54.03    7.08
  -2   4   3   51.39    4.84
  -2  -2   3   54.49    6.89
  -2  -2   3   55.87    6.37
   4  -2   3   61.61    7.41
   4  -2   3   65.03    7.35
  -4   5  -3   27.76    5.49
  -4   5  -3   23.31    5.26
   5  -1  -3   22.24    5.67
  -4   5  -3   25.61    4.80
  -4   5  -3   19.47    4.51
   5  -1  -3   21.59    6.58
  -5   1   3   23.88    6.42
  -5   1   3   17.41    4.74
  -5   1   3   26.87    6.26
   4  -5   3   20.22    5.40
  -5   1   3   20.04    5.49
   1   4   3   20.49    4.83
   1   4   3   25.97    4.57
   4  -5   3   23.17    5.33
   8  -4  -3    6.74    6.48
  -4  -4  -3    3.28    1.94
  -4  -4  -3    5.20    4.48
   8  -4  -3    3.78    4.96
  -4   8  -3    7.87    4.00
  -4   8  -3    8.00    4.76
   4  -8   3    9.35    4.44
   4   4   3    5.29    3.98
  -8   4   3    5.35    4.94
   4  -8   3    4.38    3.87
   4   4   3    5.40    3.95
  -8   4   3    0.07    4.25
  -8   4   3   10.22    5.22
  -8   4   3    5.28    5.48
   4   4   3    8.71    4.26
  -5  -2  -3   14.14    5.55
  -5  -2  -3   18.25    4.94
  -2   7  -3   24.29    5.06
  -5  -2  -3   28.58    6.18
  -2   7  -3   16.06    4.39
   7  -5  -3    9.74    5.84
   7  -5  -3   10.41    4.89
  -7   5   3    8.46    4.73
   2  -7   3   16.89    4.27
   5   2   3   18.77    4.83
  -7   5   3   12.87    4.89
  -7   5   3   13.19    4.75
   5   2   3   26.47    8.47
  -7   5   3   10.27    4.49
   5   2   3   26.64    5.41
  -5   1  -3  101.68   10.34
   1   4  -3   97.11    9.51
  -5   1  -3  100.21    9.41
   4  -5  -3   83.94    8.38
   1   4  -3   83.16    8.11
  -5   1  -3  107.63    9.82
   4  -5  -3   89.26    8.47
  -5   1  -3  110.23   10.98
  -1  -4   3   79.55    8.54
  -4   5   3  101.20    9.22
  -1  -4   3   74.77    8.09
  -1  -4   3   74.12    8.03
   5  -1   3  108.81    9.02
   5  -1   3  117.60   10.52
  -5   4  -3   26.73    6.04
  -5   4  -3   25.39    5.92
  -5   4  -3   26.56    5.68
   4   1  -3   24.60    5.16
   4   1  -3   19.19    5.32
   4   1  -3   25.65    4.84
  -4  -1   3   21.47    5.54
  -4  -1   3   35.02    7.45
  -4  -1   3   31.02    6.05
   5  -4   3   15.48    5.56
   5  -4   3   28.91    6.50
   7  -2  -3    9.59    6.07
  -5   7  -3   15.94    5.43
   7  -2  -3    0.90    3.82
  -5   7  -3   14.07    4.52
  -2  -5  -3    7.74    4.44
   5  -7   3   10.06    4.39
   2   5   3   11.16    2.76
  -7   2   3    5.58    4.50
   2   5   3    8.84    3.75
  -7   2   3    8.86    5.67
   5  -7   3   11.92    4.93
   2   5   3    9.03    3.98
  -7   2   3    2.82    4.66
  -7   2   3    5.97    4.37
  10  -5  -3   10.10    8.78
  -5  10  -3    4.95    4.50
  10  -5  -3    8.50    6.90
  -5  -5  -3    6.75    4.73
  -5  10  -3    3.94    5.42
  -5  -5  -3    8.52    6.41
 -10   5   3   12.06    6.91
   5   5   3    9.55    5.44
 -10   5   3   11.25    6.74
   5   5   3    5.38    4.46
 -10   5   3    9.57    6.59
  -3   9  -3    4.22    4.65
  -3   9  -3    0.93    3.67
  -6  -3  -3    6.34    5.67
  -6  -3  -3    2.59    3.43
  -6  -3  -3    7.45    6.36
  -6  -3  -3    7.36    5.41
   9  -6  -3    6.37    5.94
   9  -6  -3    8.67    7.49
   3  -9   3    1.60    4.13
  -9   6   3    1.95    4.83
   6   3   3    4.20    4.28
   3  -9   3    0.07    3.85
  -9   6   3    2.28    4.85
  -9   6   3    9.90    6.33
   6   3   3    2.17    4.12
  -9   6   3    4.80    4.97
   0   6  -3  106.99    9.31
   6  -6  -3   93.03   11.20
  -6   0  -3  103.03   11.48
   0   6  -3   82.94    9.60
  -6   0  -3   99.14   11.57
   0   6  -3   95.25    9.54
   6  -6  -3  103.78   11.11
  -6   0  -3   99.14   10.94
   6   0   3   98.57    9.86
   0  -6   3  103.42    8.95
   6   0   3  112.30    9.94
   0  -6   3   92.52    8.98
   6   0   3   96.82    9.87
  -6   6   3  103.21   11.17
  -6   3  -3   -1.84    3.80
   3   3  -3    3.01    3.05
  -6   3  -3    9.03    4.16
  -6   3  -3    4.11    4.05
   6  -3   3    5.47    4.80
  -3  -3   3    4.23    3.97
  -3  -3   3    2.73    3.65
   6  -3   3    3.56    4.07
  -3   6   3    8.42    2.84
   6  -3   3    5.99    3.61
  -3  -3   3    4.00    3.38
   6   0  -3   80.93   11.12
  -6   6  -3   50.03    8.38
   6   0  -3   53.53    7.74
   6   0  -3   74.49    9.03
  -6   6  -3   62.03    8.70
  -6   6  -3   59.59    9.51
  -6   0   3   65.24    8.89
  -6   0   3   65.63    9.52
   6  -6   3   71.87   10.24
   0   6   3   75.82    9.31
   0   6   3   62.74    7.10
  -6   0   3   61.05    9.60
  -6   0   3   68.50   11.13
   6  -6   3   80.67   11.02
   9  -3  -3   16.39    8.48
  -6   9  -3   13.25    6.33
   9  -3  -3   11.09    6.65
  -3  -6  -3   23.81    6.85
  -6   9  -3    9.32    4.69
   3   6   3   17.27    5.43
   6  -9   3   12.94    6.04
   3   6   3    8.16    4.70
   6  -9   3   12.85    6.17
   3   6   3   15.95    5.02
  -9   3   3    1.50    5.61
  -9   3   3   -1.69    4.22
  -9   3   3    8.19    6.87
  -9   3   3   13.44    6.20
  -6  -6  -3    2.21    6.53
  -6  12  -3   10.48    6.06
  -6  12  -3   18.38    7.99
 -12   6   3    5.92   11.84
 -12   6   3   15.09    8.31
   6   6   3    1.34    5.01
   6   6   3    5.77    5.70
  -4  11  -3    6.76    5.28
  11  -7  -3    8.34    7.27
  -7  -4  -3    6.49    6.09
  11  -7  -3   10.92    9.16
  -4  11  -3    6.56    5.65
   7   4   3    5.80    5.24
   7   4   3    4.58    5.65
 -11   7   3   16.08    9.30
 -11   7   3    5.19    5.69
  -1   8  -3    5.59    4.01
   8  -7  -3    2.18    6.53
  -7  -1  -3   -2.62    4.84
  -7  -1  -3    1.10    5.21
  -1   8  -3    5.60    3.97
   8  -7  -3    5.40    5.69
  -7  -1  -3    3.70    6.05
  -1   8  -3    4.83    3.86
   1  -8   3    3.77    3.93
   7   1   3   -1.20    3.60
  -8   7   3    5.86    4.29
   1  -8   3    4.16    4.31
   7   1   3    6.92    4.45
  -8   7   3    5.04    5.98
  -8   7   3    3.70    4.26
  -7   2  -3   19.17    6.49
  -7   2  -3   23.32    5.88
  -7   2  -3   27.61    5.69
  -7   2  -3   13.55    6.04
   5  -7  -3   12.90    4.12
   2   5  -3   25.56    5.81
   5  -7  -3    9.95    3.85
  -5   7   3   15.76    4.85
  -2  -5   3   29.60    5.72
  -2  -5   3   20.55    4.53
   7  -2   3   17.04    6.65
   7  -2   3   23.56    4.83
  -2  -5   3   27.10    5.80
   7  -2   3   17.89    5.58
  -7   5  -3   13.69    5.47
   5   2  -3    5.30    3.35
   5   2  -3    7.38    3.85
  -7   5  -3   13.38    5.00
  -7   5  -3    9.31    4.86
   5   2  -3    6.99    3.00
  -5  -2   3    3.48    4.35
  -5  -2   3   14.47    6.55
  -5  -2   3   19.48    5.83
   7  -5   3   10.33    5.66
   7  -5   3   14.66    5.54
   8  -1  -3   20.68    8.31
  -7   8  -3   20.77    6.38
  -7   8  -3   21.60    7.58
  -1  -7  -3   21.07    6.45
   8  -1  -3   24.17    5.84
  -7   8  -3   19.65    5.05
   8  -1  -3   23.38    7.18
  -7   8  -3   19.61    5.22
   7  -8   3   27.08    8.60
   1   7   3   17.39    5.05
  -8   1   3   23.14    7.75
  -8   1   3   16.34    6.54
   1   7   3   32.87    7.01
  -8   1   3   24.35    9.05
  -8   1   3   21.39    6.85
   7  -8   3   27.80    8.05
  -7  11  -3   11.69    6.49
  -7  11  -3   15.46    8.06
  -4  -7  -3   21.94    8.36
   4   7   3   21.17    6.77
 -11   4   3   22.66    7.57
   4   7   3   21.01    6.88
 -11   4   3   15.78    8.75
  -7  -7  -3   16.16    9.85
  -7  14  -3    1.44    8.07
 -14   7   3    5.12    8.80
   7   7   3    3.27    6.31
  -8  -5  -3   12.35    9.21
  -5  13  -3   17.21    8.46
 -13   8   3   20.18   10.38
   8   5   3   -2.96    5.61
 -13   8   3   22.47    9.05
  -2  10  -3    0.81    4.62
  10  -8  -3    3.33    6.37
  -2  10  -3    0.92    3.74
  -8  -2  -3   -2.55    4.92
   8   2   3    3.54    4.75
 -10   8   3    2.46    4.82
 -10   8   3   10.43    7.53
   8   2   3    2.04    4.42
   7  -8  -3    1.67    5.38
   7  -8  -3    4.68    4.72
   1   7  -3    2.47    3.78
   1   7  -3    3.55    3.63
  -8   1  -3    6.18    6.13
  -8   1  -3    0.19    4.76
  -8   1  -3   -1.68    5.77
   1   7  -3    6.04    4.05
  -1  -7   3    5.55    4.61
  -1  -7   3    4.18    4.01
   8  -1   3    3.41    4.45
  -7   8   3    1.77    5.07
  -1  -7   3    1.76    4.48
   8  -1   3    4.88    5.88
   8  -1   3    4.65    4.80
  -8   4  -3    8.24    5.33
  -8   4  -3    5.91    4.70
   4   4  -3    8.77    3.88
  -8   4  -3    1.37    3.70
  -8   4  -3    4.20    5.07
  -4  -4   3    0.59    4.05
  -4  -4   3    2.52    4.21
   8  -4   3    6.07    5.12
  -4  -4   3    4.29    5.78
   8  -4   3   -1.47    5.68
  -4   8   3    8.53    3.94
   7   1  -3   16.36    6.27
  -8   7  -3   26.74    7.90
  -8   7  -3   20.24    6.52
   7   1  -3   24.82    6.05
   7   1  -3   21.61    5.88
  -8   7  -3   15.44    6.24
  -7  -1   3   14.59    7.30
   8  -7   3   16.87    7.52
  -7  -1   3   22.75    7.53
  -1   8   3   19.87    3.80
  -7  -1   3   24.27    9.65
  -1   8   3   21.39    5.27
   8  -7   3   17.84    7.95
  10  -2  -3    6.87    5.10
  -2  -8  -3   11.79    6.12
  -8  10  -3   13.77    8.10
  -8  10  -3   -0.25    5.59
 -10   2   3    4.04    7.49
   2   8   3   17.63    5.95
   2   8   3   19.02    5.49
   2   8   3   21.12    6.36
 -10   2   3   11.76    7.32
 -10   2   3   12.87    8.11
  -5  -8  -3   28.76    9.86
  -8  13  -3   31.74   10.85
   5   8   3   26.06    8.26
 -13   5   3   49.66   11.98
   5   8   3    8.99    6.57
  -8  16  -3    7.74    9.94
  -8  -8  -3   -8.66    7.97
   8   8   3   -3.50    6.86
  -9  -6  -3    2.16    8.27
  -6  15  -3    5.14    8.02
   9   6   3    6.12    6.68
  -9  -3  -3    3.51    7.85
  -3  12  -3    2.81    6.27
 -12   9   3    8.99    8.94
   9   3   3   -1.68    5.58
  -9   0  -3   15.03    9.42
   0   9  -3   21.37    6.66
  -9   0  -3   21.93    8.02
   9   0   3    3.40    6.13
   0  -9   3   21.03    6.41
  -9   9   3   61.20   11.99
   0  -9   3   16.45    6.80
  -9   3  -3    1.69    6.21
  -9   3  -3    0.03    4.68
   3   6  -3   10.21    4.91
  -9   3  -3    4.86    6.42
   6  -9  -3    3.64    4.15
   6  -9  -3    5.28    4.28
  -9   3  -3   -0.76    3.76
  -3  -6   3    8.35    4.81
  -3  -6   3    4.30    5.34
   9  -3   3    1.39    5.41
  -3  -6   3    3.77    5.49
   9  -3   3    6.35    7.52
  -6   9   3   -1.54    3.95
  -9   6  -3   22.28    6.02
   6   3  -3   13.37    5.33
  -9   6  -3   11.54    6.39
  -9   6  -3   10.68    6.12
  -9   6  -3   11.82    6.73
  -3   9   3   14.36    4.13
  -6  -3   3   21.11    6.73
   9  -6   3   10.20    7.43
  -6  -3   3    8.92    8.27
  -6  -3   3   16.97    6.76
  -3   9   3   15.88    4.27
  -3   9   3   10.04    4.14
   9  -6   3   14.52    7.57
   9   0  -3   33.86    8.24
   0  -9  -3   27.39    7.33
  -9   9  -3   44.43   10.35
  -9   9  -3   44.29    9.83
   9  -9   3   34.73   10.56
  -9   0   3   15.33    8.17
  -9   0   3   37.76   12.18
  -9   0   3   36.99   10.65
   0   9   3   31.94    6.89
  -9  12  -3    5.23    6.42
  -3  -9  -3    2.35    7.68
  -9  12  -3   -4.25    6.83
  12  -3  -3    7.95    5.75
 -12   3   3    1.96    6.53
   3   9   3   -3.98    5.01
   3   9   3    6.42    5.90
  -9  15  -3   -0.68    8.77
  -6  -9  -3    7.34    8.20
 -15   6   3    0.01    9.13
   6   9   3    0.88    5.68
 -10  -4  -3    4.33    8.06
  -4  14  -3   -0.19    6.97
 -14  10   3   -8.14    9.49
  10   4   3    1.20    6.57
  -1  11  -3   -0.99    5.34
 -10  -1  -3    1.04    6.48
  10   1   3   10.68    6.51
 -11  10   3    4.91    7.66
 -10   2  -3    8.23    7.51
   2   8  -3    3.12    4.80
 -10   2  -3    3.02    7.57
   2   8  -3    4.03    4.19
 -10   2  -3    6.08    5.79
  -2  -8   3    3.18    8.23
  -8  10   3    2.77    6.04
  -2  -8   3    0.47    5.88
   5   5  -3    7.35    4.45
 -10   5  -3   15.50    7.15
 -10   5  -3    4.63    6.85
 -10   5  -3    4.50    4.96
 -10   5  -3    6.58    6.62
  -5  -5   3    4.49    6.07
  -5  10   3    9.57    4.80
  10  -5   3    0.00    6.73
   2 -10  -3    5.12    4.79
 -10   8  -3    2.73    6.80
   8   2  -3    6.49    5.65
  10  -8   3   22.38    9.14
  -2  10   3   17.67    4.93
  -8  -2   3   11.60    7.48
  10  -8   3   18.05    9.26
  -2  10   3    8.02    3.99
  -2  10   3   13.59    3.82
 -10  11  -3   -0.19    5.81
  11  -1  -3   -3.18    4.77
  -1 -10  -3    5.13    6.16
 -10  11  -3   -1.30    6.49
   1  10   3    1.46    5.00
 -11   1   3    1.73    7.38
 -10  14  -3    0.73    9.14
  -4 -10  -3    8.39    8.25
  14  -4  -3    3.04    6.21
   4  10   3   -0.22    5.49
 -14   4   3    4.99    8.49
  -5  16  -3    1.90    7.94
 -11  -5  -3    5.84   10.93
  11   5   3    8.49    8.40
  -2  13  -3    9.05    7.89
 -11  -2  -3    3.44    9.29
  11   2   3   -0.08    6.61
 -13  11   3   -5.28    8.34
   1  10  -3    9.82    5.92
 -11   1  -3    2.17    6.68
  -1 -10   3    4.67    7.08
  11  -1   3   -8.76    4.19
 -10  11   3    7.29    8.21
 -11   4  -3    8.33    7.73
   4   7  -3    9.60    5.24
 -11   4  -3   10.35    6.02
  -7  11   3    5.00    5.64
  -4  -7   3   -0.10    6.35
 -11   7  -3   18.72    8.68
 -11   7  -3    9.97    6.33
   7   4  -3   13.25    6.01
  11  -7   3    8.50    9.78
  -4  11   3   17.91    6.09
  -4  11   3   10.44    4.55
  -7  -4   3   21.32    8.76
 -11  10  -3   -2.42    5.77
  10   1  -3    4.96    5.20
 -11  10  -3    2.82    7.40
  -1  11   3    0.40    4.09
 -10  -1   3    5.50    7.09
  13  -2  -3   -4.02    5.62
  -2 -11  -3    5.67    7.21
 -11  13  -3   -3.17    9.46
 -13   2   3    9.11    8.36
   2  11   3   -2.18    6.07
 -11  16  -3    4.30   10.95
  16  -5  -3   -1.57    6.98
  -5 -11  -3    0.26    9.28
   5  11   3    2.38    7.33
 -16   5   3    2.50   10.12
  -3  15  -3    9.68    8.44
 -12  -3  -3    1.61    9.68
  12   3   3    6.49    8.21
 -15  12   3  -11.78   10.50
 -12   0  -3   -6.71    7.30
   0  12  -3    1.94    5.91
 -12  12   3   -6.31    8.56
  12   0   3   -4.09    6.15
   3   9  -3   -0.17    5.55
 -12   3  -3    0.89    6.97
   3   9  -3    1.84    4.80
  -9  12   3    5.35    7.60
  -3  -9   3    3.44    7.01
 -12   6  -3    1.33    6.43
   6   6  -3    6.82    5.35
  -6  12   3    4.41    5.98
  -6  -6   3    8.89    7.89
  -6  12   3    8.78    5.45
 -12   9  -3    4.95    8.48
 -12   9  -3    4.40    6.53
   9   3  -3   -0.56    4.99
  -3  12   3    0.97    4.22
  -9  -3   3   -0.78    6.84
  -3  12   3    4.75    5.36
  12   0  -3    0.02    5.89
 -12  12  -3   -2.85    9.01
 -12  12  -3   -4.65   11.61
 -12   0   3   -7.25    7.07
   0  12   3   -0.41    4.76
  -3 -12  -3    4.49    8.07
  15  -3  -3   18.32    8.26
 -12  15  -3    2.51   11.11
   3  12   3    6.45    6.09
 -15   3   3   -6.20    8.55
 -13  -1  -3   -3.70    9.01
  -1  14  -3   -1.42    6.37
 -14  13   3   -2.09   10.24
  13   1   3    4.81    8.09
 -13   2  -3   -3.18    7.78
   2  11  -3    4.84    6.33
  13  -2   3   -6.17    6.01
 -11  13   3    0.77    8.21
   5   8  -3   -1.45    5.00
 -13   5  -3   15.19    8.58
  -8  13   3   21.75    8.26
  -5  -8   3    4.01    7.72
   8   5  -3   16.08    6.80
  -5  13   3   31.87    8.55
  -8  -5   3   29.92   10.63
 -13  11  -3    1.08    8.80
  11   2  -3    1.00    6.17
 -13  11  -3   -8.18    8.76
  -2  13   3    4.78    5.65
 -11  -2   3   -4.08    7.80
  14  -1  -3   -2.43    6.71
 -13  14  -3   -5.44   10.09
 -14   1   3   14.77   10.43
   1  13   3    9.89    6.30
 -14   1  -3   -4.20    8.09
   1  13  -3   -2.24    5.63
 -13  14   3    9.19   10.67
  14  -1   3   -4.59    6.44
 -14   4  -3   -2.12    6.58
   4  10  -3    0.56    5.84
   4  10  -3   -3.40    4.54
  -4 -10   3    4.78    8.41
 -10  14   3    8.09    8.14
 -14   7  -3    2.15    7.75
   7   7  -3    2.98    6.22
  -7  14   3   -1.36    6.70
  -7  -7   3   -2.27    8.31
  10   4  -3    8.52    6.58
  -4  14   3   10.99    6.64
 -10  -4   3    3.71    8.95
  13   1  -3   -1.08    5.82
 -14  13  -3  -13.00   10.01
 -13  -1   3   15.56   10.76
  -1  14   3    5.17    5.48
 -15   3  -3   -4.23    7.67
   3  12  -3   -4.20    6.44
 -12  15   3    2.11    9.79
  15  -3   3   -3.18    6.34
   6   9  -3    1.25    5.60
 -15   6  -3  -10.14    7.26
   6   9  -3    2.96    6.60
  -9  15   3    3.09    7.97
  -6  -9   3    3.77    9.20
   9   6  -3    6.82    6.92
  -6  15   3    3.08    6.62
  -9  -6   3   -2.56    8.48
  12   3  -3    3.35    7.38
 -12  -3   3   16.52   12.07
  -3  15   3   -1.89    5.54
   5  11  -3   -3.61    7.00
 -16   5  -3    3.57   10.99
   5  11  -3   17.40    7.87
 -11  16   3   -1.88    8.93
  -5 -11   3   -7.20    9.18
   8   8  -3   -5.38    5.26
  -8  16   3   -2.21    7.93
  -8  -8   3    0.48   10.03
  11   5  -3   -7.57    5.36
 -11  -5   3    1.99   10.66
  -5  16   3    2.47    6.77
   1  -1  -4  590.30   43.35
  -1   0  -4  706.04   43.82
   0   1  -4  716.38   44.45
   0   1  -4  720.69   44.31
   1  -1  -4  599.21   43.72
   0   1  -4  725.13   44.87
  -1   0  -4  691.19   43.83
  -1   0  -4  704.48   44.01
   0   1  -4  671.42   43.81
   1   0   4  738.21   43.54
   1   0   4  672.88   43.42
   0  -1   4  688.90   44.81
  -1   1   4  585.13   43.29
   0  -1   4  693.95   44.26
   1   0   4  692.42   43.94
   1   0   4  733.46   43.80
   0  -1   4  680.62   44.24
  -1   1   4  579.89   43.10
  -1   1   4  620.08   43.49
   0  -1   4  746.79   43.91
   3  -2  -4  133.63   12.10
  -1   3  -4  182.63   11.96
  -2  -1  -4  125.12   10.49
  -1   3  -4  170.40   11.75
   3  -2  -4  129.81   11.65
   1  -3   4  164.14   11.88
   2   1   4  125.60   10.63
   1  -3   4  169.69   11.92
   1  -3   4  167.45   12.36
  -3   2   4  133.61   11.70
   2   1   4  118.75   10.66
  -3   2   4  139.82   11.77
   2   0  -4  703.17   50.02
  -2   2  -4  773.83   49.99
   2   0  -4  764.32   49.42
  -2   2  -4  746.55   50.03
  -2   2  -4  818.65   50.71
  -2   2  -4  820.83   50.14
   2   0  -4  772.95   51.04
  -2   0   4  753.04   51.00
   2  -2   4  742.39   49.95
   2  -2   4  715.78   49.93
  -2   0   4  779.27   49.80
   2  -2   4  733.88   50.48
   5  -3  -4   26.63    5.61
  -3  -2  -4   10.96    2.78
  -2   5  -4    5.49    3.51
  -2   5  -4   11.11    3.90
   5  -3  -4   20.84    6.09
   3   2   4    7.16    3.53
   2  -5   4    5.92    3.72
   2  -5   4    8.16    3.58
  -5   3   4   17.73    5.41
   3   2   4    8.70    3.66
   2  -5   4   10.12    3.81
  -5   3   4   20.27    5.35
   3   2   4    9.40    3.65
  -3   1  -4  159.27   11.39
  -3   1  -4  174.30   11.73
   1   2  -4  129.86   11.12
   1   2  -4  137.65   10.81
   1   2  -4  142.76   11.06
  -2   3   4  130.49    9.90
  -2   3   4  123.73   10.06
  -1  -2   4  135.31   11.79
  -1  -2   4  115.34   10.75
  -3   4  -4  102.73    9.86
  -3   4  -4  114.91   10.50
  -3   4  -4  102.79   10.09
   4  -1  -4  102.59   10.59
   4  -1  -4  121.14   12.11
  -4   1   4  106.64   11.40
   3  -4   4  117.27   10.90
   3  -4   4  108.39   10.37
  -4   1   4  127.84   10.64
   3  -4   4  110.11   10.20
  -4   1   4  111.49   10.87
  -3   7  -4  255.00   22.44
  -4  -3  -4  317.03   24.04
   7  -4  -4  306.51   24.60
  -3   7  -4  255.92   22.49
  -4  -3  -4  293.83   20.24
  -4  -3  -4  291.80   20.48
   7  -4  -4  287.57   25.12
  -7   4   4  309.12   24.13
   4   3   4  339.97   22.49
   4   3   4  287.42   22.35
  -7   4   4  336.97   24.75
   3  -7   4  257.30   22.57
   3  -7   4  242.32   21.65
   4   3   4  295.04   22.39
  -7   4   4  282.44   23.09
  -7   4   4  295.80   24.48
  -4   0  -4 1696.87  111.86
   4  -4  -4 1672.87  111.55
   4  -4  -4 1734.33  111.36
   0   4  -4 1674.85  110.93
  -4   0  -4 1732.26  111.33
  -4   0  -4 1745.84  112.03
   0   4  -4 1719.15  111.64
   4   0   4 1696.75  111.08
   0  -4   4 1608.42  110.99
   4   0   4 1873.78  110.66
   4   0   4 1845.42  110.66
   0  -4   4 1759.29  111.76
  -4   4   4 1772.07  111.65
  -4   3  -4  111.46   10.34
   3   1  -4   77.65    9.25
  -4   3  -4  118.48   10.33
  -4   3  -4  119.40   10.72
  -4   3  -4  106.27    9.87
   3   1  -4   94.59   10.34
  -3  -1   4   88.17   10.49
  -3  -1   4   93.11    9.30
  -3  -1   4   97.61   10.01
   4  -3   4  105.74   10.63
   4  -3   4  121.88   11.06
  -4   6  -4  320.68   24.41
  -4   6  -4  323.53   24.55
   6  -2  -4  314.16   25.34
  -4   6  -4  319.78   22.43
   6  -2  -4  323.37   26.69
   4  -6   4  325.15   25.01
   2   4   4  316.87   23.42
   2   4   4  308.10   23.28
  -6   2   4  312.35   24.43
   4  -6   4  299.31   24.07
  -6   2   4  305.04   25.34
  -6   2   4  331.67   24.99
  -6   2   4  289.83   25.78
  -4   9  -4   15.61    6.03
   9  -5  -4    6.91    7.62
  -5  -4  -4   15.42    3.33
  -4   9  -4   11.52    5.26
  -5  -4  -4   16.92    6.30
   9  -5  -4    4.89    5.71
  -5  -4  -4   18.70    6.44
  -5  -4  -4   12.51    4.83
  -9   5   4    8.66    6.06
  -9   5   4   12.60    6.29
  -9   5   4    7.24    5.88
   5   4   4   13.28    6.02
  -9   5   4    4.30    5.77
   5   4   4   17.37    5.54
   4  -9   4    7.16    5.50
   4  -9   4   26.86    6.54
   5   4   4   28.86    6.61
  -5  -1  -4   69.05    7.15
  -5  -1  -4   59.35    8.44
  -5  -1  -4   70.33    8.39
   6  -5  -4   58.75    8.46
  -1   6  -4   48.84    6.61
  -1   6  -4   46.57    7.01
   6  -5  -4   51.23    8.61
  -5  -1  -4   53.92    7.74
  -1   6  -4   55.11    7.18
   1  -6   4   39.36    6.68
  -6   5   4   51.79    7.20
  -6   5   4   44.35    7.32
   1  -6   4   43.19    6.69
   5   1   4   66.08    8.08
  -6   5   4   37.12    7.26
   5   1   4   63.03    7.64
  -5   2  -4   10.35    4.99
   2   3  -4   14.92    4.37
  -5   2  -4    2.27    3.72
  -5   2  -4    0.47    4.57
  -5   2  -4    5.61    3.80
  -2  -3   4    9.64    3.70
  -3   5   4   14.74    3.54
  -2  -3   4    7.71    3.72
   5  -2   4    1.91    4.13
  -2  -3   4    7.42    4.33
  -2  -3   4    8.01    4.45
   5  -2   4    2.14    4.56
  -5   5  -4  627.69   45.08
   5   0  -4  690.42   46.05
  -5   5  -4  620.77   45.27
   5   0  -4  653.45   43.61
  -5   5  -4  610.06   44.93
   5   0  -4  682.66   46.94
  -5   5  -4  612.99   45.12
   0   5   4  651.64   43.72
  -5   0   4  687.66   46.42
  -5   0   4  668.98   44.86
   5  -5   4  590.12   45.42
  -5   0   4  656.37   47.17
   0   5   4  684.37   44.28
  -5   0   4  684.44   45.66
   5  -5   4  619.07   46.06
  -5   8  -4  135.63   13.60
  -3  -5  -4   75.88   11.66
   8  -3  -4  135.76   16.11
  -5   8  -4  146.14   13.53
   8  -3  -4  121.09   13.97
  -8   3   4  120.85   14.40
   3   5   4   87.11   11.38
  -8   3   4  139.07   14.87
   3   5   4   92.80   10.06
   5  -8   4  113.41   12.89
   5  -8   4  120.53   12.92
   3   5   4   72.86   10.95
  -8   3   4  118.58   14.29
  -8   3   4  139.76   13.91
  -6  -5  -4   10.14    7.19
  -5  11  -4   18.78    7.12
  11  -6  -4   17.66   10.21
  -5  11  -4   17.12    6.80
   6   5   4   12.20    6.06
 -11   6   4   10.42    7.50
 -11   6   4   12.32    7.33
   6   5   4   19.50    7.12
  -2   8  -4  161.16   15.31
  -2   8  -4  159.97   15.29
  -6  -2  -4  170.20   16.79
  -6  -2  -4  154.63   16.41
  -6  -2  -4  185.81   14.76
   8  -6  -4  166.35   18.14
  -6  -2  -4  165.52   16.05
   8  -6  -4  155.46   16.91
  -8   6   4  162.48   16.89
   6   2   4  154.17   14.96
  -8   6   4  160.19   15.90
   6   2   4  162.98   15.52
   2  -8   4  161.02   15.12
  -8   6   4  169.46   15.40
  -6   1  -4   66.71    9.38
  -6   1  -4   39.04   10.20
   1   5  -4   67.22    8.42
   1   5  -4   62.12   10.70
  -6   1  -4   53.49    8.98
  -6   1  -4   46.22    7.54
   5  -6  -4   53.64    7.76
   5  -6  -4   54.09    7.48
   1   5  -4   54.27    7.03
  -1  -5   4   58.65    6.89
  -5   6   4   46.21    7.29
   6  -1   4   53.62    8.23
  -1  -5   4   55.08    7.67
  -1  -5   4   56.39    7.62
   6  -1   4   53.69    7.28
  -1  -5   4   52.57    7.56
   6  -1   4   68.11    9.59
   4   2  -4  331.25   23.53
  -6   4  -4  309.46   25.32
  -6   4  -4  305.64   24.83
   4   2  -4  303.00   22.90
  -6   4  -4  339.44   25.04
   4   2  -4  291.48   23.25
  -6   4  -4  338.59   25.12
   6  -4   4  343.93   25.99
  -4  -2   4  308.31   24.34
   6  -4   4  318.54   25.61
  -4  -2   4  275.19   24.20
  -4  -2   4  317.91   26.13
   7  -1  -4  156.88   13.58
   7  -1  -4  151.96   16.91
  -6   7  -4  137.12   14.30
  -6   7  -4  155.08   13.76
  -6   7  -4  144.64   15.13
  -6   7  -4  143.15   13.49
   7  -1  -4  157.60   15.78
  -7   1   4  161.55   15.21
   1   6   4  116.69   12.70
  -7   1   4  179.98   16.88
   6  -7   4  140.92   15.56
   6  -7   4  157.88   15.64
   1   6   4  140.19   13.84
  -7   1   4  179.66   17.64
  -7   1   4  142.38   15.04
  -6  10  -4   81.47   13.04
  10  -4  -4   61.99   14.27
  -4  -6  -4   72.51   11.93
  -6  10  -4   74.79   11.79
   4   6   4   77.08   10.86
 -10   4   4   58.63   11.74
 -10   4   4   66.88   12.85
   4   6   4   77.86   11.15
 -10   4   4   70.63   12.12
  -7  -6  -4    6.09    7.64
  -6  13  -4    0.04    6.84
 -13   7   4   -0.09    7.10
   7   6   4    1.98    5.65
   7   6   4    4.47    5.83
  10  -7  -4   12.36    9.38
  10  -7  -4   17.18    8.43
  -3  10  -4    6.24    6.39
  -3  10  -4   19.71    6.81
  -7  -3  -4   24.24    8.85
   7   3   4   32.11    7.76
   7   3   4   25.00    7.53
 -10   7   4   30.54    9.84
 -10   7   4   24.51    7.38
   0   7  -4   23.90    5.73
   7  -7  -4    9.13    5.80
   0   7  -4   20.42    4.61
   0   7  -4   28.12    5.64
  -7   0  -4   32.71    7.21
   7  -7  -4   10.61    5.13
  -7   0  -4   29.06    7.68
  -7   0  -4   25.36    7.08
   0  -7   4   21.88    5.49
   7   0   4   17.81    5.46
   7   0   4   25.25    5.77
  -7   7   4   16.28    5.22
   0  -7   4   21.08    5.68
  -7   7   4   21.84    6.48
  -7   3  -4  272.43   24.17
  -7   3  -4  268.52   24.07
   3   4  -4  301.36   22.53
  -7   3  -4  279.06   23.14
  -7   3  -4  261.98   21.62
  -3  -4   4  297.46   24.00
  -4   7   4  300.78   21.55
   7  -3   4  254.11   20.90
  -3  -4   4  301.26   22.87
   7  -3   4  280.52   24.66
  -3  -4   4  310.08   23.16
   7  -3   4  285.11   24.06
   6   1  -4  152.24   14.05
  -7   6  -4  157.04   15.20
  -7   6  -4  132.46   14.41
   6   1  -4  130.60   14.34
  -7   6  -4  136.96   14.48
   6   1  -4  146.65   13.35
  -7   6  -4  149.77   15.18
   7  -6   4  147.26   15.80
  -6  -1   4  142.92   16.63
  -6  -1   4  119.68   13.50
  -6  -1   4  124.14   14.41
   7  -6   4  151.76   16.26
  -1   7   4  146.99   12.53
  -6  -1   4  161.88   15.97
  -7   9  -4   56.17   10.93
   9  -2  -4   71.45   13.56
  -2  -7  -4   40.47    8.85
  -7   9  -4   67.26   10.33
  -9   2   4   49.00   10.84
   2   7   4   44.34    8.05
   2   7   4   30.30    7.64
   7  -9   4   63.04   11.44
  -9   2   4   46.01    9.69
  -9   2   4   45.66    9.36
   7  -9   4   68.79   11.51
  -9   2   4   54.70   12.01
   2   7   4   45.44    6.29
  -7  12  -4   20.97    9.66
  -7  12  -4   22.08    8.22
  -5  -7  -4   26.53    9.15
 -12   5   4   23.54    9.25
   5   7   4   32.10    8.53
   5   7   4   24.63    7.64
  -8  -7  -4   -3.76    8.34
  -7  15  -4    0.57    7.81
   8   7   4   -0.98    6.37
 -15   8   4  -15.14    8.03
  -4  12  -4  187.56   19.37
  -8  -4  -4  143.61   19.88
  -4  12  -4  138.45   16.66
   8   4   4  116.91   17.19
 -12   8   4  169.11   17.75
   8   4   4  162.05   17.49
 -12   8   4  182.26   22.51
  -1   9  -4   60.58    9.63
  -8  -1  -4   59.73   11.50
  -1   9  -4   53.72    9.43
   9  -8  -4   66.30   12.00
   9  -8  -4   57.64   14.74
   8   1   4   62.39    9.87
  -9   8   4   79.97   13.30
  -9   8   4   64.54    9.56
   1  -9   4   65.40   10.53
   8   1   4   71.41   10.76
   2   6  -4  184.17   14.82
  -8   2  -4  165.89   16.06
   6  -8  -4  149.22   14.84
   6  -8  -4  149.21   14.78
   2   6  -4  181.21   15.98
  -8   2  -4  168.31   15.67
  -8   2  -4  188.95   18.44
   2   6  -4  109.91   13.70
  -8   2  -4  160.55   17.52
   8  -2   4  167.87   14.62
  -2  -6   4  197.69   16.35
  -6   8   4  161.46   15.65
   8  -2   4  159.25   16.30
  -2  -6   4  159.25   14.95
  -2  -6   4  151.29   15.86
  -8   5  -4  125.71   11.69
  -8   5  -4  125.48   14.11
  -8   5  -4  141.68   15.02
  -8   5  -4  123.05   13.96
   5   3  -4   72.91   11.40
   8  -5   4  125.00   14.64
   8  -5   4  142.32   15.57
  -5  -3   4   91.93   12.59
  -3   8   4  124.86   10.39
  -3   8   4  155.28   11.64
  -5  -3   4   99.58   14.84
  -5  -3   4  105.99   13.68
  -8   8  -4  888.23   59.28
  -8   8  -4  890.50   60.27
  -8   8  -4  820.82   57.39
   8   0  -4  732.18   56.46
   8   0  -4  832.03   60.21
   8   0  -4  765.02   57.99
  -8   8  -4  810.41   57.24
   8  -8   4  846.42   60.85
   8  -8   4  880.31   60.97
   0   8   4  811.05   56.09
  -8   0   4  770.19   59.21
  -8   0   4  826.36   61.55
  -8   0   4  822.86   60.62
  -8  11  -4   28.60    9.41
  -8  11  -4   20.45    7.76
  -3  -8  -4   29.80    8.57
   3   8   4   26.78    7.36
 -11   3   4   14.53    7.35
   3   8   4   36.43    8.15
 -11   3   4   18.86    9.22
  -6  -8  -4    2.16    7.69
  -8  14  -4   -1.39    7.50
   6   8   4   -2.27    6.00
 -14   6   4    4.67    8.76
   6   8   4    6.08    6.54
  -9  -5  -4   -0.11    8.36
  -5  14  -4    1.79    7.49
   9   5   4    3.78    6.74
  -2  11  -4   28.81    8.00
  -2  11  -4   25.26    8.15
  -9  -2  -4   30.58    9.29
   9   2   4   15.48    6.85
 -11   9   4   34.44   10.51
   9   2   4   23.45    7.18
  -9   1  -4   57.26   10.63
  -9   1  -4   63.92   12.15
   1   8  -4   60.43    9.46
  -9   1  -4   64.17   12.54
  -1  -8   4   75.68   10.17
  -8   9   4   72.37   11.76
  -1  -8   4   78.66   10.88
   9  -1   4   65.53    9.93
   9  -1   4   68.18   10.20
   5  -9  -4   11.54    3.80
  -9   4  -4   22.20    8.04
  -9   4  -4   25.67    7.67
   4   5  -4   12.92    5.13
  -9   4  -4   17.21    7.76
  -9   4  -4   16.87    5.37
  -4  -5   4   12.79    6.32
  -4  -5   4   19.22    7.83
  -4  -5   4   20.81    6.49
  -5   9   4    8.04    4.79
   9  -4   4   12.86    7.92
   9  -4   4    8.04    6.31
  -9   7  -4   79.05    9.39
   7   2  -4   36.15    7.68
   7   2  -4   36.39    6.09
  -9   7  -4   60.15   10.77
  -9   7  -4   80.19   12.59
  -9   7  -4   53.08   10.07
   9  -7   4   65.70   12.27
  -7  -2   4   36.42    9.76
  -7  -2   4   40.01   11.37
  -7  -2   4   35.14    8.88
  -2   9   4   54.54    8.02
  -2   9   4   48.82    6.17
   9  -7   4   84.24   13.76
  -9  10  -4   -4.34    5.04
  10  -1  -4    1.46    4.41
  -1  -9  -4    3.08    5.38
  -9  10  -4    3.99    6.68
   1   9   4    5.20    4.74
   1   9   4    2.36    4.87
 -10   1   4    6.30    8.19
 -10   1   4    6.91    8.25
 -10   1   4   -4.65    4.85
  -9  13  -4   19.80   10.38
  13  -4  -4   18.25    7.15
  -4  -9  -4   19.92    8.87
   4   9   4    7.47    6.36
   4   9   4   25.01    8.73
 -13   4   4    9.62    8.41
  -9  16  -4   11.42   10.92
  -7  -9  -4   -1.90    8.49
   7   9   4    1.02    6.77
 -16   7   4    1.38    9.77
 -10  -6  -4    8.59    9.99
  -6  16  -4    0.16    7.49
  10   6   4    1.23    7.54
  -3  13  -4   11.05    8.11
 -10  -3  -4    2.55    8.37
 -13  10   4   -4.88    9.32
  10   3   4    3.97    6.61
   0  10  -4  123.36   15.01
 -10   0  -4  134.15   17.39
 -10  10   4  106.44   16.98
  10   0   4   93.28   13.90
 -10   3  -4   29.17   10.00
 -10   3  -4   19.82    9.62
   3   7  -4   32.33    7.91
 -10   3  -4   19.38    7.13
   3   7  -4   22.55    6.17
  -7  10   4   14.32    6.78
  -3  -7   4   25.90    8.27
 -10   6  -4   79.81   13.65
 -10   6  -4   82.79   11.25
 -10   6  -4   85.36   14.03
   6   4  -4   69.50   10.61
  10  -6   4   79.06   15.15
  -6  -4   4   82.71   13.34
  -4  10   4   75.04    9.85
   1 -10  -4    5.64    5.08
 -10   9  -4    6.39    5.94
   9   1  -4    3.91    4.67
 -10   9  -4    3.52    6.88
  -9  -1   4   -0.78    9.21
  -1  10   4   10.77    5.10
  -9  -1   4   -0.17    6.13
  10  -9   4    1.75    7.04
  12  -2  -4    3.47    5.83
  -2 -10  -4   -5.12    6.07
 -10  12  -4   13.50    7.60
 -10  12  -4    2.12    7.81
   2  10   4    4.44    5.46
   2  10   4    5.57    5.69
 -12   2   4   -1.26    6.74
  15  -5  -4   15.66    7.86
 -10  15  -4   13.90   11.08
  -5 -10  -4    2.00    7.66
 -15   5   4    0.03    9.41
   5  10   4    5.72    6.40
 -11  -4  -4    3.53    9.04
  -4  15  -4   -5.51    7.09
  11   4   4   -2.82    7.01
  -1  12  -4    8.45    7.31
 -11  -1  -4   13.31    9.59
  11   1   4   -4.98    5.63
 -12  11   4    6.87    8.45
   2   9  -4   24.48    6.82
   2   9  -4   22.86    7.15
 -11   2  -4   25.86   13.29
 -11   2  -4   37.10    9.37
  -9  11   4   42.99   10.66
  -2  -9   4   37.58    9.45
   5   6  -4    7.73    5.90
 -11   5  -4   15.09    6.42
 -11   5  -4   16.63    8.98
  -5  -6   4   12.11    7.79
  -6  11   4   22.23    6.99
 -11   8  -4    4.67    7.53
 -11   8  -4   12.11    7.69
   8   3  -4   26.22    7.53
  -3  11   4   17.54    5.80
  11  -8   4   28.96   11.46
  -3  11   4   29.45    5.82
  -8  -3   4   41.45   10.91
   0 -11  -4    6.65    6.32
 -11  11  -4   -4.56    6.47
 -11  11  -4    3.38    8.30
  11   0  -4   13.23    7.19
 -11   0   4    6.07    7.59
   0  11   4    3.65    5.33
  -3 -11  -4    0.72    7.53
 -11  14  -4    4.27    9.56
  14  -3  -4   -5.62    5.58
   3  11   4   -0.78    6.44
   3  11   4    2.91    5.33
 -14   3   4   -3.00    8.21
  -2  14  -4   -1.47    7.39
 -12  -2  -4    8.53    9.79
 -14  12   4   -6.67   10.17
  12   2   4   -1.86    7.87
   1  11  -4    0.63    5.61
 -12   1  -4   19.09    9.77
 -11  12   4   15.39    9.64
  12  -1   4   12.38    6.92
   4   8  -4  126.74   16.89
   4   8  -4  160.83   16.54
 -12   4  -4  174.39   18.71
  -4  -8   4  196.40   20.32
  -8  12   4  143.72   18.80
 -12   7  -4   41.12    9.67
   7   5  -4   13.86    6.91
  -5  12   4   19.27    6.53
  -5  12   4   20.88    7.35
  -7  -5   4   31.08   10.40
 -12  10  -4    3.05    7.10
 -12  10  -4    1.82    8.53
  10   2  -4   -2.67    5.27
  -2  12   4   -4.19    4.35
 -10  -2   4    0.54    7.16
  -2  12   4    1.34    4.43
  13  -1  -4   11.77    7.81
 -12  13  -4    8.76    9.52
   1  12   4   15.12    5.76
 -13   1   4   12.09    9.58
   0  13  -4    9.43    7.98
 -13   0  -4    2.84    9.40
 -13  13   4    5.60   10.88
  13   0   4   10.42    8.49
   3  10  -4    7.00    5.60
 -13   3  -4   -1.44    7.42
   3  10  -4    9.54    6.69
  -3 -10   4    1.68    8.29
 -10  13   4    5.74    8.46
   6   7  -4    2.74    5.80
 -13   6  -4    0.40    6.34
  -7  13   4   -4.81    5.48
  -6  -7   4    2.76    6.99
   9   4  -4   22.50    7.92
  -9  -4   4   11.13    8.66
  -4  13   4    9.44    6.03
 -13  12  -4   21.53   12.39
  12   1  -4   10.87    7.17
  -1  13   4    7.75    5.46
 -12  -1   4   25.31   11.88
 -13  15  -4   11.97   13.23
  15  -2  -4   -0.50    7.53
   2  13   4    7.91    6.17
 -15   2   4    8.73   10.63
 -14   2  -4   10.15    9.84
   2  12  -4   -0.96    6.16
 -12  14   4    9.75   11.09
  14  -2   4    1.69    7.32
   5   9  -4    1.91    5.64
 -14   5  -4    0.56    7.01
   5   9  -4    5.71    5.85
  -5  -9   4    1.56    8.47
  -9  14   4    9.00    7.90
   8   6  -4    2.30    6.15
  -8  -6   4   10.36    9.46
  -6  14   4    0.48    6.57
  11   3  -4   -5.88    5.99
 -11  -3   4   -9.18    7.78
  -3  14   4   -0.77    5.24
  14   0  -4    9.41    8.61
 -14  14  -4   -6.30   11.53
   0  14   4    8.82    5.70
 -14   0   4   -3.96    9.26
 -15   4  -4    1.45    8.86
   4  11  -4    4.15    6.95
 -11  15   4    6.97    9.91
  15  -4   4    0.61    6.66
  -4 -11   4   -0.11    9.04
   7   8  -4    0.52    5.75
  -7  -8   4   10.13    9.89
  -8  15   4    2.09    6.71
  10   5  -4   -1.23    6.45
  -5  15   4    0.68    5.90
 -10  -5   4   -3.27    8.39
  13   2  -4    4.37    7.94
 -13  -2   4   -1.67    9.26
  -2  15   4    0.02    5.30
   6  10  -4   -0.35    6.29
 -16   6  -4  -13.66    8.74
   6  10  -4   -7.27    6.96
  -6 -10   4   -4.56    9.46
 -10  16   4   -1.78    8.45
   9   7  -4   12.35    8.36
  -9  -7   4    3.75   10.25
  -7  16   4    8.62    8.18
   0  -1  -5  920.94   67.10
  -1   1  -5 1148.07   68.53
  -1   1  -5 1120.27   69.26
   1   0  -5 1070.74   69.43
  -1   1  -5 1098.43   68.63
   0  -1  -5  948.93   66.98
  -1   1  -5 1127.76   68.84
   1   0  -5  995.35   68.01
  -1   0   5 1046.38   69.30
   1  -1   5 1170.39   68.31
  -1   0   5 1066.68   68.24
   1  -1   5 1060.70   68.59
   0   1   5 1044.35   67.49
   1  -1   5 1072.41   69.28
  -1   0   5 1050.22   68.58
   1  -1   5 1080.29   68.69
  -2   0  -5  653.82   44.88
  -2   0  -5  717.41   45.30
  -2   0  -5  646.02   44.85
   0   2  -5  739.98   46.22
   2  -2  -5  684.40   45.01
   0   2  -5  693.62   45.06
   2  -2  -5  691.87   44.70
   0   2  -5  695.49   45.58
   0  -2   5  725.21   46.50
  -2   2   5  669.32   43.73
   2   0   5  718.11   44.27
   0  -2   5  601.07   45.07
  -2   2   5  621.38   44.66
  -2   2   5  707.75   43.70
   0  -2   5  697.35   44.95
   2   0   5  646.03   45.01
   0  -2   5  695.20   45.68
   2   0   5  704.24   44.41
   3  -1  -5  814.87   55.24
  -2   3  -5  833.58   54.02
  -2   3  -5  837.42   54.45
  -2   3  -5  844.56   54.21
   3  -1  -5  817.70   54.35
  -2   3  -5  822.18   53.83
   2  -3   5  809.45   54.11
   1   2   5  818.02   51.63
   1   2   5  777.62   52.06
   2  -3   5  795.25   53.90
  -3   1   5  769.60   54.68
  -3   1   5  797.74   53.78
   1   2   5  809.02   51.51
   2  -3   5  834.93   54.91
  -3  -1  -5  286.58   18.89
   4  -3  -5  262.80   20.05
  -3  -1  -5  278.34   18.80
   4  -3  -5  276.00   20.81
  -1   4  -5  240.15   19.27
  -3  -1  -5  285.55   18.80
  -1   4  -5  250.81   18.83
  -1   4  -5  239.20   19.58
   1  -4   5  253.49   20.35
   1  -4   5  249.57   19.50
   3   1   5  258.51   19.31
  -4   3   5  278.10   20.18
   1  -4   5  233.65   19.41
  -4   3   5  258.07   19.69
  -3   2  -5  877.85   56.30
  -3   2  -5  837.46   56.81
  -3   2  -5  821.41   56.30
   2   1  -5  807.29   56.27
   2   1  -5  910.52   57.24
  -3   2  -5  848.53   56.12
   2   1  -5  823.45   55.41
   3  -2   5  838.65   56.20
  -2  -1   5  873.00   55.73
   3  -2   5  813.11   56.85
   3  -2   5  847.25   56.67
  -2  -1   5  875.19   57.47
   5  -2  -5  112.35   11.57
  -3   5  -5   67.38    7.79
   5  -2  -5   84.66    9.40
  -3   5  -5   66.54    8.30
  -3   5  -5   71.26    7.88
  -3   5  -5   56.32    8.52
  -5   2   5   80.29    9.88
   2   3   5   82.38    6.51
   3  -5   5   64.01    7.98
   2   3   5   78.80    7.93
   2   3   5   82.93    8.19
  -5   2   5  101.71    9.56
  -5   2   5   98.23    9.69
   3  -5   5   75.11    8.46
   3  -5   5   61.69    9.02
  -4  -2  -5   40.80    5.79
  -2   6  -5   36.28    6.29
  -2   6  -5   26.24    5.69
   6  -4  -5   34.22    7.40
   6  -4  -5   37.09    6.86
  -4  -2  -5   35.65    5.34
  -4  -2  -5   35.14    4.87
   4   2   5   35.32    5.92
   4   2   5   38.35    6.07
   4   2   5   41.81    6.59
  -6   4   5   24.46    6.42
  -6   4   5   41.87    7.05
   2  -6   5   27.66    5.12
   2  -6   5   30.42    5.78
  -6   4   5   24.29    6.09
   2  -6   5   34.67    6.45
  -4   1  -5  282.67   21.33
   3  -4  -5  264.18   18.55
   1   3  -5  299.80   20.18
   1   3  -5  276.44   19.67
   1   3  -5  300.35   20.23
   3  -4  -5  256.72   18.58
  -4   1  -5  229.81   22.26
  -4   1  -5  267.97   21.19
  -4   1  -5  256.76   20.19
  -1  -3   5  290.08   21.53
  -1  -3   5  283.39   20.39
  -3   4   5  277.24   19.67
   4  -1   5  243.75   20.57
   4   0  -5  208.02   18.61
  -4   4  -5  214.06   17.47
  -4   4  -5  194.18   16.88
  -4   4  -5  210.58   17.24
  -4   4  -5  207.05   17.18
   4   0  -5  202.32   17.45
  -4   0   5  198.27   17.45
   4  -4   5  198.00   17.34
   0   4   5  202.08   18.18
   4  -4   5  204.92   17.86
  -4   0   5  199.92   17.26
  -4   0   5  215.69   16.98
  -4   0   5  214.43   18.96
   7  -3  -5  127.67   13.46
  -4   7  -5  110.16   11.93
  -4   7  -5  118.86   12.45
   7  -3  -5  124.54   14.85
   3   4   5   86.72   10.75
   3   4   5  116.36   10.12
  -7   3   5  113.37   12.52
  -7   3   5  126.13   14.03
   3   4   5  115.02   11.49
   4  -7   5  109.56   12.58
  -7   3   5  112.23   12.63
  -7   3   5  147.83   14.21
   4  -7   5  106.39   11.85
   8  -5  -5   19.43    7.85
  -5  -3  -5   10.00    3.28
  -5  -3  -5   19.88    6.24
  -5  -3  -5   17.06    5.83
  -5  -3  -5   13.11    4.82
   8  -5  -5   11.12    5.84
  -3   8  -5   14.67    4.87
  -3   8  -5   18.60    5.84
   5   3   5   19.13    5.26
  -8   5   5   16.82    6.66
   5   3   5   23.19    6.30
   5   3   5   12.73    4.99
   3  -8   5   17.78    6.04
  -8   5   5   10.72    5.76
   3  -8   5   16.02    5.18
  -8   5   5   23.87    6.96
   5  -5  -5  129.06   11.18
   0   5  -5   94.44    9.77
  -5   0  -5  107.42   11.15
   5  -5  -5  117.50   11.19
  -5   0  -5  102.04   10.03
  -5   0  -5  123.24   11.98
  -5   0  -5   93.45   10.67
   0   5  -5   79.75    9.88
  -5   5   5  116.90   11.08
   5   0   5   88.52    9.66
   0  -5   5  100.11   10.77
   0  -5   5   93.59    9.63
  -5   3  -5   67.44    9.89
  -5   3  -5   72.37    9.10
   3   2  -5   93.45    8.34
  -5   3  -5   63.71    9.04
   3   2  -5   90.58    8.80
  -5   3  -5   78.65    8.77
   3   2  -5   78.80    8.94
  -3  -2   5   82.17    9.16
   5  -3   5   71.66    9.99
   5  -3   5   61.10    9.41
  -3  -2   5   79.66    8.75
  -3  -2   5   78.72   10.63
   6  -1  -5   49.43    9.96
   6  -1  -5   66.57    7.55
  -5   6  -5   45.87    7.31
   6  -1  -5   54.28    8.64
  -5   6  -5   53.36    8.15
  -5   6  -5   48.07    8.06
  -5   6  -5   49.27    7.56
   5  -6   5   56.91    8.77
  -6   1   5   44.20    7.85
   1   5   5   45.81    7.22
   1   5   5   39.10    6.68
  -6   1   5   52.81    9.78
  -6   1   5   42.12    7.94
  -6   1   5   56.28    9.11
   5  -6   5   44.21    8.59
  -4  -5  -5  158.30   16.76
  -5   9  -5  159.30   17.35
   9  -4  -5  166.75   19.85
   9  -4  -5  188.73   18.81
  -5   9  -5  192.08   17.29
   4   5   5  131.51   14.84
   4   5   5  159.08   14.81
  -9   4   5  142.21   17.60
   5  -9   5  153.05   16.67
   5  -9   5  175.90   17.91
   4   5   5  168.84   15.82
  -9   4   5  164.30   17.96
  -9   4   5  169.54   17.36
  -9   4   5  171.12   17.35
  -6  -4  -5   20.38    7.90
  10  -6  -5   15.98    8.43
  -4  10  -5   17.47    7.61
  -6  -4  -5   12.31    6.75
  -4  10  -5   10.96    6.57
  10  -6  -5   17.12   10.13
  -6  -4  -5   13.43    4.98
   6   4   5   10.35    6.17
   6   4   5   16.12    6.44
 -10   6   5    6.87    7.28
 -10   6   5   15.62    7.37
  -1   7  -5  257.16   21.86
   7  -6  -5  286.49   23.89
  -1   7  -5  239.60   22.16
  -6  -1  -5  305.94   23.95
  -6  -1  -5  252.81   22.77
   7  -6  -5  287.06   24.65
  -6  -1  -5  289.73   21.88
  -6  -1  -5  292.39   23.74
   6   1   5  293.63   22.37
  -7   6   5  285.39   23.66
  -7   6   5  279.53   21.09
   6   1   5  301.22   22.62
  -7   6   5  285.25   22.55
   1  -7   5  269.97   22.78
  -6   2  -5   27.98    6.74
   2   4  -5   36.28    5.55
   2   4  -5   35.86    5.97
  -6   2  -5   28.79    5.90
  -6   2  -5   26.27    5.62
  -6   2  -5   39.89    7.66
  -6   2  -5   29.74    5.61
  -2  -4   5   36.21    7.01
   6  -2   5   23.23    4.66
  -4   6   5   31.93    5.34
  -2  -4   5   28.93    5.39
   6  -2   5   34.67    7.24
  -2  -4   5   39.23    6.47
  -2  -4   5   35.62    6.52
   6  -2   5   24.95    6.21
  -6   5  -5   42.41    8.02
  -6   5  -5   39.18    7.37
   5   1  -5   15.75    5.81
  -6   5  -5   39.92    7.33
   5   1  -5   42.26    6.40
   5   1  -5   34.22    6.77
  -6   5  -5   52.19    8.63
  -5  -1   5   36.57    7.10
  -5  -1   5   38.23    7.43
  -5  -1   5   35.05    7.57
   6  -5   5   49.68    8.75
  -1   6   5   58.61    7.23
   6  -5   5   55.77    9.13
  -5  -1   5   34.14    8.54
   8  -2  -5  132.86   16.89
   8  -2  -5  141.70   15.42
  -6   8  -5  152.33   15.46
  -6   8  -5   87.69   13.33
  -6   8  -5  119.98   11.27
   2   6   5  150.20   13.62
  -8   2   5  127.01   15.15
   6  -8   5  123.15   14.20
  -8   2   5  133.98   16.40
  -8   2   5  166.82   16.74
   6  -8   5  120.24   15.17
   2   6   5  119.59   13.96
  -8   2   5  124.79   15.48
  11  -5  -5   39.12   12.78
  -6  11  -5   32.90    8.44
  -6  11  -5   44.58   10.65
  -5  -6  -5   48.19   10.59
 -11   5   5   15.42    8.05
   5   6   5   48.09    9.14
 -11   5   5   40.23   10.49
   5   6   5   44.98    8.84
  -7  -5  -5   33.73   10.54
  -5  12  -5   29.66    9.79
  -5  12  -5   38.62    9.50
   7   5   5   42.18    9.39
 -12   7   5   27.21   10.47
   7   5   5   34.58    9.61
 -12   7   5   27.24    9.85
   9  -7  -5   12.65    6.94
   9  -7  -5    8.20    7.73
  -7  -2  -5   12.82    6.24
  -7  -2  -5    4.32    5.76
  -2   9  -5   16.40    5.67
  -2   9  -5   16.83    6.11
  -9   7   5    3.75    4.65
   7   2   5    2.77    4.89
   7   2   5    5.64    4.48
  -9   7   5    9.06    5.22
  -9   7   5   14.47    7.32
   6  -7  -5  261.88   22.36
  -7   1  -5  275.70   23.80
  -7   1  -5  287.33   24.23
   1   6  -5  268.32   21.36
   1   6  -5  282.03   21.89
   6  -7  -5  246.50   21.79
  -7   1  -5  268.75   22.58
  -7   1  -5  243.77   21.93
   7  -1   5  267.05   21.34
   7  -1   5  275.03   22.88
  -6   7   5  282.14   22.65
  -1  -6   5  269.81   22.80
  -1  -6   5  287.61   21.79
  -6   7   5  304.11   22.00
   7  -1   5  268.21   22.04
   4   3  -5  100.38    9.20
   4   3  -5  111.32   11.18
  -7   4  -5  105.32   12.67
  -7   4  -5  126.70   13.79
  -7   4  -5  112.86   12.43
  -7   4  -5  116.00   12.64
  -7   4  -5   96.77   10.31
   7  -4   5  109.66   13.26
  -3   7   5  127.08   10.80
  -4  -3   5  107.79   12.18
  -4  -3   5   92.85   12.37
   7  -4   5   99.37    9.75
   7  -4   5  122.47   13.69
  -4  -3   5  134.65   14.50
  -3   7   5  126.35    9.69
  -7   7  -5    4.17    4.00
  -7   7  -5   10.77    5.09
   7   0  -5    9.27    6.25
   7   0  -5   10.85    5.52
  -7   7  -5    9.16    5.32
  -7   7  -5   10.14    5.83
   7   0  -5   19.36    5.30
   7  -7   5   12.74    6.88
  -7   0   5   23.05    7.49
  -7   0   5    8.71    5.17
   0   7   5   11.12    4.74
   0   7   5   15.25    5.32
  -7   0   5   12.22    5.83
  -7   0   5   12.49    7.75
   7  -7   5   19.50    7.72
  -7  10  -5  252.82   23.92
  10  -3  -5  256.50   27.52
  -3  -7  -5  247.10   23.19
  -7  10  -5  294.31   25.95
 -10   3   5  218.16   32.12
 -10   3   5  254.35   24.62
   3   7   5  249.78   20.46
   3   7   5  235.52   22.17
   3   7   5  285.33   22.88
 -10   3   5  277.86   26.23
  -7  13  -5    0.54    7.64
  -6  -7  -5   11.02    8.11
   6   7   5   13.87    7.18
   6   7   5    6.94    6.59
 -13   6   5    1.08    7.61
  -8  -6  -5   11.40    8.56
  -6  14  -5   10.56    8.51
 -14   8   5   14.41    8.95
   8   6   5   10.01    7.42
   8   6   5    1.87    5.87
  -8  -3  -5    3.36    7.23
  11  -8  -5    9.16    8.36
  -3  11  -5    7.50    6.11
  -3  11  -5    4.01    4.68
 -11   8   5   12.27    8.23
   8   3   5   13.25    6.44
   8   3   5    2.32    5.13
 -11   8   5    9.00    6.42
   8  -8  -5  260.13   23.16
  -8   0  -5  241.46   22.58
   8  -8  -5  218.98   22.74
   0   8  -5  226.21   20.34
  -8   0  -5  232.66   23.16
  -8   0  -5  247.89   23.48
   8   0   5  224.15   20.41
  -8   8   5  248.06   22.76
   0  -8   5  225.24   22.10
   0  -8   5  247.70   20.32
   8   0   5  228.90   20.99
  -8   8   5  247.42   20.59
   5  -8  -5   19.20    4.22
  -8   3  -5   10.20    5.31
   3   5  -5   16.37    5.35
  -8   3  -5   10.21    4.96
  -8   3  -5   16.36    5.95
   3   5  -5   12.95    4.53
  -8   3  -5   20.60    7.15
  -8   3  -5   12.35    7.00
   8  -3   5   18.17    5.01
  -5   8   5   17.28    5.27
  -3  -5   5    8.48    5.95
   8  -3   5   15.76    6.30
  -5   8   5   13.87    4.73
  -3  -5   5   16.95    5.55
  -3  -5   5   15.00    5.77
   8  -3   5   25.29    8.27
  -8   6  -5  123.50   14.49
  -8   6  -5  136.21   15.66
   6   2  -5  137.42   12.84
  -8   6  -5  115.01   15.30
   6   2  -5  124.68   13.21
  -8   6  -5  131.36   14.60
   6   2  -5  131.86   13.31
  -2   8   5  135.41   12.39
   8  -6   5  133.59   16.12
  -6  -2   5  146.05   18.18
  -6  -2   5  156.89   16.13
  -6  -2   5  125.12   15.63
   8  -6   5  115.72   15.27
  -1  -8  -5  195.39   18.81
  -8   9  -5  173.51   19.14
  -8   9  -5  216.26   21.52
   9  -1  -5  216.55   18.69
  -8   9  -5  192.48   21.00
   8  -9   5  195.40   22.03
   8  -9   5  207.53   21.68
  -9   1   5  238.91   22.86
   1   8   5  148.88   18.61
  -9   1   5  242.48   23.77
   1   8   5  194.91   18.05
  -9   1   5  206.91   20.72
  -8  12  -5  137.59   19.57
  -8  12  -5  121.98   17.43
  -4  -8  -5  121.73   17.36
   4   8   5  160.13   16.31
   4   8   5  111.72   15.61
 -12   4   5  131.60   18.77
  -7  -8  -5    0.27    8.10
  -8  15  -5   -4.34    8.31
   7   8   5    4.25    7.25
 -15   7   5    5.94    8.96
   7   8   5    4.11    6.90
  -9  -7  -5   12.70    9.71
  -7  16  -5   11.93   10.53
   9   7   5    5.97    8.77
  -4  13  -5   51.16   12.14
  -9  -4  -5   59.21   14.05
 -13   9   5  100.85   17.74
   9   4   5   57.15   11.99
   9   4   5   33.31    9.38
  -9  -1  -5    5.61    6.65
  -1  10  -5   -0.03    5.08
  -1  10  -5    6.50    5.02
   9   1   5    9.37    5.78
   9   1   5    3.39    4.35
 -10   9   5    1.14    6.52
  -9   2  -5    9.77    5.83
   2   7  -5    5.96    4.41
   7  -9  -5    6.12    5.85
   2   7  -5   22.02    6.49
  -9   2  -5   18.29    7.84
  -9   2  -5   13.68    7.80
  -7   9   5   -0.44    5.01
   9  -2   5    8.33    4.88
  -2  -7   5   14.17    5.99
  -7   9   5    1.95    4.37
  -2  -7   5    7.37    5.90
  -9   5  -5  161.30   15.50
  -9   5  -5  199.47   18.79
  -9   5  -5  178.72   18.13
   5   4  -5  150.32   15.90
  -9   5  -5  205.45   19.85
  -9   5  -5  188.21   19.10
  -4   9   5  168.05   14.59
  -5  -4   5  161.91   17.51
  -4   9   5  161.88   14.77
   9  -5   5  180.96   19.22
  -5  -4   5  149.24   19.31
  -5  -4   5  170.92   17.79
   9  -5   5  190.12   20.61
  -9   8  -5  199.55   21.21
  -9   8  -5  191.03   20.32
   8   1  -5  189.53   18.48
  -8  -1   5  207.15   23.86
   9  -8   5  179.48   21.88
  -8  -1   5  179.01   20.32
   9  -8   5  222.35   22.95
  -8  -1   5  207.79   22.27
  -1   9   5  246.26   18.61
  -9  11  -5    5.75    6.56
  11  -2  -5   24.76    7.17
  -9  11  -5   26.21    9.94
  -2  -9  -5   19.76    7.75
 -11   2   5   32.00   11.05
   2   9   5   37.82    8.70
 -11   2   5   23.40    8.78
   2   9   5   20.43    7.38
  -9  14  -5   18.53   10.93
  -5  -9  -5    1.81    7.51
 -14   5   5   -9.31    7.38
   5   9   5    5.19    6.16
   5   9   5   -2.02    6.64
  -5  15  -5   -0.27    8.09
 -10  -5  -5    3.49    8.55
  10   5   5   14.70    8.62
  -2  12  -5   22.22    8.74
 -10  -2  -5   39.20   11.13
 -12  10   5   37.52   12.31
  10   2   5   20.59    8.67
  10   2   5   24.05    8.07
   1   9  -5    0.01    4.37
 -10   1  -5    2.42    5.77
  10  -1   5   -1.55    4.54
  -1  -9   5   -0.71    5.67
  10  -1   5    1.61    4.87
  -9  10   5    7.32    6.60
 -10   4  -5    9.13    5.72
   6 -10  -5   14.50    5.60
   4   6  -5   13.55    6.15
 -10   4  -5   11.27    8.36
 -10   4  -5   24.36    9.12
  -6  10   5    7.32    5.86
  -4  -6   5    1.52    6.50
 -10   7  -5  264.84   25.28
 -10   7  -5  249.70   24.71
 -10   7  -5  274.69   25.38
   7   3  -5  236.13   22.71
  -3  10   5  259.70   20.19
  -3  10   5  258.71   20.26
  -3  10   5  290.17   21.44
  10  -7   5  267.18   26.93
  -7  -3   5  288.07   26.03
  10  -7   5  266.25   30.54
  10   0  -5   45.34    9.24
   0 -10  -5   38.51    8.36
 -10  10  -5   33.18   10.68
 -10  10  -5   24.18    8.42
 -10   0   5   30.35   12.48
 -10   0   5   31.47    9.89
   0  10   5   45.24    8.47
  13  -3  -5   -6.94    5.14
 -10  13  -5    2.32    9.32
  -3 -10  -5   -3.59    6.19
   3  10   5   -1.05    5.34
 -13   3   5    5.97    7.65
   3  10   5    1.50    6.54
  -6 -10  -5   11.68    9.98
  16  -6  -5   13.51    8.39
 -10  16  -5    7.96   11.64
 -16   6   5   15.07   11.26
   6  10   5    6.07    7.35
 -11  -3  -5    0.84    8.45
  -3  14  -5   29.80   10.57
  11   3   5   21.27    9.43
 -14  11   5    7.00   11.52
 -11   0  -5    0.52    6.58
   0  11  -5    4.09    5.98
 -11  11   5   -1.26    8.02
  11   0   5    1.59    6.03
   3   8  -5    4.57    5.18
 -11   3  -5    5.73    8.35
   3   8  -5    2.30    4.65
 -11   3  -5    4.73    5.98
  -3  -8   5   11.28    7.19
  -8  11   5    7.74    6.23
 -11   6  -5   36.41   11.27
 -11   6  -5   46.23    9.25
   6   5  -5   47.55    9.08
  -5  11   5   37.33    7.99
  -6  -5   5   32.65    9.64
 -11   9  -5   24.15   10.21
   9   2  -5   31.88    8.64
 -11   9  -5   27.49    9.66
  -2  11   5   29.87    9.65
  -9  -2   5   24.47    9.56
 -11  12  -5   13.13    7.88
 -11  12  -5    8.17   10.14
  -1 -11  -5    6.64    6.78
  12  -1  -5   -2.09    6.24
   1  11   5   11.98    6.63
 -12   1   5    6.49    7.94
  -4 -11  -5   12.41    9.08
  15  -4  -5    0.61    6.70
 -11  15  -5    6.13   11.19
   4  11   5    1.49    7.17
 -15   4   5   -2.01    9.64
   4  11   5    2.01    7.33
 -12  -1  -5   31.72   12.65
  -1  13  -5   12.24    8.38
  12   1   5   35.57   10.85
 -13  12   5   29.00   12.63
   2  10  -5   23.19    7.44
 -12   2  -5   25.60    9.29
  12  -2   5   14.81    7.58
  -2 -10   5   17.67    9.30
 -10  12   5   16.22    9.22
   5   7  -5   35.49    8.93
   5   7  -5   34.66    8.75
 -12   5  -5   33.08   11.68
 -12   5  -5   27.18    8.77
  -5  -7   5   52.37   12.15
  -7  12   5   34.75    8.79
   8   4  -5  119.25   15.99
  -4  12   5  128.06   12.97
  -4  12   5  128.89   13.75
  -8  -4   5  132.30   19.10
 -12  11  -5    9.32    8.37
 -12  11  -5    2.42    8.63
  11   1  -5    9.77    7.40
 -11  -1   5    5.02    7.64
  -2 -12  -5    3.16    7.59
 -12  14  -5    3.19   11.25
  14  -2  -5   -2.70    6.46
 -14   2   5  -10.03    7.94
   2  12   5    3.81    4.57
   2  12   5   -7.39    7.53
  -2  15  -5   -4.02    7.91
 -13  -2  -5    5.24   10.28
 -15  13   5    0.82   12.39
  13   2   5   18.18    9.93
 -13   1  -5   13.57    9.43
   1  12  -5   19.89    8.52
  13  -1   5   15.90    8.06
 -12  13   5   14.52   10.97
 -13   4  -5   49.91   12.11
   4   9  -5   36.77    9.49
   4   9  -5   45.90   10.15
  -9  13   5   65.87   13.12
  -4  -9   5   43.88   12.08
   7   6  -5    7.25    6.26
  -6  13   5    0.57    5.77
  -7  -6   5   22.37   10.14
  10   3  -5    9.84    7.46
 -10  -3   5   -0.22    8.27
  -3  13   5    0.68    4.79
  13   0  -5    8.21    7.85
 -13  13  -5    5.82   11.57
 -13   0   5   -3.24    7.59
   0  14  -5    2.18    7.97
 -14   0  -5    6.09   10.44
  14   0   5   -5.15    7.20
 -14  14   5   -1.84   11.41
   3  11  -5   13.81    8.06
 -14   3  -5   31.71   11.19
  14  -3   5   17.67    8.47
 -11  14   5   23.59   11.09
 -14   6  -5   10.70    8.38
   6   8  -5   23.82    8.31
   6   8  -5    5.62    5.90
  -8  14   5   16.30    8.24
  -6  -8   5    8.49    9.27
   9   5  -5    6.27    6.14
  -5  14   5   -1.90    5.39
  -9  -5   5   -4.81    8.39
  12   2  -5   -0.47    6.90
 -12  -2   5   -1.83    7.18
  -2  14   5    4.43    5.31
   2  13  -5    3.96    7.49
 -15   2  -5    8.69   10.70
  15  -2   5   -8.12    7.17
 -13  15   5    0.51   11.19
 -15   5  -5    7.97    8.86
   5  10  -5   15.65    7.96
   5  10  -5    0.33    7.02
  -5 -10   5    1.52    9.75
 -10  15   5   10.86   10.27
   8   7  -5   10.72    7.37
  -8  -7   5    7.25   10.19
  -7  15   5    7.51    7.19
  11   4  -5   -0.56    6.36
  -4  15   5    1.63    5.07
 -11  -4   5   -0.78    9.46
   7   9  -5    1.27    5.66
   7   9  -5   -2.29    7.27
  -7  -9   5    0.06   10.07
  -9  16   5   -0.05    7.97
  10   6  -5   20.27    9.34
 -10  -6   5   15.62   11.90
  -6  16   5    8.98    7.40
   0   0  -6  286.32   20.76
   0   0  -6  268.18   19.86
   0   0   6  297.85   19.85
   0   0   6  261.51   20.01
   0   0   6  297.60   20.59
  -1   2  -6   50.82    6.98
   2  -1  -6   38.81    5.40
   2  -1  -6   38.69    6.52
  -1   2  -6   50.60    6.20
  -1   2  -6   58.18    6.16
  -1   2  -6   51.05    6.00
   1  -2   6   58.96    7.08
   1  -2   6   50.23    6.08
  -2   1   6   38.81    5.65
  -2   1   6   48.58    5.58
   1  -2   6   60.83    5.86
  -2   1   6   42.99    6.32
   1  -2   6   56.70    5.99
   1   1  -6   31.84    5.92
  -2   1  -6   45.68    6.20
   1   1  -6   32.98    4.81
  -2   1  -6   41.47    5.38
  -2   1  -6   39.16    5.54
  -2   1  -6   47.42    5.35
  -1   2   6   42.44    4.26
  -1   2   6   42.21    4.35
  -1  -1   6   28.94    5.13
   2  -1   6   45.59    5.18
  -1  -1   6   21.71    5.45
  -1  -1   6   33.90    5.01
   2  -1   6   47.60    5.75
   2  -1   6   40.77    6.03
  -2   4  -6  615.89   42.45
  -2   4  -6  601.74   42.06
   4  -2  -6  564.01   42.44
  -2   4  -6  618.85   42.24
   4  -2  -6  636.89   43.99
  -2   4  -6  630.92   42.56
  -2  -2  -6  624.07   39.83
   2  -4   6  612.78   43.43
   2   2   6  600.24   41.77
   2   2   6  641.26   40.41
  -4   2   6  654.53   42.50
   2  -4   6  551.00   41.91
   2  -4   6  602.56   42.20
   2   2   6  587.47   39.90
   2   2   6  628.70   40.74
  -4   2   6  623.99   43.28
  -4   2   6  674.80   43.03
  -3   0  -6    6.49    3.60
   0   3  -6    5.59    3.19
  -3   0  -6    9.19    3.52
  -3   0  -6    9.49    3.07
   0   3  -6   12.41    3.21
   0   3  -6   15.33    3.82
   3  -3  -6    3.29    3.10
   0  -3   6   13.56    3.34
   0  -3   6   13.35    3.64
  -3   3   6    9.66    3.51
   3   0   6    9.07    2.83
   0  -3   6   11.21    4.26
   3   0   6    6.69    2.92
   0  -3   6   13.23    3.73
   3   0  -6   50.72    8.04
  -3   3  -6   32.40    5.69
   3   0  -6   55.59    7.29
  -3   3  -6   32.98    6.17
   3   0  -6   49.94    5.95
  -3   3  -6   28.40    5.51
  -3   3  -6   28.88    5.39
  -3   0   6   53.41    6.59
   3  -3   6   26.49    6.04
  -3   0   6   50.07    6.95
  -3   0   6   44.07    7.52
   3  -3   6   31.46    5.99
   3  -3   6   31.90    5.44
  -3   6  -6   45.74    7.31
   6  -3  -6   39.71    8.57
  -3   6  -6   35.15    5.48
  -3   6  -6   37.50    6.94
   6  -3  -6   36.41    7.19
   3  -6   6   35.23    6.62
   3   3   6   27.29    5.71
  -6   3   6   34.99    6.98
  -6   3   6   47.45    7.70
   3  -6   6   47.39    8.16
   3  -6   6   38.94    6.78
   3   3   6   22.51    5.13
   3   3   6   32.01    5.38
  -6   3   6   34.29    7.20
   5  -4  -6   30.99    6.84
  -4  -1  -6   23.95    4.46
  -4  -1  -6   24.45    5.28
   5  -4  -6   20.34    5.40
  -4  -1  -6   27.99    5.24
  -1   5  -6   37.90    4.58
  -1   5  -6   31.73    5.74
  -1   5  -6   38.26    6.56
  -1   5  -6   39.37    4.90
  -5   4   6   25.32    5.73
  -5   4   6   22.25    5.82
   1  -5   6   36.21    7.00
   1  -5   6   32.80    5.74
  -5   4   6   15.08    4.28
   4   1   6   27.47    5.36
   4   1   6   27.98    5.23
   1  -5   6   29.46    5.70
  -5   4   6   20.27    4.85
   2   2  -6  653.04   42.84
   2   2  -6  630.30   43.97
  -4   2  -6  594.89   44.04
  -4   2  -6  650.13   43.97
  -4   2  -6  669.07   43.69
  -4   2  -6  635.78   43.40
   2   2  -6  613.65   43.34
  -2  -2   6  615.55   43.44
   4  -2   6  617.04   43.87
  -2  -2   6  634.30   42.81
  -2   4   6  656.62   41.20
   4  -2   6  645.45   43.77
  -2   4   6  588.60   41.16
   4  -2   6  629.83   44.32
  -2  -2   6  651.20   44.98
  -4   5  -6   16.21    4.97
  -4   5  -6   18.73    4.96
  -4   5  -6   14.11    4.49
   5  -1  -6   11.47    4.94
   5  -1  -6    6.12    2.89
  -4   5  -6   13.48    4.64
   5  -1  -6    8.71    5.61
   1   4   6   26.53    5.39
   1   4   6   23.99    4.70
   4  -5   6   21.10    5.91
  -5   1   6    6.17    5.28
   4  -5   6   24.34    5.33
  -5   1   6    6.83    4.26
   4  -5   6   21.77    5.47
  -5   1   6    6.04    4.33
  -4   8  -6  151.44   15.08
   8  -4  -6  148.45   16.26
   8  -4  -6  154.85   17.81
  -4   8  -6  170.87   16.14
   4   4   6  122.80   13.40
   4  -8   6  139.70   14.80
   4  -8   6  165.47   16.51
  -8   4   6  157.28   15.64
   4   4   6  135.79   14.27
  -8   4   6  143.88   15.65
  -8   4   6  149.02   16.30
   4   4   6  122.28   13.56
  -2   7  -6    4.84    3.98
   7  -5  -6    6.98    5.93
  -5  -2  -6   29.32    6.70
  -5  -2  -6   19.56    5.17
  -5  -2  -6   21.38    4.04
  -2   7  -6   17.84    5.03
   7  -5  -6    7.96    4.57
  -5  -2  -6   18.87    5.24
   2  -7   6   14.50    5.53
   2  -7   6   11.70    4.84
  -7   5   6   11.09    5.21
   5   2   6   26.82    5.88
  -7   5   6   17.13    5.67
  -7   5   6    8.07    4.64
   5   2   6   22.93    5.48
  -5   1  -6   30.30    6.35
   1   4  -6   20.94    4.57
   1   4  -6   27.16    4.61
   1   4  -6   25.23    4.32
  -5   1  -6   42.18    6.24
   1   4  -6   36.65    5.99
  -5   1  -6   39.00    7.20
   4  -5  -6   21.27    4.59
  -1  -4   6   18.72    4.61
  -1  -4   6   29.28    6.57
   5  -1   6   34.17    6.47
   5  -1   6   31.86    5.41
   5  -1   6   28.36    6.22
  -4   5   6   17.37    4.64
  -1  -4   6   24.28    5.16
  -4   5   6   13.77    6.32
   4   1  -6   16.70    5.28
  -5   4  -6   16.71    5.05
  -5   4  -6   18.91    5.54
   4   1  -6   12.83    5.69
   4   1  -6   17.65    4.17
  -5   4  -6   16.76    4.89
  -5   4  -6   15.47    5.54
   5  -4   6   19.95    6.02
  -4  -1   6   13.80    4.78
   5  -4   6   23.82    6.41
  -4  -1   6   23.47    6.87
  -4  -1   6   22.41    6.05
  -1   5   6    4.09    3.56
   7  -2  -6    3.44    4.44
  -5   7  -6   17.41    5.89
  -5   7  -6   10.51    4.28
   7  -2  -6    7.93    6.82
  -5   7  -6   10.65    4.56
  -5   7  -6   14.28    4.67
  -7   2   6    1.80    4.58
  -7   2   6    1.38    4.14
   5  -7   6    5.74    4.98
  -7   2   6   -0.62    4.39
  -7   2   6    5.90    5.37
   2   5   6    3.37    3.61
   5  -7   6   12.76    5.53
   2   5   6    4.44    4.03
  -5  -5  -6   -3.00    5.59
  -5  10  -6    0.64    4.81
  10  -5  -6    1.68    8.56
  10  -5  -6   -1.82    6.26
  -5  10  -6   -2.70    5.19
   5   5   6   -0.47    4.90
   5   5   6   -7.35    4.22
 -10   5   6   -3.40    6.01
 -10   5   6   -2.66    5.76
  -6  -3  -6    8.45    5.97
  -6  -3  -6    5.44    5.27
   9  -6  -6   11.16    6.40
   9  -6  -6   14.12    8.47
  -6  -3  -6    9.65    3.57
  -3   9  -6    5.08    5.48
  -6  -3  -6   -0.72    7.70
  -3   9  -6    1.72    4.41
   3  -9   6    1.76    7.82
   6   3   6    3.43    4.55
   3  -9   6    4.87    4.97
   6   3   6   16.91    5.76
  -9   6   6    1.45    4.75
  -9   6   6    4.19    5.41
  -6   0  -6  375.22   27.12
   0   6  -6  335.97   25.91
   6  -6  -6  291.57   25.82
  -6   0  -6  350.77   26.35
  -6   0  -6  350.39   25.22
  -6   0  -6  302.45   26.16
   6  -6  -6  299.25   25.48
   0   6  -6  327.10   25.08
   0  -6   6  313.85   26.37
  -6   6   6  355.81   26.01
  -6   6   6  305.83   25.59
   0  -6   6  320.13   24.21
   6   0   6  331.99   24.84
   3   3  -6   25.73    5.24
  -6   3  -6   41.08    7.23
  -6   3  -6   33.64    6.44
   3   3  -6   24.24    4.87
  -6   3  -6   25.11    6.60
  -6   3  -6   35.08    5.79
  -6   3  -6   35.64    7.35
   3   3  -6   32.67    5.60
   3   3  -6   14.79    4.63
  -3  -3   6   25.10    7.06
  -3  -3   6   23.24    5.81
  -3  -3   6   30.23    6.28
  -3   6   6   33.98    4.68
   6  -3   6   27.01    6.60
  -3   6   6   36.07    6.22
   6  -3   6   45.21    8.28
   6  -3   6   36.78    5.25
  -6   6  -6  514.88   37.46
  -6   6  -6  501.62   37.19
  -6   6  -6  526.65   37.25
  -6   6  -6  512.13   36.95
   6   0  -6  466.10   38.45
   6   0  -6  499.39   34.97
   6   0  -6  462.28   36.99
  -6   0   6  470.90   38.89
   0   6   6  498.44   35.37
   0   6   6  494.02   35.33
  -6   0   6  500.65   38.05
  -6   0   6  453.64   36.14
  -6   0   6  472.64   37.02
   6  -6   6  524.21   38.64
   6  -6   6  516.33   37.97
  -6   9  -6    6.86    5.38
   9  -3  -6    3.92    7.91
   9  -3  -6    7.80    5.96
  -6   9  -6    6.36    6.17
  -3  -6  -6    1.85    5.26
  -9   3   6   -0.17    6.14
  -9   3   6    9.17    6.74
   3   6   6    7.14    4.80
   3   6   6   11.73    4.53
  -9   3   6   -1.06    4.77
   6  -9   6    5.92    6.49
  -9   3   6    2.32    5.90
   3   6   6   14.00    5.65
   6  -9   6    2.98    5.40
  -6  -6  -6   61.41   12.61
  -6  12  -6   41.64   11.77
  -6  12  -6   60.88   12.32
   6   6   6   69.54   11.61
 -12   6   6   62.29   13.64
 -12   6   6   73.57   12.88
   6   6   6   54.74   10.78
  -4  11  -6    5.45    5.85
  11  -7  -6   18.75    8.64
  -4  11  -6   21.52    8.51
  -7  -4  -6   18.15    8.36
 -11   7   6   16.41    8.86
   7   4   6    4.62    5.57
 -11   7   6   12.39    6.95
   7   4   6    0.37    4.87
  -7  -1  -6    3.12    5.66
  -7  -1  -6    3.44    5.59
  -7  -1  -6    4.78    3.83
  -1   8  -6   14.62    5.47
  -7  -1  -6    4.28    5.29
   8  -7  -6    1.85    5.51
  -1   8  -6    6.75    4.59
   8  -7  -6    2.94    6.71
  -8   7   6    7.26    5.14
   7   1   6   10.37    4.86
   7   1   6    6.03    4.73
   1  -8   6   12.43    4.85
  -8   7   6    7.47    6.49
   1  -8   6    2.93    5.59
  -7   2  -6   17.62    5.02
   5  -7  -6    4.28    3.63
   2   5  -6   19.30    5.02
  -7   2  -6   15.34    6.58
  -7   2  -6   12.53    4.94
  -7   2  -6   10.79    5.56
   2   5  -6   28.53    5.60
  -7   2  -6   13.21    4.72
  -2  -5   6   15.73    6.40
   7  -2   6    8.00    4.87
   7  -2   6   14.72    4.24
  -2  -5   6   30.30    6.18
   7  -2   6    3.77    3.90
  -5   7   6    7.80    4.02
  -5   7   6   14.28    5.21
   5   2  -6    3.98    4.34
  -7   5  -6    3.59    3.94
  -7   5  -6    9.60    5.46
   5   2  -6    4.48    3.67
  -7   5  -6   10.80    5.86
   5   2  -6    1.75    3.79
  -7   5  -6   10.94    5.09
   7  -5   6   11.25    5.93
   7  -5   6   17.81    7.14
  -5  -2   6    1.20    5.79
  -5  -2   6   12.16    5.39
  -5  -2   6    1.43    4.68
  -2   7   6    4.72    3.91
  -5  -2   6    2.23    4.57
  -7   8  -6    7.89    6.52
   8  -1  -6    7.33    4.32
  -7   8  -6    5.44    5.60
   8  -1  -6   -3.55    4.67
  -7   8  -6    7.81    5.01
   8  -1  -6    4.63    6.86
  -7   8  -6    2.83    4.80
   1   7   6   16.26    5.67
  -8   1   6    8.98    7.39
  -8   1   6    7.12    6.53
  -8   1   6   -0.42    5.40
   7  -8   6    6.87    7.35
  -8   1   6    1.94    4.89
   1   7   6   26.38    6.59
   7  -8   6   14.60    7.57
  -7  11  -6    4.07    5.39
  -7  11  -6    2.58    7.34
  -4  -7  -6    4.24    5.96
   4   7   6    4.84    5.14
   4   7   6   14.91    6.33
 -11   4   6    3.14    6.72
  -7  -7  -6    4.68    8.32
  -7  14  -6   12.00    9.68
   7   7   6    9.13    6.62
 -14   7   6    4.35    9.34
   7   7   6    4.85    7.16
  -5  13  -6    3.31    7.27
  -8  -5  -6   12.15    8.74
 -13   8   6   -3.06    7.87
   8   5   6    0.23    5.53
   8   5   6   -1.33    5.78
 -13   8   6    0.21    7.13
  -2  10  -6   47.37    9.92
  10  -8  -6   46.26   11.49
  -8  -2  -6   62.34   11.68
  -2  10  -6   58.06   10.58
   8   2   6   44.82    9.63
 -10   8   6   41.37   11.15
   8   2   6   43.11    9.13
 -10   8   6   36.44    8.81
  -8   1  -6    8.76    7.02
   7  -8  -6   12.17    5.87
   1   7  -6    2.12    4.19
  -8   1  -6    8.84    5.29
  -8   1  -6   13.14    5.88
  -8   1  -6    5.41    5.98
   7  -8  -6    5.10    5.95
   8  -1   6   11.95    5.52
   8  -1   6   14.01    5.37
   8  -1   6   13.69    5.15
  -7   8   6   13.35    5.58
  -7   8   6   11.80    6.04
  -1  -7   6    6.80    4.77
  -1  -7   6    5.76    6.21
   4   4  -6  114.47   13.86
  -8   4  -6  151.30   16.35
  -8   4  -6  174.80   16.33
  -8   4  -6  156.73   16.76
  -8   4  -6  137.34   15.24
  -8   4  -6  148.48   13.72
  -4  -4   6  109.86   16.76
  -4  -4   6   99.50   14.56
  -4  -4   6  116.40   14.43
  -4   8   6  159.25   13.26
  -4   8   6  145.25   12.85
   8  -4   6  152.28   16.57
   8  -4   6  149.38   17.19
   8  -4   6  166.51   13.20
  -8   7  -6   13.86    6.46
   7   1  -6   14.20    5.18
  -8   7  -6    9.36    6.22
  -8   7  -6   13.99    6.80
   7   1  -6   18.09    7.47
  -8   7  -6   11.76    5.72
   7   1  -6   10.21    6.31
   8  -7   6   15.35    7.86
  -7  -1   6   21.07    7.23
  -1   8   6   -3.67    3.78
  -7  -1   6   14.48    7.66
   8  -7   6    7.30    7.16
  -7  -1   6    7.55    8.53
  10  -2  -6   66.10   10.53
  -8  10  -6   60.12   11.79
  -2  -8  -6   88.83   12.60
  -8  10  -6   74.28   13.54
   2   8   6   67.92   10.73
 -10   2   6   68.08   13.16
   2   8   6   96.49   12.59
 -10   2   6   66.55   13.59
  -5  -8  -6    1.57    6.62
  -8  13  -6    1.49    7.53
   5   8   6   -4.45    5.02
 -13   5   6   -2.20    7.22
   5   8   6    1.30    5.71
  -8  16  -6    4.30   10.81
  -8  -8  -6   -7.80    7.50
 -16   8   6   13.42   11.52
   8   8   6   -1.21    7.57
  -6  15  -6    8.41    9.52
  -9  -6  -6   -7.56    7.17
   9   6   6    6.52    7.86
   9   6   6   -2.59    6.80
  -3  12  -6   10.71    7.50
  -9  -3  -6    6.47    6.86
   9   3   6   -0.93    5.15
   9   3   6   -2.47    5.61
 -12   9   6   12.73    9.28
 -12   9   6    2.26    7.78
   0   9  -6    0.43    4.46
  -9   0  -6   -1.21    5.99
   9   0   6    2.07    4.82
   9   0   6    1.80    5.32
  -9   9   6   -0.32    6.16
   0  -9   6   -0.47    4.86
  -9   9   6   -1.12    5.14
  -9   3  -6    2.66    6.83
   3   6  -6   10.01    5.03
   6  -9  -6    8.80    4.74
   3   6  -6   15.38    5.59
  -9   3  -6   -0.84    6.89
   6  -9  -6    4.96    5.24
  -9   3  -6    8.48    5.79
  -9   3  -6   12.34    5.90
  -3  -6   6    8.41    5.98
  -6   9   6    4.42    4.76
  -6   9   6    2.55    4.17
   9  -3   6    3.65    4.34
  -3  -6   6   13.12    6.28
  -3  -6   6    5.97    7.80
   9  -3   6    0.83    6.54
  -9   6  -6    6.66    5.95
   6   3  -6   10.90    5.84
  -9   6  -6   18.58    5.31
  -9   6  -6   13.30    6.39
  -9   6  -6    4.00    5.90
  -9   6  -6   13.80    7.31
   9  -6   6   19.65    8.41
  -6  -3   6   13.65    7.33
   9  -6   6   16.89    7.72
  -3   9   6    1.55    4.37
  -6  -3   6   13.46    8.90
  -6  -3   6    6.28    5.97
  -9   9  -6   -2.01    4.68
   9   0  -6    0.06    4.31
  -9   9  -6    2.61    6.87
  -9   0   6    0.18    7.03
   9  -9   6    1.24    7.68
  -9   0   6   -6.84    5.56
  -9   0   6    7.09    9.25
   0   9   6    0.18    4.86
  -9  12  -6   30.05    9.61
  -9  12  -6   23.93   10.13
  12  -3  -6   19.23    7.69
  -3  -9  -6    2.43    6.66
   3   9   6    5.13    5.70
   3   9   6    9.12    7.13
 -12   3   6   11.53    8.43
  -9  15  -6   -0.16    9.88
  -6  -9  -6    3.15    7.54
 -15   6   6    1.60    8.59
   6   9   6    0.69    6.93
   6   9   6  -12.97    5.67
 -10  -4  -6   23.02   10.80
  -4  14  -6   17.28    8.95
  10   4   6   20.29    8.46
 -14  10   6    4.43   10.52
  10   4   6    6.69    7.76
 -10  -1  -6   10.06    7.79
  -1  11  -6    2.10    6.44
  10   1   6    1.33    6.30
 -11  10   6    4.34    8.73
  10   1   6    5.47    5.85
 -10   2  -6   53.72   10.78
   2   8  -6   49.21    9.60
 -10   2  -6   63.74   13.68
   2   8  -6   41.71    8.67
  -2  -8   6   81.71   12.36
  -8  10   6   42.94   10.27
  10  -2   6   72.15   10.60
 -10   5  -6    0.70    6.74
 -10   5  -6    6.66    6.00
 -10   5  -6    0.65    4.77
 -10   5  -6   -7.22    5.99
   5   5  -6    5.76    5.40
  -5  -5   6   -0.36    6.20
  -5  10   6    2.38    4.71
  10  -5   6    0.71    8.35
  -5  10   6   -1.80    4.41
 -10   8  -6   60.86   11.92
 -10   8  -6   67.58   12.94
   8   2  -6   72.71   11.56
  -8  -2   6   70.28   13.40
  -8  -2   6  109.77   18.96
  10  -8   6   80.22   16.96
  10  -8   6   60.03   13.73
  -2  10   6   80.39   10.64
  11  -1  -6    4.94    5.82
 -10  11  -6   -0.89    7.51
  -1 -10  -6    1.11    5.51
 -10  11  -6    2.86    7.32
   1  10   6    1.96    5.41
 -11   1   6    3.39    6.88
  -4 -10  -6    5.61    7.95
  14  -4  -6    5.66    7.32
 -10  14  -6   13.35   10.91
   4  10   6   11.59    8.37
 -14   4   6    7.28    8.90
   4  10   6   11.78    6.96
  -2  13  -6   -5.65    6.26
 -11  -2  -6   -4.65    7.49
  11   2   6    6.05    7.41
 -13  11   6    5.65   11.02
   1  10  -6    7.37    6.20
 -11   1  -6    3.06    6.29
 -10  11   6    5.69    7.75
  11  -1   6    3.22    6.73
   4   7  -6   -1.69    4.50
 -11   4  -6    1.90    5.43
 -11   4  -6   20.33    9.18
   4   7  -6    3.77    4.91
  -7  11   6    7.25    5.76
  -4  -7   6   10.75    7.56
 -11   7  -6    1.64    7.54
 -11   7  -6    4.38    7.10
   7   4  -6    0.69    4.63
  -4  11   6    5.29    4.30
  -7  -4   6   10.68    8.32
  11  -7   6   11.44   14.93
 -11  10  -6    6.77    7.19
   1 -11  -6    2.86    5.79
  10   1  -6   -0.56    5.07
 -11  10  -6   -4.65    7.29
 -10  -1   6    5.96    7.75
  -1  11   6    0.28    5.50
 -11  13  -6   11.47   10.43
  13  -2  -6    2.52    7.07
  -2 -11  -6    1.14    6.84
 -13   2   6    0.34    7.22
   2  11   6   -1.92    6.21
  -3  15  -6    1.16    8.44
 -12  -3  -6   -3.46    9.38
 -15  12   6   -3.78   11.37
  12   3   6    3.35    8.02
   0  12  -6   18.27    8.21
 -12   0  -6   26.90   11.35
 -12  12   6   75.90   16.41
  12   0   6   17.01    8.99
 -12   3  -6    6.07    7.04
   3   9  -6    5.93    5.50
   3   9  -6    1.87    5.22
  -9  12   6    3.46    7.59
  -3  -9   6   -1.46    7.56
   6   6  -6   56.87   11.00
 -12   6  -6   73.20   11.99
  -6  12   6   61.41   10.46
  -6  -6   6   57.70   12.79
   9   3  -6    6.60    6.24
 -12   9  -6   14.93    9.78
  -3  12   6   12.82    4.90
  -9  -3   6   14.77    8.11
 -12  12  -6   28.62   10.88
  12   0  -6   26.85    9.56
 -12  12  -6   42.80   13.51
   0  12   6   45.80   14.94
 -12   0   6   25.29   10.93
  -3 -12  -6   -0.66    7.48
  15  -3  -6   -2.09    6.79
 -12  15  -6   -5.56   10.56
 -15   3   6   -1.97    9.32
   3  12   6   -1.92    8.22
 -13  -1  -6   -0.14    9.32
  -1  14  -6    1.31    7.88
 -14  13   6   -9.74   11.23
  13   1   6    5.48    8.04
   2  11  -6   -1.86    5.67
 -13   2  -6   10.75    9.10
  13  -2   6   -3.44    6.75
 -11  13   6    7.72    9.07
 -13   5  -6   -5.42    6.04
   5   8  -6    7.27    6.00
   5   8  -6   -3.06    5.48
  -8  13   6    3.79    6.62
  -5  -8   6   -4.14    7.17
   8   5  -6    1.04    5.48
  -8  -5   6   -6.03    7.48
  -5  13   6    8.54    6.29
 -13  11  -6   -1.04    9.64
  11   2  -6   -1.41    6.18
 -11  -2   6   -4.51    6.99
  14  -1  -6   -3.42    6.87
 -13  14  -6   21.34   13.50
 -14   1   6   -5.48    8.43
   1  13  -6    0.15    6.09
 -14   1  -6    6.83   10.20
  14  -1   6    5.19    8.57
 -13  14   6  -13.05    9.32
 -14   4  -6    3.96    8.56
   4  10  -6    9.10    7.93
   4  10  -6   12.66    6.69
  -4 -10   6    6.45    9.49
 -10  14   6   -2.18    7.89
   7   7  -6    1.17    5.91
   7   7  -6    1.75    6.55
  -7  14   6    2.08    5.88
  -7  -7   6   -2.39    9.23
  10   4  -6   14.32    7.39
  -4  14   6   15.48    6.16
 -10  -4   6   19.57    9.86
 -14  13  -6    8.63   16.59
  13   1  -6   -3.76    6.74
 -13  -1   6    4.62    9.78
 -15   3  -6   -4.78    9.61
   3  12  -6   -1.28    6.61
 -12  15   6   -0.16   10.01
  15  -3   6    2.41    8.37
   6   9  -6   -0.49    5.84
 -15   6  -6    4.68    8.25
   6   9  -6    5.35    8.02
  -9  15   6    5.53    8.11
  -6  -9   6    6.76    9.35
   9   6  -6   -0.42    5.93
  -9  -6   6   -0.76    8.50
  -6  15   6    7.84    6.24
  12   3  -6    4.13    7.92
 -12  -3   6   -0.77    9.62
  -3  15   6    3.80    5.47
   8   8  -6   -4.57    7.57
   8   8  -6    4.57    6.46
  -8  -8   6   12.45   10.53
  -8  16   6   11.77    8.19
   1  -1  -7 1718.91  105.61
  -1   0  -7 1521.75  104.64
  -1   0  -7 1521.87  105.33
   0   1  -7 1707.01  106.53
   0   1  -7 1592.62  104.82
   0   1  -7 1688.00  105.68
  -1   0  -7 1525.06  104.51
   1  -1  -7 1661.00  104.76
   1   0   7 1645.40  104.53
   0  -1   7 1702.16  105.67
  -1   1   7 1680.06  104.61
  -1   1   7 1639.71  104.22
   1   0   7 1558.99  104.70
   0  -1   7 1721.25  104.92
   0  -1   7 1598.58  106.38
   0  -1   7 1604.71  105.33
  -1   1   7 1776.89  104.97
   1   0   7 1628.17  104.42
  -1   3  -7  897.92   61.10
  -1   3  -7  901.03   61.67
  -2  -1  -7  974.96   60.27
  -2  -1  -7  945.22   60.20
   3  -2  -7  928.76   62.56
  -1   3  -7  904.61   62.21
  -2  -1  -7  909.79   59.80
  -1   3  -7  941.54   61.88
   2   1   7  920.71   60.61
   1  -3   7  860.25   62.54
   1  -3   7  879.36   61.49
  -3   2   7  892.28   60.65
  -3   2   7 1033.66   62.42
   1  -3   7  968.69   61.08
  -3   2   7 1010.06   61.55
  -3   2   7  909.59   61.28
   2   1   7  874.37   59.77
   1  -3   7  870.13   61.56
   2   1   7  980.52   61.40
   2   0  -7  898.10   58.25
  -2   2  -7  874.52   56.53
  -2   2  -7  833.38   56.71
  -2   2  -7  892.09   57.69
  -2   2  -7  868.31   56.84
   2   0  -7  887.35   56.19
   2  -2   7  871.75   56.90
  -2   0   7  844.80   56.25
   2  -2   7  805.14   56.56
  -2   0   7  831.17   56.76
   2  -2   7  790.74   57.39
   0   2   7  821.13   54.89
   0   2   7  813.20   54.75
  -2   0   7  882.24   58.26
  -2   5  -7   52.55    7.71
  -2   5  -7   49.71    8.03
   5  -3  -7   74.92    8.36
  -3  -2  -7   57.06    5.80
   5  -3  -7   59.46    8.98
  -2   5  -7   49.80    7.86
   5  -3  -7   60.58   10.07
  -5   3   7   51.52    8.39
   3   2   7   47.98    7.48
   2  -5   7   61.05    9.30
   3   2   7   52.71    6.92
   2  -5   7   50.09    7.99
   2  -5   7   53.53    7.94
  -5   3   7   70.35    9.15
   3   2   7   62.57    7.53
  -5   3   7   64.73    9.18
   3   2   7   51.53    6.90
   1   2  -7  994.83   62.46
   1   2  -7 1020.84   61.04
  -3   1  -7  958.13   61.12
   2  -3  -7  856.74   59.04
   2  -3  -7  884.57   58.88
  -3   1  -7  851.96   61.38
  -3   1  -7  884.66   61.13
  -3   1  -7  862.67   63.05
  -2   3   7  876.01   59.67
  -1  -2   7  960.33   62.86
   3  -1   7  859.47   61.29
  -2   3   7  913.65   59.92
  -1  -2   7  947.25   61.59
   3  -1   7  899.51   61.15
  -1  -2   7  982.67   61.56
  -1  -2   7  999.13   60.79
  -3   4  -7   91.75    9.67
  -3   4  -7  102.13   10.51
   4  -1  -7  101.86   11.55
   4  -1  -7   85.70    9.93
  -3   4  -7   91.50    9.58
   4  -1  -7   91.29    9.10
  -3   4  -7   88.18    9.77
   3  -4   7  100.97    9.90
  -4   1   7   93.37   11.17
   1   3   7   78.72    7.36
  -4   1   7   90.38    9.54
   1   3   7   81.18    9.09
  -4   1   7   89.88    9.97
   3  -4   7   91.90   10.66
   3  -4   7   91.06    9.97
   1   3   7   70.45    6.79
  -4  -3  -7    2.07    1.95
  -3   7  -7    7.58    4.56
   7  -4  -7    6.74    4.67
  -3   7  -7    3.84    3.72
   7  -4  -7   -0.50    5.48
  -7   4   7    2.32    4.37
   3  -7   7    3.71    4.04
   3  -7   7    8.38    5.45
  -7   4   7   -0.84    4.26
   4   3   7    3.50    3.94
   4   3   7    3.51    3.70
  -7   4   7    0.53    4.37
   4   3   7    0.62    3.30
   0   4  -7 1148.85   75.00
   0   4  -7 1140.18   74.99
  -4   0  -7 1105.59   75.66
   4  -4  -7 1063.67   75.06
  -4   0  -7 1117.95   75.42
   0   4  -7 1158.92   75.43
  -4   0  -7 1186.73   74.93
   0   4  -7 1181.48   75.96
  -4   4   7 1212.39   75.43
   4   0   7 1026.49   74.22
   4   0   7 1118.54   75.31
  -4   4   7 1229.89   76.09
   0  -4   7 1137.91   75.59
   0  -4   7 1160.45   76.92
   0  -4   7 1115.73   75.24
  -4   3  -7   89.18    9.63
   3   1  -7   92.27   10.10
  -4   3  -7   80.56   10.08
  -4   3  -7   94.72   10.06
   3   1  -7   81.99   10.53
   3   1  -7   82.40    8.89
  -4   3  -7   88.27    9.91
  -1   4   7   99.59    9.53
   4  -3   7   95.16    9.97
  -3  -1   7   87.43    9.17
   4  -3   7   92.30   10.54
  -3  -1   7  104.41   10.27
  -3  -1   7   79.41   11.38
   4  -3   7   90.24   10.56
  -4   6  -7  157.22   15.01
  -4   6  -7  156.86   14.96
  -4   6  -7  170.39   14.71
   6  -2  -7  150.46   15.25
   6  -2  -7  159.82   17.20
  -4   6  -7  156.04   14.48
   4  -6   7  150.87   15.80
  -6   2   7  134.44   14.63
  -6   2   7  141.05   14.71
   4  -6   7  149.42   14.56
   2   4   7  163.27   14.24
   2   4   7  155.04   12.11
   2   4   7  158.22   13.32
   4  -6   7  158.17   15.25
  -6   2   7  145.85   16.02
  -4   9  -7  425.46   34.07
   9  -5  -7  442.76   37.28
  -5  -4  -7  401.94   33.91
  -5  -4  -7  459.47   31.31
   9  -5  -7  415.34   35.13
  -4   9  -7  399.31   33.86
  -5  -4  -7  440.49   31.21
   5   4   7  422.55   33.05
  -9   5   7  385.26   33.55
  -9   5   7  438.98   34.78
   5   4   7  414.67   32.37
   4  -9   7  399.96   33.37
   4  -9   7  435.15   35.46
  -5  -1  -7  219.81   18.27
  -5  -1  -7  204.91   19.34
   6  -5  -7  242.60   21.59
  -5  -1  -7  222.51   19.77
  -1   6  -7  252.07   20.65
   6  -5  -7  248.75   20.87
  -1   6  -7  266.49   20.24
   5   1   7  232.38   19.09
  -6   5   7  260.72   20.65
  -6   5   7  264.55   21.12
  -6   5   7  231.94   17.86
  -6   5   7  247.34   18.31
   1  -6   7  265.68   21.84
   5   1   7  203.68   19.02
   1  -6   7  266.25   20.67
   2   3  -7   71.29    7.68
  -5   2  -7   43.66    7.55
  -5   2  -7   51.09    7.90
   2   3  -7   59.70    7.52
  -5   2  -7   59.32    9.17
  -5   2  -7   57.77    9.04
   2   3  -7   56.92    8.39
   2   3  -7   51.11    7.41
  -2  -3   7   50.08    7.61
  -3   5   7   51.34    6.72
   5  -2   7   54.53    8.83
   5  -2   7   44.79    6.53
  -2  -3   7   60.15    9.56
  -3   5   7   70.34    8.60
  -2  -3   7   42.58    6.95
  -3   5   7   69.03    6.46
  -2  -3   7   58.58    8.12
   5  -2   7   42.82    8.48
  -5   5  -7  552.07   39.93
   5   0  -7  490.27   39.29
  -5   5  -7  553.29   39.54
   5   0  -7  557.00   41.24
  -5   5  -7  522.57   39.15
   5   0  -7  545.15   37.08
  -5   5  -7  548.52   39.46
  -5   0   7  530.63   41.23
   0   5   7  524.85   37.13
   0   5   7  556.23   38.36
   5  -5   7  582.48   40.30
   5  -5   7  558.03   40.78
  -5   0   7  510.35   38.68
  -5   0   7  544.28   39.77
  -5   8  -7  272.08   23.62
   8  -3  -7  261.04   26.40
  -5   8  -7  249.79   19.86
  -5   8  -7  282.86   24.25
   8  -3  -7  266.94   24.26
   3   5   7  290.67   20.37
  -8   3   7  309.41   24.29
   3   5   7  277.55   22.62
  -8   3   7  224.10   23.94
   5  -8   7  264.04   24.98
   3   5   7  250.15   21.26
  -8   3   7  231.69   23.18
   5  -8   7  268.69   24.01
  -6  -5  -7   27.17    8.89
  -5  11  -7   28.71    8.89
  11  -6  -7   20.75   11.40
  -5  11  -7   31.98   10.00
 -11   6   7   32.72    9.90
   6   5   7   40.12    9.61
   6   5   7   47.43    9.62
 -11   6   7   39.52   10.24
   8  -6  -7  124.74   16.31
  -2   8  -7  118.53   14.06
   8  -6  -7  136.39   15.50
  -2   8  -7  128.33   14.32
  -6  -2  -7  139.08   15.32
  -6  -2  -7  140.85   12.35
  -6  -2  -7  144.38   14.84
  -6  -2  -7  125.70   13.99
   6   2   7  139.98   14.07
  -8   6   7  128.98   16.11
   2  -8   7  130.42   14.39
   6   2   7  137.51   14.98
  -8   6   7  152.28   15.13
   2  -8   7  159.40   16.47
  -8   6   7  126.64   13.51
  -6   1  -7  256.58   22.04
  -6   1  -7  261.29   20.83
  -6   1  -7  279.57   22.73
   1   5  -7  214.09   19.93
   5  -6  -7  252.07   20.43
   6  -1   7  271.99   20.83
   6  -1   7  256.70   20.08
   6  -1   7  277.30   21.23
  -1  -5   7  217.09   19.61
  -1  -5   7  232.51   22.09
  -5   6   7  270.73   21.22
  -5   6   7  251.99   20.50
  -6   4  -7  147.91   15.36
  -6   4  -7  157.86   15.33
   4   2  -7  174.23   13.83
   4   2  -7  175.70   15.43
   4   2  -7  166.88   14.50
  -6   4  -7  173.77   16.71
  -6   4  -7  146.71   15.24
  -4  -2   7  150.05   15.18
  -4  -2   7  174.56   17.51
  -4  -2   7  151.46   14.35
  -2   6   7  144.32   13.61
   6  -4   7  146.61   15.90
   6  -4   7  162.00   16.49
  -6   7  -7  452.48   36.72
   7  -1  -7  497.38   34.46
  -6   7  -7  501.70   37.02
  -6   7  -7  479.00   36.12
   7  -1  -7  459.57   37.25
   7  -1  -7  467.89   39.03
   1   6   7  538.41   35.76
   6  -7   7  523.19   37.97
  -7   1   7  457.51   36.96
  -7   1   7  461.26   36.18
   6  -7   7  461.56   38.27
   1   6   7  488.85   34.87
  -7   1   7  461.52   38.67
  -6  10  -7  214.07   22.18
  10  -4  -7  206.28   24.44
  -4  -6  -7  211.14   20.91
  -6  10  -7  222.25   21.78
   4   6   7  208.62   19.44
   4   6   7  235.70   20.54
 -10   4   7  214.68   21.79
 -10   4   7  190.68   21.09
  -7  -6  -7   18.82    9.21
  -6  13  -7   10.09    9.64
 -13   7   7   10.11    8.59
   7   6   7   24.24    8.54
   7   6   7   17.44    7.42
  -7  -3  -7  290.92   26.38
  10  -7  -7  269.88   27.20
  -3  10  -7  296.74   25.70
  -3  10  -7  297.60   26.35
 -10   7   7  256.41   24.36
 -10   7   7  303.75   27.42
   7   3   7  270.52   24.40
   7   3   7  268.81   24.42
   0   7  -7   41.75    7.93
   7  -7  -7   21.46    7.17
  -7   0  -7   40.02    8.63
  -7   0  -7   42.62    7.62
   7  -7  -7   23.33    7.59
  -7   0  -7   29.62    8.72
  -7   0  -7   30.06    8.42
   7   0   7   34.16    7.09
  -7   7   7   25.68    8.08
   0  -7   7   36.79    9.47
   0  -7   7   35.38    7.15
  -7   7   7   26.97    7.32
  -7   3  -7    3.46    5.04
   3   4  -7    3.09    3.16
   3   4  -7    2.18    3.46
  -7   3  -7    6.30    4.16
  -7   3  -7    7.45    5.44
   3   4  -7    1.18    2.65
   3   4  -7    0.86    3.27
  -7   3  -7   -0.22    4.22
  -7   3  -7    2.09    3.41
   7  -3   7    2.53    4.93
  -4   7   7    4.82    3.90
   7  -3   7    3.11    3.11
  -3  -4   7    6.42    5.88
  -4   7   7    8.63    3.67
  -3  -4   7    2.93    4.38
   7  -3   7    6.73    6.00
  -7   6  -7  505.62   38.52
  -7   6  -7  486.39   39.26
   6   1  -7  538.60   36.51
  -7   6  -7  519.49   38.93
   6   1  -7  506.71   39.53
   6   1  -7  465.63   38.07
  -7   6  -7  455.44   37.95
  -6  -1   7  503.94   38.82
  -1   7   7  522.22   36.75
  -6  -1   7  534.51   41.62
   7  -6   7  523.55   39.99
  -6  -1   7  529.83   37.92
   7  -6   7  502.33   40.27
  -6  -1   7  525.84   39.56
   9  -2  -7  289.48   29.20
  -7   9  -7  280.17   26.76
   9  -2  -7  310.78   24.03
  -7   9  -7  293.91   26.28
   7  -9   7  300.72   28.46
  -9   2   7  293.72   28.67
  -9   2   7  299.43   26.40
   2   7   7  328.96   25.46
   7  -9   7  308.54   27.71
  -9   2   7  308.42   27.28
  -9   2   7  302.61   28.03
   2   7   7  229.75   23.36
  -7  12  -7   16.58    8.23
  -7  12  -7    5.65    8.53
  -5  -7  -7    2.89    6.55
   5   7   7   13.86    6.36
   5   7   7   15.81    7.70
 -12   5   7    7.92    7.57
  -8  -7  -7    9.58    9.38
  -7  15  -7    0.02   10.17
 -15   8   7    3.11    9.86
   8   7   7   11.21    8.04
   8   7   7    0.47    7.06
  -8  -4  -7  257.25   25.85
  -4  12  -7  240.73   24.33
   8   4   7  186.63   22.18
   8   4   7  234.37   22.14
 -12   8   7  178.81   22.24
 -12   8   7  179.54   24.46
  -1   9  -7  154.08   16.85
  -1   9  -7  154.18   16.89
  -8  -1  -7  152.02   18.71
  -9   8   7  152.78   16.43
   8   1   7  166.68   16.91
  -9   8   7  170.19   18.96
   8   1   7  162.78   16.43
   6  -8  -7  131.71   13.90
  -8   2  -7  144.25   14.39
   2   6  -7  134.97   13.86
  -8   2  -7  150.97   17.08
   2   6  -7  132.00   13.65
  -8   2  -7  145.16   14.84
  -8   2  -7  138.27   16.18
  -2  -6   7  145.93   16.82
   8  -2   7  124.42   13.12
   8  -2   7  139.44   15.97
   8  -2   7  130.44   14.83
  -6   8   7  131.47   14.44
  -2  -6   7  147.46   14.64
  -6   8   7  119.62   13.61
   5   3  -7  265.11   21.73
   5   3  -7  280.14   21.86
  -8   5  -7  267.19   24.98
   5   3  -7  301.63   21.46
  -8   5  -7  238.13   20.43
  -8   5  -7  259.08   23.62
  -8   5  -7  281.23   23.89
  -8   5  -7  253.28   23.85
  -5  -3   7  298.10   27.04
  -5  -3   7  282.52   23.96
   8  -5   7  266.02   20.15
  -3   8   7  222.16   19.01
  -3   8   7  256.83   21.11
   8  -5   7  298.86   25.93
  -5  -3   7  300.36   24.89
   8  -5   7  224.60   24.07
  -8   8  -7 1510.01  105.04
  -8   8  -7 1616.03  106.16
   8   0  -7 1492.13  102.47
   0   8   7 1596.86  102.82
  -8   0   7 1652.64  107.53
   8  -8   7 1539.74  106.71
  -8   0   7 1504.62  105.61
   8  -8   7 1566.95  107.53
  -8   0   7 1483.15  108.10
  -3  -8  -7    4.31    5.77
  -8  11  -7   13.61    8.63
  11  -3  -7   13.41    6.21
  -8  11  -7   11.53    6.75
   3   8   7   10.16    6.14
 -11   3   7    9.60    7.71
   3   8   7    7.14    6.36
  -8  14  -7   18.39   10.69
  -6  -8  -7    4.74    8.37
   6   8   7   11.94    7.79
   6   8   7   11.92    8.27
 -14   6   7    4.49    7.36
  -5  14  -7   -5.44    7.71
  -9  -5  -7    0.92    7.72
   9   5   7   -9.19    6.01
   9   5   7    3.32    7.33
 -14   9   7    2.45    8.58
  -2  11  -7   46.07   10.93
  -2  11  -7   29.59    8.96
  -9  -2  -7   49.53   11.85
   9   2   7   39.06    9.22
   9   2   7   56.98   11.26
 -11   9   7   35.21   11.33
 -11   9   7   25.75    8.29
  -9   1  -7  140.38   17.54
   1   8  -7  154.47   16.02
  -9   1  -7  167.20   19.37
  -8   9   7  123.53   16.94
   9  -1   7  154.64   15.44
  -1  -8   7  151.39   15.85
  -8   9   7  137.17   16.85
  -9   4  -7  424.11   36.09
  -9   4  -7  487.36   35.60
   4   5  -7  337.79   31.75
  -9   4  -7  452.31   36.33
   4   5  -7  415.55   32.88
  -9   4  -7  444.37   32.85
  -4  -5   7  394.97   36.80
   9  -4   7  458.46   32.01
  -5   9   7  443.71   31.48
   9  -4   7  448.40   36.61
  -5   9   7  404.90   31.70
  -4  -5   7  445.95   34.45
   7   2  -7  319.91   24.65
  -9   7  -7  279.37   27.01
  -9   7  -7  272.52   25.76
  -9   7  -7  260.92   25.96
   9  -7   7  290.92   28.04
  -7  -2   7  293.04   26.60
  -7  -2   7  312.72   28.01
  -7  -2   7  271.66   29.57
   9  -7   7  270.18   27.93
  -2   9   7  323.74   23.88
  -9  10  -7   13.79    8.42
  10  -1  -7   11.19    6.09
  -9  10  -7   17.67    7.98
   1   9   7   13.65    5.73
 -10   1   7   19.73    9.91
   9 -10   7   16.90   12.03
 -10   1   7   19.66    8.84
   1   9   7   19.48    7.51
  -4  -9  -7   32.55   10.15
  13  -4  -7   36.96    9.76
  -9  13  -7   44.31   13.84
   4   9   7   42.52   10.17
   4   9   7   68.55   12.68
 -13   4   7   63.47   14.13
  -9  16  -7   11.07   10.63
  -7  -9  -7    0.47    8.68
   7   9   7   -1.96    8.02
   7   9   7    3.21    7.43
 -16   7   7    9.77   11.45
 -10  -3  -7   16.19    9.98
  -3  13  -7   10.19    8.40
  10   3   7   15.22    8.33
 -13  10   7    0.98    9.80
  10   3   7   13.91    7.80
 -10   0  -7   27.58    9.03
   0  10  -7   24.46    8.26
  10   0   7   30.74    7.94
 -10  10   7   16.49    8.80
  10   0   7   24.77    8.31
 -10   3  -7  309.98   28.75
 -10   3  -7  346.53   35.53
   3   7  -7  277.94   24.32
   3   7  -7  262.99   24.19
 -10   3  -7  296.51   25.44
  10  -3   7  329.49   24.66
  -3  -7   7  289.57   25.63
  -7  10   7  209.26   23.46
 -10   6  -7  256.36   24.75
 -10   6  -7  225.18   22.83
 -10   6  -7  223.77   19.46
   6   4  -7  228.75   20.41
 -10   6  -7  230.39   22.40
  -6  -4   7  248.66   23.07
  -4  10   7  193.74   18.08
  10  -6   7  245.13   24.77
  -4  10   7  203.54   18.63
 -10   9  -7    7.41    7.05
   9   1  -7   23.52    7.46
 -10   9  -7   12.40    8.44
  -9  -1   7   15.24    7.98
  -9  -1   7   32.00   12.92
  -1  10   7   24.24    6.98
  12  -2  -7   27.86    8.35
 -10  12  -7   25.73    9.70
  -2 -10  -7   11.23    7.18
 -10  12  -7    9.51    9.97
   2  10   7    9.53    7.49
 -12   2   7   33.31   11.21
   2  10   7   20.03    6.94
  15  -5  -7   15.72    8.93
  -5 -10  -7   29.15   11.28
 -10  15  -7   12.80   12.69
   5  10   7   47.62   12.06
   5  10   7   16.57    8.01
 -15   5   7    6.95   10.00
  -4  15  -7    3.57    9.38
 -11  -4  -7    8.89    9.80
  11   4   7   -4.83    7.99
 -15  11   7    3.39   12.21
 -11  -1  -7   -3.72    7.31
  -1  12  -7   12.98    7.67
 -12  11   7   -0.91    8.60
  11   1   7   10.13    7.87
  11   1   7    5.87    6.14
   2   9  -7   39.80    9.58
 -11   2  -7   51.69   11.26
  11  -2   7   43.59    9.22
  -9  11   7   48.76   11.51
  -2  -9   7   48.20   10.92
   5   6  -7   24.40    7.70
   5   6  -7   30.16    7.80
 -11   5  -7   30.43    7.85
 -11   5  -7   21.73    9.86
  -5  -6   7   26.19    9.03
  -6  11   7   26.00    7.27
   8   3  -7    1.82    5.44
 -11   8  -7   12.92    7.63
 -11   8  -7    1.31    7.57
  11  -8   7    1.45    9.02
  -3  11   7   12.60    6.15
  -8  -3   7    4.86    6.52
   0 -11  -7   -0.69    5.11
 -11  11  -7   -1.61    6.58
 -11  11  -7   -4.24    7.82
  11   0  -7    0.83    5.91
   0  11   7   13.76    7.02
 -11   0   7   -1.47    7.67
  14  -3  -7   23.92    9.70
 -11  14  -7    2.38   10.38
  -3 -11  -7    2.06    7.62
   3  11   7   24.23    9.42
 -14   3   7    4.53    8.66
   3  11   7    7.71    6.38
 -12  -2  -7   31.26   12.69
  -2  14  -7   26.13   11.00
  12   2   7   25.68   11.05
 -14  12   7   24.58   13.33
 -12   1  -7   -0.99    7.64
   1  11  -7    6.75    6.92
 -11  12   7   17.07    9.79
  12  -1   7    7.66    7.69
   4   8  -7  193.24   19.44
 -12   4  -7  192.92   20.10
   4   8  -7  155.70   18.93
  -4  -8   7  248.95   22.98
  -8  12   7  134.74   19.34
   7   5  -7   -1.92    4.54
  -5  12   7    7.59    5.75
  -7  -5   7   26.72    9.23
  10   2  -7   20.45    8.20
 -12  10  -7   15.18   10.72
 -10  -2   7   33.65   11.08
  -1 -12  -7   19.35    8.52
 -12  13  -7   18.86   12.48
  13  -1  -7   27.39    9.22
 -13   1   7   24.75   10.70
   1  12   7   14.96    8.48
   0  13  -7   44.15   12.38
 -13   0  -7   65.01   15.92
 -13  13   7   54.17   16.64
  13   0   7   82.71   15.59
 -13   3  -7    2.68    7.67
   3  10  -7   16.98    8.06
  -3 -10   7   26.18   11.02
 -10  13   7   14.73    9.47
   6   7  -7   16.11    7.97
   6   7  -7   13.91    6.98
 -13   6  -7   10.39    7.32
  -7  13   7   18.71    7.68
  -6  -7   7   38.65   11.67
   9   4  -7   40.48    9.95
  -9  -4   7   63.70   14.19
  -4  13   7   41.55    7.90
 -13  12  -7   33.57   14.43
  12   1  -7   15.86    8.91
 -12  -1   7   34.19   12.66
 -14   2  -7   29.97   12.45
   2  12  -7   21.73    8.88
 -12  14   7   20.08   10.98
  14  -2   7    1.04    8.79
   5   9  -7    1.11    5.66
   5   9  -7   -0.57    6.23
 -14   5  -7    2.79    7.45
  -5  -9   7   -3.96    8.20
  -9  14   7   -0.46    7.50
   8   6  -7    6.07    6.35
   8   6  -7    6.17    7.86
  -6  14   7    6.46    6.11
  -8  -6   7   14.27   10.16
  11   3  -7   18.58    7.81
 -11  -3   7   12.90   10.93
   4  11  -7    4.98    7.94
 -15   4  -7   -7.85    7.77
 -11  15   7    8.19    9.90
   7   8  -7   -2.48    5.14
   7   8  -7    9.80    8.73
  -7  -8   7   -8.44    8.24
  -8  15   7    3.47    6.91
  10   5  -7   16.95    8.77
 -10  -5   7   12.95   11.16
  -5  15   7    7.72    6.20
   9   7  -7    6.72    7.74
   9   7  -7    9.55    9.16
  -9  -7   7    7.28   11.31
  -7  16   7    3.29    7.01
   0  -1  -8  161.23   13.35
   1   0  -8  158.31   14.64
   1   0  -8  152.74   13.66
   0  -1  -8  160.90   12.75
   1   0  -8  157.00   12.94
   0   1   8  163.53   12.82
  -1   0   8  150.94   14.33
   1  -1   8  209.59   15.37
  -1   0   8  162.52   13.38
  -1   0   8  164.01   13.50
   0   1   8  165.42   13.44
   0   2  -8  935.56   59.38
  -2   0  -8  863.85   58.95
   0   2  -8  927.53   60.98
  -2   0  -8  870.19   59.74
  -2   0  -8  961.34   59.35
   2  -2  -8  914.49   59.84
   2  -2  -8  824.76   58.68
   0  -2   8  886.16   61.19
   0  -2   8  988.85   59.48
   2   0   8  919.38   58.73
   2   0   8  912.59   58.04
   0  -2   8  909.19   60.00
   2   0   8  900.18   58.26
  -2   2   8  846.46   59.91
  -2   2   8  826.88   57.29
   0  -2   8  940.11   60.18
   2   0   8  842.05   59.16
   2   0   8  977.54   60.04
  -2   2   8  852.24   57.51
  -2   2   8  829.98   58.68
  -2   3  -8  192.54   16.19
  -2   3  -8  194.32   17.18
  -2   3  -8  193.32   16.57
  -2   3  -8  191.58   16.53
   2  -3   8  191.34   16.75
   2  -3   8  215.14   16.85
   1   2   8  203.36   16.39
   1   2   8  206.22   15.31
   2  -3   8  188.36   17.62
   1   2   8  204.36   14.98
   1   2   8  187.99   14.47
  -3  -1  -8   21.03    3.96
  -1   4  -8   20.10    4.80
  -1   4  -8   15.63    4.53
  -3  -1  -8   31.11    5.45
  -3  -1  -8   27.92    5.01
  -1   4  -8   21.68    5.65
   4  -3  -8   11.30    5.03
   1  -4   8   21.37    5.17
  -4   3   8   14.15    3.79
  -4   3   8   10.03    3.89
   3   1   8   19.14    4.84
   3   1   8   17.26    4.86
  -4   3   8   12.15    4.33
   1  -4   8   16.31    4.67
   3   1   8   20.02    4.37
  -4   3   8   11.10    5.00
   1  -4   8   14.11    5.69
  -3   2  -8  214.50   16.75
  -3   2  -8  217.70   16.96
  -3   2  -8  199.98   16.85
   2   1  -8  193.75   16.05
   2   1  -8  214.22   18.25
  -3   2  -8  194.24   17.41
   3  -2   8  192.60   16.71
   3  -2   8  196.08   17.04
   3  -2   8  186.50   17.39
  -2  -1   8  204.08   17.02
  -2  -1   8  190.00   18.14
  -2  -1   8  196.96   16.63
  -2  -1   8  205.87   16.44
  -3   5  -8    4.21    4.02
   5  -2  -8    2.03    4.15
  -3   5  -8    4.55    3.97
  -3   5  -8    3.23    3.37
   5  -2  -8    5.55    3.23
   5  -2  -8   -0.82    5.12
  -3   5  -8    6.82    3.77
   2   3   8    2.13    3.46
   3  -5   8    4.30    3.83
   3  -5   8    0.11    2.88
  -5   2   8    4.84    4.10
   3  -5   8    5.19    4.35
   2   3   8    2.47    2.73
  -5   2   8   -1.08    4.08
  -5   2   8    5.81    4.50
   2   3   8    2.93    1.99
   2   3   8    2.40    2.60
   2   3   8    3.58    2.51
  -2   6  -8  319.17   24.49
  -4  -2  -8  263.34   21.64
   6  -4  -8  289.67   24.66
   6  -4  -8  288.24   25.95
  -2   6  -8  319.34   24.11
   6  -4  -8  301.96   23.09
  -4  -2  -8  296.75   22.47
  -4  -2  -8  281.87   21.44
  -2   6  -8  315.48   22.87
   4   2   8  306.93   22.70
  -6   4   8  344.66   25.23
  -6   4   8  296.65   24.01
  -6   4   8  302.27   24.64
   2  -6   8  309.67   25.67
   4   2   8  268.29   23.18
   4   2   8  295.09   22.97
   2  -6   8  289.78   23.93
  -6   4   8  300.35   23.33
   3  -4  -8    8.68    3.53
   3  -4  -8    8.19    3.06
   1   3  -8   20.90    4.62
  -4   1  -8   17.98    4.30
  -4   1  -8   14.04    4.86
  -4   1  -8   17.79    5.18
   1   3  -8   28.66    6.01
  -3   4   8   10.35    3.87
   4  -1   8   20.12    5.29
  -3   4   8   13.78    4.88
   4  -1   8   22.99    4.55
  -1  -3   8   22.50    5.12
  -1  -3   8   30.00    5.35
  -1  -3   8   26.64    6.62
   4  -1   8   15.33    4.53
  -1  -3   8   24.54    4.83
   4  -1   8   13.75    4.91
   4   0  -8   76.37    9.82
  -4   4  -8   82.73   11.08
   4   0  -8   77.31    9.33
  -4   4  -8   76.73    9.55
  -4   4  -8   72.62   10.11
  -4   4  -8   68.81    9.87
   4   0  -8   83.13   11.77
   4  -4   8   71.98   10.93
   0   4   8   82.65    9.90
  -4   0   8   74.28   11.61
   4  -4   8   74.19    9.98
   4  -4   8   89.69   10.33
  -4   0   8   78.37   10.35
  -4   0   8   85.32   10.40
  -4   7  -8   16.10    6.35
  -4   7  -8   14.15    5.71
  -4   7  -8   14.35    5.12
   7  -3  -8   22.56    8.37
   7  -3  -8   24.11    7.00
   4  -7   8   20.11    7.22
  -7   3   8   27.44    7.32
   4  -7   8   18.80    6.41
  -7   3   8   28.88    7.23
   3   4   8    2.92    4.02
   3   4   8    6.75    4.17
  -7   3   8   27.46    7.90
   3   4   8    5.29    4.15
  -3   8  -8    5.21    5.39
  -5  -3  -8   17.46    5.74
   8  -5  -8    9.60    7.66
  -3   8  -8    6.64    5.11
   8  -5  -8   11.28    6.42
  -5  -3  -8   16.22    3.84
  -5  -3  -8    5.65    4.96
   5   3   8   25.32    6.63
   5   3   8   15.66    5.58
  -8   5   8    8.92    6.31
   3  -8   8    1.93    5.83
   5   3   8   13.23    5.52
  -8   5   8    2.01    5.53
   3  -8   8    2.98    4.96
  -8   5   8    9.31    5.75
   5  -5  -8   25.09    6.31
  -5   0  -8   17.68    5.76
   0   5  -8   13.29    4.10
  -5   0  -8   10.03    3.56
   0   5  -8   13.68    4.55
   0   5  -8   12.15    4.11
  -5   0  -8   11.69    4.94
   5   0   8   11.29    4.27
  -5   5   8   26.85    6.21
   0  -5   8   13.86    5.07
   0  -5   8   15.82    4.62
  -5   5   8   21.34    5.50
   0  -5   8    8.47    5.50
  -5   3  -8   10.97    3.83
   3   2  -8    3.30    4.22
   3   2  -8    3.08    3.84
  -5   3  -8    1.54    3.76
  -5   3  -8    0.80    3.38
   3   2  -8    3.56    2.68
  -5   3  -8    8.22    4.77
   3   2  -8    4.44    3.33
  -3  -2   8    3.24    5.24
  -2   5   8    0.21    3.26
   5  -3   8    6.79    2.85
   5  -3   8    9.22    4.92
   5  -3   8    1.53    3.18
  -2   5   8    0.13    2.21
  -3  -2   8    5.42    3.53
  -2   5   8    3.68    2.88
   5  -3   8    2.98    4.77
  -3  -2   8    1.55    3.65
  -5   6  -8   41.96    8.02
   6  -1  -8   20.54    8.00
   6  -1  -8   35.01    7.96
  -5   6  -8   45.67    8.18
   6  -1  -8   35.94    5.95
  -5   6  -8   40.24    7.52
  -5   6  -8   47.54    8.40
   1   5   8   23.08    6.06
   5  -6   8   46.61    9.06
  -6   1   8   14.05    7.81
  -6   1   8   36.71    7.79
   1   5   8   31.83    4.32
  -6   1   8   24.01    6.89
   5  -6   8   42.63    8.35
   1   5   8   30.73    6.09
  -5   9  -8   32.57    8.18
  -5   9  -8   23.82    8.28
   9  -4  -8   32.77   11.10
   9  -4  -8   26.86    8.61
   4   5   8   24.22    6.82
   5  -9   8   41.99   13.34
   4   5   8   37.21    8.24
  -9   4   8   33.43    9.10
   4   5   8   41.00    7.76
   5  -9   8   40.64   10.99
  -9   4   8   30.62    9.35
  -4  10  -8   68.54   12.35
  10  -6  -8   44.67   13.70
  -4  10  -8   72.91   12.24
  10  -6  -8   60.76   12.34
  -6  -4  -8   52.73   11.11
   6   4   8   70.41   10.94
   6   4   8   68.25   10.97
 -10   6   8   52.47   11.61
 -10   6   8   39.69   10.45
  -1   7  -8   23.86    7.12
  -6  -1  -8   48.26    9.02
   7  -6  -8   20.29    6.79
  -6  -1  -8   37.20    8.22
  -6  -1  -8   48.78    6.91
  -1   7  -8   22.69    6.63
   7  -6  -8   22.05    7.85
   1  -7   8   18.42    5.29
   6   1   8   46.75    8.06
   1  -7   8   22.81    6.74
   1  -7   8   20.60    7.67
  -7   6   8   16.66    6.65
  -7   6   8   24.75    7.36
   6   1   8   36.54    7.19
  -6   2  -8  323.13   24.22
   2   4  -8  278.45   22.84
   4  -6  -8  274.17   21.25
  -6   2  -8  315.20   24.44
  -6   2  -8  334.05   26.03
  -6   2  -8  314.74   25.73
   2   4  -8  288.99   23.60
   2   4  -8  304.61   22.84
   2   4  -8  297.19   23.83
   4  -6  -8  305.17   21.68
   6  -2   8  311.99   25.15
  -4   6   8  293.84   22.99
   6  -2   8  320.94   22.99
  -2  -4   8  306.65   23.75
  -2  -4   8  310.46   26.42
  -4   6   8  303.08   23.97
   5   1  -8   26.39    5.62
  -6   5  -8   47.18    8.60
   5   1  -8   33.37    6.44
  -6   5  -8   33.33    7.53
   5   1  -8   31.96    8.33
   5   1  -8   22.70    6.72
  -6   5  -8   45.55    8.02
  -6   5  -8   36.52    7.63
  -1   6   8   45.34    7.37
   6  -5   8   31.24    7.95
  -5  -1   8   22.82    6.61
   6  -5   8   42.73    8.92
  -5  -1   8   30.70    6.78
  -5  -1   8   23.09    8.58
   8  -2  -8  172.24   18.72
   8  -2  -8  193.28   21.47
  -6   8  -8  173.06   18.59
   8  -2  -8  201.38   16.19
  -6   8  -8  167.12   16.83
  -6   8  -8  182.33   18.31
  -6   8  -8  171.71   17.05
   6  -8   8  192.67   20.71
   2   6   8  161.40   16.65
   2   6   8  143.39   15.61
   6  -8   8  189.69   18.93
  -8   2   8  198.42   19.42
  -8   2   8  208.66   19.14
  -8   2   8  181.38   20.11
  11  -5  -8    3.12    9.75
  -6  11  -8    3.18    6.42
  -6  11  -8    0.08    6.51
  -5  -6  -8    4.41    6.03
   5   6   8   11.38    6.52
   5   6   8    2.45    4.88
 -11   5   8   -1.99    6.46
 -11   5   8   -0.08    6.93
  -7  -5  -8   -3.17    5.47
  -5  12  -8    6.85    8.50
  -5  12  -8   -6.71    6.51
   7   5   8    1.42    5.90
 -12   7   8   -3.40    7.56
 -12   7   8    4.00    7.23
   7   5   8    2.28    5.74
  -2   9  -8   35.18    8.46
  -7  -2  -8   14.06    7.04
   9  -7  -8    9.93    7.81
  -2   9  -8   11.73    6.96
   7   2   8    6.14    6.02
  -9   7   8    1.60    4.39
  -9   7   8   14.43    6.99
  -9   7   8   12.66    8.10
   7   2   8   13.64    6.28
   6  -7  -8   15.22    6.08
  -7   1  -8   16.97    5.55
  -7   1  -8   29.40    7.30
  -7   1  -8   32.71    8.68
   1   6  -8   48.64    8.06
  -7   1  -8   25.27    7.72
   7  -1   8   31.87    6.50
   7  -1   8   21.24    5.71
  -1  -6   8   30.42    6.66
  -6   7   8   22.93    7.18
   7  -1   8   30.05    6.66
  -6   7   8   19.01    6.69
  -1  -6   8   48.36   10.10
   4   3  -8    7.18    4.26
   4   3  -8   15.76    5.31
   4   3  -8    4.83    3.88
  -7   4  -8    6.22    5.46
  -7   4  -8    8.05    5.70
   4   3  -8    4.06    4.34
  -7   4  -8   15.77    4.62
  -7   4  -8    3.64    5.61
  -7   4  -8   13.20    5.61
  -3   7   8   19.59    4.13
  -4  -3   8    0.43    6.46
   7  -4   8    9.01    3.50
  -4  -3   8    6.00    5.24
   7  -4   8    7.76    6.30
  -3   7   8   15.00    4.20
  -4  -3   8    5.41    4.58
  -3   7   8   21.77    5.31
   7  -4   8    2.13    6.12
  -7   7  -8   17.13    6.63
  -7   7  -8   16.33    6.24
   7   0  -8    3.91    7.10
   7   0  -8    9.01    4.92
  -7   7  -8    9.75    6.33
   7   0  -8    7.10    6.02
  -7   7  -8   13.83    6.64
   7  -7   8   26.36    8.70
   7  -7   8   25.99    8.39
   0   7   8    5.92    4.53
  -7   0   8   10.53    8.28
  -7   0   8    3.29    5.73
   0   7   8    1.48    4.51
  -7   0   8    9.05    5.82
  10  -3  -8   23.37    6.49
  -7  10  -8   39.52   10.04
  10  -3  -8   10.04   10.77
  -7  10  -8   24.09    8.88
 -10   3   8   25.83    8.90
   3   7   8   21.23    7.57
 -10   3   8   37.82   12.34
   3   7   8   33.89    6.40
   3   7   8   22.00    7.06
  -7  13  -8    8.39    9.55
  -6  -7  -8    0.53    6.71
   6   7   8   -3.07    5.80
 -13   6   8    3.80    8.36
   6   7   8    3.84    6.32
  -8  -6  -8   14.55    9.61
  -6  14  -8    3.66    9.84
   8   6   8    2.46    6.16
   8   6   8    4.83    7.08
 -14   8   8   -0.13    8.46
  -8  -3  -8   -0.80    5.32
  -3  11  -8   -2.77    5.15
  -3  11  -8   -2.18    5.73
   8   3   8    2.93    5.84
 -11   8   8    3.29    7.70
   8   3   8   -2.21    5.75
 -11   8   8    5.57    6.22
   0   8  -8    1.34    4.88
  -8   0  -8   -0.27    5.58
  -8   8   8   12.87    6.63
   8   0   8    7.75    5.36
   0  -8   8    3.12    4.80
   8   0   8    2.75    4.70
  -8   8   8   10.77    7.19
   3   5  -8   15.04    5.45
   5  -8  -8    3.95    3.69
  -8   3  -8   15.19    6.18
  -8   3  -8    7.77    6.66
  -8   3  -8    6.84    4.91
   3   5  -8   14.60    5.32
  -8   3  -8   12.97    7.06
  -3  -5   8   10.25    8.00
  -5   8   8    5.63    4.82
   8  -3   8    6.75    6.14
   8  -3   8    8.08    4.20
  -3  -5   8   16.64    6.52
   8  -3   8   14.45    7.65
  -5   8   8    9.94    5.23
  -8   6  -8  164.61   17.38
   6   2  -8  148.22   17.36
   6   2  -8  153.96   15.20
  -8   6  -8  210.56   20.01
   6   2  -8  133.78   15.99
  -8   6  -8  170.87   14.13
  -8   6  -8  169.40   17.71
  -8   6  -8  151.69   17.25
   8  -6   8  168.67   13.54
   8  -6   8  194.92   19.80
  -6  -2   8  160.44   17.69
  -6  -2   8  136.83   20.69
   8  -6   8  181.59   19.45
  -2   8   8  172.70   15.72
   9  -1  -8   11.06    5.91
  -8   9  -8   10.13    7.62
  -8   9  -8    9.58    6.01
   8  -9   8    7.66    8.76
  -9   1   8   13.49    7.71
   1   8   8    2.82    5.23
   1   8   8    0.52    4.52
  -9   1   8   12.19    9.81
   8  -9   8   -1.60   11.01
  -8  12  -8    0.82    6.83
  -4  -8  -8   -1.51    5.75
  -8  12  -8   -0.64    6.32
  12  -4  -8    5.95    5.99
   4   8   8    3.34    6.02
 -12   4   8   18.88    8.82
   4   8   8   -0.59    4.96
  -7  -8  -8    0.90    7.82
  -8  15  -8    1.17   10.43
   7   8   8   13.18    9.31
   7   8   8    7.90    7.48
 -15   7   8    7.78   10.14
  -9  -4  -8   -3.75    6.92
  -4  13  -8    2.95    7.45
 -13   9   8   -0.86    7.64
   9   4   8   -3.54    6.05
   9   4   8   10.44    8.50
 -13   9   8   13.52   10.24
  -1  10  -8    4.05    5.85
  -9  -1  -8    2.49    6.84
   9   1   8   -3.29    4.73
 -10   9   8    8.74    8.33
   9   1   8    6.73    5.23
 -10   9   8    3.15    5.94
  -9   2  -8    6.40    8.52
   2   7  -8   12.72    6.30
  -9   2  -8   14.33   10.20
  -9   2  -8   28.04    8.19
  -7   9   8   16.43    7.47
  -2  -7   8   14.27    7.21
   9  -2   8   19.88    6.41
  -7   9   8   14.05    7.28
  -9   5  -8   28.31    8.16
  -9   5  -8   28.12    8.65
   5   4  -8   40.75    7.70
  -9   5  -8   36.98    7.26
  -9   5  -8   40.61    9.55
  -9   5  -8   22.63    8.57
   5   4  -8   32.60    7.43
   9  -5   8   48.23   11.49
   9  -5   8   31.27    6.44
  -4   9   8   27.38    6.07
  -4   9   8   29.94    6.49
  -5  -4   8   29.91   10.84
  -5  -4   8   36.96    9.08
   8   1  -8    4.12    4.82
  -9   8  -8   -2.95    6.21
  -9   8  -8    6.28    6.41
  -8  -1   8    1.62    7.68
  -1   9   8    5.12    4.94
  -8  -1   8    1.09    6.44
  -8  -1   8    6.33    9.58
   9  -8   8   -2.09    6.88
   9  -8   8   -7.08    7.18
  11  -2  -8    5.49    5.53
  -9  11  -8   -6.38    7.01
  -9  11  -8    1.60    5.90
  -2  -9  -8    0.33    5.13
   2   9   8   -9.21    4.07
 -11   2   8   -0.17    6.23
   2   9   8   -4.98    5.45
  -5  -9  -8   -3.58    6.35
  14  -5  -8    4.38    6.81
  -9  14  -8    1.60    9.33
   5   9   8   -4.36    5.66
 -14   5   8    5.59    8.68
   5   9   8   -6.27    6.43
  -5  15  -8    2.31    9.55
 -10  -5  -8    3.87    9.18
  10   5   8    3.48    7.25
  10   5   8    0.87    8.58
  -2  12  -8   29.39   10.61
 -10  -2  -8   13.48    9.49
  10   2   8   14.79    7.95
  10   2   8   23.47    9.73
 -12  10   8   20.00   10.84
 -10   1  -8   12.34    7.65
   1   9  -8   14.29    6.70
  10  -1   8   -0.21    5.13
  -9  10   8   13.55    7.98
  -1  -9   8    6.80    6.91
 -10   4  -8   72.59   11.26
   6 -10  -8   48.75    9.31
   4   6  -8   79.35   11.01
 -10   4  -8   63.74   13.63
   4   6  -8   53.44    9.89
 -10   4  -8   62.14   13.40
  -6  10   8   41.32    8.89
  10  -4   8   82.05   11.03
  -6  10   8   53.95    9.14
  -4  -6   8   86.13   13.10
   7   3  -8   27.93    7.36
 -10   7  -8   32.40    9.16
 -10   7  -8   32.41    9.94
  -3  10   8   22.99    7.06
  10  -7   8   25.50   10.59
  -7  -3   8   45.91   10.36
 -10  10  -8   60.73   12.87
  10   0  -8   39.93    9.84
 -10  10  -8   64.33   13.98
 -10   0   8   45.51   12.06
   0  10   8   60.05   10.75
  13  -3  -8   -0.22    6.73
 -10  13  -8   -1.84    9.72
  -3 -10  -8   -4.56    5.67
 -13   3   8    3.82    8.70
   3  10   8   -3.45    6.81
   3  10   8   -7.91    5.19
  -3  14  -8   -2.48    8.84
 -11  -3  -8    0.41    8.78
  11   3   8    3.22    7.32
 -14  11   8   -2.46   10.46
  11   3   8    5.81    8.77
   0  11  -8    2.78    6.90
 -11   0  -8    7.61    8.37
  11   0   8    6.69    6.48
 -11  11   8   -2.20    8.25
  11   0   8    3.61    6.41
   3   8  -8   -5.85    4.87
 -11   3  -8    6.70   10.74
 -11   3  -8    9.01    6.13
   3   8  -8    8.56    5.28
  -3  -8   8    2.78    6.83
  11  -3   8    3.85    5.34
  -8  11   8    5.46    6.95
 -11   6  -8    9.28    8.95
   6   5  -8   -1.00    4.96
 -11   6  -8   -4.31    4.55
   6   5  -8    4.81    5.05
  -5  11   8    3.50    4.55
  -6  -5   8    2.22    6.31
 -11   9  -8   -3.41    6.98
   9   2  -8   -3.02    5.31
 -11   9  -8   -1.22    6.46
  -2  11   8   14.47    6.45
  -9  -2   8    7.35    8.05
 -11  12  -8    7.60    8.64
 -11  12  -8   15.44   10.43
  12  -1  -8    4.73    6.91
  -1 -11  -8   -3.89    5.44
 -12   1   8   -7.85    7.78
   1  11   8    2.68    6.84
 -11  15  -8    3.01   12.78
  15  -4  -8    3.31    7.52
  -4 -11  -8   -1.55    7.42
   4  11   8    4.13    6.84
 -15   4   8    6.85    9.90
   4  11   8    3.82    8.21
  -1  13  -8   -3.08    7.33
 -12  -1  -8    9.68    8.58
 -13  12   8    3.36   10.65
  12   1   8   -4.92    6.93
   2  10  -8   12.13    7.28
 -12   2  -8   21.37    9.76
  12  -2   8   16.20    7.44
 -10  12   8    8.55    8.37
   5   7  -8    3.83    6.05
   5   7  -8   -2.44    4.62
 -12   5  -8    2.18    5.82
  -5  -7   8    4.31    7.29
  -7  12   8   -4.07    5.38
   8   4  -8    7.22    5.63
  -4  12   8    6.06    5.10
  -8  -4   8   11.85    8.14
 -12  11  -8   -0.01    8.59
  11   1  -8    5.18    7.02
   1 -12  -8    4.95    8.46
 -11  -1   8    1.51    8.16
  -1  12   8   -1.38    6.49
  -2 -12  -8   10.31    8.20
 -12  14  -8    4.36   12.00
  14  -2  -8   -2.29    7.13
 -14   2   8   -6.92    7.60
   2  12   8   17.94    9.34
 -13   1  -8   -5.19    7.55
   1  12  -8   -2.00    6.42
 -12  13   8    5.07   10.56
  13  -1   8   -8.34    6.44
 -13   4  -8   -2.42    6.41
   4   9  -8   -4.35    5.76
   4   9  -8    8.37    5.76
  -9  13   8    3.56    7.55
  -4  -9   8   -6.52    8.06
   7   6  -8    2.82    6.26
   7   6  -8   -2.14    5.80
  -6  13   8    1.26    5.87
  -7  -6   8    6.70    8.15
  10   3  -8   -6.38    6.03
 -10  -3   8   -6.17    8.12
 -13  13  -8    6.04   11.88
  13   0  -8    3.05    7.15
 -13   0   8   -3.19    9.20
 -14   3  -8    5.49    8.45
   3  11  -8    6.48    7.54
  14  -3   8   -0.95    7.02
 -11  14   8   -1.26    8.36
 -14   6  -8   13.83    8.57
   6   8  -8    3.82    7.52
   6   8  -8   -4.92    5.20
  -6  -8   8    1.89    8.62
  -8  14   8   -4.05    6.26
   9   5  -8    2.76    5.93
   9   5  -8   -0.62    7.18
  -5  14   8    2.92    5.35
  -9  -5   8   -2.16    7.50
  12   2  -8   14.49    8.16
 -12  -2   8   -1.64    9.41
 -15   5  -8    4.70    8.69
   5  10  -8   -1.58    7.07
 -10  15   8   -3.13    8.21
  -5 -10   8    4.67    9.74
   8   7  -8    6.98    9.02
   8   7  -8    3.85    6.46
  -7  15   8    3.99    6.85
  -8  -7   8   11.49   10.66
  11   4  -8    8.59    7.19
 -11  -4   8    2.32    9.46
   0   0  -9 3423.53  220.21
   0   0  -9 3608.99  221.59
   0   0  -9 3405.72  221.22
   0   0   9 3603.26  219.96
   0   0   9 3379.43  220.76
   0   0   9 3518.77  220.60
   0   0   9 3380.30  220.64
  -1  -1  -9   18.81    4.76
   2  -1  -9   19.73    5.59
   2  -1  -9   29.10    4.73
  -1   2  -9   30.05    5.76
  -1   2  -9   33.91    6.60
  -1   2  -9   21.70    5.03
  -1   2  -9   38.76    5.84
   2  -1  -9   24.28    5.41
   1  -2   9   25.91    6.47
  -2   1   9   22.30    4.70
  -2   1   9   26.76    5.75
  -2   1   9   26.97    5.74
   1  -2   9   30.50    5.83
   1  -2   9   27.09    5.40
   1   1   9   17.09    5.00
   1   1   9   11.48    3.85
   1   1   9   11.76    3.56
   1  -2   9   32.46    5.30
   1   1  -9   27.18    4.89
   1  -2  -9   29.78    4.56
  -2   1  -9   26.09    5.17
   1   1  -9   16.61    5.59
   1  -2  -9   23.52    4.98
  -2   1  -9   31.07    6.29
  -2   1  -9   24.91    5.02
  -2   1  -9   32.03    5.73
  -1  -1   9   12.94    4.35
   2  -1   9   29.69    6.18
  -1  -1   9   15.49    5.72
  -1   2   9   24.83    4.45
   2  -1   9   30.31    5.04
  -1  -1   9   15.94    4.62
   2  -1   9   30.35    5.40
  -1  -1   9   13.74    4.60
  -1   2   9   31.22    5.89
   2  -1   9   23.79    5.30
  -1  -1   9   19.06    5.05
   2  -1   9   28.74    6.13
   4  -2  -9   76.03    8.98
  -2   4  -9   57.19    8.68
  -2   4  -9   62.75    9.83
  -2   4  -9   60.87    9.14
  -2  -2  -9   80.40    6.71
   4  -2  -9   64.00   10.75
  -2   4  -9   63.54    9.31
   2  -4   9   60.50   10.47
  -4   2   9   66.56    9.29
   2   2   9   78.09    7.98
   2   2   9   71.47    6.96
  -4   2   9   68.30    8.70
   2  -4   9   52.04    8.76
  -4   2   9   56.19    9.12
  -4   2   9   64.81    9.91
   2   2   9   75.26    9.37
   2  -4   9   70.90    9.03
   2   2   9   76.81    7.93
   0   3  -9  345.62   26.11
   3  -3  -9  267.94   23.52
  -3   0  -9  347.87   24.74
  -3   0  -9  315.59   24.85
  -3   0  -9  335.95   24.10
   0   3  -9  342.46   24.58
   3  -3  -9  306.61   24.98
   3   0   9  341.38   24.50
   0  -3   9  322.36   26.41
   0  -3   9  345.70   24.35
   0  -3   9  346.41   26.87
   3   0   9  354.28   24.92
  -3   3   9  285.99   24.80
   0  -3   9  356.26   25.28
   0  -3   9  320.76   24.97
  -3   3   9  278.35   23.92
  -3   3  -9 2223.05  146.16
  -3   3  -9 2195.85  146.88
  -3   3  -9 2174.46  146.16
  -3   3  -9 2254.52  145.95
   3   0  -9 2321.03  148.05
   3   0  -9 2450.01  145.76
   3  -3   9 2282.13  146.64
   0   3   9 2136.22  143.42
  -3   0   9 2364.70  145.82
   0   3   9 2310.36  143.72
   0   3   9 2391.82  146.06
   3  -3   9 2071.10  147.23
  -3   0   9 2373.12  146.61
   3  -3   9 2095.15  145.88
  -3   0   9 2206.77  147.77
  -3   0   9 2406.24  146.89
   6  -3  -9  551.56   42.66
  -3   6  -9  441.08   38.72
  -3   6  -9  615.87   40.62
   6  -3  -9  546.81   39.09
  -3   6  -9  616.10   40.97
   6  -3  -9  550.32   40.86
  -6   3   9  541.28   40.74
   3  -6   9  580.24   42.16
   3   3   9  536.87   37.79
   3   3   9  565.50   38.04
   3  -6   9  547.01   40.30
  -6   3   9  452.61   39.78
   3   3   9  585.32   37.93
   3   3   9  536.71   39.54
  -6   3   9  552.04   40.38
  -4  -1  -9  363.14   27.74
   5  -4  -9  315.59   28.57
  -1   5  -9  364.32   27.83
  -1   5  -9  374.00   28.25
  -1   5  -9  370.50   28.57
  -4  -1  -9  385.93   27.57
  -4  -1  -9  350.29   26.39
   4   1   9  384.38   27.66
  -5   4   9  388.99   28.52
   1  -5   9  406.97   30.69
   1  -5   9  355.36   27.77
   4   1   9  367.56   26.36
  -5   4   9  359.29   26.15
  -5   4   9  365.41   28.98
  -5   4   9  342.55   25.62
   1  -5   9  380.65   28.45
   4   1   9  345.99   27.35
  -4   2  -9   67.46   10.06
   2   2  -9   71.11    8.97
  -4   2  -9   74.35    9.20
  -4   2  -9   62.33    8.98
  -4   2  -9   61.20    8.99
   2   2  -9   72.88   10.65
  -2   4   9   65.01    7.34
  -2  -2   9   72.06   11.04
  -2   4   9   67.49    7.23
   4  -2   9   78.32    9.73
  -2  -2   9   71.27    9.12
   4  -2   9   58.16    9.42
   4  -2   9   68.35    8.19
  -2  -2   9   65.04    8.95
   4  -2   9   67.64    9.24
  -2   4   9   55.39    8.86
   5  -1  -9  826.90   57.87
   5  -1  -9  830.12   59.36
  -4   5  -9  767.17   56.78
  -4   5  -9  816.32   58.02
   5  -1  -9  868.28   56.48
  -4   5  -9  793.48   57.04
  -4   5  -9  803.43   57.56
   1   4   9  797.80   56.52
  -5   1   9  904.94   57.60
  -5   1   9  793.52   58.91
  -5   1   9  823.80   57.74
   4  -5   9  848.88   57.64
   1   4   9  764.50   53.85
   1   4   9  845.19   54.50
   1   4   9  845.40   53.24
   4  -5   9  813.31   58.71
   1   4   9  838.31   53.37
   4  -5   9  837.38   57.13
   8  -4  -9 1825.28  124.48
  -4   8  -9 1905.24  117.72
  -4   8  -9 1724.03  120.86
  -4   8  -9 1913.58  121.75
   8  -4  -9 1749.83  121.87
  -8   4   9 1717.26  121.11
   4   4   9 2066.28  118.61
   4  -8   9 1950.44  124.14
   4   4   9 1744.34  119.92
  -8   4   9 1527.08  120.60
   4   4   9 1850.88  118.83
   4  -8   9 1808.42  121.18
  -8   4   9 1849.13  121.46
  -2   7  -9   85.45   11.64
  -2   7  -9   84.02    8.54
  -2   7  -9   87.46   12.16
  -5  -2  -9   95.57   11.13
   7  -5  -9   86.41   13.82
  -2   7  -9   69.43    8.21
  -5  -2  -9   93.72    9.08
   7  -5  -9   80.28   12.41
  -5  -2  -9   88.80   10.46
   5   2   9   81.38   10.49
   2  -7   9   87.71   12.24
  -7   5   9   69.67   11.49
  -7   5   9   80.61   10.31
   5   2   9   86.31   11.44
   2  -7   9   94.86   14.07
  -7   5   9   81.03   12.32
  -7   5   9   73.80    9.44
   4  -5  -9  343.54   26.99
  -5   1  -9  386.41   29.60
   1   4  -9  386.16   28.08
   1   4  -9  296.79   27.57
  -5   1  -9  385.88   29.18
  -5   1  -9  406.82   28.22
   1   4  -9  412.53   28.67
   5  -1   9  422.71   28.06
   5  -1   9  408.83   28.01
  -4   5   9  379.41   28.81
  -1  -4   9  374.76   28.20
  -1  -4   9  350.89   27.19
   5  -1   9  368.15   26.99
  -1  -4   9  392.96   30.75
   5  -1   9  282.22   27.27
  -1  -4   9  339.06   26.97
  -4   5   9  336.87   27.41
   4   1  -9  885.81   58.71
   4   1  -9  831.41   60.94
  -5   4  -9  826.65   59.67
   4   1  -9  931.02   57.06
  -5   4  -9  840.32   59.56
   4   1  -9  822.98   59.82
  -5   4  -9  901.81   60.83
  -5   4  -9  846.94   59.64
  -1   5   9  771.01   58.10
  -4  -1   9  878.32   62.08
  -4  -1   9  816.42   59.42
   5  -4   9  871.55   61.15
  -4  -1   9  880.86   58.90
  -1   5   9  840.47   55.56
  -1   5   9  900.52   55.69
   5  -4   9  858.29   59.76
   5  -4   9  916.08   60.91
   7  -2  -9  326.91   30.65
   7  -2  -9  355.41   25.39
  -5   7  -9  349.93   28.38
   7  -2  -9  332.67   28.88
  -5   7  -9  322.82   28.21
  -5   7  -9  309.22   27.30
  -7   2   9  303.38   27.74
   2   5   9  382.77   24.73
   5  -7   9  327.78   28.59
   5  -7   9  331.18   30.03
  -7   2   9  333.50   28.79
   2   5   9  360.30   23.46
   2   5   9  343.70   25.80
   2   5   9  378.40   24.29
  -7   2   9  298.31   29.24
   2   5   9  379.73   27.90
  -5  10  -9   12.11    6.96
  10  -5  -9   16.73   10.30
  -5  10  -9   10.72    7.23
  10  -5  -9    6.35    6.96
 -10   5   9    4.79    5.92
   5   5   9    8.34    6.50
   5   5   9   24.55    6.85
 -10   5   9    3.34    6.53
   9  -6  -9  123.68   20.58
  -6  -3  -9  144.26   18.20
  -3   9  -9  184.23   18.68
  -6  -3  -9  173.44   14.09
  -6  -3  -9  160.47   20.19
  -3   9  -9  146.97   17.28
   9  -6  -9  178.84   19.72
   6   3   9  151.24   17.17
  -9   6   9  147.71   18.72
   6   3   9  200.61   17.57
  -9   6   9  171.28   18.95
   0   6  -9 1070.03   73.88
   0   6  -9 1183.89   71.17
  -6   0  -9 1091.15   75.48
  -6   0  -9 1013.79   72.82
   0   6  -9 1167.16   71.31
   6  -6  -9  961.89   74.57
  -6   0  -9 1214.27   75.65
   6   0   9 1046.50   73.15
  -6   6   9 1047.30   74.32
   0  -6   9 1040.69   72.25
  -6   6   9 1104.08   74.83
   0  -6   9 1102.09   74.90
   0  -6   9 1092.87   76.81
   3   3  -9  604.07   39.05
  -6   3  -9  581.01   40.98
  -6   3  -9  566.87   41.61
  -6   3  -9  579.29   42.35
   3   3  -9  560.44   40.64
   3   3  -9  554.09   40.05
  -6   3  -9  589.87   41.15
   6  -3   9  497.51   41.51
  -3  -3   9  524.47   42.91
  -3  -3   9  555.42   40.46
   6  -3   9  595.11   42.26
  -3   6   9  565.78   38.61
  -3   6   9  541.50   38.17
  -3  -3   9  551.62   39.85
  -3   6   9  563.60   40.22
   6  -3   9  535.11   38.35
  -6   6  -9  557.23   40.98
  -6   6  -9  510.62   40.27
  -6   6  -9  619.83   42.15
   6   0  -9  526.16   40.97
   6   0  -9  562.05   37.91
   6   0  -9  540.45   39.50
   6   0  -9  527.62   42.85
  -6   6  -9  471.51   39.68
  -6   0   9  515.75   40.62
   6  -6   9  572.64   41.89
   6  -6   9  577.79   43.06
   0   6   9  521.84   39.21
   0   6   9  547.37   37.95
  -6   0   9  515.62   40.06
  -6   0   9  537.24   43.26
  -6   9  -9  274.54   24.18
   9  -3  -9  231.94   26.40
  -6   9  -9  271.65   24.76
   9  -3  -9  213.23   20.06
   3   6   9  212.94   20.58
   6  -9   9  261.22   26.27
  -9   3   9  221.68   23.40
   3   6   9  268.26   19.84
   3   6   9  267.98   22.87
  -9   3   9  230.87   23.55
  -6  12  -9   47.06   11.32
  -6  12  -9   43.19   12.95
  -6  -6  -9   38.96   10.91
 -12   6   9   41.96   11.54
   6   6   9   45.64   10.02
 -12   6   9   47.53   12.16
   6   6   9   56.45   11.29
  11  -7  -9    8.59    8.98
  -4  11  -9   15.98    8.21
  -4  11  -9   12.98    7.15
  -7  -4  -9    7.36    6.62
   7   4   9   15.75    6.93
 -11   7   9    6.44    7.26
   7   4   9    2.51    5.72
 -11   7   9   10.14    8.71
   8  -7  -9   67.98   12.03
  -1   8  -9   58.61   10.39
  -1   8  -9   46.04    9.50
  -7  -1  -9   44.94   10.04
   1  -8   9   39.68    7.48
  -8   7   9   55.71   11.16
   7   1   9   44.00    8.95
  -8   7   9   49.82   10.30
   1  -8   9   51.03   13.91
   7   1   9   52.24    9.24
   2   5  -9  106.72   12.59
   5  -7  -9   76.05    9.93
   2   5  -9   80.19   10.26
  -7   2  -9  100.45   13.99
  -7   2  -9   98.21   11.57
   2   5  -9   95.20    9.75
   2   5  -9   90.17    9.27
  -7   2  -9   96.45   13.98
   7  -2   9   79.04   12.39
  -2  -5   9   99.52   12.11
   7  -2   9   78.49   11.97
  -2  -5   9  104.24   15.00
   7  -2   9   94.71   10.31
  -5   7   9  107.20   13.03
  -5   7   9   83.90   11.18
   5   2  -9  353.71   30.08
   5   2  -9  408.84   30.04
  -7   5  -9  341.22   29.31
  -7   5  -9  326.38   29.78
  -7   5  -9  339.42   28.98
   5   2  -9  424.93   27.46
   5   2  -9  383.97   28.48
  -7   5  -9  318.86   28.78
  -5  -2   9  409.78   29.99
  -5  -2   9  389.31   32.60
   7  -5   9  334.18   25.44
   7  -5   9  358.29   31.27
   7  -5   9  373.20   30.92
  -5  -2   9  352.05   28.35
  -2   7   9  299.59   26.77
   8  -1  -9   48.82   12.85
  -7   8  -9   67.84   11.62
  -7   8  -9   72.69   12.29
   8  -1  -9   76.46   10.12
  -8   1   9   62.83   11.74
  -8   1   9   59.02   13.57
  -8   1   9   56.63   11.48
   1   7   9   76.19   10.28
   1   7   9   85.83   11.45
   7  -8   9   71.32   13.64
   7  -8   9   72.62   12.96
  -7  11  -9   10.03    6.58
  -7  11  -9    2.33    7.21
  11  -4  -9    8.79    5.62
  -4  -7  -9    5.90    6.49
   4   7   9    9.77    5.92
 -11   4   9    6.08    7.04
   4   7   9    3.32    6.33
  -7  -7  -9   14.43    8.68
  -7  14  -9   18.81   11.96
   7   7   9   15.50    8.36
   7   7   9   32.44    9.67
 -14   7   9   15.61   10.26
  -5  13  -9   59.45   14.44
  -8  -5  -9   72.50   14.27
 -13   8   9   56.99   14.02
 -13   8   9   61.32   13.55
   8   5   9   61.79   12.85
   8   5   9   42.54   11.51
  -2  10  -9  172.39   18.79
  -8  -2  -9  142.72   18.72
  -2  10  -9  160.14   18.06
   8   2   9  185.29   19.63
   8   2   9  149.16   16.63
 -10   8   9  122.31   18.42
 -10   8   9  133.56   17.69
  -8   1  -9   68.47   12.45
   1   7  -9   50.70    9.33
  -8   1  -9   39.30    8.99
  -8   1  -9   33.49    9.97
  -1  -7   9   70.82   13.40
  -7   8   9   45.09    9.82
  -7   8   9   52.24   10.52
  -1  -7   9   46.24    8.53
   8  -1   9   44.55    8.29
   4   4  -9 1897.14  120.81
   4   4  -9 2020.91  120.41
  -8   4  -9 2020.41  125.57
  -8   4  -9 1756.87  122.36
  -8   4  -9 1872.68  124.08
  -8   4  -9 1924.48  123.59
   4   4  -9 1760.61  120.46
  -8   4  -9 1836.61  120.50
   4   4  -9 1840.07  121.65
   8  -4   9 1766.51  124.00
  -4   8   9 1603.13  120.09
   8  -4   9 2045.00  125.45
  -4  -4   9 1871.42  122.82
  -4   8   9 1733.02  119.35
   8  -4   9 1824.45  119.59
  -4  -4   9 1859.09  126.26
  -8   7  -9   78.26   12.85
  -8   7  -9   97.16   14.56
   7   1  -9  100.91   11.90
  -8   7  -9   96.48   14.43
   8  -7   9   85.24   15.06
  -7  -1   9   66.78   16.35
  -7  -1   9  104.24   15.03
   8  -7   9  101.80   15.65
  10  -2  -9   55.27   10.24
  -8  10  -9   58.26   13.31
  -8  10  -9   63.35   12.59
 -10   2   9   57.37   12.73
   2   8   9   63.94   10.27
   2   8   9   90.60   13.15
  -5  -8  -9   33.38   10.19
  13  -5  -9   39.57    9.77
  -8  13  -9   44.94   13.73
   5   8   9   48.31   11.21
 -13   5   9   56.73   14.26
   5   8   9   30.69    9.76
  -6  15  -9   16.64   11.67
  -9  -6  -9   22.73   11.55
   9   6   9   18.65   10.06
   9   6   9   12.66    8.91
 -15   9   9   14.76   11.35
  -3  12  -9   24.42   10.20
  -9  -3  -9   33.18   10.75
 -12   9   9   17.28    9.43
   9   3   9   10.08    6.72
   9   3   9   14.69    8.14
 -12   9   9    7.35    7.80
  -9   0  -9  314.24   28.35
   0   9  -9  297.06   27.10
  -9   9   9  302.05   27.18
   9   0   9  284.69   26.68
  -9   9   9  313.78   28.82
   9   0   9  322.53   26.65
  -9   3  -9  168.60   19.34
   3   6  -9  170.34   16.23
  -9   3  -9  161.72   19.75
  -9   3  -9  141.07   15.88
   3   6  -9  162.89   16.88
   6  -9  -9  142.96   15.34
   9  -3   9  151.31   15.39
  -6   9   9  160.13   16.20
  -6   9   9  151.29   16.05
  -3  -6   9  191.54   18.12
   6   3  -9  269.79   23.54
  -9   6  -9  289.26   25.75
  -9   6  -9  267.70   26.21
  -9   6  -9  251.40   21.00
  -9   6  -9  277.27   25.20
   6   3  -9  265.43   22.27
  -3   9   9  240.18   21.61
   9  -6   9  268.31   26.57
  -6  -3   9  236.68   24.36
   9  -6   9  270.22   20.53
  -6  -3   9  241.50   28.03
   9   0  -9  128.71   15.57
  -9   9  -9  154.31   17.63
  -9   9  -9  156.01   19.79
  -9   0   9  104.17   17.25
   9  -9   9  123.10   20.09
   0   9   9  144.54   15.28
  12  -3  -9   36.11    9.39
  -9  12  -9   32.92   11.05
  -3  -9  -9   34.44    9.04
  -9  12  -9   48.97   13.91
 -12   3   9   61.93   13.71
   3   9   9   52.48   11.31
   3   9   9   20.50    7.55
  15  -6  -9    8.57    8.45
  -6  -9  -9   23.24   10.20
  -9  15  -9    6.00   11.65
 -15   6   9   13.73   10.95
   6   9   9   17.38    9.49
   6   9   9   26.52    9.81
 -10  -4  -9   20.14   10.88
  -4  14  -9   38.93   12.64
 -14  10   9   15.38   11.83
  10   4   9   21.98   10.52
  10   4   9   14.58    8.41
 -10  -1  -9   42.82   12.09
  -1  11  -9   35.99   10.61
 -11  10   9   36.41   12.40
  10   1   9   31.78    9.88
  10   1   9   51.60   10.61
 -10   2  -9  185.60   19.01
   2   8  -9  168.46   17.89
  10  -2   9  182.18   17.16
  -2  -8   9  170.97   17.96
  -8  10   9  151.42   17.43
  -8  10   9  132.64   18.30
 -10   5  -9    5.29    7.80
 -10   5  -9   13.19    6.30
   5   5  -9   23.34    7.28
   5   5  -9    6.87    5.38
  10  -5   9   19.32    6.08
  -5  10   9   10.76    5.48
  -5  10   9   12.99    5.70
  -5  -5   9   10.05    7.40
 -10   8  -9   55.39   12.03
 -10   8  -9   76.56   14.28
   8   2  -9   89.32   12.36
  -2  10   9   70.94   11.05
  10  -8   9   59.22   14.24
  -8  -2   9   65.76   13.41
  -8  -2   9   76.42   16.60
 -10  11  -9   43.15   13.27
  11  -1  -9   63.79   11.37
 -10  11  -9   51.67   12.29
   1  10   9   60.39   11.66
 -11   1   9   45.26   11.83
 -10  14  -9    2.08   10.52
  14  -4  -9   17.74    8.50
  -4 -10  -9   24.67    9.17
   4  10   9   10.15    8.77
 -14   4   9   11.01    9.65
   4  10   9    4.19    6.90
 -11  -2  -9   25.09   11.99
  -2  13  -9    6.95    7.76
 -13  11   9   27.40   12.84
  11   2   9   23.75   10.20
  11   2   9    7.98    7.33
 -11   1  -9   40.92   11.70
   1  10  -9   40.64   10.11
  11  -1   9   45.65   11.12
 -10  11   9   26.62   10.39
  11  -1   9   43.27    9.90
 -11   4  -9   12.68    6.28
   4   7  -9    1.82    5.27
   4   7  -9   12.90    6.46
  11  -4   9    8.02    5.53
  -4  -7   9    5.44    7.05
  -7  11   9   10.56    6.76
   7   4  -9    6.34    5.86
   7   4  -9    6.57    5.78
  -7  -4   9   10.30    8.01
  -4  11   9    9.45    4.83
  -4  11   9    8.08    5.65
 -11  10  -9   54.01   13.12
 -11  10  -9   47.88   13.31
  10   1  -9   57.54   11.29
 -10  -1   9   67.49   14.57
  -1  11   9   55.94   10.82
 -11  13  -9   15.78   12.74
  -2 -11  -9   41.44   10.18
  13  -2  -9   22.15    8.76
 -13   2   9   23.76   11.23
   2  11   9   17.75    8.97
 -12   0  -9  166.77   22.99
   0  12  -9  160.18   21.88
 -12  12   9  149.06   23.38
  12   0   9  147.00   20.96
  12   0   9  149.41   19.31
   3   9  -9   10.69    7.36
 -12   3  -9   18.43    8.72
  -9  12   9   13.45    8.58
  -3  -9   9   13.76    8.76
  12  -3   9   23.61    7.80
   6   6  -9   57.14   11.17
   6   6  -9   53.60   10.41
 -12   6  -9   39.88    9.60
  -6  12   9   45.32    9.67
  -6  -6   9   68.81   13.98
   9   3  -9   39.83    9.80
  -9  -3   9   60.71   13.96
 -12  12  -9  132.49   22.42
   0 -12  -9  127.10   16.84
  12   0  -9  145.30   19.01
 -12   0   9  114.30   19.90
   0  12   9  163.84   19.13
  -1  14  -9   -5.33    9.03
 -13  -1  -9    2.56   11.21
 -14  13   9   -6.69   10.91
  13   1   9   -9.61    7.37
 -13   2  -9   24.60   11.02
   2  11  -9   24.56    9.52
  13  -2   9   -4.61    6.96
 -11  13   9   15.83   10.93
   5   8  -9   49.27   10.80
   5   8  -9   68.00   12.89
 -13   5  -9   62.89   12.68
  -8  13   9   43.89   11.25
  -5  -8   9   53.22   13.32
   8   5  -9   46.58   10.92
   8   5  -9   37.15    9.66
  -5  13   9   32.81    8.16
  -8  -5   9   54.57   14.21
  11   2  -9    9.71    7.93
 -11  -2   9   35.42   12.69
  14  -1  -9   -2.16    7.48
 -13  14  -9   -8.55   12.59
 -14   1   9   11.64   10.11
   1  13  -9    3.03    8.73
 -14   1  -9    1.79   10.45
  14  -1   9    5.74    9.19
 -13  14   9   -4.05   10.25
 -14   4  -9   23.91   10.88
   4  10  -9   21.56    9.73
  -4 -10   9   31.37   12.44
 -10  14   9    9.45    9.03
   7   7  -9   15.04    8.71
   7   7  -9   14.45    7.34
  -7  14   9   -1.30    6.61
  -7  -7   9   24.60   11.64
  10   4  -9   11.62    8.17
  10   4  -9   13.88    9.50
  -4  14   9   10.03    5.34
 -10  -4   9   10.42   10.11
  13   1  -9   15.31    9.15
 -13  -1   9   -3.71    9.64
   6   9  -9    0.77    6.38
   6   9  -9   11.62    9.67
  -6  -9   9   11.72   10.69
  -9  15   9   10.54    8.87
   9   6  -9   25.24   11.07
   9   6  -9   19.85    9.11
  -9  -6   9   34.32   13.51
  -6  15   9    0.62    6.31
   0   1 -10   56.78    7.77
   0   1 -10   59.93    8.50
   1  -1 -10   80.46    8.11
  -1   0 -10   57.68    8.93
   1  -1 -10   77.72    9.02
   0   1 -10   61.10    9.43
  -1   0 -10   64.54    7.83
   0  -1  10   61.89    8.59
   1   0  10   56.15    7.23
  -1   1  10   80.80    8.21
   0  -1  10   50.26    7.35
   1   0  10   56.22    7.50
   1   0  10   59.65    8.39
   0  -1  10   59.46    8.20
  -1   1  10   88.76    9.86
  -1   1  10   87.17    8.25
   0  -1  10   52.94    9.12
   0  -1  10   64.14    8.85
  -1   1  10   78.86    7.28
   1   0  10   53.92    7.84
  -2  -1 -10   14.73    3.85
  -1   3 -10   10.49    4.43
  -2  -1 -10   16.74    4.33
  -2  -1 -10   18.07    5.21
   3  -2 -10    8.94    5.21
  -1   3 -10    7.69    4.43
  -1   3 -10    6.03    4.66
  -1   3 -10    9.78    4.16
   1  -3  10    3.86    5.37
   1  -3  10    8.90    4.36
  -3   2  10    8.44    3.78
   1  -3  10    6.82    4.62
   1  -3  10    3.63    3.68
   2   1  10   16.93    3.99
  -3   2  10   12.61    4.58
   1  -3  10   14.51    5.06
  -3   2  10   14.98    5.42
  -3   2  10    7.52    4.24
   2   1  10   14.33    4.52
   2   1  10   12.58    4.87
   0  -2 -10  500.51   34.76
   2   0 -10  527.53   35.53
   2   0 -10  525.81   38.06
   0  -2 -10  467.60   34.00
  -2   2 -10  515.98   36.40
  -2   2 -10  510.00   35.84
  -2   2 -10  487.33   37.17
  -2   2 -10  519.15   36.47
  -2   0  10  520.07   36.34
   2  -2  10  454.87   37.11
   0   2  10  487.33   34.57
  -2   0  10  491.28   37.56
   2  -2  10  517.39   35.64
   0   2  10  506.74   35.51
   2  -2  10  557.24   35.91
  -2   0  10  543.76   36.94
  -2   0  10  497.71   35.69
   0   2  10  465.62   36.00
   2  -2  10  508.10   36.34
   2  -2  10  502.75   36.45
  -3  -2 -10   15.20    4.28
   5  -3 -10    2.94    5.86
   5  -3 -10    4.17    4.10
  -2   5 -10   22.54    6.12
  -3  -2 -10   21.73    5.16
  -2   5 -10   17.71    5.44
  -3  -2 -10   18.77    4.05
  -2   5 -10   20.86    5.68
  -5   3  10    8.28    4.28
   3   2  10   24.91    4.93
   2  -5  10   14.63    6.41
   2  -5  10   19.91    5.52
   3   2  10   26.72    6.06
   3   2  10   14.73    4.33
   3   2  10   15.42    3.93
   3   2  10   21.85    5.19
  -5   3  10   15.81    5.75
  -5   3  10   11.63    5.12
  -5   3  10   17.10    5.93
   2  -5  10   11.94    5.26
   2  -3 -10    9.17    4.43
   1   2 -10   22.74    4.96
   1   2 -10   17.83    6.37
  -3   1 -10   10.69    4.08
   2  -3 -10    6.49    3.19
  -3   1 -10   18.41    5.14
  -3   1 -10    5.64    4.41
   3  -1  10    7.06    4.48
   3  -1  10    7.17    4.03
  -1  -2  10   15.84    4.93
  -1  -2  10   12.18    4.74
  -1  -2  10    9.36    5.96
  -1  -2  10   12.60    4.73
   3  -1  10    9.22    4.93
  -1  -2  10   18.09    4.79
  -2   3  10   18.37    5.63
   3  -1  10   14.38    4.47
  -2   3  10   13.44    4.08
  -3   4 -10    5.04    4.01
  -3   4 -10    1.71    3.39
   4  -1 -10    6.65    3.78
  -3   4 -10    7.50    3.95
   4  -1 -10    4.51    4.79
  -3   4 -10    1.82    4.05
   1   3  10   21.18    4.26
   1   3  10   18.23    4.03
  -4   1  10    8.39    5.46
  -4   1  10    6.10    4.28
   3  -4  10    1.48    4.20
   1   3  10   16.45    3.63
  -4   1  10   12.80    5.20
   1   3  10   14.28    4.82
   3  -4  10    2.08    4.83
  -4   1  10    4.61    3.78
   3  -4  10    7.55    3.90
  -3   7 -10   37.66    8.46
   7  -4 -10   35.60   11.16
  -3   7 -10   51.20    9.75
  -4  -3 -10   32.51    6.72
  -4  -3 -10   26.33    5.62
   7  -4 -10   16.27    7.66
  -3   7 -10   36.21    7.49
  -7   4  10   12.72    7.63
   4   3  10   31.82    7.02
   4   3  10   35.37    7.65
   3  -7  10   37.11   10.05
  -7   4  10   15.53    7.09
   3  -7  10   45.66    9.26
  -7   4  10   28.65    8.99
   4   3  10   32.73    6.79
   0   4 -10  248.59   20.50
  -4   0 -10  196.27   18.86
   4  -4 -10  240.81   19.86
  -4   0 -10  219.35   17.93
  -4   0 -10  210.81   18.72
   0   4 -10  225.94   18.51
   0  -4  10  211.51   20.65
   0  -4  10  218.51   18.76
   0  -4  10  207.04   18.02
   0  -4  10  220.36   17.73
   4   0  10  208.72   18.03
   4   0  10  199.28   18.11
  -4   4  10  240.84   20.07
  -4   4  10  222.52   18.65
   0  -4  10  197.48   18.68
  -4   3 -10    7.10    4.55
   3   1 -10   24.14    5.28
   3   1 -10   19.69    6.37
  -4   3 -10    8.11    4.17
  -4   3 -10   11.98    4.96
  -4   3 -10    6.73    4.78
  -3  -1  10   14.75    5.26
  -3  -1  10   12.58    4.78
   4  -3  10    8.28    5.09
  -3  -1  10   14.70    4.80
  -1   4  10    6.27    3.05
  -1   4  10    9.43    4.42
   4  -3  10    8.14    3.76
   4  -3  10    8.32    4.43
   4  -3  10    3.41    4.73
  -3  -1  10   20.33    6.93
  -1   4  10    5.15    3.02
   6  -2 -10  161.85   13.34
  -4   6 -10  202.57   17.76
  -4   6 -10  173.30   16.53
   6  -2 -10  144.68   15.37
   6  -2 -10  127.12   18.81
  -4   6 -10  169.70   16.43
  -4   6 -10  199.21   17.51
   6  -2 -10  140.95   16.61
   2   4  10  184.23   14.02
   2   4  10  160.65   13.03
  -6   2  10  162.11   16.71
  -6   2  10  144.57   16.30
   4  -6  10  176.77   18.39
   2   4  10  159.93   13.77
   4  -6  10  198.46   17.89
   2   4  10  146.32   15.53
  -6   2  10  135.24   17.06
   2   4  10  188.16   14.36
  -5  -4 -10    4.53    5.40
  -4   9 -10    6.68    6.06
  -4   9 -10    3.67    6.45
   9  -5 -10   -1.29    8.41
   9  -5 -10   -3.38    5.80
  -9   5  10   -4.17    5.92
   5   4  10    4.67    5.91
  -9   5  10    5.55    7.20
   5   4  10    3.14    5.07
   4  -9  10   -5.49    7.27
  -1   6 -10    8.49    4.96
  -1   6 -10   13.60    5.33
  -5  -1 -10    1.55    2.87
  -1   6 -10    4.10    4.34
   6  -5 -10   -0.40    5.70
  -5  -1 -10    2.95    4.78
  -1   6 -10   11.67    5.01
  -5  -1 -10    2.69    4.48
   5   1  10    5.95    4.08
  -6   5  10    2.61    5.48
   1  -6  10   16.46    5.82
   5   1  10   -0.77    3.14
   1  -6  10    9.57    4.34
  -6   5  10    4.55    4.98
   1  -6  10    8.88    6.42
   2   3 -10   21.46    5.27
  -5   2 -10   22.06    6.16
  -5   2 -10   19.28    5.47
   2   3 -10   24.94    6.64
   2   3 -10   20.60    5.74
   3  -5 -10    7.93    3.16
  -5   2 -10   16.67    6.11
   2   3 -10   25.12    4.44
  -5   2 -10   16.95    4.89
   5  -2  10   18.10    6.21
  -3   5  10    7.04    3.79
  -2  -3  10   32.10    6.33
   5  -2  10   16.52    5.28
  -3   5  10    6.61    4.77
  -2  -3  10   27.52    5.72
  -2  -3  10   15.28    6.88
  -2  -3  10   15.28    4.97
   5  -2  10   23.02    4.94
   5   0 -10   16.95    4.47
   5   0 -10   10.87    4.81
  -5   5 -10   29.70    7.60
   5   0 -10   18.20    6.15
  -5   5 -10   30.72    7.33
  -5   5 -10   31.09    6.94
   5   0 -10   20.42    8.03
  -5   5 -10   36.98    7.69
   0   5  10   26.56    6.08
  -5   0  10   21.14    5.92
   0   5  10   15.32    3.58
   0   5  10   15.66    3.58
   5  -5  10   42.26    8.64
   0   5  10   20.71    4.46
   5  -5  10   40.73    9.11
   5  -5  10   31.82    7.16
  -5   0  10   20.69    6.53
  -5   0  10   18.25    8.08
   8  -3 -10   -6.18    7.12
   8  -3 -10   -1.78    4.76
  -5   8 -10    0.43    4.79
   8  -3 -10    2.44    4.02
   8  -3 -10    2.09    5.72
  -5   8 -10    0.36    5.70
   3   5  10   -1.41    4.11
  -8   3  10   10.34    6.78
   3   5  10   -1.19    3.88
  -8   3  10   -3.70    5.62
   5  -8  10    8.65    7.69
   5  -8  10    3.26    6.36
   3   5  10    1.02    3.79
  -6  -5 -10    2.98    6.31
  -5  11 -10   -5.34    5.53
  -5  11 -10    0.96    5.83
   6   5  10    0.20    5.59
   6   5  10    1.95    5.92
 -11   6  10    0.57    7.30
 -11   6  10    3.94    7.88
  -2   8 -10   51.52   10.23
  -6  -2 -10   55.61    8.40
   8  -6 -10   61.18   11.41
  -2   8 -10   52.92   10.11
   8  -6 -10   56.38   12.74
  -6  -2 -10   55.61   10.82
   2  -8  10   56.57   11.68
  -8   6  10   41.01   10.32
  -8   6  10   47.74    9.53
   2  -8  10   59.86   12.59
  -8   6  10   70.87   11.72
   6   2  10   66.10   10.58
  -8   6  10   46.90    7.82
   6   2  10   57.62    9.57
  -6   1 -10   14.05    6.60
   1   5 -10    0.67    3.90
   1   5 -10    1.84    4.07
   5  -6 -10    1.02    4.74
  -6   1 -10    7.41    3.97
  -6   1 -10    4.38    5.58
   1   5 -10    2.49    4.16
  -1  -5  10    0.11    4.05
   6  -1  10    5.44    4.45
   6  -1  10   15.39    5.13
  -5   6  10    8.89    5.51
  -1  -5  10    4.71    6.46
   6  -1  10   11.78    5.02
  -1  -5  10    8.18    4.30
  -5   6  10   -0.83    4.48
   4   2 -10  209.23   15.27
  -6   4 -10  188.97   18.57
   4   2 -10  165.10   17.95
  -6   4 -10  190.61   17.76
   4   2 -10  191.34   17.77
  -6   4 -10  197.15   17.77
   4   2 -10  203.56   16.78
  -6   4 -10  192.09   17.71
   6  -4  10  191.77   19.16
   6  -4  10  177.67   18.63
  -4  -2  10  209.03   17.75
  -4  -2  10  180.04   16.45
   6  -4  10  175.82   14.25
  -2   6  10  139.93   13.81
  -4  -2  10  165.10   19.04
  -2   6  10  128.45   13.62
  -2   6  10  156.59   15.67
   7  -1 -10    8.15    8.11
   7  -1 -10    1.82    4.74
   7  -1 -10    8.05    4.16
  -6   7 -10   14.43    6.69
  -6   7 -10    9.12    5.78
  -6   7 -10    7.62    6.09
   7  -1 -10    1.96    5.79
  -6   7 -10   12.18    5.43
   1   6  10   17.06    6.31
  -7   1  10    0.01    6.80
  -7   1  10   14.49    6.63
  -7   1  10    7.93    6.36
   1   6  10   11.75    3.32
   6  -7  10   11.25    7.62
   6  -7  10   18.05    7.33
   1   6  10   14.95    5.13
  10  -4 -10   11.46   11.02
  -6  10 -10   26.11    8.63
  10  -4 -10   11.80    5.59
  -6  10 -10   26.58    9.21
   4   6  10   22.28    7.76
   4   6  10   30.73    7.01
 -10   4  10   14.94    7.87
 -10   4  10    5.87    7.75
  -7  -6 -10    7.90    7.43
  -6  13 -10    1.32    8.66
   7   6  10    4.32    6.36
   7   6  10    0.78    6.94
 -13   7  10    1.76    8.37
  -7  -3 -10   22.63    8.26
  -3  10 -10   29.21    8.53
  -3  10 -10   27.23    9.04
   7   3  10   22.01    7.55
 -10   7  10   19.80    9.43
   7   3  10   25.63    7.85
 -10   7  10   10.02    7.04
   7  -7 -10   34.55    8.54
   0   7 -10   10.19    5.75
  -7   0 -10    2.26    6.53
   7  -7 -10   27.16    8.62
  -7   0 -10    6.22    6.16
  -7   7  10   18.62    7.33
   0  -7  10    2.83    5.29
   0  -7  10    4.66    4.63
   7   0  10    2.44    4.70
  -7   7  10   28.59    8.20
   0  -7  10    2.75    7.26
   3   4 -10   20.64    6.90
   3   4 -10   28.27    6.24
   3   4 -10   12.15    6.19
  -7   3 -10   34.89    9.09
  -7   3 -10   44.15    8.75
   3   4 -10   34.33    7.49
  -7   3 -10   40.61    8.26
  -7   3 -10   52.85   10.28
  -3  -4  10   37.28   10.77
  -3  -4  10   30.36    7.30
   7  -3  10   46.40   10.17
  -4   7  10   38.40    8.45
   7  -3  10   39.53    9.36
  -4   7  10   21.61    6.90
   7  -3  10   34.25    6.78
  -7   6 -10    6.07    6.03
   6   1 -10   10.40    5.09
   6   1 -10   12.25    4.81
   6   1 -10   10.04    6.51
  -7   6 -10   13.22    5.58
  -7   6 -10   12.24    6.07
  -7   6 -10    9.09    6.15
   6   1 -10   12.77    7.20
   7  -6  10   17.39    4.14
  -6  -1  10   12.75    6.53
   7  -6  10   12.00    7.41
  -6  -1  10   10.11    8.20
  -1   7  10    5.42    5.16
  -6  -1  10   18.63    6.34
   7  -6  10   15.29    7.72
   9  -2 -10    4.98    9.34
   9  -2 -10   -2.66    4.75
  -7   9 -10    1.96    5.29
  -7   9 -10    2.25    6.64
  -9   2  10    1.65    6.54
   2   7  10    1.50    5.35
  -9   2  10   -2.48    6.70
   2   7  10   -1.12    4.39
   7  -9  10    5.18    8.14
  -7  12 -10   -5.59    7.40
  12  -5 -10    3.50    5.89
  -7  12 -10    0.10    6.56
  -5  -7 -10    6.32    6.41
 -12   5  10   21.35    9.78
   5   7  10    0.98    6.28
   5   7  10    8.61    6.50
  -7  15 -10    7.02   10.99
  -8  -7 -10    1.86    8.57
   8   7  10   -8.19    6.20
 -15   8  10    5.57   10.12
   8   7  10    3.49    7.91
  -8  -4 -10    1.91    6.65
  -4  12 -10   31.17   11.21
   8   4  10    6.34    6.91
 -12   8  10   23.83    9.05
   8   4  10   -4.86    6.11
 -12   8  10   19.11   10.08
  -8  -1 -10   -2.25    5.32
  -1   9 -10    0.21    5.23
  -9   8  10   -2.42    5.56
   8   1  10   -3.23    5.13
  -9   8  10   11.84    8.17
   8   1  10    0.15    4.83
  -8   2 -10   49.17   11.11
  -8   2 -10   61.05   10.38
  -8   2 -10   64.82   12.20
   6  -8 -10   52.25    9.47
   2   6 -10   52.41    9.73
  -6   8  10   43.48    9.18
   8  -2  10   43.80    8.21
  -6   8  10   58.16   10.52
  -2  -6  10   59.56    9.87
  -2  -6  10   56.70   13.01
   8  -2  10   45.86    9.55
  -8   5 -10    1.63    5.49
  -8   5 -10    2.57    6.19
   5   3 -10   -0.02    3.85
  -8   5 -10    4.66    5.08
  -8   5 -10    0.45    5.94
   5   3 -10    0.03    4.39
  -8   5 -10    5.35    4.18
  -3   8  10    2.91    3.78
   8  -5  10   -1.22    6.62
  -3   8  10    4.14    4.78
  -3   8  10    4.78    3.80
  -5  -3  10   -0.22    4.99
  -5  -3  10    4.27    7.94
   8  -5  10   -3.22    3.15
   8   0 -10   66.42    9.77
  -8   8 -10   62.59   11.57
   8   0 -10   60.94   10.68
  -8   8 -10   70.48   13.17
   8  -8  10   57.25   13.19
  -8   0  10   48.16   11.72
   0   8  10   63.53   10.45
   8  -8  10   65.37   13.71
  -8   0  10   47.39   13.64
  -8  11 -10    4.04    8.05
  11  -3 -10    7.85    6.23
  -8  11 -10    4.70    6.62
   3   8  10    4.08    6.31
 -11   3  10    1.94    6.90
   3   8  10    6.36    5.72
  -6  -8 -10   -1.79    6.15
  14  -6 -10   15.01    7.69
  -8  14 -10    7.89   10.69
 -14   6  10    4.52    9.03
   6   8  10   -0.17    6.76
   6   8  10    6.56    7.83
  -5  14 -10   -4.53    8.77
  -9  -5 -10   -6.35    7.12
   9   5  10    0.35    6.36
 -14   9  10   -3.32    8.34
   9   5  10    7.96    7.94
 -14   9  10   -3.26    9.16
  -2  11 -10    4.04    7.04
  -9  -2 -10   -5.02    5.98
 -11   9  10    9.95    7.69
 -11   9  10   -0.67    7.27
   9   2  10   -4.45    5.76
   9   2  10   -0.72    5.30
   1   8 -10   -0.85    4.60
  -9   1 -10    0.99    5.77
  -1  -8  10    6.04    5.64
  -8   9  10   -1.47    5.53
  -8   9  10    1.65    6.80
   9  -1  10   -1.11    4.46
   4   5 -10    2.59    5.08
  -9   4 -10    8.33    7.97
   4   5 -10    5.96    4.73
  -9   4 -10    1.10    6.84
  -9   4 -10    3.53    5.08
  -5   9  10   -7.37    4.35
  -4  -5  10    1.60    8.94
  -4  -5  10    4.83    6.21
   9  -4  10    0.71    4.24
  -5   9  10   -3.97    4.56
  -9   7 -10    1.39    5.74
   7   2 -10   -0.99    4.72
  -9   7 -10    1.06    6.90
   7   2 -10    4.40    5.03
  -7  -2  10    2.47    6.49
  -2   9  10    0.80    5.26
  -7  -2  10   -0.28    9.53
   9  -7  10   -0.55    7.94
  10  -1 -10   -2.28    5.05
  -9  10 -10    2.19    5.88
  -9  10 -10    2.65    7.97
 -10   1  10    0.64    6.59
   1   9  10    5.98    4.76
   1   9  10    4.17    5.30
  -4  -9 -10    5.03    7.25
  -9  13 -10    1.98    9.52
  13  -4 -10   -3.13    5.65
   4   9  10   -1.35    6.26
   4   9  10   -0.11    5.42
 -13   4  10   -0.02    7.89
 -10  -3 -10   -6.46    7.78
  -3  13 -10   -5.86    8.26
 -13  10  10   -4.93    8.83
  10   3  10    1.91    5.94
  10   3  10    5.84    7.15
 -10   0 -10   16.73    9.26
   0  10 -10   17.31    8.12
 -10  10  10    4.16    7.45
  10   0  10   21.03    7.47
  10   0  10   15.11    8.05
 -10  10  10   11.00    8.28
 -10   3 -10   16.08    9.50
   3   7 -10   16.82    7.23
   3   7 -10   15.54    5.97
 -10   3 -10   32.82    8.65
  -7  10  10    8.14    6.67
  -7  10  10   16.20    7.48
  -3  -7  10   31.11    8.57
  10  -3  10   30.61    7.11
 -10   6 -10   27.52    6.97
   6   4 -10   15.31    6.96
   6   4 -10   24.38    7.13
 -10   6 -10   22.14    9.75
  -4  10  10    4.30    4.98
  -4  10  10    4.22    4.64
  10  -6  10   18.88    5.78
  -6  -4  10    0.81    6.37
   9   1 -10    4.92    5.52
 -10   9 -10    8.99    8.08
 -10   9 -10    3.75    6.56
  -9  -1  10   -3.65    5.28
  10  -9  10   -0.69   10.07
  -1  10  10    5.62    6.04
  12  -2 -10    8.41    7.44
 -10  12 -10   14.77   10.78
 -10  12 -10    6.04    8.86
  -2 -10 -10    9.18    6.95
 -12   2  10   19.88    9.52
   2  10  10   30.12    9.67
   2  10  10   17.70    6.88
  -5 -10 -10   -0.09    7.56
 -10  15 -10    2.84   11.85
  15  -5 -10    5.90    7.90
   5  10  10    0.50    6.63
   5  10  10   -4.80    7.82
 -15   5  10    8.57    9.92
  -4  15 -10    1.03    9.95
 -11  -4 -10    4.75   10.21
  11   4  10    2.07    7.53
  11   4  10   -0.13    8.80
 -15  11  10    9.85   13.04
  -1  12 -10   -6.55    7.40
 -11  -1 -10   -5.55    8.36
  11   1  10   -2.09    6.87
  11   1  10    9.98    7.15
 -12  11  10   11.35   10.29
 -11   2 -10   -1.31    7.19
   2   9 -10    1.71    5.22
  -9  11  10    1.04    7.23
  11  -2  10    4.00    6.41
  -2  -9  10   -4.45    6.46
   5   6 -10    4.37    4.94
 -11   5 -10    6.83    6.07
   5   6 -10    3.90    4.76
  -5  -6  10    4.27    7.25
  11  -5  10    0.07    5.18
  -6  11  10   -1.53    7.31
  -6  11  10   -0.17    5.60
   8   3 -10    2.09    5.25
   8   3 -10    0.36    5.79
  -8  -3  10    9.90    8.46
  -3  11  10    8.64    5.84
 -11  11 -10    7.72   10.66
 -11  11 -10   24.22   11.22
  11   0 -10    6.43    7.32
 -11   0  10    2.69    7.93
   0  11  10    5.30    6.96
 -11  14 -10   -2.65   11.88
  -3 -11 -10    7.77    7.06
  14  -3 -10    4.81    7.41
 -14   3  10   10.58   10.46
   3  11  10    8.02    6.06
   3  11  10    7.80    8.26
  -2  14 -10    0.63    8.84
 -12  -2 -10   -2.78    9.15
 -14  12  10   -2.03   10.42
  12   2  10    3.53    7.48
  12   2  10   11.52    9.56
   1  11 -10    3.62    7.39
 -12   1 -10   -2.07    7.53
  12  -1  10    2.02    7.60
  12  -1  10    1.46    6.44
 -11  12  10   -2.07    9.05
 -12   4 -10   19.47    8.17
   4   8 -10    9.22    5.88
   4   8 -10   -0.96    6.26
  -8  12  10   13.41    8.15
  12  -4  10    6.16    6.13
  -4  -8  10   -0.39    7.88
   7   5 -10   -3.00    5.64
   7   5 -10   -4.77    4.68
  -7  -5  10   -5.52    7.05
  -5  12  10    3.28    5.21
  10   2 -10   -2.17    7.08
  10   2 -10   14.64    8.07
  -2  12  10   11.51    7.22
 -10  -2  10    3.68    9.63
  -1 -12 -10   -4.09    5.64
  13  -1 -10    6.51    7.74
 -12  13 -10    0.58   11.33
   1  12  10    2.98    7.49
 -13   1  10   -0.89    8.00
 -13   0 -10    1.51    8.71
   0  13 -10    7.15    8.97
  13   0  10    0.26    6.81
  13   0  10    9.38    9.64
 -13  13  10    4.75   10.62
 -13   3 -10    6.28    8.79
   3  10 -10    4.81    7.59
 -10  13  10   -4.31    8.09
  13  -3  10   -0.40    6.11
   6   7 -10   -3.79    5.05
 -13   6 -10   -3.73    6.37
   6   7 -10    4.97    6.36
  -7  13  10   -6.56    5.56
  -6  -7  10    8.32    9.16
   9   4 -10   -4.11    5.82
   9   4 -10   -3.08    6.60
  -9  -4  10  -11.77    6.76
  12   1 -10   -1.62    7.44
 -12  -1  10   -0.01    8.62
   2  12 -10    0.44    7.57
 -14   2 -10    6.56   10.15
  14  -2  10   -8.62    7.97
 -12  14  10   12.02   11.40
   5   9 -10   -1.15    7.47
   5   9 -10    0.95    5.05
 -14   5 -10   -7.16    6.11
  -9  14  10    2.72    7.60
  -5  -9  10   -2.87    9.37
   8   6 -10    9.42    8.16
   8   6 -10    2.05    6.32
  -8  -6  10    0.38    9.48
  -6  14  10    1.91    5.97
  11   3 -10   -0.91    7.00
  11   3 -10  -10.43    8.08
 -11  -3  10   -3.84    8.38
 -15   4 -10    3.28   10.46
   4  11 -10   -4.34    7.87
 -11  15  10   21.01   11.36
   7   8 -10    9.92    8.92
   7   8 -10    2.62    6.51
  -7  -8  10  -10.49    8.62
  -8  15  10   -0.60    7.22
  10   5 -10   -1.97    8.56
  10   5 -10   -6.98    6.64
 -10  -5  10   -5.76    9.56
  -5  15  10    3.61    5.18
   0  -1 -11   24.06    5.11
   1   0 -11   18.97    5.19
  -1   1 -11   28.38    5.70
  -1   1 -11   30.38    5.61
  -1   1 -11   37.32    7.36
   0  -1 -11   22.22    5.75
   1   0 -11   24.32    6.38
   1   0 -11   20.93    4.72
   0   1  11   18.13    4.90
   1  -1  11   26.74    5.80
   1  -1  11   30.03    5.67
   1  -1  11   25.87    5.74
  -1   0  11   12.61    4.92
   1  -1  11   32.07    6.11
  -1   0  11   13.84    5.61
  -1   0  11   22.67    5.61
   0   1  11   24.21    5.86
   1  -1  11   34.77    7.30
  -1   0  11   21.87    5.40
   0   1  11   18.49    4.56
  -1   0  11   19.08    4.95
   2  -2 -11   37.65    7.60
   0   2 -11   38.41    6.67
  -2   0 -11   37.61    6.68
   0   2 -11   48.94    8.86
  -2   0 -11   44.12    8.05
   2  -2 -11   42.45    7.02
   0   2 -11   52.61    8.36
  -2   0 -11   50.04    7.10
  -2   2  11   56.53    8.57
   2   0  11   64.36    8.51
   2   0  11   52.34    7.69
   0  -2  11   49.60    7.23
   0  -2  11   48.79    9.23
   0  -2  11   60.39    7.97
  -2   2  11   39.19    5.07
   0  -2  11   51.99    8.27
   2   0  11   42.64    5.94
  -2   2  11   42.56    6.88
   2   0  11   47.96    6.80
   2   0  11   45.08    6.41
  -2   2  11   37.88    5.43
   0  -2  11   54.72    8.13
  -1  -2 -11  524.65   33.27
  -1  -2 -11  513.14   33.86
   3  -1 -11  397.31   35.80
   3  -1 -11  433.26   33.92
  -2   3 -11  508.46   35.11
  -2   3 -11  487.30   35.57
  -2   3 -11  514.71   36.78
  -2   3 -11  528.45   35.94
   1   2  11  448.10   33.12
   2  -3  11  520.12   35.76
   1   2  11  466.21   34.81
  -3   1  11  455.13   34.74
  -3   1  11  400.12   35.17
  -3   1  11  450.69   34.68
   2  -3  11  554.36   34.78
   2  -3  11  489.08   37.17
   2  -3  11  521.19   36.07
   1   2  11  452.29   34.05
  -3   1  11  428.76   35.52
   2  -3  11  482.07   34.49
  -1   4 -11   31.39    6.58
  -3  -1 -11   30.32    5.26
  -1   4 -11   30.54    6.13
  -3  -1 -11   15.77    5.78
  -3  -1 -11   18.82    5.08
   4  -3 -11   20.38    6.79
  -1   4 -11   33.70    7.76
   3   1  11   18.76    5.46
   1  -4  11   34.52    6.83
   1  -4  11   31.27    8.17
   3   1  11   21.91    4.84
  -4   3  11   11.77    3.99
  -4   3  11   15.91    5.92
   3   1  11   22.28    5.25
   1  -4  11   26.83    6.54
   1  -4  11   31.25    6.43
  -4   3  11   16.08    4.80
  -4   3  11   14.09    5.37
   1  -4  11   33.00    5.95
   1  -3 -11  432.93   33.71
   2   1 -11  536.51   38.22
  -3   2 -11  534.61   36.39
  -3   2 -11  498.71   35.51
   1  -3 -11  413.03   32.98
  -3   2 -11  488.91   35.60
  -3   2 -11  455.33   36.53
   2   1 -11  505.58   35.12
  -2  -1  11  442.34   37.12
  -1   3  11  464.62   35.61
  -2  -1  11  516.91   35.44
  -1   3  11  459.10   34.02
   3  -2  11  453.05   36.73
  -2  -1  11  509.50   36.04
   3  -2  11  490.61   35.82
   3  -2  11  557.58   35.43
   3  -2  11  548.54   36.86
  -2  -1  11  543.37   36.43
   5  -2 -11  158.61   16.81
   5  -2 -11  134.50   13.19
  -3   5 -11  116.73   14.15
  -3   5 -11  122.16   13.64
  -3   5 -11  125.41   13.51
  -3   5 -11  118.11   13.58
   2   3  11  122.70   11.21
   3  -5  11  126.72   14.10
  -5   2  11  116.71   14.18
  -5   2  11  154.50   15.24
  -5   2  11  142.63   14.08
   2   3  11  123.73   13.42
   2   3  11  138.39   12.18
  -5   2  11  131.55   14.13
   2   3  11  133.36   11.11
   3  -5  11  102.97   12.68
   3  -5  11   97.75   15.16
   2   3  11  135.68   12.19
  -2   6 -11   81.45   11.85
  -4  -2 -11   63.60    8.21
  -4  -2 -11   86.38    9.81
  -4  -2 -11   85.33   10.54
   6  -4 -11   70.96   13.29
   6  -4 -11   79.22   12.27
  -2   6 -11   82.90   11.32
   4   2  11   81.75    9.83
   2  -6  11   79.59   13.52
  -6   4  11   89.31   12.73
   2  -6  11   85.88    9.36
   2  -6  11   94.59   11.50
  -6   4  11   68.22    9.04
  -6   4  11   86.30   12.77
   4   2  11   75.59   10.33
  -6   4  11   74.99   10.76
   4   2  11   79.40   11.04
  -4   1 -11   33.90    7.01
   3  -4 -11   17.02    5.57
  -4   1 -11   28.07    5.86
   3  -4 -11   12.99    4.34
   1   3 -11   22.60    6.77
  -4   1 -11   22.11    6.30
   1   3 -11   19.84    5.23
  -1  -3  11   19.96    6.20
  -1  -3  11   20.81    5.50
  -1  -3  11   29.63    6.60
   4  -1  11   30.27    6.57
   4  -1  11   29.47    6.15
   4  -1  11   35.74    6.90
  -3   4  11   15.39    5.79
  -1  -3  11   18.52    7.06
  -1  -3  11   33.31    6.34
  -3   4  11   24.90    5.91
   4  -1  11   24.52    5.69
  -4   4 -11  505.22   38.74
   4   0 -11  507.52   39.66
   4   0 -11  579.99   42.03
  -4   4 -11  555.00   39.57
  -4   4 -11  516.96   40.06
  -4   4 -11  570.69   39.67
   4   0 -11  505.16   38.06
   0   4  11  539.80   36.40
   4  -4  11  568.16   40.21
   4  -4  11  525.52   39.33
   0   4  11  553.51   37.06
  -4   0  11  548.07   38.70
   0   4  11  516.93   38.45
  -4   0  11  492.78   39.07
   0   4  11  527.28   36.08
  -4   0  11  473.76   40.52
  -4   0  11  516.80   39.31
   4  -4  11  539.86   36.79
   4  -4  11  485.87   40.36
   7  -3 -11   12.21    4.05
   7  -3 -11   -3.33    6.16
   7  -3 -11    2.13    5.59
  -4   7 -11    3.14    4.20
  -4   7 -11    7.15    5.23
  -4   7 -11   -0.07    4.25
   3   4  11   -1.36    3.57
  -7   3  11   -9.71    6.43
   4  -7  11    0.90    5.36
  -7   3  11    6.55    5.84
   4  -7  11    4.29    7.05
  -7   3  11   -6.91    6.31
   3   4  11    3.25    3.52
   3   4  11    3.82    4.13
   3   4  11   -3.48    4.62
  -3   8 -11  247.52   24.16
  -5  -3 -11  297.10   23.92
  -3   8 -11  268.64   24.79
   8  -5 -11  236.37   26.98
  -5  -3 -11  283.26   20.04
   8  -5 -11  232.76   24.55
   5   3  11  285.68   23.99
   5   3  11  300.39   22.93
   3  -8  11  270.81   24.82
  -8   5  11  237.72   24.18
   3  -8  11  272.07   27.14
  -8   5  11  230.72   24.07
   0   5 -11   97.19   11.98
   5  -5 -11   76.80   12.33
  -5   0 -11   90.98   10.33
  -5   0 -11   84.32   12.85
  -5   0 -11  117.84   12.83
   0  -5  11   82.57   11.02
  -5   5  11   82.39   12.81
   5   0  11   90.85   11.42
   5   0  11   92.19   11.99
   0  -5  11  101.91   10.73
   0  -5  11   98.61   11.98
  -5   5  11   79.46   11.89
   0  -5  11  110.83   15.26
   3   2 -11  141.19   11.16
   3   2 -11  153.53   14.93
  -5   3 -11  111.38   14.00
  -5   3 -11  137.68   14.00
   3   2 -11  148.59   15.73
  -5   3 -11   96.62   12.87
   3   2 -11  143.32   13.33
  -5   3 -11  120.23   13.45
   5  -3  11  102.80   13.98
  -2   5  11  144.18   12.22
  -3  -2  11  135.51   13.46
  -3  -2  11  131.50   13.56
   5  -3  11  121.58   11.82
  -3  -2  11  130.14   13.99
  -3  -2  11  112.15   15.98
   5  -3  11  124.24   14.51
  -2   5  11  144.52   13.75
   5  -3  11  114.12   13.23
  -2   5  11  130.39   11.81
   6  -1 -11   33.81    5.72
   6  -1 -11    1.09    5.77
  -5   6 -11   11.06    6.18
   6  -1 -11   12.38    8.70
   6  -1 -11    7.86    5.53
  -5   6 -11   13.51    6.24
  -5   6 -11    8.17    6.21
  -5   6 -11   24.25    7.06
  -6   1  11   10.38    6.60
   5  -6  11   29.78    8.15
   5  -6  11   15.99    7.85
   1   5  11   15.42    4.77
  -6   1  11   16.18    8.42
   1   5  11   14.50    4.09
   1   5  11    8.72    3.97
   1   5  11    4.37    5.19
  -6   1  11   15.72    6.71
   1   5  11   16.61    4.22
  -5   9 -11   14.14    7.31
   9  -4 -11   13.49    5.52
   9  -4 -11   12.75    9.91
   9  -4 -11   15.03    8.07
  -5   9 -11   14.07    7.86
   4   5  11    6.99    5.12
  -9   4  11   22.75    8.83
   5  -9  11    4.64    8.26
   4   5  11   15.14    6.59
  -9   4  11    3.79    6.98
  10  -6 -11   84.41   15.24
  -4  10 -11  108.04   15.77
  -4  10 -11   92.33   15.07
 -10   6  11   85.60   14.31
   6   4  11   98.81   14.77
 -10   6  11   49.75   12.55
   6   4  11  135.09   15.31
  -1   7 -11  251.84   21.93
  -6  -1 -11  319.73   24.24
   7  -6 -11  255.47   26.19
  -1   7 -11  239.32   23.80
   7  -6 -11  268.89   25.22
  -6  -1 -11  316.90   26.23
  -1   7 -11  290.02   22.10
  -1   7 -11  271.48   25.17
  -6  -1 -11  306.53   25.35
   1  -7  11  270.53   22.19
   6   1  11  286.01   24.03
   1  -7  11  260.86   24.66
   1  -7  11  290.04   27.70
  -7   6  11  276.19   25.14
  -7   6  11  270.47   25.07
   6   1  11  349.42   24.23
  -6   2 -11   92.16   10.54
   2   4 -11   91.05   11.45
   4  -6 -11   67.33    8.59
  -6   2 -11   82.79   12.46
   4  -6 -11   74.58    9.34
   2   4 -11   77.52   11.37
  -6   2 -11   87.81   13.10
  -6   2 -11   55.93   11.11
  -4   6  11   76.33   11.49
   6  -2  11   94.11   12.65
  -2  -4  11   69.15   13.15
   6  -2  11   89.13    9.40
   6  -2  11  104.11   12.01
  -2  -4  11   73.31   10.48
   6  -2  11   96.41   12.55
  -2  -4  11   61.60   10.80
  -4   6  11   88.03   11.11
  -2  -4  11   68.40   10.42
  -6   5 -11   25.99    7.59
  -6   5 -11   19.68    7.33
   5   1 -11   22.02    7.24
   5   1 -11   15.84    4.46
  -6   5 -11   17.11    6.85
  -6   5 -11   24.01    6.76
   5   1 -11   15.08    5.76
  -1   6  11   17.11    6.08
  -5  -1  11    9.18    7.98
   6  -5  11   11.50    7.42
  -1   6  11   19.17    4.36
   6  -5  11   17.13    4.29
  -1   6  11   11.57    3.92
   6  -5  11   25.23    7.55
   6  -5  11   23.21    8.43
  -5  -1  11    9.18    6.14
   8  -2 -11   61.63   10.74
   8  -2 -11   66.96    9.35
  -6   8 -11   55.85   11.47
   8  -2 -11   48.81   13.47
  -6   8 -11   41.60   10.34
   8  -2 -11   63.66   14.50
  -8   2  11   60.33   11.90
   6  -8  11   46.02   11.11
   2   6  11   53.95   10.06
   2   6  11   52.97    7.18
   2   6  11   54.40    8.84
  -8   2  11   54.21   11.28
   6  -8  11   54.43   12.90
   2   6  11   55.19    7.14
   2   6  11   56.72    6.50
  -6  11 -11   32.43   10.84
  -6  11 -11   33.98   10.98
 -11   5  11   24.62   10.42
 -11   5  11   33.90   10.64
   5   6  11   19.55    7.01
   5   6  11   40.03    9.91
  -7  -5 -11    1.79    6.53
  -5  12 -11   11.52    9.28
 -12   7  11    4.13    8.48
   7   5  11   11.99    7.23
   7   5  11    9.38    7.42
 -12   7  11    6.63    8.36
  -2   9 -11   59.22   11.93
  -2   9 -11   94.45   14.31
   7   2  11   97.38   13.53
  -9   7  11   59.92   12.62
   7   2  11  111.13   13.52
  -9   7  11   60.16   12.13
  -7   1 -11  303.98   27.44
   6  -7 -11  256.59   25.41
   1   6 -11  318.79   23.51
   1   6 -11  303.65   25.42
  -7   1 -11  251.82   26.38
   1   6 -11  300.86   23.59
  -1  -6  11  342.48   27.54
  -6   7  11  291.11   26.29
  -1  -6  11  298.09   29.03
  -1  -6  11  333.62   24.95
  -6   7  11  311.86   25.93
   7  -1  11  279.70   24.06
   4   3 -11    1.35    4.42
  -7   4 -11    5.38    5.61
   4   3 -11    4.40    5.24
   4   3 -11    4.38    3.75
  -7   4 -11    5.64    5.52
   4   3 -11   -2.33    5.38
  -7   4 -11    4.50    4.52
  -7   4 -11   -1.78    5.06
  -4  -3  11    4.49    6.54
  -4  -3  11    0.65    4.68
  -3   7  11    4.14    5.29
   7  -4  11   -1.60    3.50
   7  -4  11    7.63    7.04
  -3   7  11   15.02    5.58
   7  -4  11    1.71    5.94
  -3   7  11    0.22    4.78
  -7   7 -11  107.16   15.38
  -7   7 -11  120.21   16.33
   7   0 -11  110.83   13.92
  -7   7 -11  114.79   15.44
   7   0 -11  109.77   12.46
   7   0 -11   99.53   16.76
  -7   0  11  106.30   15.11
  -7   0  11  100.82   17.04
   0   7  11   86.99   11.10
   7  -7  11   88.20   15.49
   7  -7  11  116.08   16.44
   0   7  11  122.89   13.32
  -7   0  11  107.24   14.92
  -7  10 -11   86.99   14.91
  -7  10 -11   81.46   14.55
  10  -3 -11   94.88   11.85
 -10   3  11   66.67   13.71
   3   7  11   49.72    9.96
   3   7  11   84.80   13.27
  -6  -7 -11    8.70    7.69
  13  -6 -11    5.23    6.83
  -7  13 -11   12.90   10.56
   6   7  11   18.79    8.24
 -13   6  11    2.45    8.41
   6   7  11   17.12    8.76
  -6  14 -11   -2.46    9.36
  -8  -6 -11    3.71    7.72
   8   6  11    0.25    6.64
   8   6  11    0.27    6.53
 -14   8  11   -2.44    8.20
  -3  11 -11    2.31    7.17
  -8  -3 -11   -2.24    6.06
  -3  11 -11    5.37    7.32
   8   3  11    1.87    6.53
 -11   8  11   -6.38    6.38
   8   3  11    0.01    5.61
 -11   8  11   -5.75    5.75
   0   8 -11  324.72   28.31
  -8   0 -11  331.48   29.34
   8   0  11  348.40   27.93
   8   0  11  325.73   27.59
   0  -8  11  341.66   26.65
  -8   8  11  308.15   28.67
  -8   8  11  295.79   28.84
  -8   3 -11  285.62   26.22
   5  -8 -11  207.44   20.43
   3   5 -11  291.07   21.98
   3   5 -11  266.08   21.35
  -8   3 -11  267.65   25.41
   3   5 -11  273.83   23.40
  -3  -5  11  300.05   23.60
   8  -3  11  285.45   21.98
  -3  -5  11  287.88   28.20
  -5   8  11  248.85   22.91
  -5   8  11  200.46   21.28
   6   2 -11   50.99    8.11
  -8   6 -11   46.04    7.71
   6   2 -11   57.45    9.92
  -8   6 -11   53.56   11.10
  -8   6 -11   53.45   11.47
  -8   6 -11   57.47   10.78
  -6  -2  11   57.90   11.14
   8  -6  11   56.00    7.82
  -2   8  11   48.01    9.05
   8  -6  11   54.05   12.87
  -6  -2  11   64.82   14.32
  -8   9 -11   29.44    8.99
  -8   9 -11   43.30   11.61
   9  -1 -11   27.95    7.62
   9  -1 -11   11.68    7.83
   8  -9  11   38.38   13.35
   1   8  11   21.51    6.68
  -9   1  11   29.95    9.40
   1   8  11   40.41    8.80
  -8  12 -11   84.60   16.23
  -8  12 -11   79.79   15.33
  -4  -8 -11   65.19   12.81
  12  -4 -11   85.69   12.72
   4   8  11   87.21   14.86
   4   8  11   71.30   12.30
 -12   4  11   84.95   16.17
  -7  -8 -11   -7.30    6.62
  -8  15 -11   12.03   12.77
   7   8  11   -3.93    7.26
   7   8  11   -4.32    7.48
 -15   7  11   -6.45    9.36
  -4  13 -11    7.91    9.20
  -9  -4 -11    8.56    8.39
 -13   9  11    0.66    7.89
   9   4  11   14.49    8.18
   9   4  11   11.60    9.39
 -13   9  11   16.05   10.22
  -1  10 -11   12.95    7.96
  -9  -1 -11   14.47    7.88
 -10   9  11    6.69    6.88
   9   1  11    6.78    6.38
 -10   9  11    3.18    8.17
   9   1  11   15.88    7.54
  -9   2 -11   85.95   12.77
   2   7 -11   79.64   12.52
   9  -2  11   82.59   11.63
  -7   9  11   57.96   11.45
  -7   9  11   75.33   13.19
  -2  -7  11   86.84   12.26
  -9   5 -11   16.89    6.10
   5   4 -11    4.10    5.52
   5   4 -11    2.89    4.50
  -9   5 -11   24.81    9.14
  -9   5 -11   22.06    9.10
   9  -5  11   12.48    4.89
  -5  -4  11    1.08    9.15
  -4   9  11    2.41    4.88
  -5  -4  11   -0.37    5.96
  -4   9  11    8.72    5.03
  -9   8 -11   39.40    9.65
   8   1 -11   38.25    9.46
   8   1 -11   34.43    7.93
  -9   8 -11   29.00   10.00
  -1   9  11   25.62    7.85
   9  -8  11   29.43   10.99
  -8  -1  11   20.32    8.39
  -9  11 -11   18.63    8.79
  -9  11 -11   12.32    9.34
  11  -2 -11   24.20    8.03
 -11   2  11   11.05    7.71
   2   9  11   13.16    6.50
   2   9  11   26.21    8.64
  -9  14 -11   -1.61   10.00
  -5  -9 -11   -2.04    6.63
  14  -5 -11    5.18    7.25
   5   9  11    1.06    6.11
 -14   5  11   -2.20    8.49
   5   9  11   -3.40    7.61
  -5  15 -11   23.31   12.93
 -10  -5 -11   13.90   10.70
  10   5  11    9.18    9.48
  10   5  11   10.65    8.66
  -2  12 -11   41.84   12.82
 -10  -2 -11   40.65   12.30
 -12  10  11   27.91   11.49
  10   2  11   37.53   10.10
  10   2  11   42.52   12.07
 -12  10  11   31.65   12.07
   1   9 -11   13.25    7.25
 -10   1 -11    6.17    6.87
  -9  10  11   13.77    7.86
  10  -1  11   15.61    7.04
  -9  10  11    1.83    7.86
 -10   4 -11   90.73   13.23
   4   6 -11   92.64   12.24
   4   6 -11  112.04   14.64
 -10   4 -11  101.10   16.77
  10  -4  11   85.54   11.78
  -4  -6  11  110.78   15.30
  -6  10  11   67.49   12.08
  -6  10  11   77.34   12.08
   7   3 -11   57.44   11.49
   7   3 -11   54.86    9.78
  -7  -3  11   50.67   15.15
  -7  -3  11   65.06   12.87
  -3  10  11   81.36   11.73
  10   0 -11   20.88    9.64
  10   0 -11   18.62    7.93
 -10  10 -11   30.54   11.16
 -10  10 -11   10.71    7.55
 -10   0  11   21.30    9.41
   0  10  11   25.18    8.45
  13  -3 -11   13.32    8.35
  -3 -10 -11   10.57    7.29
 -10  13 -11    0.66   10.07
   3  10  11   -4.04    5.72
 -13   3  11    2.24    8.69
   3  10  11   15.47    8.67
  -3  14 -11    9.44   11.38
 -11  -3 -11    5.54    9.38
  11   3  11   11.08    9.01
  11   3  11   18.08    9.24
 -14  11  11   -2.95   11.24
   0  11 -11   16.68    9.74
 -11   0 -11   15.14   10.18
  11   0  11   16.52    7.87
 -11  11  11   25.89   11.56
  11   0  11   17.19    8.80
   3   8 -11    3.51    5.90
 -11   3 -11   -4.20    6.09
  -8  11  11   -3.85    6.32
  11  -3  11   -2.63    5.19
  -3  -8  11    4.14    7.36
 -11   6 -11   32.22    8.22
   6   5 -11   23.43    7.32
   6   5 -11   33.84    9.17
  -6  -5  11   19.26    9.52
  -5  11  11   31.64    7.91
  -5  11  11   30.13    7.58
  11  -6  11   37.92    7.94
   9   2 -11   38.27    9.84
   9   2 -11   41.04    9.14
  -2  11  11   22.07    8.00
  -9  -2  11   24.92   10.21
 -11  12 -11   -3.87    9.46
  12  -1 -11    1.74    6.99
   1  11  11   -4.50    6.70
 -12   1  11   -1.45    7.78
  -1  13 -11    3.22    9.14
 -12  -1 -11    2.07    9.75
 -13  12  11   12.43   12.35
  12   1  11   -2.08    6.36
  12   1  11    8.01    9.05
   2  10 -11   34.68   10.62
 -12   2 -11   35.61   11.74
 -10  12  11   36.47   12.12
  12  -2  11   32.23    9.34
   5   7 -11    1.68    5.38
 -12   5 -11    1.33    6.28
   5   7 -11    8.56    7.17
  -7  12  11    0.82    6.28
  -5  -7  11    8.54    7.70
  12  -5  11    5.06    5.85
   8   4 -11   71.67   13.69
   8   4 -11   69.70   12.16
  -8  -4  11   75.59   15.17
  -4  12  11   65.77    9.51
  11   1 -11    2.52    7.93
  11   1 -11   -1.67    6.99
  -1  12  11    1.23    7.50
 -11  -1  11   -6.02    6.83
  -2 -12 -11   18.31    8.84
  14  -2 -11   20.25    9.94
 -12  14 -11    8.37   13.43
 -14   2  11    6.43    9.41
   2  12  11   10.46    8.56
 -13   1 -11    6.24    9.10
   1  12 -11   -6.50    7.52
  13  -1  11    9.70    7.75
 -12  13  11    5.99    9.96
  13  -1  11   12.79    9.43
   4   9 -11    5.16    8.00
 -13   4 -11    6.83    8.59
  13  -4  11   14.83    7.72
  -4  -9  11    2.74    8.79
  -9  13  11    8.62    7.96
   7   6 -11   14.13    7.91
   7   6 -11   15.73    7.26
  -6  13  11   16.64    7.73
  -7  -6  11   16.34   10.91
  10   3 -11   20.94    8.80
  10   3 -11   19.33    9.41
 -10  -3  11   15.88   10.39
  13   0 -11   19.45   10.19
 -13   0  11   10.97   10.74
 -14   3 -11   22.25   11.75
   3  11 -11   14.69    9.18
 -11  14  11    9.01   10.04
  14  -3  11   15.24    9.79
   6   8 -11   -1.27    5.49
   6   8 -11    2.90    8.38
  -6  -8  11   -9.51    8.03
  -8  14  11    3.04    6.81
   9   5 -11    1.25    8.11
   9   5 -11   -0.67    6.41
  -5  14  11    1.95    5.36
  -9  -5  11   11.22    9.86
  12   2 -11    5.77    7.92
 -12  -2  11    2.11    9.10
 -15   5 -11   22.68   11.44
   5  10 -11   10.23    8.95
  -5 -10  11   -1.91   10.41
 -10  15  11    3.53    9.00
   8   7 -11   10.94    7.67
   8   7 -11    9.40    8.67
  -7  15  11   -2.21    6.43
  -8  -7  11    4.27   10.59
   0   0 -12 1337.72   91.95
   0   0 -12 1366.18   90.67
   0   0 -12 1311.83   89.87
   0   0  12 1427.26   91.02
   0   0  12 1403.27   90.08
   0   0  12 1399.94   91.29
   0   0  12 1335.07   90.93
   0   0  12 1385.29   89.98
  -1  -1 -12   55.28    8.69
  -1   2 -12   37.84    7.42
  -1   2 -12   46.74    8.83
   2  -1 -12   37.77    8.25
  -1   2 -12   43.10    7.40
   2  -1 -12   38.84    6.57
  -1  -1 -12   64.18    7.66
   2  -1 -12   43.28    7.88
   1   1  12   56.19    7.30
   1  -2  12   52.99    7.84
  -2   1  12   38.98    6.75
   1  -2  12   40.33    7.77
  -2   1  12   44.64    7.40
   1  -2  12   45.73    7.20
  -2   1  12   48.15    8.09
   1  -2  12   47.66    9.22
  -2   1  12   49.64    8.29
   1   1  12   76.30    9.54
   1   1  12   46.06    7.26
   1  -2  12   38.30    7.52
  -2   1 -12   44.51    8.74
   1   1 -12   62.12   10.11
  -2   1 -12   44.01    7.92
   1  -2 -12   40.90    7.75
   1  -2 -12   44.50    7.02
   1   1 -12   65.70    8.39
  -2   1 -12   50.17    7.67
  -2   1 -12   42.44    7.33
  -1   2  12   38.78    7.55
   2  -1  12   46.43    8.61
  -1   2  12   46.93    7.26
  -1  -1  12   59.48    9.13
  -1  -1  12   64.80    9.08
  -1  -1  12   62.14    8.31
   2  -1  12   59.70    8.57
   2  -1  12   49.39    7.28
   2  -1  12   62.19    9.06
   2  -1  12   43.14    7.47
  -1  -1  12   61.49    8.77
  -1  -1  12   62.01    9.81
   4  -2 -12   71.85   12.33
  -2  -2 -12   74.45    9.50
   4  -2 -12   66.79    9.60
  -2  -2 -12   68.42    8.61
  -2   4 -12   84.60   11.59
  -2   4 -12  108.84   11.23
  -2   4 -12  101.97   11.68
  -2   4 -12   85.56   12.24
  -4   2  12   72.25   10.68
  -4   2  12   65.65   10.50
   2  -4  12   94.17   10.86
  -4   2  12   97.18   12.98
   2  -4  12   75.59   12.56
   2  -4  12  100.86   11.47
   2   2  12   67.12    8.84
   2  -4  12  112.57   10.41
   2   2  12   64.49   10.05
   2   2  12   83.53    9.74
   0   3 -12   86.63   10.77
   3  -3 -12   56.30   10.43
  -3   0 -12   85.20   10.19
   0   3 -12  107.33   12.52
  -3   0 -12   92.59    9.78
  -3   0 -12   89.01   11.26
   0  -3  12   93.39   13.24
   0  -3  12   93.03   10.84
  -3   3  12   62.15    9.79
   0  -3  12   79.27   10.24
   0  -3  12   94.17   10.00
   0  -3  12  102.77   11.25
   3   0  12  101.98   10.78
   3   0  12   80.39   10.59
  -3   3  12   58.56   10.40
   3   0  12   77.24    9.73
  -3   3 -12   82.05   10.56
   3   0 -12   68.36   11.75
  -3   3 -12   92.53   10.44
  -3   3 -12   89.41   12.34
   3   0 -12   49.35    8.31
   0  -3 -12   61.41    7.07
  -3   3 -12   85.41   10.95
   0  -3 -12   57.51    7.45
   0   3  12   59.56    7.99
  -3   0  12   58.84    9.11
   0   3  12   53.30    8.05
   3  -3  12   91.01   12.76
  -3   0  12   55.86   10.55
   0   3  12   76.80    8.84
  -3   0  12   64.47    9.85
  -3   0  12   63.51    9.67
   0   3  12   61.89    9.54
   3  -3  12  105.17   10.84
   6  -3 -12    1.96    8.08
   6  -3 -12   19.07    7.43
  -3  -3 -12   11.33    4.66
  -3  -3 -12   17.33    5.82
  -3   6 -12   20.48    6.84
  -3   6 -12   16.89    6.70
   6  -3 -12   25.30    9.16
  -3   6 -12   15.27    6.77
  -6   3  12   24.86    8.24
   3  -6  12   14.01    8.15
   3  -6  12   11.49    5.74
  -6   3  12   21.29    7.48
   3  -6  12    8.85    6.40
   3   3  12   14.81    5.44
  -6   3  12   15.73    7.05
   3   3  12   12.26    5.07
   3   3  12   14.31    4.93
   3   3  12   11.37    4.57
   3   3  12   17.27    6.08
  -4  -1 -12   87.07   10.50
  -1   5 -12   59.04   10.26
   5  -4 -12   76.67   12.59
  -4  -1 -12   77.96   11.62
  -4  -1 -12   61.81    8.86
  -1   5 -12   61.04    9.72
  -1   5 -12   61.78   10.79
   4   1  12   68.06    9.97
   1  -5  12   69.14   12.81
  -5   4  12   77.19   11.98
   1  -5  12   63.44   10.74
   1  -5  12   65.80    9.20
   4   1  12   77.97   10.63
  -5   4  12   84.53   11.48
  -4   2 -12   82.34   10.82
  -4   2 -12   84.22    9.96
   2   2 -12   78.81   12.22
  -4   2 -12  104.75   11.32
  -4   2 -12   80.56   12.22
   2  -4 -12   77.25    8.22
   2   2 -12   82.57   10.45
   2  -4 -12   75.71    9.12
  -2  -2  12   63.08   12.08
  -2  -2  12   90.11   11.05
   4  -2  12   48.52    9.48
  -2  -2  12   76.92   11.02
  -2  -2  12   86.68   11.33
  -2   4  12   51.75    8.38
   4  -2  12   73.27   11.49
  -2   4  12   80.32   11.22
  -2   4  12   68.83    9.27
  -2  -2  12   78.74   10.19
   4  -2  12  105.64   10.17
   4  -2  12   99.44   10.95
  -4   5 -12   23.30    6.97
  -4   5 -12   28.93    8.00
   5  -1 -12   27.52    6.79
  -4   5 -12   27.07    7.20
  -4   5 -12   40.59    8.32
   5  -1 -12   11.09    6.23
   5  -1 -12   15.07    8.21
   1   4  12   33.50    5.74
  -5   1  12   26.09    7.27
   4  -5  12   41.26    8.54
   4  -5  12   31.98    9.05
   1   4  12   32.86    6.13
   4  -5  12   42.50    6.74
  -5   1  12   31.97    7.88
   1   4  12   26.88    6.75
   1   4  12   34.24    6.08
  -5   1  12   18.34    6.66
   4  -5  12   19.62    6.65
  -5   1  12   22.93    8.53
  -4   8 -12  250.66   25.43
  -4   8 -12  304.70   26.64
   8  -4 -12  296.87   22.13
   8  -4 -12  278.43   26.95
   8  -4 -12  264.56   29.00
  -8   4  12  283.20   26.63
   4  -8  12  342.56   30.31
   4  -8  12  272.36   26.36
   4   4  12  266.92   23.03
   4   4  12  258.40   24.79
   4   4  12  298.50   24.10
  -8   4  12  305.81   27.18
  -5  -2 -12   84.60    9.75
  -2   7 -12   87.56   13.25
  -5  -2 -12   92.82   13.54
   7  -5 -12   92.39   13.87
   7  -5 -12   94.04   15.95
  -2   7 -12   85.66   12.77
   5   2  12   74.97   11.57
   5   2  12   95.03   11.69
   2  -7  12   84.85   13.18
  -7   5  12   89.13   10.30
   2  -7  12   72.93   10.23
  -7   5  12   82.45    9.32
   2  -7  12   86.78   15.00
   5   2  12   93.64   12.19
  -7   5  12   97.82   14.19
  -7   5  12   86.31   13.66
  -5   1 -12   47.00   10.08
   4  -5 -12   77.83   10.93
  -5   1 -12   65.96   10.69
   1   4 -12   71.80   11.16
   4  -5 -12   67.03    9.37
  -5   1 -12   55.09    8.86
   1   4 -12   75.76   10.11
  -1  -4  12   82.79   11.53
  -4   5  12   75.06   10.20
   5  -1  12   51.16    8.33
  -1  -4  12   73.09   12.70
   5  -1  12   42.40    7.68
   5  -1  12   60.85    9.09
  -1  -4  12   74.05    9.85
   5  -1  12   38.14    8.45
  -4   5  12   93.55   12.62
  -1  -4  12   77.09   10.21
  -5   4 -12   29.97    7.31
  -5   4 -12   33.14    7.65
  -5   4 -12   35.75    8.26
   4   1 -12   33.55    7.18
   4   1 -12   25.10    7.36
  -5   4 -12   33.54    8.46
   4   1 -12   29.62    5.14
   4   1 -12   42.62    9.72
  -4  -1  12   31.54    7.95
  -1   5  12   21.21    5.47
  -4  -1  12   45.33   10.45
   5  -4  12   26.55    8.56
  -4  -1  12   38.31    8.14
   5  -4  12   42.59    9.48
   5  -4  12   34.84    6.04
  -4  -1  12   25.89    7.11
  -1   5  12   15.37    5.73
  -1   5  12   25.35    5.55
   5  -4  12   47.65    8.69
  -5   7 -12   46.27    9.87
   7  -2 -12   33.68   10.51
   7  -2 -12   39.92    8.68
  -5   7 -12   48.95   10.27
  -5   7 -12   52.97   10.30
   7  -2 -12   54.69    7.54
   7  -2 -12   50.52   10.81
   2   5  12   40.06    6.94
   2   5  12   46.94    7.02
   5  -7  12   47.79   11.85
   2   5  12   30.02    8.15
   5  -7  12   52.59   10.48
  -7   2  12   27.90    9.21
  -7   2  12   44.20   10.11
   2   5  12   46.56    7.19
   2   5  12   32.41    6.12
  -5  10 -12    5.09    6.41
  -5  10 -12    5.45    6.72
   5   5  12    5.30    5.52
 -10   5  12    0.79    6.96
 -10   5  12    3.19    8.29
   5   5  12    2.65    5.53
  -3   9 -12    4.03    5.96
   9  -6 -12    8.88    8.16
  -3   9 -12   -2.27    5.40
  -9   6  12    4.99    7.38
   6   3  12    2.97    5.60
   6   3  12   -1.58    4.18
  -9   6  12    3.53    5.53
  -6   0 -12   18.24    7.46
   0   6 -12   26.78    7.13
  -6   0 -12   22.39    7.17
   0   6 -12   14.20    6.07
   0   6 -12   19.93    6.67
   6  -6 -12   -0.32    6.94
  -6   0 -12   17.93    7.77
   0  -6  12   11.10    8.13
  -6   6  12   19.51    7.73
   0  -6  12   16.58    6.99
  -6   6  12   11.74    7.53
   0  -6  12   16.67    5.98
   6   0  12   24.76    6.68
  -6   3 -12   14.40    6.80
  -6   3 -12   16.33    7.20
  -6   3 -12   13.70    6.56
   3   3 -12   19.93    6.81
   3   3 -12   12.25    5.64
   3   3 -12   10.78    7.20
   3   3 -12    9.67    4.23
  -6   3 -12   14.86    6.18
   6  -3  12    9.70    5.93
  -3  -3  12   10.12    5.36
  -3  -3  12   20.74    6.90
  -3   6  12   19.05    5.74
  -3  -3  12   13.91    6.50
   6  -3  12   16.91    7.73
  -3   6  12   20.95    6.14
  -3  -3  12   19.82    9.06
  -3   6  12   26.55    7.29
   6  -3  12   21.60    7.89
   6  -3  12   21.37    5.57
   6   0 -12   44.04    6.99
  -6   6 -12   31.89    8.54
   6   0 -12   32.84    9.09
  -6   6 -12   41.07    9.49
   6   0 -12   45.46    8.64
   6   0 -12   34.47   10.55
  -6   6 -12   24.60    7.78
  -6   6 -12   32.54    8.89
   6  -6  12   43.10   10.34
   6  -6  12   41.41    5.90
   0   6  12   41.62    8.37
   0   6  12   32.94    6.32
  -6   0  12   40.56    8.69
   6  -6  12   31.75    9.87
  -6   0  12   37.18    9.24
   0   6  12   42.52    6.27
   0   6  12   40.88    6.23
   0   6  12   38.43    6.37
  -6   0  12   37.91   11.58
   9  -3 -12   34.61    7.20
  -6   9 -12   27.31    9.19
  -6   9 -12   12.41    7.22
   9  -3 -12   31.79   11.73
   3   6  12    9.06    6.40
   6  -9  12   12.70    9.68
   3   6  12   11.73    5.47
  -9   3  12   19.05    8.88
  -9   3  12   25.59    9.13
  -6  -6 -12    2.63    6.05
  -6  12 -12    6.84    9.50
 -12   6  12    0.23    7.84
   6   6  12   -4.47    5.94
   6   6  12    2.23    6.14
 -12   6  12   -0.26    9.53
  -7  -4 -12    5.10    6.48
  -4  11 -12   17.21    8.92
  -4  11 -12   11.35    8.66
   7   4  12    4.55    6.11
   7   4  12    8.90    6.80
 -11   7  12    1.32    6.80
 -11   7  12   -1.40    8.35
  -1   8 -12    5.52    6.18
   7   1  12    4.48    5.44
  -8   7  12    5.17    7.13
   7   1  12    5.71    5.53
  -8   7  12    6.72    7.13
  -7   2 -12   74.33   13.44
   5  -7 -12   87.44   11.87
   2   5 -12  117.37   19.19
  -7   2 -12   89.36   13.98
   2   5 -12   82.56   12.10
   7  -2  12   91.64   11.41
  -5   7  12   97.77   12.65
  -2  -5  12   93.29   15.74
  -2  -5  12   84.36   13.44
  -5   7  12   98.13   14.12
   7  -2  12   82.21   13.72
   7  -2  12   76.42   12.10
  -2  -5  12   85.09   11.98
   5   2 -12   49.28    7.89
   5   2 -12   53.69    9.40
  -7   5 -12   41.57   10.35
  -7   5 -12   46.15   10.03
  -7   5 -12   44.77    9.22
   5   2 -12   29.67    9.76
  -7   5 -12   42.46   10.09
  -2   7  12   43.49    6.83
  -2   7  12   53.66    9.10
  -2   7  12   55.68    7.77
   7  -5  12   52.56    7.11
  -5  -2  12   40.82   11.66
   7  -5  12   47.27   11.43
  -5  -2  12   45.29   10.08
  -7   8 -12   35.64    9.68
  -7   8 -12   30.01    8.64
   8  -1 -12   66.18   11.33
   8  -1 -12   60.32    8.67
   8  -1 -12   18.41   10.32
   7  -8  12   27.23   10.27
   7  -8  12   35.59   11.68
   1   7  12   19.02    4.85
  -8   1  12   31.93    9.84
  -8   1  12   50.99   11.66
   1   7  12   24.56    7.69
   1   7  12   12.38    5.49
  -7  11 -12    7.98    8.12
  11  -4 -12    2.12    5.84
  -7  11 -12   17.63    9.84
   4   7  12    5.52    7.12
 -11   4  12   14.87    8.93
   4   7  12    7.40    6.10
  -7  14 -12    8.10   10.99
  -7  -7 -12   -2.09    6.74
   7   7  12    1.87    7.09
 -14   7  12   -3.97    8.98
   7   7  12    1.03    7.50
  -5  13 -12    0.61    8.90
  -8  -5 -12    3.17    7.28
 -13   8  12    6.32   10.01
   8   5  12    6.21    8.45
 -13   8  12    2.54    8.24
   8   5  12    9.87    8.45
  -8  -2 -12    5.14    6.53
  -2  10 -12    1.69    7.06
  -2  10 -12   -0.04    5.92
   8   2  12   -2.91    5.06
 -10   8  12    0.00    6.13
   8   2  12   -2.83    5.55
 -10   8  12    5.85    7.14
   1   7 -12    6.80    5.72
   8  -1  12    2.28    4.93
  -7   8  12    5.04    6.48
  -7   8  12    0.88    7.00
  -1  -7  12    3.29    5.42
  -8   4 -12  261.11   26.48
  -8   4 -12  284.12   26.67
   4   4 -12  276.23   24.42
   4   4 -12  276.29   22.07
  -4   8  12  275.61   24.43
   8  -4  12  273.42   22.17
  -4   8  12  268.86   22.84
  -4  -4  12  292.79   25.05
  -4  -4  12  267.88   28.64
  -8   7 -12   27.50    8.76
   7   1 -12   14.94    7.34
   7   1 -12   21.31    6.11
  -8   7 -12   32.84    9.60
  -7  -1  12   22.91   11.62
  -1   8  12   44.10    9.12
  -7  -1  12   27.89    9.39
   8  -7  12   40.35   11.43
  -8  10 -12    5.57    7.08
  10  -2 -12   -7.00    4.77
  -8  10 -12    4.47    7.20
   2   8  12    1.59    6.06
   2   8  12    2.87    4.49
 -10   2  12    0.89    6.86
  -5  -8 -12   12.35    8.29
  -8  13 -12   13.50   11.04
  13  -5 -12    3.70    6.85
   5   8  12   -2.34    6.09
 -13   5  12   -0.60    8.94
   5   8  12   15.69    8.92
  -6  15 -12    3.01   12.31
  -9  -6 -12   10.56    9.08
   9   6  12   15.18    9.17
   9   6  12   15.89    9.50
 -15   9  12    3.26    9.37
  -3  12 -12   20.99   10.73
  -9  -3 -12    0.54    7.15
   9   3  12   18.12    8.67
   9   3  12   15.20    8.84
 -12   9  12    4.51    7.53
 -12   9  12    8.80    9.82
  -9   0 -12   39.04   10.34
   0   9 -12   47.55   11.40
   9   0  12   56.89   10.64
   9   0  12   48.31   10.04
  -9   9  12   32.96   10.94
  -9   9  12   35.55   10.49
  -9   3 -12   -1.72    7.76
   3   6 -12    1.37    4.96
  -9   3 -12    1.19    5.65
  -3  -6  12   -0.72    5.36
  -6   9  12    2.80    5.39
  -6   9  12    0.77    5.72
   9  -3  12    5.87    4.88
  -9   6 -12   17.48    5.91
   6   3 -12   18.74    6.95
  -9   6 -12   23.90    9.71
   6   3 -12   14.33    5.91
  -6  -3  12    8.94   10.56
  -3   9  12   28.51    6.16
  -6  -3  12    7.90    7.12
  -3   9  12   20.73    6.06
   9  -6  12   16.15    5.31
  -3   9  12   23.97    7.30
   9   0 -12   16.30    6.63
   9   0 -12   18.19    8.15
  -9   9 -12   16.94    9.60
  -9   9 -12   11.98    7.83
   0   9  12   19.48    7.42
  -9   0  12   25.34    9.41
   9  -9  12   19.64   16.11
  -9  12 -12    2.49    8.99
  -9  12 -12    8.51   10.52
  12  -3 -12   21.65    8.20
 -12   3  12    2.62    7.95
   3   9  12   18.08    9.06
   3   9  12    8.24    6.28
  -6  -9 -12    4.74    7.46
  -9  15 -12    2.82   12.42
 -15   6  12    6.04   11.20
   6   9  12   12.64    9.07
   6   9  12   -0.84    7.17
  -4  14 -12   18.61   12.38
 -10  -4 -12   -1.24    7.47
 -14  10  12   -0.14   10.66
  10   4  12   10.73    8.12
  10   4  12   -3.62    8.01
 -10  -1 -12   10.04    8.50
  -1  11 -12    7.29    7.66
  10   1  12    7.00    6.87
  10   1  12   10.07    7.97
 -11  10  12   -4.72    8.08
 -11  10  12   24.22    9.73
   2   8 -12   -0.81    5.52
 -10   2 -12   -1.10    6.18
  -8  10  12    6.67    7.05
  -2  -8  12   -2.32    5.70
  10  -2  12    2.81    5.15
  -8  10  12    3.64    7.51
 -10   5 -12    3.00    5.49
 -10   5 -12    1.76    8.99
   5   5 -12   -6.20    4.55
   5   5 -12   -1.48    4.28
  10  -5  12    0.32    4.33
  -5  10  12   -2.01    5.15
  -5  -5  12   -4.28    5.32
  -5  10  12    5.74    5.45
   8   2 -12    3.18    5.09
   8   2 -12   -2.12    6.06
  -8  -2  12    6.95    7.50
  -2  10  12    3.71    5.67
 -10  11 -12    9.84    9.38
 -10  11 -12    6.13    9.40
  11  -1 -12   14.05    7.40
   1  10  12    6.81    6.96
 -11   1  12   14.39    9.05
  -4 -10 -12    1.86    7.23
 -10  14 -12  -14.42    9.94
  14  -4 -12   -3.58    7.07
   4  10  12   -2.48    7.16
   4  10  12   -3.88    6.19
 -14   4  12    2.83   10.15
 -11  -2 -12    2.67    9.72
  -2  13 -12   17.39   11.07
  11   2  12    1.44    7.63
 -13  11  12   15.50   11.59
  11   2  12   11.39    9.38
   1  10 -12    5.36    7.54
 -11   1 -12    8.95    8.73
  11  -1  12    8.79    6.95
  11  -1  12   14.62    7.53
 -10  11  12   -5.85    8.37
   4   7 -12    1.05    5.80
 -11   4 -12    0.06    5.66
   4   7 -12    5.94    5.05
  -4  -7  12    4.98    6.73
  11  -4  12    4.18    5.42
  -7  11  12    4.99    6.82
  -7  11  12    2.40    6.33
   7   4 -12   12.04    7.05
   7   4 -12   -1.40    5.18
  -4  11  12    1.50    4.76
  -7  -4  12   -1.55    6.80
  -4  11  12   10.42    6.44
  10   1 -12    6.02    8.59
  10   1 -12   15.12    7.90
 -10  -1  12    8.91    8.26
  -1  11  12    3.83    6.59
  13  -2 -12   -7.42    6.40
  -2 -11 -12    2.84    6.91
 -11  13 -12  -11.24   10.00
   2  11  12   -0.64    7.68
 -13   2  12   -8.14    7.95
   0  12 -12   55.29   13.95
 -12   0 -12   31.24   13.18
  12   0  12   49.70   11.77
  12   0  12   77.09   14.95
 -12  12  12   31.63   13.01
 -12   3 -12   12.15    9.12
   3   9 -12   11.04    8.21
  12  -3  12    6.95    7.27
  -9  12  12    4.38    7.71
  -3  -9  12   17.89    9.18
   6   6 -12    4.72    7.25
 -12   6 -12   -3.38    8.61
   6   6 -12   -3.22    5.42
  -6  -6  12   -4.60    7.45
  -6  12  12    4.27    6.56
   9   3 -12   15.70    8.15
   9   3 -12    6.13    7.91
  -3  12  12   15.39    7.54
  -9  -3  12   11.45    9.44
  12   0 -12   27.25   10.66
   0  12  12   24.52    9.39
 -12   0  12   26.78   11.69
   2  11 -12   11.17    8.37
 -13   2 -12   25.31   11.20
 -11  13  12    9.00    9.99
  13  -2  12    5.53    7.66
  13  -2  12    8.75    9.14
 -13   5 -12    2.37    7.26
   5   8 -12    6.68    7.48
   5   8 -12   14.95    6.10
  13  -5  12   -3.82    5.58
  -5  -8  12    2.44    8.66
  -8  13  12    7.01    7.51
   8   5 -12   11.13    8.17
   8   5 -12    0.88    5.86
  -5  13  12    7.72    5.80
  -8  -5  12   -3.10    8.40
  11   2 -12    6.09    7.49
  11   2 -12    1.60    8.66
 -11  -2  12   -2.53    8.72
   4  10 -12   -3.89    7.73
 -14   4 -12    0.27    8.96
 -10  14  12   -4.66    7.49
   7   7 -12    5.00    9.07
   7   7 -12   -6.19    5.15
  -7  -7  12   -5.97    8.16
  -7  14  12   -1.85    6.03
  10   4 -12    5.80    7.61
  10   4 -12    1.68    9.01
 -10  -4  12   -8.58    8.96
   6   9 -12    5.00    8.33
  -6  -9  12  -12.65    8.76
  -9  15  12   -2.82    7.92
   9   6 -12    8.23    9.74
   9   6 -12    8.49    7.33
  -9  -6  12   -0.89   10.10
  -6  15  12    6.45    6.38
   0   1 -13   37.19    7.38
  -1   0 -13   35.02    6.90
   0   1 -13   34.05    7.93
  -1   0 -13   23.67    6.87
   1  -1 -13   30.59    6.38
   1  -1 -13   23.61    6.90
   0   1 -13   28.78    6.03
   1   0  13   27.12    6.29
   0  -1  13   29.45    5.99
   0  -1  13   33.10    6.94
   1   0  13   26.38    5.64
  -1   1  13   28.36    6.64
  -1   1  13   22.61    5.09
   1   0  13   27.54    6.22
   0  -1  13   30.36    7.61
   1   0  13   29.92    6.52
  -1   1  13   13.25    4.88
   1   0  13   32.50    6.13
  -1   1  13   30.35    6.15
  -1   1  13   23.08    5.57
   0  -1  13   26.45    6.46
   0  -1  13   37.69    7.20
   3  -2 -13   96.38   13.50
  -1   3 -13   92.05   13.38
  -2  -1 -13  113.00   11.42
  -1   3 -13   89.03   11.62
  -2  -1 -13   99.79   12.09
  -1   3 -13   93.78   11.82
   2   1  13   93.67   12.02
  -3   2  13   93.76   13.14
   2   1  13   92.79   10.17
   1  -3  13  107.08   12.30
   1  -3  13   89.35   13.96
   1  -3  13   75.43   10.76
  -3   2  13  107.72   10.51
   2   1  13  102.98   11.69
  -3   2  13  116.19   12.09
  -3   2  13  125.68   11.73
   1  -3  13   99.85   11.83
   1  -3  13   85.35   12.01
   0  -2 -13   21.99    6.30
   0  -2 -13   23.31    5.54
  -2   2 -13   22.53    6.24
  -2   2 -13   24.45    6.15
  -2   2 -13   38.39    8.36
   2   0 -13   29.57    7.81
  -2   2 -13   24.83    6.17
   2   0 -13   29.39    6.07
  -2   0  13   34.92    8.26
   2  -2  13   27.22    7.50
   2  -2  13   43.70    7.59
   0   2  13   35.97    7.37
   2  -2  13   27.41    6.70
   2  -2  13   25.19    6.09
   0   2  13   33.20    6.69
  -2   0  13   38.65    7.64
   0   2  13   31.60    6.12
  -2   0  13   34.98    6.77
   2  -2  13   24.67    6.55
  -2   0  13   27.41    6.36
  -2   5 -13  139.30   14.70
  -3  -2 -13  152.18   13.61
   5  -3 -13  115.53   17.19
  -3  -2 -13  145.49   14.60
  -2   5 -13  139.49   15.64
  -2   5 -13  139.34   15.08
  -5   3  13  106.49   13.05
  -5   3  13  105.78   14.34
   3   2  13  130.88   14.12
  -5   3  13   99.18   15.28
   3   2  13  117.33   12.24
   2  -5  13  141.72   15.19
   3   2  13  130.59   11.80
   2  -5  13  137.72   17.21
   2  -5  13  140.40   13.35
  -5   3  13   90.55   11.81
   3   2  13  147.48   13.94
   2  -3 -13  103.99   12.05
   1   2 -13  111.83   13.70
   2  -3 -13  118.19   11.27
  -3   1 -13   82.29   11.90
  -3   1 -13   82.57   12.82
   1   2 -13  105.26   11.18
  -3   1 -13   71.63   10.78
  -1  -2  13  101.94   10.90
   3  -1  13   91.09   11.15
   3  -1  13   92.63   11.58
   3  -1  13   77.22   11.66
  -1  -2  13   97.74   14.30
  -2   3  13  106.30   11.13
  -1  -2  13  108.26   12.05
  -1  -2  13  110.37   12.38
  -1  -2  13  101.40   12.20
   3  -1  13   92.64   10.82
  -2   3  13  121.42   14.11
   3  -1  13   88.68   11.39
  -3   4 -13    8.83    5.75
  -3   4 -13    3.77    4.40
  -1  -3 -13    6.78    3.74
  -3   4 -13    9.77    5.12
   4  -1 -13    1.45    5.92
   4  -1 -13    4.44    4.02
  -1  -3 -13   10.17    4.08
  -3   4 -13    6.77    5.01
   1   3  13    2.72    3.99
  -4   1  13    6.26    5.62
   3  -4  13    9.57    4.71
  -4   1  13    4.68    4.45
   3  -4  13    3.49    5.65
   1   3  13    4.25    3.57
  -4   1  13    5.24    4.49
   1   3  13    7.71    3.98
   1   3  13    0.94    3.85
   3  -4  13    9.64    5.88
   3  -4  13   10.84    5.18
  -4   1  13   11.37    5.87
   7  -4 -13   13.01    7.81
  -4  -3 -13   12.92    6.74
  -3   7 -13    6.30    6.02
  -3   7 -13    2.99    5.38
   7  -4 -13   14.50    9.75
   4   3  13   12.85    5.17
   4   3  13   11.02    5.37
  -7   4  13   -0.26    6.00
   4   3  13    8.09    5.64
  -7   4  13   12.39    6.97
   3  -7  13    6.26    7.72
   3  -7  13    5.79    6.40
  -4   0 -13   46.01    8.63
   0   4 -13   47.81    9.80
   4  -4 -13   38.96    9.31
   0   4 -13   29.90    7.16
  -4   0 -13   36.76    8.74
  -4   0 -13   20.07    5.68
   0  -4  13   43.51    8.07
   4   0  13   32.32    7.34
   0  -4  13   24.49    7.20
   0  -4  13   33.78    8.09
   0  -4  13   37.34   10.04
  -4   4  13   55.38    8.93
   0  -4  13   38.20    7.48
  -4   4  13   30.70    8.54
   4   0  13   31.68    7.21
  -4   3 -13    0.77    4.68
  -4   3 -13    1.03    3.89
  -4   3 -13    4.19    5.13
   1  -4 -13    3.84    3.04
   3   1 -13    2.13    5.54
   1  -4 -13    9.39    4.07
  -4   3 -13   10.20    5.02
   3   1 -13    7.46    4.54
  -1   4  13    6.73    4.87
   4  -3  13    6.34    5.09
  -3  -1  13    3.11    4.45
  -3  -1  13   -3.72    5.76
  -1   4  13    7.78    4.14
   4  -3  13    4.51    5.83
   4  -3  13   11.69    4.83
  -3  -1  13    3.71    4.86
  -3  -1  13    1.92    4.37
  -1   4  13    4.75    4.01
   4  -3  13   -0.34    5.30
   6  -2 -13    4.04    5.54
   6  -2 -13    5.88    3.45
  -4   6 -13    8.75    5.66
  -4   6 -13    5.76    6.33
   6  -2 -13    3.96    5.86
  -4   6 -13   11.59    5.57
  -4   6 -13    7.89    5.80
   6  -2 -13    5.83    7.74
   4  -6  13   -4.37    5.91
   2   4  13   12.43    4.71
   2   4  13    7.49    4.83
  -6   2  13    9.48    7.28
  -6   2  13    1.45    5.67
  -6   2  13    6.81    6.69
   2   4  13   10.01    4.19
  -6   2  13    3.12    5.22
   4  -6  13    8.73    4.99
   2   4  13    9.31    5.93
   4  -6  13   11.98    6.93
   2   4  13    8.49    4.03
  -4   9 -13   -0.35    6.20
   9  -5 -13    2.73    7.74
  -4   9 -13    4.91    5.79
   5   4  13    2.40    5.09
   5   4  13   -1.35    5.40
  -9   5  13   -0.22    6.88
  -9   5  13   -0.73    6.21
   4  -9  13    3.51   10.29
   6  -5 -13   19.94    9.35
  -1   6 -13    8.08    4.94
  -5  -1 -13   19.96    7.21
  -5  -1 -13   17.40    7.76
  -1   6 -13   22.77    7.13
  -5  -1 -13   11.23    5.11
   5   1  13   14.71    6.26
   1  -6  13   37.71    8.66
   5   1  13   16.38    5.62
  -6   5  13   38.43    9.48
  -6   5  13   14.05    7.06
   1  -6  13   21.43    9.32
   1  -6  13   18.13    6.16
   5   1  13   26.84    7.55
   2   3 -13  125.38   13.42
  -5   2 -13  121.59   14.98
   3  -5 -13  123.00   13.18
  -5   2 -13  145.25   14.20
  -5   2 -13  130.18   14.53
   3  -5 -13   96.98   11.51
   2   3 -13  120.02   15.55
  -3   5  13  110.59   12.83
   5  -2  13  153.80   15.05
  -2  -3  13  116.54   17.15
   5  -2  13  123.93   14.91
   5  -2  13  138.14   14.54
  -2  -3  13  128.17   13.84
  -2  -3  13  128.41   13.43
  -3   5  13  125.06   15.26
  -2  -3  13  160.40   15.63
   5  -2  13  130.29   13.05
  -5   5 -13    8.14    6.33
   5   0 -13   12.97    6.51
  -5   5 -13   13.70    6.44
  -5   5 -13   14.15    6.14
  -5   5 -13   13.38    6.20
   5   0 -13    9.92    5.36
   5   0 -13   11.81    3.91
   5   0 -13   25.99    9.08
   5  -5  13   10.81    4.50
   5  -5  13    9.77    5.64
   0   5  13   17.22    5.83
   0   5  13   17.51    5.13
   0   5  13   12.52    4.41
   5  -5  13   10.00    7.00
   5  -5  13    4.22    6.91
  -5   0  13   10.18    5.93
   0   5  13   12.57    5.08
  -5   0  13    9.20    7.66
  -5   0  13   17.44    7.22
  -5   0  13    2.55    5.48
  -5   8 -13    2.41    5.21
  -5   8 -13   -4.33    5.98
   8  -3 -13   15.94    5.41
   8  -3 -13    0.60    8.54
   8  -3 -13    1.13    6.72
   5  -8  13   -3.96    6.20
   3   5  13    3.23    3.92
   5  -8  13    8.50    8.73
  -8   3  13    1.59    6.18
   3   5  13    3.34    4.31
   3   5  13   -0.28    4.75
  -8   3  13   -1.05    6.19
  -5  11 -13   47.40   12.45
  -5  11 -13   22.50    9.43
   6   5  13   29.22    9.35
 -11   6  13   29.53   11.84
   6   5  13   35.30    9.23
 -11   6  13   32.65   11.02
  -2   8 -13   11.11    7.22
  -2   8 -13   15.46    7.58
  -8   6  13    6.78    6.73
   6   2  13    8.29    5.98
   6   2  13    2.63    5.30
  -8   6  13    4.95    7.22
   2  -8  13    8.84    9.50
  -6   1 -13   14.63    7.74
   1   5 -13   19.16    6.33
   1   5 -13   11.64    5.87
   5  -6 -13   21.86    8.09
  -6   1 -13   25.95    8.62
  -1  -5  13   17.41    9.13
   6  -1  13   10.78    5.44
  -5   6  13   18.02    7.08
  -1  -5  13   15.82    6.97
  -1  -5  13    7.26    5.92
  -5   6  13   13.73    7.39
  -6   4 -13    7.54    4.85
   4   2 -13    7.73    3.54
   4   2 -13   11.32    6.13
  -6   4 -13   12.23    6.69
  -6   4 -13   13.70    6.66
   4   2 -13   11.20    7.58
   4   2 -13   13.69    5.78
  -6   4 -13    5.05    5.94
   6  -4  13   -0.83    5.93
  -4  -2  13    9.56    5.48
  -4  -2  13    7.35    6.38
  -4  -2  13   16.43    6.62
  -2   6  13   13.23    5.27
   6  -4  13   12.03    7.48
   6  -4  13    6.13    5.43
   6  -4  13    1.35    3.67
  -2   6  13    8.14    4.62
  -2   6  13    9.98    5.52
  -4  -2  13    8.36    7.67
   7  -1 -13   31.59    6.65
  -6   7 -13   32.39   12.09
  -6   7 -13   28.10    9.17
   7  -1 -13   10.68    8.91
   7  -1 -13   19.86    7.12
  -6   7 -13   22.86    8.08
   1   6  13   33.54    6.46
  -7   1  13    6.13    7.58
   1   6  13   26.55    6.06
   1   6  13   30.25    8.57
   6  -7  13   27.26    9.50
   6  -7  13   32.10   10.91
   1   6  13   27.03    6.02
   1   6  13   28.24    5.73
  -7   1  13   14.58    7.84
  -6  10 -13    9.18    8.15
  -6  10 -13   10.76    7.64
  10  -4 -13    5.48   11.58
   4   6  13   10.78    6.90
 -10   4  13   -1.98    7.15
   4   6  13    6.28    5.31
 -10   4  13    3.31    7.42
  -7  -6 -13   -9.00    6.14
  -6  13 -13    0.85   10.78
   7   6  13   -7.51    6.35
 -13   7  13    0.35    8.28
   7   6  13   -3.81    6.30
  -3  10 -13   26.54    9.80
  -3  10 -13   28.27   10.19
   7   3  13   20.49    7.78
 -10   7  13   17.55    8.11
   7   3  13   19.89    8.16
 -10   7  13   17.18    9.20
   0   7 -13   28.06    8.06
  -7   7  13    7.41    7.56
  -7   7  13   19.59    8.68
   0  -7  13   17.50    6.57
   0  -7  13   18.19   10.21
   7   0  13   13.21    6.63
   3   4 -13    8.12    5.89
  -7   3 -13   11.55    7.36
   4  -7 -13    3.08    4.90
  -7   3 -13    8.20    6.86
  -4   7  13    9.68    5.94
  -3  -4  13    0.63    5.39
  -3  -4  13    8.26    6.38
   7  -3  13    7.16    4.79
  -3  -4  13    0.33    7.09
  -4   7  13    7.52    5.94
   6   1 -13   18.55    6.92
   6   1 -13   27.27    6.30
  -7   6 -13   26.05    8.97
  -7   6 -13   44.55   10.27
  -7   6 -13   24.39    8.34
   6   1 -13   24.09   10.14
  -1   7  13   23.30    7.39
   7  -6  13   27.29   10.09
  -6  -1  13   19.75   10.72
  -1   7  13   14.07    5.25
   7  -6  13   23.63    5.22
  -6  -1  13   19.82    8.23
  -1   7  13   18.85    5.83
  -7   9 -13   29.24    9.14
   9  -2 -13   31.10    7.45
  -7   9 -13   14.49    8.61
   2   7  13   27.59    5.44
   2   7  13   28.06    8.58
  -9   2  13   31.28    9.87
   2   7  13   20.22    6.15
  -7  12 -13   -1.88    8.36
   5   7  13    5.96    7.51
 -12   5  13   12.26   10.11
   5   7  13    5.16    6.00
  -4  12 -13    6.32    9.35
  -8  -4 -13    9.24    7.80
 -12   8  13    2.96    8.15
 -12   8  13   13.48   10.20
   8   4  13   12.84    8.06
   8   4  13    8.75    7.87
  -1   9 -13   -4.22    6.04
  -9   8  13   -1.78    6.97
   8   1  13   -0.08    5.28
   8   1  13    2.75    5.51
  -9   8  13   -4.00    6.30
   2   6 -13   13.47    6.69
  -8   2 -13   12.52    8.54
  -6   8  13    7.49    7.35
   8  -2  13    5.93    5.32
  -2  -6  13    0.70    8.68
  -2  -6  13   15.16    7.24
  -6   8  13   11.98    6.66
   5   3 -13   -1.38    5.44
   5   3 -13    0.10    3.72
  -8   5 -13    6.34    7.08
  -8   5 -13    1.88    6.29
   8  -5  13    4.32    4.33
  -5  -3  13    8.44    6.20
  -3   8  13    3.26    4.58
  -3   8  13    3.78    5.25
  -5  -3  13   -0.83    8.29
  -8   8 -13    8.43    6.23
  -8   8 -13    8.44    7.72
   8   0 -13   13.61    7.53
   8   0 -13    6.04    5.07
   0   8  13    8.08    4.03
  -8   0  13   15.08    7.92
   0   8  13   13.04    6.65
   8  -8  13    3.34    8.00
  11  -3 -13    1.13    5.69
  -8  11 -13    1.31    7.92
  -8  11 -13   -1.24    7.35
 -11   3  13   -3.28    6.96
   3   8  13   -1.40    4.79
   3   8  13    1.01    6.42
  -6  -8 -13    1.19    6.92
  -8  14 -13   -1.69   10.79
 -14   6  13   -1.57   10.09
   6   8  13   -2.56    6.93
   6   8  13   -4.20    6.94
  -5  14 -13   -0.06    9.87
  -9  -5 -13   -2.62    7.31
 -14   9  13   -2.59   10.75
   9   5  13   -0.89    7.75
 -14   9  13  -12.75    7.34
   9   5  13   -3.56    7.03
  -2  11 -13    2.22    7.95
  -9  -2 -13    1.84    7.11
   9   2  13   -1.10    5.76
 -11   9  13    8.38    9.18
 -11   9  13    2.85    7.07
   9   2  13    1.20    6.62
   1   8 -13    7.40    6.44
  -9   1 -13    0.47    6.38
  -8   9  13    4.46    6.99
   9  -1  13    2.56    4.71
  -1  -8  13    7.98    6.19
  -8   9  13   -6.28    6.29
   4   5 -13   -3.02    3.88
   4   5 -13    3.92    5.61
  -9   4 -13   -5.69    6.83
  -4  -5  13    6.51    6.83
  -4  -5  13   -1.81    9.56
  -5   9  13    3.12    5.27
  -5   9  13   -6.25    5.37
   9  -4  13    1.48    4.28
   7   2 -13   33.50    8.70
   7   2 -13   27.29    7.17
  -7  -2  13   15.82    8.71
  -2   9  13   39.32    8.95
  10  -1 -13   -0.88    6.02
  -9  10 -13    0.38    7.68
  -9  10 -13    6.51    7.29
 -10   1  13    7.27    8.54
   1   9  13    0.95    5.85
  -9  13 -13   -0.27    9.84
  -4  -9 -13    3.58    6.62
 -13   4  13   -2.52    8.57
   4   9  13    3.48    7.76
   4   9  13   -2.59    5.08
  -3  13 -13    6.45   10.66
 -10  -3 -13   19.13    9.61
  10   3  13   18.80   10.30
 -13  10  13    6.75    8.88
  10   3  13   11.62    8.93
 -13  10  13   22.72   12.81
 -10   0 -13   -1.22    6.57
   0  10 -13    0.81    7.18
 -10  10  13    9.29    8.55
  10   0  13   -4.12    5.92
  10   0  13   -2.29    5.87
 -10  10  13   -4.23    7.77
 -10   3 -13   28.80    8.62
   3   7 -13   19.08    7.90
  -7  10  13   20.70    9.39
  -7  10  13   13.08    7.54
  -3  -7  13   15.70    7.94
  10  -3  13   26.05    7.68
 -10   6 -13   13.26   10.75
 -10   6 -13    7.18    6.49
   6   4 -13    2.92    4.74
   6   4 -13    9.87    6.43
  -4  10  13    7.08    6.05
  -6  -4  13    8.95    7.30
  -4  10  13    7.81    5.64
   9   1 -13    4.25    5.78
   9   1 -13   -4.15    6.58
  -1  10  13   -1.42    5.69
  -9  -1  13   -0.44    6.34
 -10  12 -13   -1.61   10.02
  12  -2 -13    8.51    7.34
 -12   2  13   17.05    9.78
   2  10  13    7.47    7.89
   2  10  13   11.49    6.02
 -11  -1 -13    1.50    8.99
  -1  12 -13    2.06    7.88
 -12  11  13   -1.97    8.94
  11   1  13    6.75    7.80
  11   1  13    3.21    7.12
   2   9 -13    3.66    7.04
 -11   2 -13    5.20    7.65
  -2  -9  13   12.66    9.87
  11  -2  13   -1.50    5.45
  -9  11  13    0.78    9.50
  -9  11  13    2.33    7.21
 -11   5 -13   40.41    9.47
   5   6 -13   44.57   10.49
   5   6 -13   38.25    8.58
  -6  11  13   24.16    8.26
  11  -5  13   31.20    7.77
  -5  -6  13   42.72   10.78
  -6  11  13    9.49    7.13
   8   3 -13    0.68    5.71
   8   3 -13    0.81    6.68
  -8  -3  13   -8.31    5.84
  -3  11  13   -2.30    4.27
  -3  11  13    3.59    6.22
  11   0 -13    5.80    7.59
   0  11  13    3.23    6.96
 -11   0  13   11.92    9.42
 -11  14 -13   16.70   14.06
  14  -3 -13   -5.26   13.79
  -3 -11 -13    6.37    7.24
 -14   3  13    8.81   10.41
   3  11  13    8.72    8.80
 -12   1 -13    7.13    9.29
   1  11 -13    4.15    8.22
  12  -1  13    5.16    7.63
  12  -1  13    0.78    6.49
 -11  12  13    2.06    8.74
   4   8 -13   19.90    9.20
 -12   4 -13    7.46    7.94
  12  -4  13    4.54    6.37
  -4  -8  13    4.74    8.07
  -8  12  13    3.48    7.88
   7   5 -13    0.07    6.52
   7   5 -13   -2.41    5.25
  -5  12  13    0.43    7.99
  -7  -5  13   -1.56    7.10
  -5  12  13   -1.07    5.77
  10   2 -13    6.50    6.71
  10   2 -13   11.42    8.82
  -2  12  13    6.71    6.85
 -10  -2  13    4.35    8.08
  13  -1 -13    5.71    8.31
 -13   1  13   11.31   10.64
   1  12  13    6.92    8.06
 -13   3 -13   23.60   10.49
   3  10 -13   20.26    9.93
 -10  13  13    2.74    8.71
  13  -3  13    8.17    7.68
   6   7 -13   -2.94    5.76
   6   7 -13   -1.02    7.48
  -6  -7  13    5.19    8.62
  -7  13  13    1.92    6.44
   9   4 -13    2.08    7.93
   9   4 -13   -1.40    6.38
  -9  -4  13   -0.24    8.59
  -4  13  13    1.99    5.15
  12   1 -13   -7.71    6.67
 -12  -1  13   -0.36    8.66
  -1  13  13   -6.02    8.24
 -14   5 -13    4.81    8.35
   5   9 -13    3.41    8.85
  -5  -9  13    4.17    8.75
  -9  14  13   -5.31    7.74
   8   6 -13    1.98    6.32
   8   6 -13    5.41    8.77
  -8  -6  13    7.78    9.68
  -6  14  13    5.70    7.04
  11   3 -13    6.16    7.93
 -11  -3  13   -0.26    8.65
   1   0 -14  320.34   24.71
   0  -1 -14  278.63   24.73
  -1   1 -14  255.11   24.91
   1   0 -14  308.54   25.86
  -1   1 -14  286.53   23.10
  -1   1 -14  298.14   24.17
   0  -1 -14  293.07   23.35
   1   0 -14  290.23   22.89
  -1   0  14  279.80   24.48
  -1   0  14  283.76   23.17
  -1   0  14  288.82   24.35
   1  -1  14  257.72   23.61
   0   1  14  310.48   24.42
  -1   0  14  283.21   23.92
   0   1  14  293.09   22.93
   1  -1  14  242.82   22.42
   1  -1  14  255.30   24.21
   0   1  14  294.85   24.26
   1  -1  14  280.14   23.45
  -2   0 -14   35.29    7.65
   2  -2 -14   28.77    7.88
   0   2 -14   40.92    8.31
   0   2 -14   34.51    6.85
  -2   0 -14   38.80    8.88
   2  -2 -14   25.48    6.62
   0   2 -14   27.50    8.07
  -2   2  14   31.03    6.78
   2   0  14   26.18    5.04
  -2   2  14   34.15    8.12
   0  -2  14   29.56    7.23
   2   0  14   49.20    8.25
   0  -2  14   39.28    7.40
   2   0  14   35.28    6.66
   0  -2  14   22.72    6.13
   2   0  14   26.07    5.41
   0  -2  14   23.99    8.27
   0  -2  14   28.22    7.22
   3  -1 -14  511.83   37.57
  -2   3 -14  435.41   34.69
  -2   3 -14  509.57   35.72
  -2   3 -14  450.72   34.29
  -1  -2 -14  425.42   34.33
  -2   3 -14  455.28   36.34
  -1  -2 -14  456.90   33.23
   3  -1 -14  471.37   33.69
  -3   1  14  461.21   35.65
   2  -3  14  474.32   35.26
   1   2  14  420.47   33.92
   2  -3  14  446.45   35.16
  -3   1  14  452.07   34.19
   1   2  14  440.40   34.69
  -3   1  14  470.35   35.73
   1   2  14  401.82   32.52
   2  -3  14  402.76   36.22
   2  -3  14  474.69   34.13
   2  -3  14  431.26   33.80
  -3  -1 -14  151.18   18.43
   4  -3 -14  185.45   20.09
  -1   4 -14  218.93   18.88
  -3  -1 -14  180.07   17.62
  -1   4 -14  221.18   20.52
  -4   3  14  187.61   15.38
  -4   3  14  185.46   15.84
   1  -4  14  242.27   20.22
  -4   3  14  216.53   19.29
  -4   3  14  199.21   19.87
   1  -4  14  232.97   18.30
   1  -4  14  221.69   19.70
   1  -4  14  221.48   21.94
   3   1  14  153.03   16.45
   3   1  14  143.18   17.03
   1  -4  14  213.70   18.56
   3   1  14  162.43   17.60
   2   1 -14  435.09   33.69
   2   1 -14  468.35   37.10
   1  -3 -14  441.45   33.07
  -3   2 -14  412.31   33.92
  -3   2 -14  476.68   36.78
  -3   2 -14  515.55   35.82
   1  -3 -14  458.31   34.37
  -3   2 -14  457.87   34.79
   3  -2  14  467.60   34.01
  -1   3  14  441.85   34.94
   3  -2  14  465.21   35.28
  -2  -1  14  435.60   35.11
  -2  -1  14  494.07   35.52
   3  -2  14  483.34   35.76
  -2  -1  14  412.12   34.56
  -2  -1  14  396.30   36.21
   3  -2  14  421.28   36.02
  -2  -1  14  444.72   34.17
   3  -2  14  501.84   34.72
  -1   3  14  442.40   33.47
  -3   5 -14   90.57   12.37
  -3   5 -14   81.03   12.95
   5  -2 -14   72.16   13.61
  -2  -3 -14   64.98    9.38
  -3   5 -14   99.04   13.29
  -3   5 -14   78.33   12.19
  -2  -3 -14   76.62   10.49
   2   3  14   74.74    9.83
   3  -5  14   91.19   14.61
  -5   2  14   68.38   11.95
   2   3  14   75.21   15.97
   2   3  14   67.40   10.26
   3  -5  14   89.85   13.06
   2   3  14   66.38    8.32
  -5   2  14   70.50   12.60
   2   3  14   62.98   10.67
  -5   2  14   81.10   12.62
  -5   2  14   70.04   11.00
   3  -5  14  105.31   11.99
  -2   6 -14   20.53    7.87
   6  -4 -14   20.91    9.79
  -4  -2 -14   20.57    7.75
  -2   6 -14   24.84    7.80
  -2   6 -14   32.56    8.33
  -6   4  14   31.68    8.97
  -6   4  14   10.58    8.00
   2  -6  14   28.72    8.61
   4   2  14    5.38    5.39
   2  -6  14   30.16   10.28
   4   2  14   21.41    5.78
  -6   4  14   23.19    5.95
   4   2  14   17.66    7.50
   2  -6  14   42.03    7.97
  -6   4  14   16.84    6.18
   3  -4 -14  204.65   19.51
   1   3 -14  178.51   19.61
   1   3 -14  184.05   17.88
  -4   1 -14  241.50   19.81
  -4   1 -14  209.54   18.47
  -4   1 -14  204.55   20.37
   3  -4 -14  169.12   17.24
  -1  -3  14  165.90   17.59
   4  -1  14  186.44   18.79
  -1  -3  14  188.49   18.80
   4  -1  14  218.94   17.30
  -3   4  14  200.90   19.65
  -1  -3  14  163.68   17.51
  -1  -3  14  187.38   19.05
  -1  -3  14  161.70   20.25
   4  -1  14  209.27   18.35
  -3   4  14  222.78   18.99
   4  -1  14  207.51   17.78
  -4   4 -14 1379.01   91.17
   4   0 -14 1350.34   89.64
  -4   4 -14 1333.95   90.45
   0  -4 -14 1280.75   86.56
   0  -4 -14 1336.85   87.29
   4   0 -14 1368.95   93.52
  -4   4 -14 1441.42   92.77
  -4   4 -14 1393.04   91.19
  -4   0  14 1209.27   90.67
   4  -4  14 1547.44   92.73
   0   4  14 1250.68   88.00
   4  -4  14 1517.74   89.36
  -4   0  14 1364.21   90.34
  -4   0  14 1347.00   90.80
  -4   0  14 1230.21   92.48
   4  -4  14 1411.00   91.61
   0   4  14 1242.55   88.92
   4  -4  14 1271.64   92.65
   0   4  14 1108.17   89.16
   0   4  14 1370.82   88.65
  -3  -4 -14   75.77   10.23
   7  -3 -14   26.81   12.27
  -4   7 -14   60.04   11.26
  -4   7 -14   78.87   12.88
   7  -3 -14   44.95   12.05
  -7   3  14   42.63   11.28
   3   4  14   67.02   11.62
   3   4  14   50.27    8.48
   4  -7  14   42.53   12.27
   3   4  14   73.40    9.26
  -7   3  14   32.75   11.38
   3   4  14   58.31   13.11
   4  -7  14   77.26   13.28
  -3   8 -14  162.74   18.22
   8  -5 -14  145.37   18.42
  -3   8 -14  166.90   18.15
  -8   5  14  125.12   18.81
   3  -8  14  157.09   21.88
   5   3  14  100.22   15.40
  -8   5  14  165.77   20.01
   5   3  14  136.94   15.36
  -5   0 -14  216.47   22.55
   5  -5 -14  167.00   21.61
   0   5 -14  245.61   21.34
  -5   0 -14  234.00   21.82
   0   5 -14  244.47   22.91
  -5   5  14  225.90   22.53
   0  -5  14  246.45   22.05
   5   0  14  257.34   21.26
   0  -5  14  242.17   20.38
  -5   5  14  199.50   21.15
   0  -5  14  201.32   23.52
  -5   3 -14   92.93   12.99
   2  -5 -14   87.73    9.94
  -5   3 -14   70.28   12.63
   3   2 -14   68.98   12.70
  -5   3 -14   76.64   11.25
   3   2 -14   69.50   10.53
  -5   3 -14   69.12   13.94
   2  -5 -14   60.79    8.19
   5  -3  14   79.06   10.38
  -2   5  14   66.50   11.65
   5  -3  14   73.53   11.59
   5  -3  14   85.97   12.95
  -2   5  14   73.26   10.28
  -3  -2  14   60.41   10.97
  -3  -2  14   94.18   13.06
  -3  -2  14   68.70   11.34
  -3  -2  14   58.63   10.38
  -2   5  14   83.08   11.27
  -3  -2  14   74.05   13.87
   5  -3  14   89.37   13.93
  -5   6 -14   49.99   10.34
   6  -1 -14   54.87   11.38
  -5   6 -14   45.90   10.39
   6  -1 -14   53.49    9.90
  -5   6 -14   68.53   11.62
   6  -1 -14   42.48   12.07
   6  -1 -14   48.98    6.79
   1   5  14   52.14    7.58
   5  -6  14   42.49   10.61
   5  -6  14   54.40    8.07
   5  -6  14   51.05   12.54
   1   5  14   68.19   11.00
   1   5  14   64.18    8.92
  -6   1  14   41.60   10.41
   1   5  14   64.52    9.12
  -6   1  14   55.96   11.21
  -6   1  14   53.63   10.81
   1   5  14   58.96    8.31
  -5   9 -14   42.74   10.82
  -5   9 -14   30.45    9.46
  -9   4  14   45.24   11.53
   4   5  14   37.79    9.66
   5  -9  14   36.01   12.59
  -9   4  14   42.96   11.69
   4   5  14   48.00    8.62
  -4  10 -14   12.67    8.84
  -4  10 -14   16.01    8.88
   6   4  14    3.66    6.41
   6   4  14   -0.16    5.67
 -10   6  14   13.18    9.59
 -10   6  14    3.86    7.44
  -1   7 -14  157.61   18.37
  -7   6  14  146.44   20.02
   1  -7  14  177.50   22.49
   1  -7  14  174.04   17.23
   6   1  14  209.95   17.77
   6   1  14  189.73   18.41
  -7   6  14  190.34   22.39
   2   4 -14   12.08    5.65
  -6   2 -14   32.17    8.95
   4  -6 -14   28.66    8.12
  -6   2 -14   19.45    8.24
   2   4 -14   16.67    7.99
  -2  -4  14   22.76    7.98
  -4   6  14   23.80    7.74
   6  -2  14   35.82    7.42
  -4   6  14   19.06    6.93
   6  -2  14   27.10    8.11
  -2  -4  14   14.33    6.41
  -2  -4  14   17.55    9.50
   5   1 -14   67.50   10.53
  -6   5 -14   59.94   11.55
  -6   5 -14   47.67   10.15
   5   1 -14   69.36    8.07
  -6   5 -14   53.43   10.76
   5   1 -14   45.15   11.93
  -6   5 -14   58.05   10.88
  -5  -1  14   62.48   11.78
  -1   6  14   34.77    8.40
   6  -5  14   81.10   13.81
  -5  -1  14   62.17   10.76
   6  -5  14   48.94   11.10
  -5  -1  14   67.62   11.92
  -5  -1  14   71.94   14.20
   6  -5  14   52.96    8.25
  -1   6  14   49.73    8.38
  -1   6  14   42.85    8.22
  -6   8 -14   16.24    8.07
   8  -2 -14   28.69   11.99
  -6   8 -14   11.22    7.05
  -8   2  14   18.76    8.73
   2   6  14   11.35    4.67
   6  -8  14    7.20    8.05
  -8   2  14   22.59    9.07
   2   6  14   13.30    6.84
   2   6  14   15.11    5.56
  -6  11 -14   44.03   11.99
  -6  11 -14   58.56   14.04
   5   6  14   48.90   11.20
 -11   5  14   74.85   15.75
   5   6  14   39.26    9.27
 -11   5  14   42.75   12.44
  -5  12 -14    1.69    8.15
  -7  -5 -14    1.28    6.57
   7   5  14    9.18    7.57
 -12   7  14    3.45   10.03
 -12   7  14    6.34    8.61
   7   5  14    0.78    6.35
  -2   9 -14  103.95   16.08
  -2   9 -14   86.51   15.53
  -9   7  14   93.50   15.32
   7   2  14   84.60   13.01
   7   2  14   69.92   12.69
  -9   7  14   82.56   15.10
   1   6 -14  165.98   18.06
  -1  -6  14  176.79   29.52
  -1  -6  14  179.06   17.67
  -6   7  14  141.54   19.95
  -6   7  14  160.72   18.53
  -1  -6  14  197.72   23.34
   7  -1  14  184.24   17.32
   4   3 -14   58.35   10.29
  -7   4 -14   53.27   11.53
  -7   4 -14   55.06   11.96
   3  -7 -14   39.97    6.86
   4   3 -14   59.68    7.93
  -3   7  14   28.14    8.76
  -4  -3  14   72.12   12.85
  -3   7  14   42.93    9.12
  -4  -3  14   64.73   14.06
  -4  -3  14   57.71   11.48
   7  -4  14   57.41    8.62
  -7   7 -14   52.75   11.61
  -7   7 -14   48.65   11.01
   7   0 -14   51.13    7.91
   7   0 -14   61.27   11.17
  -7   0  14   58.27   12.05
   7  -7  14   47.68   12.24
   0   7  14   39.75    6.99
   0   7  14   42.29    7.81
   0   7  14   50.08   10.02
   0   7  14   54.08    7.69
  -7  10 -14   62.82   12.66
  -7  10 -14   65.68   13.93
   3   7  14   47.69   10.85
   3   7  14   34.58    8.07
 -10   3  14   28.59   10.85
  -7  13 -14    6.39   10.08
  -6  -7 -14    0.76    6.41
   6   7  14    7.37    7.44
 -13   6  14   15.01   10.77
   6   7  14    4.00    6.98
  -8  -6 -14   -4.86    7.41
  -6  14 -14    0.77   11.06
   8   6  14    0.63    7.99
 -14   8  14   -1.31    9.10
   8   6  14   -6.75    6.77
  -8  -3 -14    1.67    6.57
  -3  11 -14   -6.65    7.67
 -11   8  14    1.38    7.25
   8   3  14    5.73    7.41
   8   3  14    6.58    6.91
 -11   8  14   -1.08    8.70
   0   8 -14  574.82   46.11
  -8   8  14  571.12   46.84
   0  -8  14  597.09   45.37
   8   0  14  604.27   44.24
  -8   8  14  548.35   46.59
   8   0  14  622.06   45.40
   3   5 -14  105.76   15.61
  -8   3 -14  161.20   19.11
   8  -3  14  149.75   14.39
  -3  -5  14  141.01   16.99
  -5   8  14  140.14   17.57
  -5   8  14   98.67   14.62
  -3  -5  14  149.67   21.60
   6   2 -14   25.28    6.34
  -8   6 -14    6.78    7.90
   6   2 -14    8.17    6.72
  -2   8  14   15.50    5.71
  -2   8  14   23.40    6.90
   8  -6  14   10.68    5.88
  -6  -2  14   14.52    6.99
  -8   9 -14   56.96   13.16
   9  -1 -14   40.27    9.30
  -8   9 -14   68.44   13.65
   1   8  14   51.81    8.88
  -9   1  14   50.99   12.51
   1   8  14   59.24   11.49
  -8  12 -14   93.86   18.50
   4   8  14  105.04   14.69
   4   8  14  135.09   18.93
 -12   4  14  119.63   20.29
  -4  13 -14   38.42   13.24
  -9  -4 -14   41.21   12.14
 -13   9  14   29.30   11.47
   9   4  14   48.57   12.34
 -13   9  14   15.08   13.13
   9   4  14   61.91   13.83
  -1  10 -14   -1.62    7.02
  -9  -1 -14   12.45    7.86
 -10   9  14    4.60    9.16
   9   1  14    5.06    6.77
   9   1  14   10.06    6.75
 -10   9  14    3.80    7.72
   2   7 -14   55.77   11.52
   9  -2  14   96.13   12.88
  -7   9  14   91.40   15.07
  -7   9  14   75.51   12.75
  -2  -7  14   72.13   12.50
   5   4 -14   44.42    9.96
  -9   5 -14   47.09   12.23
   5   4 -14   51.51    8.28
  -5  -4  14   36.01    9.88
  -5  -4  14   47.18   13.89
  -4   9  14   43.46    8.47
   9  -5  14   27.14    6.85
  -4   9  14   37.20    9.23
   8   1 -14   60.71   11.98
   8   1 -14   66.84    9.98
  -8  -1  14   53.76   12.26
  -1   9  14   36.44    9.53
  -9  11 -14   23.82   11.49
   2   9  14   14.62    6.96
   2   9  14   27.06    9.40
 -11   2  14   26.85   11.38
  -5  -9 -14    5.05    7.18
  -9  14 -14   -8.03   10.50
   5   9  14    4.05    7.64
   5   9  14    8.47    6.89
 -14   5  14   -1.33    8.68
  -2  12 -14   16.44   10.77
 -10  -2 -14   10.23    8.91
 -12  10  14   16.23    9.19
  10   2  14   12.25    8.95
 -12  10  14   -4.40    8.91
  10   2  14    1.95    6.95
   1   9 -14   -4.34    6.30
 -10   1 -14    6.72    6.66
  -9  10  14    0.48    8.24
  -9  10  14   -1.35    7.35
  10  -1  14   11.87    6.38
   4   6 -14    4.50    6.34
 -10   4 -14   16.21    8.12
  -6  10  14    5.13    7.54
  10  -4  14    8.65    5.80
  -6  10  14   11.59    6.61
  -4  -6  14    6.35    6.93
   7   3 -14   44.39   10.65
   7   3 -14   51.35    9.26
  -3  10  14   36.10    9.20
  -7  -3  14   47.13   12.41
  -3  10  14   32.38    7.03
  10   0 -14    2.85    6.27
   0  10  14    5.48    6.56
 -10   0  14    0.34    7.72
 -10  13 -14    1.81   11.23
 -13   3  14    9.74   10.08
   3  10  14    5.50    6.54
   3  10  14   -1.15    7.59
   0  11 -14   14.48    9.78
 -11   0 -14    8.85    8.75
  11   0  14   -2.75    5.69
 -11  11  14   -2.03    9.05
  11   0  14    7.48    7.90
 -11   3 -14    5.22    7.45
   3   8 -14    0.82    6.51
  11  -3  14    2.74    6.10
  -8  11  14   -2.17    7.21
  -3  -8  14    4.80    7.48
  -8  11  14    6.62    9.06
   6   5 -14   61.13   12.49
   6   5 -14   30.04    8.32
  -6  -5  14   49.66   12.53
  -5  11  14   32.11    8.70
  -5  11  14   57.37   11.00
   9   2 -14   21.36    9.50
   9   2 -14   26.38    8.52
  -2  11  14   12.50    7.39
  -9  -2  14   36.06   11.63
  12  -1 -14    4.35    8.14
 -12   1  14    0.05    9.06
   1  11  14   -4.28    6.87
 -12  -1 -14   18.29   12.13
  -1  13 -14   29.06   12.81
  12   1  14    4.39    8.00
 -13  12  14   -2.02   10.88
  12   1  14    9.42    8.83
 -12   2 -14   17.17   10.37
   2  10 -14   11.84    9.33
  12  -2  14   17.52    8.15
 -10  12  14    1.00    7.76
 -12   5 -14    5.31    7.49
   5   7 -14   20.33    8.66
  -5  -7  14    4.57    8.67
  12  -5  14   16.09    6.89
  -7  12  14    1.69    7.14
   8   4 -14  105.37   14.27
   8   4 -14  123.15   17.53
  -8  -4  14  123.87   19.08
  -4  12  14   75.45   11.60
  -4  12  14  102.56   14.53
  11   1 -14    1.71    7.15
 -11  -1  14    2.09    8.91
  -1  12  14    2.87    7.20
   1  12 -14   14.86   11.14
 -13   1 -14   15.69   11.71
 -12  13  14   19.62   12.20
  13  -1  14   11.09    8.81
  13  -1  14    4.30    8.49
   4   9 -14   35.93   11.47
 -13   4 -14   46.36   12.32
  -9  13  14   21.40   10.80
  13  -4  14   46.90   11.06
  -4  -9  14   47.96   13.32
   7   6 -14   -5.57    5.93
   7   6 -14   -3.11    7.45
  -6  13  14    0.37    6.19
  -7  -6  14   13.55    9.42
  10   3 -14   -1.82    6.88
  10   3 -14    2.06   10.83
 -10  -3  14    4.75    9.02
   6   8 -14   12.43    8.94
  -8  14  14   -2.15    6.53
  -6  -8  14    1.21    8.71
   9   5 -14    1.98    6.37
   9   5 -14   -9.27    6.98
  -9  -5  14    5.39    9.64
  -5  14  14    7.84    5.75
   0   0 -15  352.38   31.21
   0   0 -15  365.80   30.74
   0   0 -15  382.19   29.26
   0   0  15  368.68   29.72
   0   0  15  335.37   28.46
   0   0  15  336.21   27.66
   0   0  15  355.36   27.61
   0   0  15  369.85   28.96
   2  -1 -15    6.93    6.22
  -1   2 -15   -0.76    5.42
  -1   2 -15    1.77    4.72
  -1  -1 -15    6.76    4.72
   2  -1 -15    9.72    5.48
   2  -1 -15    3.36    4.87
  -1   2 -15    0.73    3.82
  -1  -1 -15    6.65    5.68
  -2   1  15   -0.27    4.55
   1  -2  15    2.62    4.57
  -2   1  15    1.75    4.61
  -2   1  15    3.23    3.81
   1  -2  15   -2.25    4.63
   1   1  15    1.28    3.88
   1  -2  15   -0.80    3.73
   1  -2  15    7.06    4.50
   1   1  15   -4.63    3.37
   1   1  15    0.18    4.16
  -2   1  15   11.59    6.04
   1  -2  15    1.79    5.94
  -2   1 -15    2.69    4.25
  -2   1 -15    0.12    4.80
   1  -2 -15    2.98    5.28
   1   1 -15    2.79    5.17
  -2   1 -15    2.27    5.77
   1   1 -15    7.72    4.53
   1  -2 -15    1.05    3.68
   1   1 -15    3.58    5.82
  -1  -1  15   -2.42    4.63
  -1  -1  15    3.88    4.58
  -1  -1  15    8.84    5.32
  -1   2  15    3.01    4.96
   2  -1  15   -1.23    4.00
  -1  -1  15    4.37    6.58
  -1  -1  15   10.15    5.06
   2  -1  15   -1.67    3.90
   2  -1  15    1.55    4.30
   2  -1  15    0.01    4.48
   2  -1  15    4.70    5.76
  -1   2  15    1.98    3.99
  -1   2  15    2.17    4.51
  -2  -2 -15   12.22    6.48
  -2  -2 -15   23.79    6.55
   4  -2 -15   28.16    9.62
  -2   4 -15   37.26    8.47
  -2   4 -15   24.45    8.62
  -2   4 -15   22.62    7.71
  -2   4 -15   25.41    6.96
   2  -4  15   25.14    7.94
   2  -4  15   39.63    7.94
  -4   2  15   26.13    6.46
   2  -4  15   31.28    9.62
   2   2  15   13.09    5.33
   2  -4  15   15.18    6.17
  -4   2  15   29.50    7.96
  -4   2  15   44.82    9.58
  -4   2  15   19.49    6.85
   2   2  15   19.70    6.65
   2   2  15   19.26    6.76
   2  -4  15   34.04    7.98
   0   3 -15  116.65   13.31
  -3   0 -15  110.42   15.79
   0   3 -15  112.47   16.07
   3  -3 -15  111.93   13.54
  -3   0 -15  140.13   14.48
   3  -3 -15  110.57   15.69
   0  -3  15  123.03   14.67
  -3   3  15  128.53   14.15
   3   0  15  101.50   13.28
   0  -3  15  115.02   17.10
   3   0  15  117.11   14.11
   0  -3  15  119.40   14.16
   0  -3  15  108.04   13.47
  -3   3  15  120.44   16.11
   0  -3  15  108.94   14.73
   3   0  15  103.72   13.98
  -3   3 -15   36.12    8.23
  -3   3 -15   25.51    8.25
  -3   3 -15   26.08    7.40
   3   0 -15   14.33    7.86
   3   0 -15   32.72    7.46
   0  -3 -15   29.31    7.46
  -3   3 -15   21.83    8.17
   0  -3 -15   20.37    6.06
  -3   0  15   18.08    7.00
   3  -3  15   27.41    7.44
  -3   0  15   19.62    7.05
   0   3  15   26.85    6.71
  -3   0  15   16.29    7.20
   0   3  15   33.25    7.71
   3  -3  15   27.91    8.64
   0   3  15   24.56    7.68
  -3   0  15   24.30    9.01
   3  -3  15   37.53    8.76
   3  -3  15   25.87    9.25
  -3   6 -15   19.33    7.23
  -3   6 -15   13.84    6.60
  -3  -3 -15    4.77    6.63
  -3   6 -15   17.98    7.99
   6  -3 -15   10.06    9.12
   3   3  15    7.66    5.53
   3   3  15    7.57    5.11
  -6   3  15    8.06    7.16
  -6   3  15   13.46    7.99
   3  -6  15   12.66    6.29
   3  -6  15   16.93    9.24
   3   3  15   10.48    4.40
   3  -6  15   38.17   10.03
   5  -4 -15   31.57   11.23
  -1   5 -15   48.65   10.36
  -1   5 -15   43.35   10.89
  -4  -1 -15   82.67   13.43
  -4  -1 -15   66.53   12.50
  -5   4  15   51.29   10.69
   4   1  15   91.61   12.38
  -5   4  15   44.14   11.00
   1  -5  15   42.03    9.31
   1  -5  15   59.54   13.70
   1  -5  15   54.90   11.40
   4   1  15   84.26    9.45
   1  -5  15   74.05   10.55
   2   2 -15   26.39    6.63
   2  -4 -15   42.09    8.73
  -4   2 -15   21.98    6.55
  -4   2 -15   22.68    7.59
   2   2 -15   27.58    9.36
  -4   2 -15   26.96    8.35
   2  -4 -15   28.30    6.42
  -2  -2  15   14.08    6.55
  -2  -2  15   19.39    7.12
  -2   4  15   30.42    7.09
  -2  -2  15   24.68    7.62
  -2   4  15   35.02    8.71
   4  -2  15   14.66    7.18
   4  -2  15   34.02    7.73
  -2  -2  15   17.88    8.66
   4  -2  15   24.91    8.91
   4  -2  15   35.17    8.23
  -2  -2  15   14.50    6.10
  -1  -4 -15   36.16    6.73
  -4   5 -15   26.80    8.89
  -1  -4 -15   24.36    6.36
  -4   5 -15   42.29    9.11
  -4   5 -15   49.97    9.65
   5  -1 -15   39.08   11.18
  -4   5 -15   32.83    8.46
   4  -5  15   36.96   11.72
   1   4  15   36.10    8.51
  -5   1  15   38.67    8.86
   4  -5  15   34.39    9.62
   4  -5  15   40.40    8.41
   1   4  15   23.40    6.04
  -5   1  15   38.44    8.94
  -5   1  15   38.25    9.75
   1   4  15   29.77    7.27
   4  -5  15   30.00   10.14
   8  -4 -15   16.97    9.47
  -4   8 -15   27.28    9.64
  -4   8 -15   35.17   10.13
   4   4  15   41.98    7.56
   4  -8  15   38.36   12.23
  -8   4  15   20.05    8.92
  -8   4  15   28.92   10.82
   4   4  15   22.03    8.43
  -2   7 -15    7.14    6.49
  -2   7 -15   -6.30    5.14
   2  -7  15    3.60    5.74
   2  -7  15    1.00    8.69
   5   2  15   -5.81    4.36
  -7   5  15    2.69    6.85
   2  -7  15   -0.74    6.51
  -7   5  15   12.69    7.73
   5   2  15    5.95    5.90
  -5   1 -15   50.59   11.85
   1   4 -15   81.18   13.28
   4  -5 -15   62.43   12.29
   1   4 -15   78.34   11.32
  -5   1 -15   62.11   11.59
  -4   5  15   41.22    9.67
  -1  -4  15   90.14   12.18
  -1  -4  15   68.35   11.83
   5  -1  15   65.28   10.54
  -1  -4  15   75.26   14.53
  -1  -4  15   75.19   11.05
  -4   5  15   58.43   11.92
  -5   4 -15   34.81    9.97
   1  -5 -15   34.60    5.99
  -5   4 -15   33.44    8.48
   4   1 -15   36.61   10.68
  -5   4 -15   36.61    9.51
  -5   4 -15   39.76    9.97
   4   1 -15   25.60    7.13
   4   1 -15   29.63    4.82
   1  -5 -15   33.93    7.08
  -4  -1  15   28.15   10.56
  -1   5  15   34.05    8.56
  -4  -1  15   25.25    8.15
   5  -4  15   38.37   10.24
   5  -4  15   39.41    8.90
  -4  -1  15   27.21    8.43
  -1   5  15   39.09    7.24
   5  -4  15   37.27    7.64
  -4  -1  15   42.53    9.16
  -5   7 -15    7.58    6.78
  -5   7 -15    6.08    5.71
   7  -2 -15    6.16    7.47
   7  -2 -15    5.19    9.79
  -7   2  15    4.03    6.55
  -7   2  15    8.98    7.52
   5  -7  15   -5.92    6.35
   2   5  15   -4.15    3.74
   2   5  15    1.85    4.04
   2   5  15    6.53    6.00
  -5  10 -15   -2.35    6.52
  -5  10 -15   -2.91    7.04
 -10   5  15    2.39    7.13
   5   5  15    1.88    6.29
 -10   5  15   -2.26    7.83
   5   5  15    7.03    5.66
  -3   9 -15    8.01    7.13
  -3   9 -15    3.73    7.33
   6   3  15    4.97    6.42
  -9   6  15    4.51    7.19
   6   3  15    8.37    6.26
  -9   6  15    0.37    7.61
   0   6 -15   13.69    6.88
   0  -6  15   16.79   10.12
  -6   6  15   15.23    8.54
  -6   6  15   15.21    8.02
   0  -6  15   16.08    6.84
   6   0  15   12.98    6.22
   0  -6  15    5.08    6.74
  -6   3 -15   24.02    8.56
   3  -6 -15   13.50    6.04
   3   3 -15    7.23    5.54
  -6   3 -15   14.58    7.61
   3   3 -15    2.35    7.21
  -3  -3  15    8.41    5.75
  -3   6  15   11.25    6.89
  -3   6  15   17.08    6.69
  -3  -3  15    1.20    7.19
   6  -3  15   24.47    6.57
  -3  -3  15   13.99    7.10
   6   0 -15    1.01    7.32
   6   0 -15   13.10    5.61
  -6   6 -15    0.84    6.52
  -6   6 -15    6.76    6.63
  -6   6 -15    8.76    6.05
   6   0 -15    4.39    5.64
   6  -6  15    5.14    4.48
   6  -6  15    5.58    7.57
  -6   0  15    7.42    6.94
   0   6  15   10.12    5.06
   0   6  15    3.35    5.27
  -6   0  15    4.87    7.13
  -6   0  15    6.55    6.34
   0   6  15    3.92    4.83
   9  -3 -15   -4.44    9.28
  -6   9 -15   -1.50    6.19
  -6   9 -15    7.88    8.42
   3   6  15    1.71    4.50
  -9   3  15    3.05    7.59
  -9   3  15    3.88    8.26
   3   6  15    0.31    5.80
  -6  12 -15   -0.32    9.72
   6   6  15   -1.46    6.04
 -12   6  15    0.53    8.60
   6   6  15    4.25    6.51
  -4  11 -15    9.37    9.08
 -11   7  15    1.59    9.83
 -11   7  15   13.45    9.23
   7   4  15    7.13    7.26
   7   4  15    0.90    6.55
  -1   8 -15    8.99    7.34
  -8   7  15    5.88    7.66
  -8   7  15   -0.91    7.59
   7   1  15   10.41    6.11
   7   1  15    7.14    5.89
   2   5 -15    2.88    5.58
  -7   2 -15    0.38    7.24
  -2  -5  15    1.22    9.22
   7  -2  15    3.04    5.00
  -2  -5  15    2.72    6.51
  -5   7  15    4.15    6.97
  -2  -5  15   -3.16    5.38
  -5   7  15    3.10    6.32
   5   2 -15    1.44    3.47
   5   2 -15    2.01    5.23
  -7   5 -15    6.95    7.93
  -2   7  15   -3.41    4.60
   7  -5  15    2.98    4.27
  -5  -2  15    3.49    6.60
  -5  -2  15    0.09    6.15
  -2   7  15   -1.73    4.74
  -7   8 -15    7.63    7.99
  -7   8 -15   18.77    8.36
  -8   1  15    8.80    8.08
   1   7  15   11.81    4.91
   7  -8  15   16.79    9.70
   1   7  15   11.00    6.63
  -7  11 -15    9.72    8.36
  -7  11 -15   -3.23    8.04
   4   7  15    4.28    7.11
   4   7  15    2.35    5.75
 -11   4  15    2.74    8.50
  -7  14 -15   -7.72    9.68
  -7  -7 -15   -5.25    6.81
 -14   7  15   -4.58    9.23
   7   7  15   -3.88    7.21
   7   7  15  -11.92    6.40
  -5  13 -15    5.42    9.96
  -8  -5 -15   -1.57    6.88
   8   5  15   12.94    8.99
 -13   8  15    7.38   10.07
 -13   8  15    7.32   11.89
   8   5  15    8.77    8.46
  -2  10 -15   14.54    8.53
 -10   8  15   16.00    9.81
   8   2  15   -3.84    5.75
   8   2  15    3.00    6.65
 -10   8  15   14.09    9.20
   1   7 -15    2.21    6.48
  -1  -7  15    3.48    5.98
  -7   8  15    5.37    7.94
  -7   8  15    2.10    7.34
   8  -1  15    8.00    5.80
  -8   4 -15   44.70   11.26
   4   4 -15   34.63    9.04
   8  -4  15   43.15    8.09
  -4  -4  15   54.40   14.78
  -4  -4  15   40.72   10.48
  -4   8  15   19.60    7.68
  -4   8  15   30.00    9.54
  -4  -4  15   47.38   13.79
   7   1 -15   12.11    7.48
   7   1 -15   21.70    6.16
  -1   8  15    5.80    6.27
  -1   8  15   13.96    5.54
  -7  -1  15   17.09    8.19
  -8  10 -15    9.48   12.71
  -8  10 -15    0.87    7.50
 -10   2  15    0.40    7.54
   2   8  15    9.74    6.71
   2   8  15    4.22    4.23
  -8  13 -15   -4.65   10.46
 -13   5  15    4.16    9.81
   5   8  15   -2.13    7.00
   5   8  15   -7.95    6.02
  -3  12 -15    2.42   10.14
  -9  -3 -15    0.00    7.60
 -12   9  15   -7.31    9.34
   9   3  15   -3.57    7.10
   9   3  15   16.94    8.52
 -12   9  15    6.03    8.19
   0   9 -15   17.09    8.45
   9   0  15   20.08    8.41
  -9   9  15    9.24    8.80
  -9   9  15   23.73    9.98
   9   0  15   24.41    8.56
   3   6 -15    5.20    5.66
  -6   9  15    9.84    8.46
  -3  -6  15   -2.40    6.03
   9  -3  15    8.61    5.93
  -6   9  15    9.92    6.77
   6   3 -15    0.66    4.39
   6   3 -15   -3.16    5.53
  -9   6 -15    4.90    9.84
  -6  -3  15    3.96    6.92
  -3   9  15    1.38    4.91
  -3   9  15   -0.62    4.96
   9   0 -15   35.78    8.67
   0   9  15   33.82    9.52
  -9   0  15   51.63   13.18
  -9  12 -15    3.66    9.85
 -12   3  15    1.56    8.74
   3   9  15   -2.28    6.41
 -10  -1 -15   -5.08    7.21
  -1  11 -15   -2.65    7.63
 -11  10  15    5.65    8.98
  10   1  15    5.92    8.36
  10   1  15    0.56    6.23
 -11  10  15   -0.38    9.26
   2   8 -15    4.18    6.27
 -10   2 -15   18.57    8.58
  -2  -8  15   -0.24    7.16
  10  -2  15   11.18    6.29
  -8  10  15    3.78    6.89
  -8  10  15   16.77   10.45
 -10   5 -15   11.71    7.49
   5   5 -15    3.09    4.29
   5   5 -15   -2.17    5.57
  -5  10  15    2.37    5.52
  10  -5  15    3.50    4.58
  -5  -5  15    6.96    7.43
  -5  10  15   -2.26    6.49
   8   2 -15   -4.71    4.87
   8   2 -15   -1.16    6.94
  -8  -2  15   -2.11    6.27
  -2  10  15   -1.59    4.33
  -2  10  15    3.03    6.04
   1  10  15    5.64    7.45
 -11   1  15    5.27    8.12
  -2  13 -15   10.74   11.45
 -11  -2 -15    0.84    8.73
 -13  11  15   -1.60   10.16
  11   2  15   -4.49    7.93
  11   2  15    1.60    7.12
 -11   1 -15   -7.49    6.85
   1  10 -15    0.77    7.15
 -10  11  15    8.61    8.95
 -10  11  15    2.78    9.15
  11  -1  15   -3.84    6.00
  11  -1  15    1.04    7.09
 -11   4 -15   -3.02    6.63
   4   7 -15    4.06    7.17
  -7  11  15   -2.03    6.60
  -4  -7  15    1.81    7.74
  -7  11  15   -3.75    7.53
  11  -4  15    8.41    6.32
   7   4 -15    1.10    7.11
   7   4 -15    6.48    5.73
  -4  11  15    3.14    5.39
  -7  -4  15    9.11    8.66
  -4  11  15    4.15    6.26
  10   1 -15    8.64    6.80
 -10  -1  15   -1.16    7.53
  -1  11  15   -1.73    6.36
   2  11  15    2.99    8.12
 -13   2  15    3.67    8.99
 -12   0 -15   -5.96    8.89
   0  12 -15    3.54   10.32
 -12  12  15    1.55   10.85
  12   0  15    8.55    8.96
  12   0  15    2.61    7.85
 -12   3 -15    6.99    8.84
   3   9 -15   -0.52    7.58
  -9  12  15   -2.84    7.02
  12  -3  15   11.14    7.38
  -3  -9  15    6.25   11.18
   6   6 -15    3.71    5.71
   6   6 -15    0.13    7.28
  -6  -6  15    0.73    7.70
  -6  12  15    0.81    5.98
  -6  12  15   -1.39    6.73
   9   3 -15   12.22    9.69
   9   3 -15   -3.28    6.48
  -9  -3  15   -0.48    8.30
  -3  12  15   -4.91    4.10
  -3  12  15    3.91    6.93
 -12   0  15    0.88   10.05
   0  12  15    1.02    7.01
   2  11 -15  -11.90    7.65
 -13   2 -15    8.37   10.89
 -11  13  15  -14.67    7.50
  13  -2  15   -2.40    7.79
  13  -2  15    5.29    7.98
 -13   5 -15   -0.44    8.54
   5   8 -15    3.62    8.75
  13  -5  15    0.42    6.75
  -5  -8  15    3.61    8.92
  -8  13  15   10.61    8.17
   8   5 -15    5.98    6.94
   8   5 -15   -1.50    8.60
  -8  -5  15    1.72    9.68
  -5  13  15   -3.22    5.60
  11   2 -15    0.94    7.53
 -11  -2  15    0.89    9.75
  -2  13  15    1.39    7.71
   7   7 -15    2.30    8.90
   7   7 -15    5.02    6.03
  -7  14  15    3.44    6.59
  -7  -7  15    0.53    9.54
   1  -1 -16  431.70   38.63
   1  -1 -16  482.96   37.86
   0   1 -16  502.76   37.35
  -1   0 -16  590.21   39.13
   0   1 -16  561.04   39.29
   0   1 -16  556.49   41.18
  -1   0 -16  514.46   40.18
   1   0  16  506.40   38.87
   0  -1  16  509.07   37.68
   0  -1  16  490.55   37.20
   1   0  16  520.12   38.26
  -1   1  16  481.44   38.74
   0  -1  16  503.24   38.09
  -1   1  16  403.87   37.37
   1   0  16  515.40   35.77
   1   0  16  494.60   37.11
  -1   1  16  465.67   35.50
  -1   1  16  445.81   36.84
   1   0  16  546.78   36.72
   0  -1  16  432.97   38.71
  -1   1  16  439.58   34.79
   0  -1  16  538.84   39.44
  -1   3 -16  198.52   18.98
  -2  -1 -16  177.35   19.06
   3  -2 -16  147.87   18.67
  -2  -1 -16  195.81   17.84
  -1   3 -16  172.69   19.37
  -1   3 -16  165.16   17.01
   1  -3  16  221.42   19.56
   1  -3  16  168.26   18.19
  -3   2  16  140.74   14.28
   2   1  16  169.56   17.16
   2   1  16  165.22   16.07
  -3   2  16  174.51   17.27
   1  -3  16  149.87   19.60
   2   1  16  154.87   17.32
   1  -3  16  187.92   17.46
  -3   2  16  160.04   15.67
   1  -3  16  178.43   17.06
  -3   2  16  131.40   18.09
   2   0 -16  272.16   25.81
  -2   2 -16  272.79   23.46
  -2   2 -16  301.96   26.42
   0  -2 -16  241.97   23.74
  -2   2 -16  331.69   25.30
   0  -2 -16  250.37   22.66
   2   0 -16  290.37   25.91
   0   2  16  215.52   22.96
  -2   0  16  268.83   23.15
  -2   0  16  284.57   24.97
  -2   0  16  233.97   23.44
   0   2  16  237.82   23.31
   2  -2  16  280.12   24.75
   2  -2  16  226.96   24.62
  -2   0  16  259.42   23.10
   0   2  16  233.52   21.96
   2  -2  16  321.36   24.10
   2  -2  16  283.42   23.95
  -2   0  16  227.04   24.08
   2  -2  16  281.02   23.18
  -2   5 -16  189.44   19.48
  -2   5 -16  164.51   18.22
  -2   5 -16  164.04   19.97
   5  -3 -16  206.98   21.95
   2  -5  16  175.63   21.81
   2  -5  16  197.69   18.28
  -5   3  16  179.45   21.68
   3   2  16  165.81   17.92
  -5   3  16  188.38   18.06
   2  -5  16  199.50   20.35
   3   2  16  148.95   16.59
   3   2  16  176.41   15.33
  -5   3  16  245.37   21.32
  -3   1 -16  167.27   16.90
  -3   1 -16  213.15   19.14
   2  -3 -16  149.60   17.59
   1   2 -16  165.21   19.20
   1   2 -16  164.41   16.68
  -3   1 -16  184.27   19.70
   2  -3 -16  131.75   15.75
  -1  -2  16  182.44   17.51
  -1  -2  16  186.06   18.77
  -1  -2  16  165.22   16.78
  -2   3  16  147.66   18.68
   3  -1  16  180.35   18.51
  -1  -2  16  166.62   19.78
   3  -1  16  172.43   16.09
   3  -1  16  170.19   16.94
  -2   3  16  169.83   17.02
   3  -1  16  169.22   16.78
  -1  -2  16  174.83   17.78
   3  -1  16  170.67   16.99
  -3   4 -16   84.77   12.25
  -1  -3 -16   64.89   14.83
  -1  -3 -16   55.24   10.95
  -3   4 -16   93.04   14.69
  -3   4 -16   90.80   13.20
   4  -1 -16   74.85   14.18
  -3   4 -16   89.86   13.07
   1   3  16   76.96   11.81
   3  -4  16   77.14   17.93
   1   3  16   74.28   10.48
  -4   1  16   79.76   11.96
   3  -4  16   77.01   13.02
  -4   1  16   66.86   13.02
   3  -4  16   85.88   12.78
  -4   1  16   84.63   12.60
   1   3  16   65.53   11.01
   3  -4  16   91.29   12.30
   7  -4 -16  118.56   18.32
  -3   7 -16  127.40   17.33
  -3   7 -16  113.02   16.17
  -7   4  16  115.86   18.17
  -7   4  16  111.83   17.72
   3  -7  16  117.87   17.32
   4   3  16  128.63   16.66
   4   3  16  147.91   13.59
  -4   0 -16 2081.39  153.18
   0   4 -16 2345.37  148.20
  -4   0 -16 2566.54  149.28
   4  -4 -16 2134.21  157.76
   0   4 -16 2216.01  150.41
  -4   4  16 2285.69  148.99
   0  -4  16 2059.04  147.07
   0  -4  16 2475.02  150.02
   4   0  16 2185.10  148.00
   0  -4  16 2344.31  147.66
  -4   4  16 2146.34  150.19
   0  -4  16 2137.07  151.95
   3   1 -16   67.70   10.67
   3   1 -16   78.78   14.17
   1  -4 -16   62.86   14.67
  -4   3 -16   97.20   13.64
   1  -4 -16   75.43   11.29
  -4   3 -16   84.36   14.44
  -4   3 -16   89.67   12.67
  -3  -1  16   53.13   11.10
   4  -3  16   99.58   14.36
  -1   4  16   66.32   11.53
  -1   4  16   78.79   11.91
  -1   4  16   65.50   10.36
  -3  -1  16   80.03   12.58
  -3  -1  16   65.26   11.11
   4  -3  16  110.58   12.85
  -3  -1  16   64.41   11.64
   4  -3  16   75.52   12.34
  -4   6 -16    4.75    6.10
   6  -2 -16   -3.71    6.09
  -4   6 -16    2.23    6.78
  -2  -4 -16    2.87    6.16
   6  -2 -16   -0.86    7.95
  -4   6 -16    3.99    5.91
   2   4  16    6.21    4.96
   2   4  16    1.59    5.30
   4  -6  16    2.37    5.65
  -6   2  16    5.54    6.76
  -6   2  16    3.77    6.47
   4  -6  16    0.95    6.12
  -4   9 -16  232.57   23.80
  -4   9 -16  209.43   22.46
  -9   5  16  145.54   22.75
  -9   5  16  170.37   23.44
   5   4  16  187.81   20.77
   5   4  16  196.71   18.81
  -1   6 -16  141.76   17.95
  -6   5  16  147.02   20.23
   5   1  16  154.51   17.02
  -6   5  16  147.93   19.58
   1  -6  16  156.90   18.16
   1  -6  16  156.21   16.26
   1  -6  16  128.60   20.49
   5   1  16  156.63   15.02
   3  -5 -16  182.71   28.37
   2   3 -16  170.74   17.72
   2   3 -16  174.33   20.70
  -5   2 -16  198.49   20.11
  -5   2 -16  185.00   21.12
  -3   5  16  212.01   19.09
  -2  -3  16  142.43   21.33
  -2  -3  16  192.38   19.63
  -3   5  16  176.84   19.30
  -2  -3  16  151.62   17.25
   5  -2  16  205.73   18.30
  -2  -3  16  181.03   18.66
   0  -5 -16   59.97    9.09
   5   0 -16   55.63   13.22
  -5   5 -16   52.52   12.23
   5   0 -16   45.56   12.77
  -5   5 -16   68.45   16.56
  -5   5 -16   80.53   12.69
  -5   0  16   72.44   12.20
  -5   0  16   57.24   11.69
   5  -5  16   60.21    9.57
   0   5  16   76.40   10.60
   5  -5  16   69.34   13.58
   0   5  16   55.41   10.88
  -5   0  16   50.89   11.39
  -5   8 -16   13.37    8.14
  -5   8 -16   11.79    7.35
  -8   3  16   11.90    9.50
  -8   3  16    6.55    7.61
   3   5  16   10.30    6.96
   3   5  16    8.89    5.33
   5  -8  16   13.09    8.54
  -5  11 -16   76.82   15.86
  -5  11 -16   67.62   15.69
 -11   6  16   37.71   13.51
   6   5  16   55.70   12.63
   6   5  16   61.04   11.54
 -11   6  16   33.61   13.73
  -2   8 -16   33.09    9.93
   2  -8  16   20.92   12.65
  -8   6  16   31.90   10.41
   6   2  16   50.27   10.71
  -8   6  16   42.61   12.19
   6   2  16   62.02   10.45
   1   5 -16  163.73   17.54
  -1  -5  16  147.66   22.07
  -5   6  16  176.05   20.91
  -1  -5  16  186.37   19.25
  -1  -5  16  170.11   17.29
  -5   6  16  109.41   17.25
   6  -1  16  138.03   16.18
  -6   4 -16    5.03    6.72
  -6   4 -16    4.14    6.55
   4   2 -16    4.30    5.16
   4   2 -16   11.71    8.59
   2  -6 -16    3.66    5.52
  -2   6  16    1.88    5.55
  -4  -2  16    1.88    5.71
   6  -4  16   -0.38    4.41
  -4  -2  16    8.50    6.55
  -2   6  16    1.82    5.43
  -4  -2  16    5.69    6.49
  -6   7 -16   39.16   10.41
   7  -1 -16   54.10   14.11
  -6   7 -16   47.13   10.86
   1   6  16   31.89    7.11
   1   6  16   33.11    8.99
  -7   1  16   39.27   10.51
   6  -7  16   28.90   10.63
  -7   1  16   58.99   11.85
  -6  10 -16    7.88    8.03
  -6  10 -16    3.24    8.12
 -10   4  16    2.24    8.70
 -10   4  16    0.31    8.57
   4   6  16    5.37    5.95
   4   6  16    0.52    6.19
  -6  13 -16   -5.30   10.23
  -7  -6 -16    3.97    6.79
 -13   7  16    9.94   10.77
   7   6  16    0.92    7.45
   7   6  16   -2.29    7.16
  -3  10 -16   46.89   12.68
  -3  10 -16   39.90   12.35
 -10   7  16   21.86    9.47
   7   3  16   33.83    9.89
 -10   7  16   16.84   11.10
   7   3  16   22.12    8.30
   0   7 -16   38.14    9.83
   0  -7  16   24.31   13.01
  -7   7  16    9.60   10.64
   7   0  16   40.43    9.97
  -7   7  16   41.39   11.31
   0  -7  16   29.11    8.44
  -7   3 -16  110.59   16.93
   3   4 -16  143.06   15.54
  -4   7  16  108.45   16.23
   7  -3  16  104.42   13.60
  -3  -4  16  147.71   17.19
  -3  -4  16  133.33   16.44
  -4   7  16   80.63   13.85
  -7   6 -16   38.96   10.87
   6   1 -16   39.14   11.80
  -6  -1  16   50.47   11.75
  -1   7  16   45.15    9.51
  -6  -1  16   40.21   13.92
  -1   7  16   47.10    8.62
  -7   9 -16   60.03   12.86
   2   7  16   44.64   10.53
  -9   2  16   45.57   12.55
   2   7  16   36.73    7.83
  -7  12 -16    0.33    9.28
   5   7  16    9.11    6.94
 -12   5  16    5.48    8.82
   5   7  16    7.00    7.55
  -4  12 -16  210.17   26.84
  -8  -4 -16  172.47   23.22
 -12   8  16  116.31   20.82
 -12   8  16  151.47   24.54
   8   4  16  193.54   22.76
   8   4  16  190.16   23.64
  -1   9 -16   34.05   10.76
   8   1  16   39.49    9.58
   8   1  16   42.57   10.68
  -9   8  16   39.24   11.88
  -9   8  16   18.37   10.37
   2   6 -16   42.67    9.91
  -6   8  16   30.57   10.85
  -6   8  16   59.28   12.12
  -2  -6  16   40.06   18.04
   8  -2  16   33.02    8.43
  -2  -6  16   41.08    9.16
   5   3 -16    6.06    4.45
  -8   5 -16    3.43    7.82
   5   3 -16    7.31    6.61
  -3   8  16   22.29    8.10
   8  -5  16   18.05    5.73
  -5  -3  16   12.89    8.33
  -5  -3  16   11.42    7.45
  -3   8  16    8.16    5.71
   0   8  16  386.45   28.89
  -8   0  16  359.81   34.85
   0   8  16  390.47   32.85
  -8  11 -16    1.93    8.64
   3   8  16   -6.51    6.39
 -11   3  16    4.47    7.58
  -9  -2 -16   41.83   12.34
  -2  11 -16   65.59   14.97
   9   2  16   46.55   11.98
   9   2  16   66.37   13.43
 -11   9  16   66.02   15.95
 -11   9  16   42.30   13.15
   1   8 -16   21.39    9.06
  -1  -8  16   44.53   10.76
   9  -1  16   39.51    9.49
  -8   9  16   40.55   12.38
  -8   9  16   18.95    9.77
   4   5 -16  201.72   20.49
   9  -4  16  202.11   18.26
  -5   9  16  153.27   21.17
  -5   9  16  126.01   17.99
  -4  -5  16  215.39   21.24
   7   2 -16   46.55   12.39
   7   2 -16   64.73    9.69
  -2   9  16   70.01   12.29
  -2   9  16   59.38    9.45
  -7  -2  16   56.43   12.69
   1   9  16    0.71    6.66
   1   9  16   -1.86    3.93
 -10   1  16    2.38    8.43
  -9  13 -16   40.34   15.91
   4   9  16   67.05   14.46
 -13   4  16   71.61   18.01
 -10  -3 -16   -5.64    7.72
  -3  13 -16   -0.33   10.44
  10   3  16    5.38    7.58
 -13  10  16    9.80    9.60
  10   3  16    4.56    8.40
 -13  10  16    1.96   10.94
 -10   0 -16    0.66    7.52
   0  10 -16    3.23    8.52
 -10  10  16   -1.29    8.27
  10   0  16    1.84    6.28
  10   0  16   17.13    7.83
 -10  10  16   14.38   10.01
   3   7 -16   18.46    8.28
  -3  -7  16   28.46    9.90
  -7  10  16   22.76   11.13
  10  -3  16   35.43    8.99
  -7  10  16   19.18    8.58
   6   4 -16   -1.95    4.65
   6   4 -16   16.89    8.34
  -6  -4  16   10.01    7.99
  -4  10  16    9.74    6.84
  -4  10  16   -3.21    5.81
  -9  -1  16    5.44    8.20
  -1  10  16   -0.36    4.10
  -1  10  16    1.13    6.39
   2  10  16   -5.24    6.38
 -12   2  16   -1.22    8.78
  -1  12 -16   -5.77    8.94
 -11  -1 -16    3.89    8.98
  11   1  16    0.84    7.46
  11   1  16    6.09    8.57
 -12  11  16   -1.80   12.31
 -12  11  16    3.33   10.58
 -11   2 -16   59.03   13.91
   2   9 -16   54.26   12.90
  -9  11  16   41.23   12.46
  -9  11  16   37.69   13.08
  11  -2  16   44.13   10.53
 -11   5 -16   66.14   12.73
   5   6 -16   59.43   12.74
  -6  11  16   24.82    9.55
  -5  -6  16   63.36   13.56
  -6  11  16   55.80   12.91
  11  -5  16   73.61   11.59
   8   3 -16   -7.45    8.60
   8   3 -16   -2.29    5.35
  -8  -3  16    0.36    7.28
  -3  11  16   -5.46    4.58
  -3  11  16   -0.57    6.24
   0  11  16    6.65    7.61
 -11   0  16   12.41   10.52
   1  11 -16    3.34    9.04
 -12   1 -16    3.47    9.31
  12  -1  16    3.64    7.87
 -11  12  16    3.95    9.44
  12  -1  16   -1.78    7.42
   4   8 -16  164.07   21.57
 -12   4 -16  231.23   23.03
  -8  12  16   93.51   17.54
  12  -4  16  161.68   19.38
  -4  -8  16  186.79   23.11
   7   5 -16   -2.66    5.68
   7   5 -16    4.12    7.83
  -5  12  16    8.27    7.50
  -5  12  16   -2.00    5.46
  -7  -5  16    4.35    8.56
  10   2 -16   -4.13    6.90
 -10  -2  16   -5.50    7.30
  -2  12  16    4.74    7.21
 -13   3 -16    8.47    9.90
   3  10 -16   13.34    9.35
 -10  13  16    7.42    9.07
  13  -3  16    7.34    8.03
   6   7 -16    1.67    8.70
  -6  -7  16   10.22    9.62
  -7  13  16    4.11    6.94
   9   4 -16   30.85    9.30
  -4  13  16   20.15    7.10
  -9  -4  16   66.99   15.75
   1   0 -17  135.59   15.18
  -1   1 -17  113.07   14.00
  -1   1 -17   96.89   15.74
   0  -1 -17  115.98   13.70
   1   0 -17   95.15   15.41
   0  -1 -17   92.15   14.56
   0   1  17  106.79   13.16
  -1   0  17  100.87   14.70
  -1   0  17  106.51   13.38
   1  -1  17   99.97   15.00
   1  -1  17  105.76   13.15
   1  -1  17   90.86   12.61
  -1   0  17  106.49   14.98
   0   1  17   99.67   14.09
  -1   0  17  103.19   14.43
   1  -1  17   85.02   13.91
   1  -1  17  110.63   14.42
  -1   0  17  104.59   12.39
   0   2 -17   14.21    8.20
   2  -2 -17   10.47    6.41
   0   2 -17   25.56    7.17
   2  -2 -17    8.40    6.95
   0   2 -17   20.06    7.62
  -2   0 -17   18.00    7.40
  -2   0 -17   15.32    8.20
   0  -2  17   22.68    7.20
   0  -2  17    7.53    6.60
  -2   2  17   11.99    6.23
   0  -2  17   17.60    6.57
   2   0  17   13.68    6.33
   2   0  17   19.35    7.13
  -2   2  17   18.03    6.99
   0  -2  17   19.38    6.98
  -1  -2 -17    8.70    7.64
   3  -1 -17   15.22    8.17
  -2   3 -17    9.16    7.31
  -2   3 -17    7.09    7.42
  -1  -2 -17    6.53    6.65
  -2   3 -17    9.43    6.70
   1   2  17    3.59    5.02
  -3   1  17   20.32    8.38
   1   2  17   11.73    6.50
   2  -3  17    1.58    5.30
  -3   1  17   21.56    7.24
   2  -3  17    9.12    6.79
   2  -3  17    0.30    5.48
   2  -3  17    3.01    5.53
  -1   4 -17   47.34   11.63
  -1   4 -17   32.10    8.75
   1  -4  17   51.30    9.47
   1  -4  17   53.09   11.36
   3   1  17   61.52   10.23
  -4   3  17   32.70   10.22
  -4   3  17   44.59   10.35
   3   1  17   52.79   10.16
   1  -4  17   50.99   10.27
   1  -3 -17   15.48    9.46
  -3   2 -17   -6.38    5.89
   2   1 -17   11.07    7.94
  -3   2 -17    8.19    6.26
   1  -3 -17    9.74    7.10
  -3   2 -17    5.77    5.53
  -2  -1  17   -1.26    5.16
  -2  -1  17    6.01    6.08
  -2  -1  17    7.53    5.50
  -1   3  17   12.83    6.41
  -1   3  17    8.60    5.83
  -2  -1  17    6.52    5.87
   3  -2  17    3.04    5.03
   3  -2  17    5.35    5.88
   3  -2  17    3.52    7.08
  -3   5 -17    4.93    6.90
  -3   5 -17    8.09    5.90
   5  -2 -17    5.04    8.41
  -3   5 -17   -1.77    4.83
   2   3  17   -2.01    4.53
  -5   2  17   15.73    7.97
   3  -5  17    4.36    6.62
   3  -5  17   -1.01    5.47
   2   3  17    2.44    4.71
  -5   2  17   -1.33    6.55
  -2   6 -17    5.88    6.79
   4   2  17    3.59    4.86
   2  -6  17   -1.37    6.30
   4   2  17    0.83    5.38
  -6   4  17    2.17    6.24
  -6   4  17   11.83    7.99
   2  -6  17   -4.91    5.40
  -6   4  17    7.83    6.68
   1   3 -17   56.27   10.35
   1   3 -17   61.04   12.81
  -4   1 -17   63.50   11.97
   4  -1  17   40.61    7.94
   4  -1  17   57.86   10.35
  -3   4  17   39.33   10.20
  -3   4  17   38.33    9.13
  -1  -3  17   54.39   10.94
  -1  -3  17   57.92   10.33
  -1  -3  17   53.83   10.16
  -4   4 -17   54.46   10.78
  -4   4 -17   40.05   11.27
  -4   4 -17   58.26   11.73
   4   0 -17   54.26   13.25
   0   4  17   45.76   10.20
   4  -4  17   60.30   15.33
  -4   0  17   50.52   10.47
   0   4  17   53.68    9.70
   4  -4  17   62.75   10.60
  -4   0  17   47.67   11.24
   7  -3 -17   32.74   10.52
  -4   7 -17   39.90   10.22
  -4   7 -17   34.29    9.54
   3   4  17   24.93    8.13
   4  -7  17   10.90    8.84
  -7   3  17   27.54   10.03
   3   4  17   17.22    6.62
  -7   3  17   32.79   10.39
  -3   8 -17   17.35    8.40
  -3   8 -17   24.42    9.06
  -8   5  17    8.12    8.09
  -8   5  17   24.80   10.54
   5   3  17   22.27    8.17
   5   3  17   20.12    7.12
   0   5 -17    0.66    5.53
   0  -5  17    5.47    5.48
   0  -5  17    1.48    6.30
  -5   5  17    3.01    7.14
  -5   5  17    3.32    7.37
   5   0  17    7.86    6.55
   3   2 -17    9.08    8.24
  -5   3 -17    2.03    6.50
   3   2 -17    5.51    5.63
  -5   3 -17   -1.92    5.91
  -2   5  17    8.92    6.67
   5  -3  17   -0.61    4.52
  -3  -2  17   -1.60    5.64
  -3  -2  17   13.45    7.15
  -2   5  17    2.22    5.28
  -3  -2  17   -0.76    4.83
   6  -1 -17    2.32    8.30
  -5   6 -17   -3.14    5.88
  -6   1  17   11.44    7.21
   1   5  17    1.85    4.97
  -6   1  17    0.77    6.28
   1   5  17   -3.04    3.92
   5  -6  17    5.81    5.37
  -5   9 -17   19.11    9.37
  -5   9 -17   54.45   13.19
  -9   4  17   25.50   11.80
  -9   4  17   11.77    9.36
   4   5  17   29.51    9.21
  -4  10 -17   -0.96    8.34
  -4  10 -17    8.07    8.36
 -10   6  17    9.21    9.60
   6   4  17   -8.07    5.61
   6   4  17   -2.67    6.11
 -10   6  17    2.05    9.54
  -1   7 -17    1.33    6.39
   6   1  17   -1.35    5.26
   1  -7  17    0.24    6.24
   6   1  17   -2.35    4.87
  -7   6  17    8.86    7.74
  -7   6  17    2.30    7.84
   2   4 -17    3.34    5.54
  -6   2 -17    3.59    7.13
   6  -2  17   -3.55    4.94
  -4   6  17    2.55    6.56
  -2  -4  17    7.80    7.39
  -2  -4  17    3.91    5.83
  -4   6  17   13.74    7.92
  -6   5 -17    2.86    7.44
   5   1 -17   -4.44    7.74
  -1   6  17    3.43    5.68
  -5  -1  17    2.96    6.33
   6  -5  17    8.65    5.39
  -5  -1  17    0.70    6.07
  -1   6  17    2.95    5.27
   8  -2 -17    9.61   11.02
  -6   8 -17    9.39    8.25
   2   6  17   -1.91    4.69
  -8   2  17    5.29    8.22
  -8   2  17   11.07    8.74
   2   6  17   13.10    6.66
  -6  11 -17    9.34   10.08
  -6  11 -17    4.20    8.55
 -11   5  17   -2.79   14.38
 -11   5  17    6.47    8.77
   5   6  17   -3.96    5.53
  -5  12 -17   13.09   10.35
   7   5  17   -2.29    6.36
 -12   7  17   13.64    9.86
   7   5  17    1.17    7.50
 -12   7  17   -2.72   10.00
  -2   9 -17    3.93    7.17
  -9   7  17   22.46   10.66
   7   2  17    7.06    6.38
  -9   7  17    6.56    8.62
   7   2  17    5.18    6.59
   1   6 -17    3.23    6.47
  -6   7  17    2.09    7.54
  -1  -6  17    1.20    6.03
   7  -1  17   -0.24    5.15
  -6   7  17    2.36    6.54
   4   3 -17   22.50    7.53
  -7   4 -17   28.94   10.30
   7  -4  17   25.62    7.15
  -3   7  17   28.21    9.51
  -4  -3  17   18.61    8.85
  -3   7  17   47.74    9.59
  -4  -3  17   22.99    8.29
   0   7  17   22.00    8.13
   0   7  17   28.20    7.19
  -7   0  17   29.90   10.00
  -7  10 -17    3.50    8.30
   3   7  17   -3.64    5.86
 -10   3  17   -4.18    8.15
  -7  13 -17    4.76   11.64
 -13   6  17    5.41    9.26
   6   7  17   10.07    8.41
  -3  11 -17    5.11    9.00
   8   3  17    3.43    7.16
 -11   8  17   -1.70    9.80
   8   3  17    2.47    6.79
 -11   8  17    1.13    8.74
   0   8 -17   27.37    9.64
  -8   8  17   24.88   10.63
   8   0  17   13.63    7.71
  -8   8  17    8.94    9.63
   8   0  17   12.44    6.71
   3   5 -17   18.02    7.74
  -5   8  17    3.95    7.20
  -5   8  17   29.42   10.29
   8  -3  17   32.81    7.58
  -3  -5  17   15.79    7.45
  -6  -2  17    5.21    7.28
  -2   8  17   11.78    6.41
  -2   8  17   10.86    7.38
   1   8  17    4.43    4.90
  -9   1  17    1.35    7.24
   1   8  17   14.53    7.24
  -8  12 -17    6.18   11.46
   4   8  17    5.49    7.86
 -12   4  17   10.30   10.62
  -4  13 -17   -1.25   10.08
  -9  -4 -17   -4.16    7.16
 -13   9  17    4.70   12.54
 -13   9  17    9.43    9.72
   9   4  17    0.38    8.41
   9   4  17   -1.35    8.24
  -1  10 -17   -4.27    7.07
 -10   9  17    1.79    8.25
   9   1  17    2.94    7.21
   9   1  17    0.87    6.89
 -10   9  17   -0.30    9.76
   2   7 -17   -5.61    5.73
  -7   9  17    4.76    9.45
  -7   9  17    7.32    7.98
   9  -2  17   -0.54    5.53
  -2  -7  17   -0.10    6.64
   5   4 -17   16.80    8.15
  -4   9  17   22.26    9.31
   9  -5  17   27.62    7.11
  -4   9  17   14.33    7.12
  -5  -4  17   31.89   10.40
  -8  -1  17    1.39    7.23
  -1   9  17   -3.05    6.12
  -1   9  17    0.41    4.62
 -11   2  17    5.18    9.21
   2   9  17    0.78    6.47
 -10  -2 -17   -2.16    7.60
  -2  12 -17    3.78   10.10
  10   2  17    0.69    8.07
 -12  10  17   12.29   12.17
 -12  10  17    6.64   10.74
  10   2  17    6.62    7.90
 -10   1 -17   -0.66    7.93
   1   9 -17    0.99    6.64
  10  -1  17   -2.09    5.86
  -9  10  17    6.31    8.56
  10  -1  17    8.65    7.22
  -9  10  17  -14.46    7.10
   4   6 -17    7.59    7.67
  -4  -6  17    3.71    7.65
  -6  10  17   -2.04    7.26
  10  -4  17    5.11    5.82
  -6  10  17   -0.91    7.85
   7   3 -17   -2.41    4.55
  -3  10  17   -4.65    4.82
  -7  -3  17   -2.25    6.89
  -3  10  17    5.01    6.84
   0  10  17    1.36    4.08
   0  10  17   -8.55    5.49
 -10   0  17   -3.67    7.28
   3  10  17    1.37    7.64
 -13   3  17   -2.26    9.59
   0  11 -17   14.14   11.13
 -11   0 -17    2.78    8.00
 -11  11  17    8.75   10.59
  11   0  17    6.35    7.37
  11   0  17    1.12    7.05
 -11  11  17    5.54    9.75
 -11   3 -17   -1.07    7.88
   3   8 -17    1.40    7.79
  -3  -8  17    2.67    8.28
  -8  11  17   -4.62    8.34
  -8  11  17    2.38    7.94
  11  -3  17   -4.77    6.17
   6   5 -17    3.58    7.88
  -6  -5  17    6.66    8.31
  -5  11  17    1.03    7.31
  -5  11  17    0.49    6.14
  -9  -2  17   -4.25    7.50
  -2  11  17    2.69    6.83
  -2  11  17    5.22    5.38
 -12   1  17   -2.14    9.58
   1  11  17    3.46    7.69
 -12   2 -17    7.63    9.38
   2  10 -17    5.69    8.89
 -10  12  17   -7.12    8.15
  12  -2  17    4.36    7.88
  12  -2  17   14.44    8.36
 -12   5 -17    4.35    8.22
   5   7 -17    0.03    7.67
  -7  12  17    1.28    7.34
  -7  12  17   -4.93    7.93
  12  -5  17   13.00    7.35
  -5  -7  17    3.47    9.10
   8   4 -17    1.58    6.23
  -8  -4  17    1.91    8.20
  -4  12  17   -2.29    5.70
  -4  12  17    5.61    8.03
 -11  -1  17   -0.35    9.11
  -1  12  17    3.30    7.16
   4   9 -17    8.19    9.57
 -13   4 -17    5.54    9.27
  13  -4  17   -0.63    7.07
  -9  13  17   -3.90    8.50
   7   6 -17   -1.99    8.76
  -6  13  17   -3.60    5.62
  -7  -6  17    9.78    9.54
 -10  -3  17   -2.42    8.82
  -3  13  17   -3.03    6.77
   0   0 -18 3173.36  191.38
   0   0 -18 2838.68  192.67
   0   0  18 3052.43  189.48
   0   0  18 2804.91  190.49
   0   0  18 2727.90  189.06
  -1   2 -18  238.71   22.94
  -1  -1 -18  260.40   22.76
   2  -1 -18  211.54   23.37
   2  -1 -18  238.54   23.04
  -1   2 -18  242.34   24.59
   1  -2  18  201.29   20.94
   1  -2  18  230.29   21.29
  -2   1  18  187.23   21.81
   1   1  18  234.60   21.40
  -2   1  18  231.54   26.59
   1  -2  18  250.93   29.10
   1   1  18  205.09   21.42
  -2   1  18  213.38   21.14
  -2   1 -18  239.71   22.77
   1   1 -18  242.18   24.62
  -2   1 -18  248.15   25.40
   1  -2 -18  202.75   21.43
   2  -1  18  260.78   22.10
  -1  -1  18  328.61   35.33
   2  -1  18  221.30   21.87
  -1  -1  18  232.09   21.30
  -1   2  18  216.18   21.55
  -1   2  18  190.14   21.57
  -1  -1  18  221.72   21.99
  -2   4 -18   92.29   15.87
   2   2  18   99.97   14.31
  -4   2  18   99.97   15.94
   2  -4  18  109.54   14.58
  -4   2  18  108.79   15.09
   2  -4  18  109.31   15.78
   2  -4  18  100.35   13.79
   2   2  18   86.36   12.76
   0   3 -18  468.16   40.42
   0   3 -18  548.77   46.33
   3   0  18  457.90   37.51
  -3   3  18  426.72   38.73
   0  -3  18  541.18   39.82
   3   0  18  483.81   37.58
   0  -3  18  499.04   37.99
  -3   3  18  461.63   37.97
   0  -3  18  422.14   36.47
   0  -3  18  490.74   41.13
   3   0 -18  160.40   20.55
  -3   3 -18  187.37   19.41
  -3   3 -18  151.17   21.10
  -3   0  18  169.05   17.92
   3  -3  18  173.59   18.10
   0   3  18  134.29   18.27
   0   3  18  160.92   17.01
  -3   0  18  175.06   19.04
  -3   6 -18   14.90    7.81
  -3   6 -18   14.24    7.39
  -6   3  18    0.55    7.06
   3  -6  18   13.69    7.12
   3  -6  18   16.70    8.41
   3   3  18    5.82    6.36
   3   3  18    5.20    5.37
  -6   3  18   10.60    7.49
  -1   5 -18   18.24    7.60
  -5   4  18   13.68    8.18
   1  -5  18   11.83    8.21
   1  -5  18   23.46    7.95
   4   1  18    1.47    5.43
  -5   4  18    9.25    8.03
  -4   2 -18   98.11   14.96
   2   2 -18   92.78   16.30
   4  -2  18   88.67   13.34
  -2  -2  18  102.64   13.70
  -2   4  18   89.63   14.68
  -2  -2  18   97.02   14.33
  -2   4  18  105.18   14.54
  -2  -2  18  129.42   17.77
   5  -1 -18   33.75   11.98
  -4   5 -18   40.98   11.29
   1   4  18   47.34    9.08
  -5   1  18   51.62   10.86
   4  -5  18   61.72   10.91
  -5   1  18   42.19   11.03
   1   4  18   31.80    9.13
  -4   8 -18  559.25   46.06
  -4   8 -18  699.54   49.63
  -8   4  18  502.42   47.81
  -8   4  18  644.83   50.13
   4   4  18  515.49   45.23
  -2   7 -18   40.08   11.33
   5   2  18   27.21    9.08
  -7   5  18   46.40   12.63
   2  -7  18   43.43   17.94
  -7   5  18   68.61   14.00
   1   4 -18   19.97    7.62
  -4   5  18   14.99    7.70
  -4   5  18   10.95    7.72
  -1  -4  18   18.75    8.51
   5  -1  18   15.37    7.24
  -1  -4  18   17.64    7.36
   4   1 -18   43.28   12.57
  -5   4 -18   44.59   11.84
  -5   4 -18   76.10   12.78
  -4  -1  18   38.85    9.72
  -4  -1  18   42.63   10.48
  -1   5  18   37.16    8.54
   5  -4  18   53.86    9.94
  -1   5  18   34.69    9.72
  -7   2  18   75.11   15.06
   2   5  18  105.24   15.23
  -7   2  18   70.64   14.76
   2   5  18   87.70   12.18
  -5  10 -18   15.31    9.85
 -10   5  18   15.78   10.47
 -10   5  18    0.59   12.10
   5   5  18    6.47    7.93
  -3   9 -18    2.83    7.80
   6   3  18   12.14    7.07
  -9   6  18   13.92   10.45
  -9   6  18   10.19    8.53
   6   3  18    6.45    7.98
   0   6 -18    0.78    6.09
   0  -6  18   -0.16    7.81
   0  -6  18    3.23    5.91
   6   0  18    2.75    6.06
  -6   6  18    6.31    7.88
  -6   6  18   -1.72    7.59
  -6   3 -18   15.40    8.14
   3   3 -18    9.52    5.85
  -3   6  18    1.30    5.82
  -3  -3  18   24.41    8.56
   6  -3  18   16.21    7.30
  -3   6  18   10.56    7.82
  -3  -3  18   14.83    8.25
   0   6  18   16.58    6.78
  -6   0  18   13.00    8.20
  -6   0  18   14.79    8.56
   0   6  18   18.21    7.09
  -9   3  18    9.16    9.81
   3   6  18    5.67    6.98
  -9   3  18   18.40    9.98
  -6  12 -18    3.04   10.62
   6   6  18    0.25    7.69
 -12   6  18    0.15    9.63
  -4  11 -18   -6.63    7.62
 -11   7  18    4.73    9.07
   7   4  18    8.98    8.27
   7   4  18    4.50    7.48
 -11   7  18   -4.13   11.04
  -1   8 -18   -1.99    6.52
  -8   7  18    5.84    8.29
  -8   7  18   -5.01    8.04
   7   1  18    5.19    6.79
   7   1  18   -7.00    5.33
   2   5 -18   32.10    9.34
   7  -2  18   41.05    9.34
  -5   7  18   56.88   12.07
  -2  -5  18   33.12   12.35
  -2  -5  18   20.20    8.67
  -5   7  18   56.93   13.06
  -7   5 -18  104.74   21.64
   7  -5  18  104.87   13.22
  -2   7  18  117.42   14.60
  -2   7  18   95.67   15.38
  -5  -2  18   83.82   15.17
  -8   1  18    3.80    8.06
   1   7  18    3.37    6.17
   1   7  18    9.36    5.80
   4   7  18    2.56    7.07
 -11   4  18   -2.31    8.55
  -8  -5 -18   24.76   10.57
  -5  13 -18   31.87   14.32
 -13   8  18   21.02   12.60
   8   5  18   54.70   13.98
   8   5  18   29.90   16.15
 -13   8  18   21.10   14.53
  -2  10 -18    7.86    9.09
   8   2  18    2.20    6.85
 -10   8  18   16.26    9.66
   8   2  18    4.06    6.82
 -10   8  18   -4.01    8.83
   1   7 -18    1.80    6.40
  -7   8  18   -4.32    7.02
   8  -1  18    6.57    6.98
  -1  -7  18    4.44    6.98
  -7   8  18    1.26    7.81
   4   4 -18  564.19   44.60
   8  -4  18  619.34   42.89
  -4   8  18  547.83   44.17
  -4  -4  18  543.50   45.12
  -4   8  18  543.45   45.99
  -1   8  18    1.19    6.48
  -7  -1  18    6.25    8.50
  -1   8  18    3.94    5.61
 -10   2  18   -0.12    8.47
   2   8  18    4.36    5.37
   2   8  18    1.78    6.84
 -13   5  18   30.78   13.15
   5   8  18   27.09   11.24
  -9  -3 -18    4.68    7.73
  -3  12 -18   11.78   11.22
 -12   9  18    6.84    9.89
 -12   9  18   11.38   12.53
   9   3  18    5.70    7.98
   9   3  18   -0.34    7.97
   0   9 -18   63.19   14.06
   9   0  18   76.10   13.14
   9   0  18   88.20   14.86
  -9   9  18   57.28   15.25
  -9   9  18   42.12   14.19
   3   6 -18   10.38    7.34
  -3  -6  18    2.05    7.27
  -6   9  18   -3.18    8.74
  -6   9  18   18.74    9.06
   9  -3  18    8.69    6.67
  -3   9  18   16.02    8.29
  -6  -3  18    5.17    7.87
  -3   9  18   16.67    7.33
   0   9  18   42.46    8.32
  -9   0  18   40.63   12.38
   0   9  18   60.50   12.66
 -12   3  18   15.86   11.27
   3   9  18   16.94    9.45
 -10  -1 -18    7.20    9.22
  -1  11 -18    0.48    9.77
 -11  10  18    7.71   10.39
 -11  10  18    5.75   10.79
  10   1  18   13.56    9.34
  10   1  18    4.48    7.68
   2   8 -18   -0.64    7.30
  -8  10  18    8.13   10.21
  10  -2  18    8.78    7.54
  -8  10  18   10.09    9.71
  -2  -8  18    6.33    7.90
   5   5 -18   11.36    8.12
  10  -5  18   17.30    7.38
  -5  10  18    3.81    7.44
  -5  -5  18   11.64    8.29
  -5  10  18   30.63   11.09
  -2  10  18    1.43    7.43
  -8  -2  18   -1.05    8.22
  -2  10  18    4.51    5.66
   1  10  18   11.77    8.22
   1  10  18   13.02    5.59
 -11   1  18   21.94   11.75
   1  10 -18    0.51    9.01
 -11   1 -18   -3.39    8.25
  11  -1  18   -9.23    6.65
 -10  11  18   13.69   10.67
  11  -1  18   10.23    7.83
 -10  11  18   12.28   11.28
   4   7 -18   -0.29    7.45
 -11   4 -18   -7.39    7.89
  -7  11  18    4.23    8.53
  11  -4  18    6.39    7.13
  -7  11  18   -8.59    7.60
  -4  -7  18    8.50    9.15
  -4  11  18    1.41    5.57
  -7  -4  18    8.84    9.05
  -4  11  18    4.15    7.51
  -1  11  18   18.58    8.51
 -10  -1  18    2.71    8.75
  -1  11  18    7.53    4.99
   3   9 -18    7.39    9.51
 -12   3 -18   -0.60    9.33
  12  -3  18   14.79    8.51
  -9  12  18    6.83    8.95
  -9  12  18  -11.44   11.05
   6   6 -18    1.44    8.08
  -6  12  18    7.74    9.21
  -6  -6  18    5.67    9.13
  -6  12  18    0.84    6.72
  -3  12  18    2.95    7.11
  -9  -3  18   13.90   10.22
  -3  12  18   11.45    6.42
   5   8 -18   21.89   10.93
  -8  13  18   10.25    8.18
  -5  -8  18   32.68   13.47
   8   5 -18   37.41   10.76
  -8  -5  18   45.22   13.79
  -5  13  18   14.82    7.56
  -5  13  18   42.58   16.20
   1  -1 -19   13.38    7.78
   0   1 -19    1.75    7.89
  -1   0 -19   18.83    8.07
   0   1 -19    7.72    7.70
   0  -1  19    9.96    7.12
  -1   1  19   11.97    5.36
   1   0  19    3.79    6.29
   0  -1  19   11.02    6.88
   1   0  19    7.13    7.37
  -1   1  19   21.45    8.26
  -1   1  19   10.79    7.24
   1   0  19    5.15    5.39
  -1   3 -19    6.62    8.84
  -1   3 -19   10.98    9.79
   2   1  19   21.55    7.23
  -3   2  19   17.55    7.63
   1  -3  19    5.40    5.88
   1  -3  19   11.23    6.60
  -3   2  19   14.72    7.18
  -3   2  19   23.02    8.80
   2   1  19   15.80    7.07
  -2   2 -19    4.15    7.74
   2   0 -19   -0.04    7.75
  -2   2 -19    9.89    6.86
  -2   0  19   -2.43    5.78
  -2   0  19    7.43    6.09
   2  -2  19   -5.74    5.21
   0   2  19   -1.46    5.19
   2  -2  19    5.99    6.11
   0   2  19    4.80    5.61
  -5   3  19   -3.58    6.48
   2  -5  19    0.89    5.58
   3   2  19   -1.62    5.42
  -5   3  19    2.78    6.28
   3   2  19   -0.69    5.05
   1   2 -19   10.78    8.99
  -3   1 -19    6.38    7.09
   3  -1  19    9.21    6.63
  -2   3  19   21.05    8.21
  -1  -2  19   15.70    7.25
  -2   3  19   18.03    7.77
  -1  -2  19   14.45    6.92
   3  -1  19   11.57    6.46
  -3   4 -19    1.86    8.25
  -4   1  19   12.14    8.03
  -4   1  19   10.51    7.06
   3  -4  19    1.71    6.28
   1   3  19    7.69    6.05
   1   3  19    9.88    6.23
  -3   7 -19   31.25   12.07
  -7   4  19   28.84   11.06
   4   3  19   33.98   10.05
  -7   4  19   42.59   12.20
   4   0  19   22.46    7.67
  -4   4  19   20.46    9.44
  -4   4  19   18.34    8.25
   0  -4  19   18.71    7.72
   3   1 -19    7.39    8.27
  -4   3 -19    0.48    9.09
  -4   3 -19    4.79    6.44
  -1   4  19    2.01    6.31
  -1   4  19    4.38    5.98
  -3  -1  19    2.03    5.61
   4  -3  19    3.14    5.60
  -3  -1  19   12.70    7.31
   2   4  19    9.60    6.29
   2   4  19   -0.91    4.92
   4  -6  19   -4.53    6.13
  -6   2  19    3.17    7.41
  -6   2  19    6.92    7.81
  -4   9 -19    8.85    8.69
  -9   5  19   -1.15    8.31
   5   4  19    1.48    6.38
  -9   5  19    1.54    9.88
  -1   6 -19   11.44    7.86
   5   1  19   -0.89    5.19
  -6   5  19    7.00    8.08
  -6   5  19    8.19    8.63
   1  -6  19    4.96    8.62
   1  -6  19    3.08    6.75
  -2  -3  19    0.58    6.15
  -3   5  19    3.54    7.45
   5  -2  19   11.40    6.37
  -3   5  19   -3.70    5.44
   5   0 -19   14.84    9.40
  -5   5 -19    0.30    7.83
   5  -5  19   10.08    6.70
   0   5  19   10.20    6.55
  -5   0  19   11.02    7.89
   0   5  19    5.94    6.00
  -5   0  19    6.74    7.15
   3   5  19    0.26    5.47
  -8   3  19   -0.21    8.17
  -8   3  19    5.86    7.95
   3   5  19   -0.67    6.23
  -5  11 -19    4.32    9.31
 -11   6  19    3.41   10.64
 -11   6  19   -2.40    9.27
   6   5  19   -0.94    6.48
  -2   8 -19    6.49    7.74
  -8   6  19    5.57    9.43
  -8   6  19    4.24    7.87
   6   2  19    5.91    6.52
   1   5 -19   11.33    7.63
  -5   6  19    6.79    8.12
  -5   6  19    5.66    7.62
  -1  -5  19    1.73    8.63
   6  -1  19    8.76    6.46
  -1  -5  19    5.33    6.45
  -2   6  19    2.23    5.94
   6  -4  19   -3.93    4.92
  -2   6  19    6.03    5.89
  -4  -2  19    3.52    6.68
   1   6  19   -3.41    5.05
   1   6  19    0.43    5.78
  -7   1  19   -6.82    7.34
  -7   1  19    1.95   11.31
   4   6  19   -0.65    6.40
 -10   4  19   -3.54    9.14
  -3  10 -19   11.92    9.33
 -10   7  19  -12.41    8.48
   7   3  19    4.22    6.65
 -10   7  19   -6.02    8.12
   0   7 -19   10.32    7.74
   7   0  19   -5.17    5.73
   0  -7  19    1.86    6.81
  -7   7  19    3.75    8.77
   7   0  19    1.22    5.37
  -7   7  19    2.00    9.39
  -4   7  19   28.08   10.33
  -4   7  19   29.16    9.75
  -3  -4  19   33.25   10.23
   7  -3  19   33.52    8.99
  -1   7  19    0.08    6.06
  -1   7  19    6.91    5.85
  -6  -1  19   -3.62    6.04
   2   7  19   19.70    8.54
   2   7  19    8.77    5.97
  -9   2  19   18.99    9.88
   5   7  19   -1.38    5.85
 -12   5  19   -1.06   10.32
  -4  12 -19    3.56   11.12
   8   4  19   -4.69    6.34
 -12   8  19   -4.34    8.54
 -12   8  19    0.28   12.38
  -1   9 -19    7.67    8.77
   8   1  19    3.25    6.87
   8   1  19    2.31    6.03
  -9   8  19   -1.67    8.25
  -9   8  19   13.56   10.37
   2   6 -19    3.08    6.45
  -2  -6  19    0.76    6.90
  -6   8  19   -8.69    8.16
   8  -2  19   -1.94    5.73
  -6   8  19   -5.96    6.46
   8  -5  19   -2.94    5.16
  -3   8  19   -7.17    5.63
  -5  -3  19    2.82    6.88
  -3   8  19    4.61    6.70
   0   8  19   11.08    7.31
  -8   0  19   -0.88    7.72
   0   8  19    8.75    6.11
   3   8  19    1.17    7.10
 -11   3  19    0.66    9.22
  -2  11 -19   -1.80    9.70
   9   2  19   -6.11    7.67
 -11   9  19   13.82   11.54
   9   2  19    2.92    7.56
 -11   9  19    6.66    9.71
   1   8 -19    0.56    7.97
   9  -1  19   -5.99    5.95
  -8   9  19   -2.43    8.73
  -8   9  19   -4.14    7.75
   4   5 -19   10.60    8.26
  -5   9  19    9.52    9.30
  -5   9  19   -0.87    6.92
   9  -4  19   -5.23    5.19
  -4  -5  19    8.76    8.16
  -2   9  19    4.10    6.27
  -2   9  19    5.47    7.06
  -7  -2  19    8.80    9.18
   1   9  19   -3.33    6.26
   1   9  19    3.25    4.81
 -10   1  19    6.84    8.82
   0  10 -19    3.87    8.85
  10   0  19    1.85    7.81
 -10  10  19    3.81    9.25
  10   0  19   -0.49    7.21
 -10  10  19   -6.48    9.22
   3   7 -19    1.85    7.75
  10  -3  19   11.93    7.22
  -7  10  19    3.08    9.58
  -3  -7  19    0.63    7.35
  -7  10  19   -1.52    7.57
  -4  10  19   -2.67    6.24
  -6  -4  19   -0.27    7.73
  -4  10  19   -8.43    6.82
  -9  -1  19   -3.37    7.86
  -1  10  19    1.71    6.93
  -1  10  19   -4.33    4.43
   2   9 -19    9.49    9.42
 -11   2 -19    3.38    8.05
  -9  11  19    0.32    9.62
  11  -2  19    5.78    8.14
  -9  11  19    3.76    9.58
 -11   5 -19    0.09    8.31
   5   6 -19    0.99    8.49
  -5  -6  19   -9.02    7.39
  11  -5  19    9.33    8.14
  -6  11  19   11.75    9.85
  -6  11  19    3.30    6.95
  -3  11  19    3.01    7.71
  -3  11  19    3.32    6.06
  -8  -3  19    6.56    9.11
   0  11  19    8.35    5.24
 -11   0  19   18.54   11.40
   0  11  19   12.35    8.53
 -12   4 -19    4.53    8.94
   4   8 -19    0.21    8.05
  -8  12  19    2.15   10.20
  -8  12  19   -0.90    8.11
  12  -4  19    2.02    7.67
  -4  -8  19    6.56    9.60
  -7  -5  19   -3.28    8.72
  -5  12  19   -3.64    6.07
  -5  12  19    7.55    9.09
  -1   1 -20   18.42    7.75
   1   0 -20   15.74    7.75
   1  -1  20   12.71    6.88
   1  -1  20   13.96    7.44
   0   1  20   10.02    7.11
  -1   0  20    9.64    6.79
  -1   0  20   -1.61    5.41
   0   1  20   21.59    7.54
   0   2 -20    2.07    6.79
   0   2 -20    4.76    8.65
  -2   2  20    0.95    6.14
   2   0  20    6.04    5.94
   0  -2  20    5.44    7.07
  -2   2  20    1.30    6.06
   2   0  20    9.70    6.47
   0  -2  20   -1.00    5.58
  -2   3 -20    3.93    8.75
   2  -3  20    5.35    6.46
   1   2  20   20.32    7.21
  -3   1  20    1.56    6.34
  -3   1  20   17.62    7.88
   2  -3  20    2.06    6.04
   1   2  20    6.75    6.43
  -1   4 -20    8.22    8.97
  -4   3  20    5.14    7.32
   3   1  20    0.03    5.58
   1  -4  20    3.22    5.94
   3   1  20    1.53    5.51
  -4   3  20    0.20    7.12
   1  -4  20    6.27    6.09
   2   1 -20    7.57    8.81
  -3   2 -20    9.64    7.92
  -1   3  20    5.67    6.65
   3  -2  20    0.89    5.81
  -1   3  20    4.34    5.63
   3  -2  20    0.01    5.71
  -2  -1  20   11.59    7.42
  -2  -1  20    5.37    6.20
   2   3  20   82.71   13.50
   2   3  20   58.06   11.29
  -5   2  20   67.85   13.44
  -5   2  20   59.81   13.85
   3  -5  20  109.60   14.98
  -6   4  20   11.78    8.58
   2  -6  20    4.19    6.67
   4   2  20    6.04    6.44
  -6   4  20    3.85    7.87
   1   3 -20    9.36    9.24
  -1  -3  20   10.37    7.14
  -1  -3  20    6.42    6.35
  -3   4  20   18.02    8.73
   4  -1  20    7.45    6.02
  -3   4  20    6.26    6.80
  -4   4 -20  286.02   29.24
   4   0 -20  255.90   35.81
   0   4  20  269.42   24.89
  -4   0  20  288.50   26.55
  -4   0  20  249.41   26.59
   0   4  20  239.26   25.41
   4  -4  20  354.51   27.12
   3   4  20   22.45    9.23
  -7   3  20   30.82   11.47
  -7   3  20   39.20   12.29
   3   4  20   43.36    9.63
   5   3  20    3.28    7.24
  -8   5  20   10.14   10.59
  -8   5  20   10.69    9.70
  -5   5  20    1.85    7.32
   0  -5  20   -1.91    6.31
   5   0  20    0.19    6.00
  -5   5  20    0.53    7.36
  -5   3 -20   98.01   15.62
  -2   5  20   71.07   13.57
  -2   5  20   66.78   12.63
   5  -3  20   80.33   13.02
  -3  -2  20   55.23   11.89
  -6   1  20    3.98    7.03
   1   5  20    2.98    6.13
   5  -6  20   -0.23    9.23
   1   5  20    3.01    5.86
  -6   1  20   -4.12    6.98
  -9   4  20    4.36    9.21
  -9   4  20    5.69   11.00
   4   5  20    3.21    7.29
 -10   6  20   -7.00    8.15
 -10   6  20    2.10   10.71
   6   4  20   -1.38    7.44
  -1   7 -20    6.12   11.01
   6   1  20    0.84    6.19
  -7   6  20   18.68   10.30
   1  -7  20   12.42    9.99
  -7   6  20   11.24   10.20
  -4   6  20   12.23    8.73
  -2  -4  20   14.32    7.11
  -4   6  20    4.86    7.02
   6  -2  20    2.44    6.17
   6  -5  20    9.27    6.54
  -5  -1  20   11.19    7.62
  -1   6  20    3.35    6.27
  -1   6  20   -1.06    6.50
   2   6  20    0.43    5.66
   2   6  20    0.20    5.23
  -8   2  20   -3.36    7.78
 -11   5  20    9.68   10.33
   5   6  20    8.59    8.46
   7   5  20   -5.81    6.57
 -12   7  20   -2.02   11.69
 -12   7  20    1.87    9.38
  -2   9 -20    0.13    8.24
   7   2  20    1.06    7.19
  -9   7  20   -7.36    7.58
  -9   7  20    4.66   10.89
   7  -1  20    5.12    6.85
  -1  -6  20    7.38    7.55
  -6   7  20    7.96    9.34
  -6   7  20   19.24    9.55
   7  -4  20   41.93   10.08
  -4  -3  20   29.38   10.30
  -3   7  20   30.90    9.85
  -3   7  20   40.90   11.33
   0   7  20    2.10    5.63
   0   7  20    2.75    6.71
  -7   0  20   -0.35    6.70
 -10   3  20   -7.92    7.57
   3   7  20   -5.32    5.88
  -3  11 -20   17.17   11.48
   8   3  20   -2.15    7.80
 -11   8  20    3.14    9.80
 -11   8  20   -0.58   11.36
   0   8 -20   21.50   10.18
   8   0  20   33.61   10.25
  -8   8  20   25.77   11.55
   8   0  20   22.95    9.56
  -8   8  20   43.18   14.58
  -3  -5  20    4.96    7.17
  -5   8  20    9.81    9.43
  -5   8  20   13.96    9.15
   8  -3  20    8.18    6.42
  -6  -2  20   -5.79    6.50
  -2   8  20    4.93    6.70
  -2   8  20   -0.32    7.01
   1   8  20   -3.06    5.25
   1   8  20    2.38    6.55
  -9   1  20   -4.85    7.37
 -12   4  20   25.12   13.77
   4   8  20   26.59   10.87
  -1  10 -20    0.80    9.09
 -10   9  20   -1.90   10.04
   9   1  20    0.44    7.59
 -10   9  20    3.80    9.55
   9   1  20    0.73    9.58
   2   7 -20    6.45    8.29
  -7   9  20   -0.48    8.56
   9  -2  20    1.04    6.54
  -7   9  20    1.46    8.87
  -2  -7  20   -5.28    7.21
   9  -5  20    2.10    5.80
  -4   9  20    5.46    8.15
  -5  -4  20    2.15    7.29
  -4   9  20    0.30    7.07
  -1   9  20    2.32    5.62
  -1   9  20   -5.56    5.44
  -8  -1  20    2.28    7.95
   2   9  20    4.76    8.28
 -11   2  20   11.06   11.19
   1   9 -20   -8.47    7.79
  -9  10  20    1.05   10.05
  10  -1  20    3.38    6.94
  -9  10  20   -1.49    9.09
  10  -1  20   -5.15    6.55
  -6  10  20    4.35    8.80
  -6  10  20    3.62    7.55
  10  -4  20   -3.63    6.12
  -4  -6  20    0.57    7.17
  -7  -3  20    9.61    8.95
  -3  10  20    2.87    8.00
  -3  10  20    6.18    6.75
 -10   0  20    6.75    9.46
   0  10  20    2.50    7.17
   0  10  20    5.68    4.81
   3   8 -20   -7.35    8.08
 -11   3 -20    2.36    9.34
  -3  -8  20   -5.63    7.89
  -8  11  20   14.26    9.38
  11  -3  20   -2.85    6.80
  -8  11  20   -8.92    8.87
  -6  -5  20   11.20    9.04
  -5  11  20   23.63    8.95
  -5  11  20   22.83   11.06
  -2  11  20   10.82    6.42
  -2  11  20    5.35    8.54
  -9  -2  20    6.62   10.24
  -7  12  20   12.38   10.31
  -7  12  20    4.97    8.09
  -5  -7  20    4.85    9.43
  -8  -4  20   51.27   15.15
  -4  12  20   25.35    8.58
  -4  12  20   26.87   11.37
   0   0  21  271.34   25.45
   0   0  21  241.14   23.95
  -1   2 -21   60.01   13.50
   1  -2  21   45.97   10.49
   1   1  21   34.39    9.80
   1   1  21   36.14    9.33
  -2   1  21   44.76   11.49
  -2   1  21   41.90   10.34
   1  -2  21   46.39   10.68
   2  -1  21   56.36   11.92
  -1  -1  21   49.33   11.06
  -1   2  21   46.66   10.88
  -1  -1  21   35.43    9.56
  -1   2  21   50.60   10.61
   2  -1  21   56.59   11.47
  -2   4 -21    4.25    8.44
  -4   2  21    7.56    7.99
   2  -4  21    3.79    6.73
  -4   2  21    2.40    6.71
   2   2  21    7.32    6.59
   2  -4  21   15.27    7.56
   2   2  21    6.54    6.52
   0   3 -21   16.35   10.77
   0  -3  21   19.91    8.12
   3   0  21   23.43    8.72
   3   0  21   27.07    8.84
   0  -3  21   24.68    8.53
  -3   3  21   28.75    9.57
  -3   3  21   29.29    9.83
   0   3  21   12.52    7.89
   0   3  21   15.97    7.30
   3  -3  21   24.76    9.51
  -3   0  21   15.15    7.82
  -3   0  21   14.81    8.72
  -6   3  21   50.46   14.02
  -6   3  21   63.69   13.83
   3   3  21   59.12   12.34
   3   3  21   75.69   12.87
   3  -6  21   86.61   14.12
   1  -5  21   10.74    7.85
  -5   4  21    8.56    8.64
  -5   4  21    4.90    8.46
   4   1  21   14.61    7.75
   2   2 -21   -2.96    8.27
  -2   4  21    9.43    7.21
   4  -2  21    5.34    6.47
  -2  -2  21   12.17    7.51
  -2  -2  21    9.41    6.95
  -2   4  21    3.49    6.94
  -5   1  21    8.85    8.15
   4  -5  21    6.67    7.51
  -5   1  21   16.06    8.67
   1   4  21   14.11    7.96
   1   4  21    5.21    6.09
  -8   4  21  101.36   18.38
   4   4  21   68.66   13.83
  -8   4  21   90.25   17.98
   5   2  21   26.66    9.16
  -7   5  21   18.80   10.65
  -7   5  21   24.31   11.32
  -4   5  21   14.85    9.73
  -4   5  21   11.55    7.94
   5  -1  21   13.25    7.57
  -1  -4  21   25.29    8.97
  -4  -1  21   28.35   11.00
  -4  -1  21   17.84    8.63
   5  -4  21   25.03    8.64
  -1   5  21   15.63    7.98
  -1   5  21    7.07    7.93
  -7   2  21   29.91   11.32
  -7   2  21   43.78   12.36
   2   5  21   31.05    8.91
   2   5  21   33.81   10.09
 -10   5  21   10.13   10.42
 -10   5  21    6.61   11.30
   5   5  21   -3.97    6.53
  -9   6  21    9.26   11.68
   6   3  21    4.92    7.18
  -9   6  21   28.37   11.81
   6   0  21   24.22    8.97
  -6   6  21    3.40    8.97
  -6   6  21    4.18    8.06
   0  -6  21   12.71    7.76
  -3  -3  21   60.80   13.16
  -3   6  21   80.99   15.66
  -3   6  21   60.02   12.71
   6  -3  21   92.36   14.06
   0   6  21   -1.65    5.78
  -6   0  21   -0.57    6.85
   0   6  21    8.09    6.51
   3   6  21   -1.10    6.26
  -9   3  21    1.34    8.69
 -11   7  21   -4.03   11.67
   7   4  21    2.48    8.21
 -11   7  21   10.46   10.45
  -8   7  21   -5.92    8.04
  -8   7  21    1.87    9.91
   7   1  21    6.09    7.31
  -5   7  21   10.91    9.47
  -2  -5  21   15.66    8.34
  -5   7  21   11.57    9.73
   7  -2  21   14.81    8.11
  -2   7  21   40.10   10.68
  -5  -2  21   43.64   12.44
  -2   7  21   38.08   11.11
   7  -5  21   24.89    8.91
   1   7  21    0.47    7.04
   1   7  21   -2.99    5.48
  -8   1  21   15.70    9.57
   4   7  21   16.91    8.82
 -11   4  21    7.62   10.34
 -10   8  21    2.73    9.84
 -10   8  21   -0.94   11.12
   8   2  21    1.48    7.12
  -1  -7  21    2.55    7.90
   8  -1  21    1.17    6.30
  -7   8  21  -10.44    7.43
  -7   8  21    0.07    8.79
   8  -4  21   61.51   11.97
  -4   8  21   66.72   14.96
  -4  -4  21   78.86   15.22
  -4   8  21   69.08   13.10
  -1   8  21    2.18    7.00
  -7  -1  21    2.70    7.77
  -1   8  21   -3.06    6.03
   2   8  21   -0.65    6.24
   2   8  21   -0.47    6.06
 -10   2  21   -9.21    9.60
   9   0  21    3.05    8.05
  -9   9  21    1.47   11.25
  -9   9  21   16.63   10.98
  -6   9  21    1.08    9.31
  -3  -6  21   10.10    8.77
  -6   9  21   10.68    9.28
   9  -3  21   12.84    7.66
  -3   9  21    1.05    8.08
  -3   9  21    4.04    6.77
  -6  -3  21    6.21    8.38
   0   9  21   -1.49    7.73
  -9   0  21    2.24    9.46
   0   9  21    1.79    5.28
  10  -2  21    9.95    8.90
  -8  10  21    5.30   10.69
  -8  10  21   -3.99    8.36
  -5  10  21    1.37    7.16
  -5  -5  21    4.16    7.48
  -5  10  21   -5.65    7.76
  -2  10  21   -4.97    7.05
  -2  10  21    5.60    6.22
  -8  -2  21   -4.87    8.46
  -7  11  21   10.49   11.09
  11  -4  21    4.72    8.09
  -4  -7  21    0.69    8.53
  -7  11  21    4.68    8.53
  -4  11  21   14.54    9.20
  -7  -4  21   20.93   11.80
  -4  11  21   13.81    7.78
   0   1 -22    2.19    7.20
  -1   1  22    3.69    6.40
  -1   1  22   12.81    7.08
   0  -1  22   -2.59    6.08
   1   0  22    1.94    5.88
   0  -1  22   12.46    7.76
   1   0  22   12.27    6.74
   2   1  22   -1.73    5.55
   1  -3  22    6.70    6.74
   1  -3  22   12.06    7.64
  -3   2  22   -6.00    6.74
  -3   2  22    2.83    7.62
   2   1  22    4.41    6.35
  -2   0  22  101.08   15.93
   0   2  22  100.95   15.18
   2  -2  22   71.17   13.21
   2  -2  22   81.75   14.27
   0   2  22  113.23   16.38
  -2   0  22   88.48   14.25
  -5   3  22    2.40    8.21
   3   2  22   -4.16    6.53
   3   2  22   -6.19    5.28
   2  -5  22   -8.68    6.34
  -5   3  22   -9.03    7.28
   3  -1  22    3.60    6.89
   3  -1  22    8.22    7.08
  -2   3  22    6.98    7.90
  -1  -2  22    3.57    6.47
  -2   3  22    4.73    7.43
  -1  -2  22   10.39    7.52
   1   3  22    3.92    6.80
   3  -4  22    2.69    7.57
   1   3  22    7.76    6.23
  -4   1  22   -1.21    7.57
  -4   1  22    3.02    7.29
  -7   4  22    6.42   10.03
  -7   4  22    5.72    9.63
   4   3  22   11.11    7.58
  -4   4  22    6.99    8.19
  -4   4  22    9.06    9.10
   4   0  22    8.99    7.08
   0  -4  22   14.97    8.11
  -1   4  22    9.54    8.63
   4  -3  22   -2.55    6.03
  -1   4  22   -3.97    6.17
  -3  -1  22   -3.27    6.11
  -3  -1  22    0.06    6.34
   4  -6  22   17.67   10.91
  -6   2  22   12.83   10.09
   2   4  22   10.03    7.17
  -6   2  22   -2.98    7.35
   2   4  22   13.23    7.93
   5   4  22   13.38    8.53
  -9   5  22   15.06   12.35
  -9   5  22    5.27   10.08
   5   1  22   -2.25    6.67
  -6   5  22    1.58    8.65
   1  -6  22    3.50    7.47
  -6   5  22    8.72    9.65
   5  -2  22    2.06    6.22
  -2  -3  22   -0.66    7.34
  -3   5  22    6.79    7.90
  -3   5  22   -2.23    6.42
  -5   0  22    8.41    8.48
  -5   0  22   -9.70    8.02
   5  -5  22   10.55    8.06
   0   5  22    0.50    5.84
   0   5  22   14.63    8.45
  -8   3  22   14.20   11.24
   3   5  22    1.74    6.47
   3   5  22    0.00    6.08
  -8   3  22    3.86    8.58
   6   5  22   -2.05    7.81
 -11   6  22   10.68   17.81
 -11   6  22   -2.05    9.61
   6   2  22    4.40    7.34
  -8   6  22    5.72    9.21
  -8   6  22   11.40   11.57
  -5   6  22   -0.97    8.78
  -5   6  22   -2.80    7.58
   6  -1  22    5.49    7.08
  -1  -5  22    1.21    6.98
  -4  -2  22   14.38    8.66
  -2   6  22   10.24    6.96
  -2   6  22   -1.83    6.87
   6  -4  22   19.58    8.71
   1   6  22    0.77    6.52
   1   6  22    0.72    5.64
  -7   1  22    1.81    8.02
   4   6  22    5.82    8.03
 -10   4  22   18.10   11.45
 -10   7  22   -2.70    9.33
 -10   7  22    3.18   11.63
   7   3  22    0.02    7.72
  -7   7  22   17.83   10.95
   7   0  22   -3.69    6.97
  -7   7  22    1.28   10.00
   0  -7  22   -3.67    7.93
  -4   7  22   -6.45    6.68
   7  -3  22    4.29    6.81
  -3  -4  22    6.89    8.21
  -4   7  22   -4.39    7.32
  -1   7  22    1.34    6.32
  -1   7  22    5.55    6.86
  -6  -1  22    0.05    8.09
   2   7  22    6.29    6.75
   2   7  22   -0.38    7.09
  -9   2  22    7.48    9.42
   8   1  22   -0.85    7.18
  -9   8  22    2.91   10.58
  -9   8  22    1.38    9.44
  -2  -6  22    3.05    7.44
  -6   8  22   16.50   10.01
  -6   8  22   12.97   10.39
   8  -2  22    0.84    6.92
  -3   8  22    9.43    8.17
  -5  -3  22    8.57    7.75
   8  -5  22   11.92    7.47
  -3   8  22    5.97    8.46
   0   8  22    7.96    7.95
   0   8  22    8.71    6.48
  -8   0  22    3.00    8.38
  -8   9  22   -2.29    9.17
  -8   9  22    4.54   10.68
   9  -1  22    0.37    7.44
  -5   9  22   -4.67    7.66
  -4  -5  22    4.91    8.20
  -5   9  22    1.71    7.65
   9  -4  22    2.50    6.87
  -2   9  22    6.42    8.13
  -2   9  22    6.64    6.36
  -7  -2  22    9.47    9.96
 -10   1  22   -0.81    9.30
   1   9  22   19.73    9.69
   1   9  22    3.68    5.68
  10  -3  22    3.72    7.86
  -7  10  22   -0.18   10.65
  -3  -7  22   -1.11    8.08
  -7  10  22    7.12    8.87
  -6  -4  22   20.48    9.92
  -4  10  22    4.42    7.10
  -4  10  22    8.10    9.26
  -1  10  22   -1.44    5.10
  -9  -1  22    5.22    9.29
  -1  10  22    7.80    8.12
  -6  11  22    1.91   10.33
  -6  11  22    4.05    8.54
  -5  -6  22    2.70    9.43
  -1   0  23   27.82    9.63
   0   1  23   18.50    8.86
   1  -1  23   26.69    9.43
   1  -1  23   22.67    9.65
  -1   0  23   19.08    9.06
   0   1  23   34.65   10.06
  -2   2  23   14.08    8.59
   2   0  23    3.80    6.61
   0  -2  23   14.06    8.22
   0  -2  23    4.37    7.27
  -2   2  23    9.67    8.26
   2   0  23   19.15    8.51
   2  -3  23   87.33   14.92
  -3   1  23   76.15   14.79
   1   2  23   67.40   13.67
   1   2  23   87.36   14.63
   2  -3  23   83.47   14.34
  -3   1  23   86.64   14.93
  -4   3  23   11.47    9.59
   3   1  23   20.96    8.95
  -4   3  23   25.62   10.22
   1  -4  23   33.05    9.93
   3   1  23   15.87    9.19
   3  -2  23   91.13   14.87
  -2  -1  23   74.16   13.94
   3  -2  23   91.11   14.71
  -1   3  23   78.37   13.97
  -1   3  23   83.76   15.36
  -2  -1  23   79.62   14.50
  -5   2  23   66.51   13.96
  -5   2  23   73.00   15.55
   2   3  23   59.58   12.46
   2   3  23   36.00   10.96
   3  -5  23   79.54   13.80
   4   2  23   24.24    9.98
   2  -6  23   35.18   11.61
  -6   4  23   29.65   11.78
  -6   4  23   15.41   11.72
  -1  -3  23   30.91   10.80
   4  -1  23   25.93    9.46
  -3   4  23   26.20   10.27
  -3   4  23   27.69   10.88
   0   4  23  243.54   27.37
   4  -4  23  346.61   29.20
  -4   0  23  336.73   29.70
   0   4  23  286.33   27.80
  -4   0  23  265.28   29.34
   3   4  23   -2.52    6.56
  -7   3  23   -1.32    7.23
   3   4  23    3.76    6.59
  -7   3  23    2.68    9.34
  -8   5  23    9.30   11.34
   5   3  23   18.61    8.76
  -8   5  23   -4.51    9.40
  -5   5  23   52.25   13.73
   0  -5  23   61.97   13.18
  -5   5  23   34.90   13.10
   5   0  23   68.32   13.77
   5  -3  23   75.29   13.52
  -3  -2  23   62.39   13.47
  -2   5  23   49.89   12.83
  -2   5  23   70.79   15.32
   1   5  23    7.03    7.91
  -6   1  23   22.15   10.78
   1   5  23   -2.61    6.84
   4   5  23   24.28    9.85
  -9   4  23   24.46   14.84
  -9   4  23   34.70   13.93
 -10   6  23    7.10   11.44
 -10   6  23    9.28   13.00
   6   4  23    4.71    7.74
   6   1  23   92.99   15.85
  -7   6  23   50.76   14.66
  -7   6  23   45.07   15.22
  -4   6  23   20.61   10.44
  -2  -4  23   19.87    9.57
   6  -2  23   24.13    9.31
  -4   6  23   27.46   11.26
  -5  -1  23    1.03    8.33
  -1   6  23    7.61    8.00
  -1   6  23    6.76    7.58
   6  -5  23   14.86    8.57
   2   6  23    5.34    7.63
  -8   2  23    4.88    9.56
   2   6  23   15.12    7.92
  -9   7  23   27.66   14.81
  -9   7  23   -2.56   10.70
   7   2  23    8.99    7.70
  -6   7  23   52.24   14.50
  -1  -6  23   74.10   14.60
   7  -1  23   67.86   13.40
  -6   7  23   31.04   13.08
  -3   7  23    2.34    8.07
  -3   7  23   -6.48    7.42
   7  -4  23    1.10    6.91
  -4  -3  23    3.61    7.65
   0   7  23    7.57    6.53
   0   7  23    7.94    8.23
  -7   0  23    8.32    9.27
 -10   3  23   46.20   15.57
   3   7  23   42.65   12.20
  -8   8  23   75.90   18.87
  -8   8  23   87.29   19.62
   8   0  23   78.93   15.76
   8  -3  23   24.74    9.29
  -5   8  23   10.05    8.92
  -3  -5  23   17.34    9.19
  -5   8  23   10.96    9.89
  -2   8  23    9.02    7.33
  -2   8  23   10.00    8.44
  -6  -2  23   13.31    9.10
   1   8  23   26.76    8.76
   1   8  23   23.75    9.95
  -9   1  23   37.62   13.32
  -7   9  23   -4.09    9.10
   9  -2  23    9.98    8.86
  -2  -7  23   11.83   10.12
  -7   9  23   13.98   11.31
  -5  -4  23   34.12   11.67
  -4   9  23   39.00   12.75
  -4   9  23   20.66    9.56
  -1   9  23   24.06    8.47
  -1   9  23   13.01    9.29
  -8  -1  23   39.17   13.76
  10  -4  23   -3.32    7.33
  -6  10  23    5.80    8.51
  -4  -6  23   -0.83    8.56
  -6  10  23   -6.04    8.91
  -3  10  23   61.15   14.62
  -7  -3  23   22.07   11.62
  -3  10  23   28.41   10.00
   0   0  24   -2.87    6.85
   0   0  24    7.50    7.64
   1  -2  24    4.56    7.32
   1  -2  24    6.40    7.79
  -2   1  24   12.45    8.41
  -2   1  24    4.11    7.34
   1   1  24    1.17    7.30
   1   1  24    4.48    7.38
  -1   2  24    2.34    7.36
  -1  -1  24   -1.61    7.10
   2  -1  24    5.27    7.12
   2  -1  24    3.34    7.09
  -1   2  24    5.42    7.29
  -1  -1  24   11.35    7.93
   2   2  24   24.75    9.43
   2  -4  24   54.80   12.56
   2   2  24   37.59   11.31
  -4   2  24   42.00   12.82
  -4   2  24   37.57   12.58
   0  -3  24   18.86    9.01
   3   0  24   12.89    8.47
   3   0  24    6.76    7.61
  -3   3  24   18.29   10.06
  -3   3  24   27.59   11.60
   0   3  24   -1.85    6.99
  -3   0  24   -0.85    7.41
   3  -3  24    3.24    7.51
   0   3  24    2.68    6.81
  -3   0  24    4.10    7.65
   3   3  24   11.33    8.35
   3  -6  24    7.54   11.56
   3   3  24   15.38    8.51
  -6   3  24    2.76    9.23
  -6   3  24   13.03   10.59
  -5   4  24   -4.80    9.08
   4   1  24   19.27    8.97
   1  -5  24    6.48    8.50
  -5   4  24   -0.96    8.98
  -2   4  24   37.34   11.91
  -2  -2  24   26.87   10.90
   4  -2  24   63.72   13.40
  -2   4  24   25.93   11.59
  -5   1  24   -0.02    9.27
   1   4  24    0.59    7.11
   1   4  24    4.82    7.06
   4  -5  24    7.58    8.72
  -5   1  24    2.24    8.13
  -8   4  24    4.33    9.76
  -8   4  24   -7.46   10.66
   4   4  24    1.64    7.53
   5   2  24   -2.13    6.93
  -7   5  24   -5.10    8.76
  -7   5  24    6.19   10.36
   5  -1  24    6.61    8.00
  -1  -4  24   20.06   10.86
  -4   5  24    0.05    8.80
  -4   5  24   11.38    9.35
   5  -4  24    9.18    8.19
  -1   5  24    9.69    7.67
  -4  -1  24    0.65    8.13
  -1   5  24    3.53    7.40
   2   5  24    1.05    7.10
  -7   2  24   -8.43    7.55
   2   5  24   -2.37    6.28
   5   5  24    3.06    7.45
 -10   5  24   -0.18    9.49
  -9   6  24   -8.05   10.06
  -9   6  24    0.19   10.27
   6   3  24    0.53    7.24
   6   0  24   44.72   11.64
  -6   6  24   11.21   11.20
  -6   6  24   20.80   12.36
   0  -6  24   47.38   13.02
  -3  -3  24    1.34    7.55
  -3   6  24    5.53    9.67
   6  -3  24    1.92    7.58
  -3   6  24    1.72    7.56
   0   6  24   31.48    9.78
   0   6  24   26.75   10.01
  -6   0  24   36.78   12.40
  -9   3  24    7.68   11.24
   3   6  24    7.11    7.87
  -8   7  24    4.06   10.69
  -8   7  24  -10.73   10.17
   7   1  24    3.26    7.73
  -5   7  24   11.06    9.65
  -5   7  24    4.75    9.13
   7  -2  24    0.71    7.90
  -2  -5  24   -6.07    7.59
  -2   7  24    2.68    8.43
  -5  -2  24   -3.49    7.00
  -2   7  24   -0.21    7.27
   7  -5  24   -0.17    7.46
  -8   1  24    6.43    9.96
   1   7  24   15.01    9.22
   1   7  24   -3.74    5.97
  -7   8  24    3.04   10.65
  -7   8  24   -3.28   10.04
  -1  -7  24   -0.29   10.13
   8  -1  24   -1.18    7.79
  -4   8  24    1.10    8.24
   8  -4  24    4.17    7.72
  -4  -4  24    7.72    8.78
  -4   8  24    1.47    9.04
  -1   8  24    8.84    7.06
  -1   8  24    7.04    8.87
  -7  -1  24    1.53    9.32
  -6   9  24   -9.21    7.93
  -6   9  24    3.92   10.45
   9  -3  24   -3.65    7.48
  -3  -6  24    5.63    8.47
  -3   9  24   10.42    8.18
  -3   9  24    5.60   10.01
  -6  -3  24    5.50    9.46
  -5  10  24   -1.57    9.23
  -5  -5  24    2.96    8.39
  -5  10  24   -3.73    7.56
  -1   1  25   24.43   10.28
  -1   1  25   18.34    9.57
   1   0  25   21.81    9.61
   1   0  25   29.52   10.82
   0  -1  25   25.53    9.67
   0  -1  25   13.66    9.03
   1  -3  25   25.02    9.85
   2   1  25   35.67   11.57
  -3   2  25   21.21   10.83
  -3   2  25   30.87   11.27
   2   1  25   37.28   11.14
  -2   0  25   14.83    8.79
  -2   0  25   23.07    9.85
   0   2  25    6.15    8.79
   2  -2  25    9.82    9.02
   2  -2  25   12.29    8.44
   0   2  25    7.96    8.22
   3   2  25   20.03    9.34
   3   2  25   17.47    9.38
  -5   3  25   22.91   11.20
   2  -5  25   13.13    9.11
  -5   3  25   17.93   11.00
  -2   3  25   12.50    9.30
   3  -1  25   38.69   11.54
   3  -1  25   28.19   10.14
  -2   3  25   25.74   11.29
  -1  -2  25   31.56   11.08
   1   3  25   -4.03    7.26
  -4   1  25   -2.37    8.47
  -4   1  25   -5.41    7.56
   3  -4  25    3.46    7.66
   1   3  25    3.03    7.15
   4   3  25    3.45    7.31
  -7   4  25   -4.54   10.96
  -7   4  25   -3.40    8.75
  -4   4  25  168.85   25.50
  -4   4  25  209.05   26.50
   4   0  25  204.00   23.01
   0  -4  25  230.40   24.57
  -3  -1  25   -7.52    6.33
  -1   4  25   -3.30    6.85
   4  -3  25    1.55    7.26
  -1   4  25   -1.98    7.45
   2   4  25   12.25    8.42
  -6   2  25    3.76   10.07
  -6   2  25   11.25   10.48
   2   4  25   13.41    8.51
  -9   5  25   33.72   14.57
   5   4  25   21.07   10.11
  -9   5  25   22.54   15.55
  -6   5  25   12.14    9.97
   1  -6  25   15.12    9.76
  -6   5  25   10.09   10.96
   5   1  25    5.70    8.58
  -2  -3  25   12.82    9.31
  -3   5  25   12.23   10.23
   5  -2  25   20.84    9.55
  -3   5  25   20.36   11.00
   0   5  25   40.82   11.65
   0   5  25   48.63   12.40
   5  -5  25   52.28   12.89
  -5   0  25   41.98   12.83
   3   5  25   19.81    8.95
  -8   3  25   27.30   13.48
   6   2  25    8.05    8.42
  -8   6  25   -0.65   10.45
  -8   6  25   21.00   13.71
  -5   6  25   27.41   12.47
  -1  -5  25    9.05    9.62
  -5   6  25    4.94   10.07
   6  -1  25    2.03    7.58
  -2   6  25   18.42    9.59
   6  -4  25   11.40    9.21
  -2   6  25    5.93    8.40
  -4  -2  25    8.89    8.89
   1   6  25   31.98   10.46
   1   6  25   15.52    9.30
  -7   1  25   21.27   11.53
   7   0  25   -0.09    8.14
  -7   7  25   -1.86   11.02
  -7   7  25   12.52   11.10
  -4   7  25   -7.90    8.85
   7  -3  25    2.03    8.30
  -3  -4  25    1.69    8.44
  -4   7  25   -2.98    8.28
  -1   7  25   26.33   10.30
  -6  -1  25   39.31   12.78
  -1   7  25   12.68    9.00
  -6   8  25   24.54   10.82
   8  -2  25   -1.38    8.24
  -2  -6  25    2.97    8.93
  -6   8  25    7.10   10.90
  -3   8  25   22.34   11.78
  -5  -3  25   13.62   10.35
  -3   8  25   11.80    8.80
  -8   0  25  101.78   20.16
   0   8  25   84.71   14.84
   0   8  25   98.55   18.00
  -4  -5  25   49.75   13.34
  -5   9  25   29.41   11.29
   9  -4  25   63.54   13.72
  -5   9  25    9.06   12.18
   1  -1  26    5.67    7.93
  -1   0  26   -6.60    7.30
  -1   0  26   -7.80    6.83
   0   1  26   11.71    9.23
   0   1  26    0.72    7.98
   1  -1  26   11.85    8.97
   0  -2  26   20.73   10.62
   2   0  26   17.43    9.81
  -2   2  26    5.97    9.50
   0  -2  26   13.28    8.08
  -2   2  26    1.63    7.88
   2   0  26    8.48    8.02
   1   2  26   -7.47    7.15
  -3   1  26    0.38    8.19
   2  -3  26   -3.86    7.31
  -3   1  26    2.65    7.57
   1   2  26    6.41    7.38
   3   1  26   16.26    9.97
   1  -4  26   -3.37    7.53
  -4   3  26    0.76    8.34
   3   1  26    1.35    6.75
  -4   3  26    0.07    8.97
   3  -2  26   -1.59    6.87
  -2  -1  26   12.15    9.28
  -1   3  26   -3.24    8.15
  -1   3  26    9.24    9.01
  -2  -1  26    1.59   12.45
   3  -5  26   -0.43    8.69
  -5   2  26   -1.23    9.40
   2   3  26    3.89    6.75
  -5   2  26   -2.54    9.60
   2   3  26    6.00    8.38
  -6   4  26   11.72   11.75
  -6   4  26   -3.35    8.99
   4   2  26   -0.82    7.16
  -1  -3  26    7.15    8.57
  -3   4  26    0.39    8.25
  -3   4  26    2.02    9.74
   4  -1  26   14.68    9.11
  -4   0  26   -3.53    8.02
   4  -4  26    7.13    8.63
   0   4  26    3.04    7.81
   0   4  26   -3.09    7.58
  -7   3  26    0.00   11.01
   3   4  26    0.43    7.62
  -7   3  26   15.78   10.37
   3   4  26   -0.50    6.78
  -8   5  26    6.98   12.45
   5   3  26    7.86    8.57
  -8   5  26    2.87   10.91
   5   0  26   -2.40    7.21
  -5   5  26   -5.72    9.29
  -5   5  26    0.29    9.03
   0  -5  26   -1.64    8.59
  -2   5  26   -0.34    8.23
  -2   5  26   -5.16    6.85
  -3  -2  26   12.85   10.14
   5  -3  26   -3.77    7.80
   1   5  26   -0.20    7.52
   1   5  26    0.59    6.82
  -6   1  26   -1.53    7.15
  -7   6  26    0.05    8.80
  -7   6  26   -0.18   11.45
   6   1  26   10.07    8.73
  -4   6  26    7.69   10.32
  -4   6  26   19.21   11.73
  -2  -4  26    6.00    9.08
   6  -2  26    6.93    9.21
  -1   6  26   -1.81    7.64
   6  -5  26   -6.16    9.55
  -5  -1  26   -6.19    7.69
  -1   6  26   -0.43    7.32
   2   6  26   11.07    7.98
   2   6  26   -4.02    6.92
  -8   2  26    8.79   10.23
  -6   7  26    3.90   11.19
  -1  -6  26   -3.34    8.70
  -6   7  26    1.91   10.37
   7  -1  26    6.86    9.16
  -4  -3  26    8.33    9.69
   7  -4  26    2.80    8.58
  -3   7  26   13.38   10.26
  -3   7  26    3.50   10.07
  -7   0  26    1.51    9.80
   0   7  26   -2.60    7.95
   0   7  26   -3.15    7.04
  -3  -5  26    2.33    9.33
  -5   8  26    3.66   11.17
  -5   8  26    2.35    9.79
   8  -3  26    0.89    8.89
  -2   8  26   -4.20    9.21
  -6  -2  26   15.43   10.37
  -2   8  26    9.02    8.71
   0   0  27   37.69   12.27
   0   0  27   46.39   13.10
   1   1  27   -2.59    7.29
  -2   1  27    0.12    8.28
   1   1  27    2.61    8.10
   1  -2  27    1.12    9.28
  -2   1  27    5.86    9.30
   1  -2  27   -1.51    7.48
  -1   2  27    7.21    8.58
   2  -1  27   -3.49    7.78
  -1   2  27   -4.36    7.25
  -1  -1  27   10.21    9.53
   2  -1  27   -2.96    8.55
  -1  -1  27   -4.01    7.84
  -4   2  27    2.99    9.68
   2   2  27    6.70   10.07
   2  -4  27   11.98    9.77
   2   2  27    6.10    8.15
  -4   2  27    0.54    8.98
   3   0  27    3.58    7.74
   0  -3  27    3.28    7.99
   3   0  27   -4.04    7.42
  -3   3  27    1.50    9.01
  -3   3  27   -0.77    9.27
   0   3  27    0.37    8.17
   3  -3  27   -0.94    7.74
   0   3  27   -3.62    7.53
  -3   0  27   -2.56    9.00
  -3   0  27    4.74    8.78
   3   3  27   40.43   11.72
  -6   3  27   20.79   13.38
  -6   3  27   19.61   12.09
   3   3  27   23.95   10.11
   1  -5  27   10.81    9.72
  -5   4  27    8.85   12.18
  -5   4  27    1.55    9.55
   4   1  27   10.75    8.98
  -2  -2  27    5.71    8.63
  -2   4  27    2.86    9.01
   4  -2  27    5.90    7.95
  -2   4  27   -9.53    7.68
  -5   1  27   -9.45    8.13
   1   4  27   22.31   10.52
   4  -5  27   10.08   10.20
   1   4  27   10.40    8.57
  -7   5  27   -0.37    9.79
  -7   5  27   22.22   13.12
   5   2  27   -1.20    8.74
  -1  -4  27    3.33    8.93
   5  -1  27   15.38   10.16
  -4   5  27   12.19   10.98
  -4   5  27   -0.13   10.77
   5  -4  27   24.51   10.78
  -1   5  27   16.63   10.15
  -1   5  27   -1.07    8.68
  -4  -1  27   10.06    9.39
  -7   2  27    1.48   10.54
   2   5  27   11.40    9.58
   2   5  27   -0.48    8.59
  -6   6  27    2.59   11.75
   6   0  27    3.36    9.03
   0  -6  27    5.10   10.28
  -6   6  27   -5.76    9.70
  -3   6  27   31.22   12.51
  -3   6  27   31.43   13.33
  -3  -3  27   49.34   13.63
   6  -3  27   29.12   11.55
  -6   0  27    9.10   10.20
   0   6  27   10.30    9.59
   0   6  27   14.60    8.96
  -2  -5  27   -1.51    9.12
  -5   7  27   -0.72   10.23
  -5   7  27    3.82   11.63
   7  -2  27    4.69    9.27
  -2   7  27   -2.25    8.31
  -5  -2  27    5.07    9.10
  -2   7  27    8.22    9.03
   0  -1  28    4.18    8.88
  -1   1  28   -8.75    7.00
   1   0  28    4.71    8.24
   0  -1  28    4.28   10.18
  -1   1  28   -0.46    9.51
   1   0  28    3.10    9.11
  -3   2  28    8.03   10.43
   2   1  28    2.53    9.68
   2   1  28   -2.22    7.51
   1  -3  28    1.88    8.82
  -3   2  28   -0.94    7.97
  -2   0  28    0.05    9.12
   0   2  28    0.31    9.11
   2  -2  28    4.83    8.11
  -2   0  28    0.28    8.98
   2  -2  28    3.87    8.94
   0   2  28   -1.32    7.51
   3   2  28   -5.63    7.88
   3   2  28   -6.53    7.26
  -5   3  28   -5.58    8.07
  -5   3  28    2.51   10.81
   2  -5  28    0.71    8.99
  -1  -2  28   -7.40    7.98
   3  -1  28    0.61    7.59
  -2   3  28    6.72    9.80
  -2   3  28    2.72    9.26
  -4   1  28   -2.14    9.26
   1   3  28   -5.47    7.81
   3  -4  28   -4.61    8.51
  -4   1  28   -0.25   10.15
   1   3  28    0.78    9.06
  -4   4  28   31.37   13.10
  -4   4  28   34.70   13.93
   4   0  28   33.88   11.76
   0  -4  28   20.43   11.74
  -3  -1  28   -2.54    8.39
  -1   4  28    6.26    9.93
   4  -3  28   -1.97    8.85
  -1   4  28    1.59    8.72
  -6   2  28   -1.90    9.39
   2   4  28   11.81    8.48
   2   4  28   -1.12    8.41
   5  -2  28    2.43    8.62
  -2  -3  28   -0.20    8.67
  -3   5  28   -5.20    8.86
  -3   5  28   -4.76    9.97
   0   5  28   -1.28    8.41
   0   5  28   -2.03    7.55
  -5   0  28   -2.84    9.35
  -2   6  28    3.82    9.17
  -4  -2  28    4.14    9.69
  -2   6  28   -2.02    8.81
   6  -4  28   -2.86    9.40
   1  -1  29   -4.36    7.70
   0   1  29    2.80    9.53
  -1   0  29    4.09    8.52
   1  -1  29    5.64    9.91
  -1   0  29  -12.64    7.90
   0   1  29   -1.57    9.03
   0  -2  29    4.69    8.81
  -2   2  29   25.13   12.33
   2   0  29    7.27    8.82
   2   0  29   10.03   10.60
  -2   2  29    1.17    8.63
   2  -3  29    1.83    9.18
  -3   1  29    4.70    9.95
  -3   1  29    7.24   10.36
   1   2  29   -1.65    9.03
   1   2  29   -1.65    7.45
  -4   3  29   -7.03    8.98
   3   1  29    2.91    8.88
   1  -4  29   -1.66    9.30
  -4   3  29    7.83   11.13
  -2  -1  29   -7.21    8.47
  -1   3  29    6.15    9.27
  -1   3  29   -8.04    9.14
   3  -2  29    8.24    9.52
  -1  -3  29    1.02    8.76
  -3   4  29   -1.97    9.97
  -3   4  29    2.40   10.34
   4  -1  29    5.58    9.15
   0   0  30  102.43   19.92
   0   0  30   91.31   18.68
   0   0   0    0.00    0.00


_computing_structure_solution     'SHELXT 2014/5 (Sheldrick, 2014)'
;
_shelx_hkl_checksum              7962
loop_
_space_group_symop_operation_xyz
'x, y, z'
'-y, x-y, z'
'-x+y, -x, z'
'-y, -x, z'
'-x+y, y, z'
'x, x-y, z'
'x+2/3, y+1/3, z+1/3'
'-y+2/3, x-y+1/3, z+1/3'
'-x+y+2/3, -x+1/3, z+1/3'
'-y+2/3, -x+1/3, z+1/3'
'-x+y+2/3, y+1/3, z+1/3'
'x+2/3, x-y+1/3, z+1/3'
'x+1/3, y+2/3, z+2/3'
'-y+1/3, x-y+2/3, z+2/3'
'-x+y+1/3, -x+2/3, z+2/3'
'-y+1/3, -x+2/3, z+2/3'
'-x+y+1/3, y+2/3, z+2/3'
'x+1/3, x-y+2/3, z+2/3'
loop_
_atom_site_label
_atom_site_type_symbol
_atom_site_fract_x
_atom_site_fract_y
_atom_site_fract_z
_atom_site_U_iso_or_equiv
_atom_site_adp_type
_atom_site_occupancy
_atom_site_site_symmetry_order
_atom_site_calc_flag
_atom_site_refinement_flags_posn
_atom_site_refinement_flags_adp
_atom_site_refinement_flags_occupancy
_atom_site_disorder_assembly
_atom_site_disorder_group
T1 Si 0.2445(5) 0.2429(5) 0.51544(17) 0.0611(18) Uani 1 1 d . . . . .
T11 Si 0.2426(5) 0.2441(5) 0.63957(19) 0.0520(17) Uiso 0.941(9) 1 d . . P . .
T11B Si 0.424(6) 0.345(6) 0.632(3) 0.0520(17) Uiso 0.059(9) 1 d . . P . .
T2 Si 0.4239(4) 0.3322(6) 0.4112(3) 0.0440(9) Uani 1 1 d . . . . .
O1 O 0.3544(13) 0.3131(13) 0.4699(6) 0.078(4) Uiso 1 1 d . . . . .
O11 O 0.3691(11) 0.3728(10) 0.3593(5) 0.065(3) Uiso 1 1 d . . . . .
O2 O 0.1295(13) 0.259(3) 0.5048(9) 0.101(8) Uani 1 2 d S T P . .
O22 O 0.0927(8) 0.1855(17) 0.6349(6) 0.052(4) Uani 1 2 d S T P . .
O3 O 0.198(2) 0.0991(11) 0.5277(11) 0.105(7) Uiso 1 2 d S . P . .
O33 O 0.2631(17) 0.1315(9) 0.6557(8) 0.063(5) Uiso 1 2 d S . P . .
O4 O 0.3096(10) 0.3013(10) 0.5780(7) 0.070(3) Uiso 1 1 d . . . . .
O5 O 0.4667(17) 0.2334(9) 0.4085(8) 0.079(5) Uiso 1 2 d S . P . .
O55 O 0.5518(7) 0.4482(7) 0.4350(7) 0.068(4) Uiso 1 2 d S . P . .
Ag1 Ag 0.0000 0.0000 0.5797(6) 0.075(3) Uiso 0.399(11) 6 d S . . . .
Ag1A Ag 0.0000 0.0000 0.511(4) 0.01(3) Uiso 0.019(9) 6 d S . . . .
Ag2 Ag 0.6667 0.3333 0.372(2) 0.070(13) Uiso 0.16(3) 6 d S . . . .
Ag2A Ag 0.6667 0.3333 0.403(5) 0.100 Uiso 0.147(19) 6 d S U . . .
Ag2B Ag 0.6667 0.3333 0.4357(19) 0.033(14) Uiso 0.09(2) 6 d S . . . .
Ag4 Ag 0.4980(7) 0.5020(7) 0.5833(6) 0.068(5) Uiso 0.187(9) 2 d S . . . .
Ag4A Ag 0.5135(9) 0.4865(9) 0.5450(10) 0.111(10) Uiso 0.162(12) 2 d S . . . .
Ag5 Ag 0.370(4) 0.185(2) 0.7381(9) 0.048(10) Uiso 0.103(19) 2 d S . . . .
Ag5A Ag 0.323(4) 0.1616(18) 0.7451(10) 0.037(8) Uiso 0.106(19) 2 d S . . . .
Ag5B Ag 0.273(10) 0.137(5) 0.758(3) 0.12(3) Uiso 0.058(17) 2 d S . . . .
loop_
_atom_site_aniso_label
_atom_site_aniso_U_11
_atom_site_aniso_U_22
_atom_site_aniso_U_33
_atom_site_aniso_U_23
_atom_site_aniso_U_13
_atom_site_aniso_U_12
T1 0.078(3) 0.068(3) 0.048(3) 0.010(2) 0.014(2) 0.044(3)
T2 0.041(2) 0.0405(16) 0.0474(18) 0.0056(13) -0.004(2) 0.018(2)
O2 0.092(9) 0.16(2) 0.075(12) 0.009(13) 0.004(7) 0.079(11)
O22 0.051(6) 0.093(12) 0.026(7) -0.013(7) -0.006(3) 0.046(6)
loop_
_atom_type_symbol
_atom_type_description
_atom_type_scat_dispersion_real
_atom_type_scat_dispersion_imag
_atom_type_scat_source
Ag Ag -0.8971 1.1015 'International Tables Vol C Tables 4.2.6.8 and 6.1.1.4'
O O 0.0106 0.0060 'International Tables Vol C Tables 4.2.6.8 and 6.1.1.4'
Si Si 0.0817 0.0704 'International Tables Vol C Tables 4.2.6.8 and 6.1.1.4'
loop_
_geom_angle_atom_site_label_1
_geom_angle_atom_site_label_2
_geom_angle_atom_site_label_3
_geom_angle
_geom_angle_site_symmetry_1
_geom_angle_site_symmetry_3
_geom_angle_publ_flag
O2 T1 O1 115.0(10) . . ?
O2 T1 O3 109.2(14) . . ?
O1 T1 O3 117.2(10) . . ?
O2 T1 O4 111.3(11) . . ?
O1 T1 O4 103.0(7) . . ?
O3 T1 O4 99.8(11) . . ?
O11 T11 O33 103.8(9) 8 . ?
O11 T11 O4 115.9(7) 8 . ?
O33 T11 O4 108.5(9) . . ?
O11 T11 O22 110.5(7) 8 . ?
O33 T11 O22 105.8(10) . . ?
O4 T11 O22 111.6(8) . . ?
O11 T11 T11B 71(2) 8 . ?
O33 T11 T11B 87(2) . . ?
O4 T11 T11B 58(2) . . ?
O22 T11 T11B 166(2) . . ?
O11 T11 Ag5A 60.5(5) 8 . ?
O33 T11 Ag5A 43.8(7) . . ?
O4 T11 Ag5A 131.8(10) . . ?
O22 T11 Ag5A 113.9(10) . . ?
T11B T11 Ag5A 79(2) . . ?
O4 T11B T11 50.5(18) . . ?
O4 T11B Ag4 79(3) . . ?
T11 T11B Ag4 119(3) . . ?
O4 T11B O11 88(3) . 8 ?
T11 T11B O11 44.4(15) . 8 ?
Ag4 T11B O11 114(3) . 8 ?
O4 T11B Ag4A 70(2) . . ?
T11 T11B Ag4A 118(3) . . ?
Ag4 T11B Ag4A 20.2(9) . . ?
O11 T11B Ag4A 130(3) 8 . ?
O4 T11B Ag5 119(3) . . ?
T11 T11B Ag5 73(2) . . ?
Ag4 T11B Ag5 159(3) . . ?
O11 T11B Ag5 59.9(19) 8 . ?
Ag4A T11B Ag5 168(3) . . ?
O1 T2 O11 113.5(5) . . ?
O1 T2 O5 107.3(9) . . ?
O11 T2 O5 126.7(9) . . ?
O1 T2 O55 94.3(8) . . ?
O11 T2 O55 110.9(8) . . ?
O5 T2 O55 98.3(8) . . ?
T2 O1 T1 155.9(11) . . ?
T11 O11 T2 171.9(9) 15_554 . ?
T11 O11 T11B 64.8(19) 15_554 15_554 ?
T2 O11 T11B 119(2) . 15_554 ?
T1 O2 T1 158.0(17) 5 . ?
T1 O2 Ag5A 100.7(8) 5 15_554 ?
T1 O2 Ag5A 100.7(8) . 15_554 ?
T1 O2 Ag5 99.9(8) 5 15_554 ?
T1 O2 Ag5 99.9(8) . 15_554 ?
Ag5A O2 Ag5 13.1(9) 15_554 15_554 ?
T1 O2 Ag5B 101.0(9) 5 15_554 ?
T1 O2 Ag5B 101.0(9) . 15_554 ?
Ag5A O2 Ag5B 15(2) 15_554 15_554 ?
Ag5 O2 Ag5B 28(3) 15_554 15_554 ?
T11 O22 T11 133.8(12) . 5 ?
T11 O22 Ag1 111.3(5) . . ?
T11 O22 Ag1 111.3(5) 5 . ?
T1 O3 T1 138.3(17) . 6 ?
T1 O3 Ag1A 106.0(10) . . ?
T1 O3 Ag1A 106.0(10) 6 . ?
T1 O3 Ag1 110.8(8) . . ?
T1 O3 Ag1 110.8(8) 6 . ?
Ag1A O3 Ag1 39(2) . . ?
T11 O33 T11 148.7(13) 6 . ?
T11 O33 Ag5A 105.2(6) 6 . ?
T11 O33 Ag5A 105.2(6) . . ?
T11 O33 Ag5 105.6(7) 6 . ?
T11 O33 Ag5 105.6(7) . . ?
Ag5A O33 Ag5 13.9(9) . . ?
T11 O33 Ag5B 103.7(7) 6 . ?
T11 O33 Ag5B 103.7(7) . . ?
Ag5A O33 Ag5B 15(2) . . ?
Ag5 O33 Ag5B 29(3) . . ?
T11 O4 T1 122.3(6) . . ?
T11 O4 T11B 72(2) . . ?
T1 O4 T11B 155(2) . . ?
T11 O4 Ag4 115.8(8) . . ?
T1 O4 Ag4 121.0(8) . . ?
T11B O4 Ag4 55(2) . . ?
T2 O5 T2 145.5(14) 6 . ?
T2 O5 Ag2A 107.2(7) 6 . ?
T2 O5 Ag2A 107.2(7) . . ?
T2 O5 Ag2B 105.8(7) 6 . ?
T2 O5 Ag2B 105.8(7) . . ?
Ag2A O5 Ag2B 19(3) . . ?
T2 O5 Ag2 106.8(7) 6 . ?
T2 O5 Ag2 106.8(7) . . ?
Ag2A O5 Ag2 18(2) . . ?
Ag2B O5 Ag2 36.9(13) . . ?
T2 O55 T2 139.8(12) 4_665 . ?
T2 O55 Ag2B 94.7(7) 4_665 . ?
T2 O55 Ag2B 94.7(7) . . ?
Ag1A Ag1 O22 122.1(5) . 3 ?
Ag1A Ag1 O22 122.1(5) . 2 ?
O22 Ag1 O22 94.4(6) 3 2 ?
Ag1A Ag1 O22 122.1(5) . . ?
O22 Ag1 O22 94.4(6) 3 . ?
O22 Ag1 O22 94.4(6) 2 . ?
Ag1A Ag1 O3 61.1(7) . . ?
O22 Ag1 O3 83.4(4) 3 . ?
O22 Ag1 O3 176.8(10) 2 . ?
O22 Ag1 O3 83.4(4) . . ?
Ag1A Ag1 O3 61.1(7) . 3 ?
O22 Ag1 O3 83.4(4) 3 3 ?
O22 Ag1 O3 83.4(4) 2 3 ?
O22 Ag1 O3 176.8(10) . 3 ?
O3 Ag1 O3 98.6(9) . 3 ?
Ag1A Ag1 O3 61.1(7) . 2 ?
O22 Ag1 O3 176.8(10) 3 2 ?
O22 Ag1 O3 83.4(4) 2 2 ?
O22 Ag1 O3 83.5(4) . 2 ?
O3 Ag1 O3 98.6(9) . 2 ?
O3 Ag1 O3 98.6(9) 3 2 ?
Ag1 Ag1A O3 80(2) . . ?
Ag1 Ag1A O3 80(2) . 3 ?
O3 Ag1A O3 117.0(13) . 3 ?
Ag1 Ag1A O3 80(2) . 2 ?
O3 Ag1A O3 117.0(13) . 2 ?
O3 Ag1A O3 117.0(13) 3 2 ?
Ag2A Ag2 Ag2B 0.00(4) . . ?
Ag2A Ag2 O5 69.1(13) . 2_655 ?
Ag2B Ag2 O5 69.1(13) . 2_655 ?
Ag2A Ag2 O5 69.1(13) . 3_665 ?
Ag2B Ag2 O5 69.1(13) . 3_665 ?
O5 Ag2 O5 108.0(14) 2_655 3_665 ?
Ag2A Ag2 O5 69.1(14) . . ?
Ag2B Ag2 O5 69.1(13) . . ?
O5 Ag2 O5 108.0(14) 2_655 . ?
O5 Ag2 O5 108.0(14) 3_665 . ?
Ag2 Ag2A Ag2B 180.00(2) . . ?
Ag2 Ag2A O5 93(3) . 2_655 ?
Ag2B Ag2A O5 87(3) . 2_655 ?
Ag2 Ag2A O5 93(3) . . ?
Ag2B Ag2A O5 87(3) . . ?
O5 Ag2A O5 119.7(7) 2_655 . ?
Ag2 Ag2A O5 93(3) . 3_665 ?
Ag2B Ag2A O5 87(3) . 3_665 ?
O5 Ag2A O5 119.7(7) 2_655 3_665 ?
O5 Ag2A O5 119.7(7) . 3_665 ?
Ag2A Ag2B Ag2 0.00(4) . . ?
Ag2A Ag2B O5 74.0(12) . 2_655 ?
Ag2 Ag2B O5 74.0(12) . 2_655 ?
Ag2A Ag2B O5 74.0(12) . . ?
Ag2 Ag2B O5 74.0(12) . . ?
O5 Ag2B O5 112.7(10) 2_655 . ?
Ag2A Ag2B O5 74.0(12) . 3_665 ?
Ag2 Ag2B O5 74.0(12) . 3_665 ?
O5 Ag2B O5 112.7(10) 2_655 3_665 ?
O5 Ag2B O5 112.7(10) . 3_665 ?
Ag2A Ag2B O55 89.6(11) . 2_655 ?
Ag2 Ag2B O55 89.6(11) . 2_655 ?
O5 Ag2B O55 61.2(2) 2_655 2_655 ?
O5 Ag2B O55 61.2(2) . 2_655 ?
O5 Ag2B O55 164(2) 3_665 2_655 ?
Ag2A Ag2B O55 89.6(11) . 3_665 ?
Ag2 Ag2B O55 89.6(11) . 3_665 ?
O5 Ag2B O55 61.2(2) 2_655 3_665 ?
O5 Ag2B O55 164(2) . 3_665 ?
O5 Ag2B O55 61.2(2) 3_665 3_665 ?
O55 Ag2B O55 120.00(3) 2_655 3_665 ?
Ag2A Ag2B O55 89.6(11) . . ?
Ag2 Ag2B O55 89.6(11) . . ?
O5 Ag2B O55 164(2) 2_655 . ?
O5 Ag2B O55 61.2(2) . . ?
O5 Ag2B O55 61.2(2) 3_665 . ?
O55 Ag2B O55 120.00(3) 2_655 . ?
O55 Ag2B O55 120.00(3) 3_665 . ?
Ag4A Ag4 T11B 111(2) . 4_665 ?
Ag4A Ag4 T11B 111(2) . . ?
T11B Ag4 T11B 90(4) 4_665 . ?
Ag4A Ag4 O4 86.3(5) . . ?
T11B Ag4 O4 135(2) 4_665 . ?
T11B Ag4 O4 45(2) . . ?
Ag4A Ag4 O4 86.3(5) . 4_665 ?
T11B Ag4 O4 45(2) 4_665 4_665 ?
T11B Ag4 O4 135(2) . 4_665 ?
O4 Ag4 O4 171.6(10) . 4_665 ?
Ag4 Ag4A T11B 49.0(17) . 4_665 ?
Ag4 Ag4A T11B 49.0(17) . . ?
T11B Ag4A T11B 70(3) 4_665 . ?
Ag5A Ag5 Ag5B 6(5) . . ?
Ag5A Ag5 O33 76(3) . . ?
Ag5B Ag5 O33 82(3) . . ?
Ag5A Ag5 O2 83(3) . 8 ?
Ag5B Ag5 O2 77(3) . 8 ?
O33 Ag5 O2 159(2) . 8 ?
Ag5A Ag5 T11B 116(3) . . ?
Ag5B Ag5 T11B 120(3) . . ?
O33 Ag5 T11B 54.3(14) . . ?
O2 Ag5 T11B 139.4(17) 8 . ?
Ag5A Ag5 T11B 116(3) . 6 ?
Ag5B Ag5 T11B 120(3) . 6 ?
O33 Ag5 T11B 54.3(14) . 6 ?
O2 Ag5 T11B 139.5(17) 8 6 ?
T11B Ag5 T11B 68(3) . 6 ?
Ag5 Ag5A Ag5B 169(9) . . ?
Ag5 Ag5A O33 90(4) . . ?
Ag5B Ag5A O33 101(7) . . ?
Ag5 Ag5A O2 84(3) . 8 ?
Ag5B Ag5A O2 85(7) . 8 ?
O33 Ag5A O2 174(2) . 8 ?
Ag5 Ag5A T11 92(3) . 6 ?
Ag5B Ag5A T11 97(6) . 6 ?
O33 Ag5A T11 31.0(2) . 6 ?
O2 Ag5A T11 148.9(3) 8 6 ?
Ag5 Ag5A T11 92(3) . . ?
Ag5B Ag5A T11 97(6) . . ?
O33 Ag5A T11 31.0(2) . . ?
O2 Ag5A T11 148.9(3) 8 . ?
T11 Ag5A T11 61.9(4) 6 . ?
Ag5A Ag5B Ag5 5(4) . . ?
Ag5A Ag5B O33 64(7) . . ?
Ag5 Ag5B O33 69(4) . . ?
Ag5A Ag5B O2 80(7) . 8 ?
Ag5 Ag5B O2 75(4) . 8 ?
O33 Ag5B O2 144(5) . 8 ?
loop_
_geom_bond_atom_site_label_1
_geom_bond_atom_site_label_2
_geom_bond_distance
_geom_bond_site_symmetry_2
_geom_bond_publ_flag
T1 O2 1.624(7) . ?
T1 O1 1.649(16) . ?
T1 O3 1.672(11) . ?
T1 O4 1.683(17) . ?
T11 O11 1.583(14) 8 ?
T11 O33 1.652(8) . ?
T11 O4 1.666(16) . ?
T11 O22 1.698(9) . ?
T11 T11B 2.05(7) . ?
T11 Ag5A 3.092(17) . ?
T11B O4 1.83(7) . ?
T11B Ag4 2.11(7) . ?
T11B O11 2.14(7) 8 ?
T11B Ag4A 2.62(7) . ?
T11B Ag5 3.09(7) . ?
T2 O1 1.603(16) . ?
T2 O11 1.629(14) . ?
T2 O5 1.632(7) . ?
T2 O55 1.682(8) . ?
O11 T11 1.583(13) 15_554 ?
O11 T11B 2.14(7) 15_554 ?
O2 T1 1.624(7) 5 ?
O2 Ag5A 2.39(3) 15_554 ?
O2 Ag5 2.40(3) 15_554 ?
O2 Ag5B 2.42(7) 15_554 ?
O22 T11 1.698(9) 5 ?
O22 Ag1 2.456(17) . ?
O3 T1 1.672(11) 6 ?
O3 Ag1A 2.26(3) . ?
O3 Ag1 2.54(3) . ?
O33 T11 1.652(8) 6 ?
O33 Ag5A 2.22(3) . ?
O33 Ag5 2.28(3) . ?
O33 Ag5B 2.41(8) . ?
O4 Ag4 2.527(9) . ?
O5 T2 1.632(7) 6 ?
O5 Ag2A 2.25(2) . ?
O5 Ag2B 2.33(2) . ?
O5 Ag2 2.40(3) . ?
O55 T2 1.682(8) 4_665 ?
O55 Ag2B 2.578(17) . ?
Ag1 Ag1A 1.62(9) . ?
Ag1 O22 2.456(17) 3 ?
Ag1 O22 2.456(18) 2 ?
Ag1 O3 2.54(3) 3 ?
Ag1 O3 2.54(3) 2 ?
Ag1A O3 2.26(3) 3 ?
Ag1A O3 2.26(3) 2 ?
Ag2 Ag2A 0.73(9) . ?
Ag2 Ag2B 1.50(5) . ?
Ag2 O5 2.40(3) 2_655 ?
Ag2 O5 2.40(3) 3_665 ?
Ag2A Ag2B 0.77(11) . ?
Ag2A O5 2.25(2) 2_655 ?
Ag2A O5 2.25(2) 3_665 ?
Ag2B O5 2.33(2) 2_655 ?
Ag2B O5 2.33(2) 3_665 ?
Ag2B O55 2.578(17) 2_655 ?
Ag2B O55 2.578(17) 3_665 ?
Ag4 Ag4A 0.97(2) . ?
Ag4 T11B 2.11(7) 4_665 ?
Ag4 O4 2.527(9) 4_665 ?
Ag4A T11B 2.62(7) 4_665 ?
Ag5 Ag5A 0.55(4) . ?
Ag5 Ag5B 1.18(12) . ?
Ag5 O2 2.40(3) 8 ?
Ag5 T11B 3.09(7) 6 ?
Ag5A Ag5B 0.63(10) . ?
Ag5A O2 2.39(3) 8 ?
Ag5A T11 3.092(17) 6 ?
Ag5B O2 2.42(7) 8 ?
