#------------------------------------------------------------------------------
#$Date: 2021-01-04 05:06:15 +0200 (Mon, 04 Jan 2021) $
#$Revision: 260415 $
#$URL: file:///home/coder/svn-repositories/cod/cif/4/51/82/4518284.cif $
#------------------------------------------------------------------------------
#
# This file is available in the Crystallography Open Database (COD),
# http://www.crystallography.net/
#
# All data on this site have been placed in the public domain by the
# contributors.
#
data_4518284
loop_
_publ_author_name
'Cametti, Georgia'
'Scheinost, Andreas C.'
'Churakov, Sergey V.'
_publ_section_title
;
 Structural Evolution of Ag-LEV Zeolite upon Heating: An In Situ
 Single-Crystal X-ray Diffraction (SC-XRD) and X-ray Absorption
 Spectroscopy (XAS) Study.
;
_journal_issue                   49
_journal_name_full               'ACS omega'
_journal_page_first              31774
_journal_page_last               31783
_journal_paper_doi               10.1021/acsomega.0c04455
_journal_volume                  5
_journal_year                    2020
_chemical_formula_sum            'Ag7.8 O108 Si54'
_chemical_formula_weight         4086.25
_chemical_name_common            Ag-levyne
_space_group_crystal_system      trigonal
_space_group_IT_number           160
_space_group_name_Hall           'R 3 -2"'
_space_group_name_H-M_alt        'R 3 m :H'
_atom_sites_solution_primary     dual
_atom_sites_solution_secondary   difmap
_audit_creation_method           SHELXL-2014
_cell_angle_alpha                90.00(3)
_cell_angle_beta                 90.00(3)
_cell_angle_gamma                120.00(3)
_cell_formula_units_Z            1
_cell_length_a                   12.943(3)
_cell_length_b                   12.943(3)
_cell_length_c                   23.641(5)
_cell_measurement_reflns_used    1533
_cell_measurement_temperature    296(2)
_cell_measurement_theta_max      20.46
_cell_measurement_theta_min      2.5
_cell_volume                     3429.8(17)
_computing_structure_refinement  'SHELXL-2014 (Sheldrick, 2014)'
_diffrn_ambient_temperature      296(2)
_diffrn_measured_fraction_theta_full 0.746
_diffrn_measured_fraction_theta_max 1.000
_diffrn_measurement_device_type  'APEX II'
_diffrn_radiation_type           MoK\a
_diffrn_radiation_wavelength     0.71073
_diffrn_reflns_av_R_equivalents  0.0837
_diffrn_reflns_av_unetI/netI     0.0540
_diffrn_reflns_Laue_measured_fraction_full 0.746
_diffrn_reflns_Laue_measured_fraction_max 1.000
_diffrn_reflns_limit_h_max       13
_diffrn_reflns_limit_h_min       -14
_diffrn_reflns_limit_k_max       14
_diffrn_reflns_limit_k_min       -11
_diffrn_reflns_limit_l_max       25
_diffrn_reflns_limit_l_min       -22
_diffrn_reflns_number            9491
_diffrn_reflns_point_group_measured_fraction_full 0.713
_diffrn_reflns_point_group_measured_fraction_max 0.958
_diffrn_reflns_theta_full        25.242
_diffrn_reflns_theta_max         22.646
_diffrn_reflns_theta_min         2.011
_diffrn_source                   'fine-focus sealed tube'
_exptl_absorpt_coefficient_mu    1.673
_exptl_absorpt_correction_T_max  0.7448
_exptl_absorpt_correction_T_min  0.5180
_exptl_absorpt_correction_type   multi-scan
_exptl_crystal_colour            gray
_exptl_crystal_density_diffrn    1.978
_exptl_crystal_description       fragment
_exptl_crystal_F_000             1987
_exptl_crystal_size_max          0.180
_exptl_crystal_size_mid          0.150
_exptl_crystal_size_min          0.100
_refine_diff_density_max         0.589
_refine_diff_density_min         -0.594
_refine_diff_density_rms         0.123
_refine_ls_abs_structure_details
;
 Flack x determined using 331 quotients [(I+)-(I-)]/[(I+)+(I-)]
 (Parsons, Flack and Wagner, Acta Cryst. B69 (2013) 249-259).
;
_refine_ls_abs_structure_Flack   0.50(8)
_refine_ls_extinction_method     none
_refine_ls_goodness_of_fit_ref   1.101
_refine_ls_hydrogen_treatment    undef
_refine_ls_matrix_type           full
_refine_ls_number_parameters     89
_refine_ls_number_reflns         1130
_refine_ls_number_restraints     1
_refine_ls_restrained_S_all      1.101
_refine_ls_R_factor_all          0.1092
_refine_ls_R_factor_gt           0.0812
_refine_ls_shift/su_max          0.000
_refine_ls_shift/su_mean         0.000
_refine_ls_structure_factor_coef Fsqd
_refine_ls_weighting_details
'w=1/[\s^2^(Fo^2^)+(0.1255P)^2^+45.2228P] where P=(Fo^2^+2Fc^2^)/3'
_refine_ls_weighting_scheme      calc
_refine_ls_wR_factor_gt          0.2240
_refine_ls_wR_factor_ref         0.2508
_reflns_Friedel_coverage         0.904
_reflns_Friedel_fraction_full    0.681
_reflns_Friedel_fraction_max     0.915
_reflns_number_gt                813
_reflns_number_total             1130
_reflns_threshold_expression     'I > 2\s(I)'
_cod_data_source_file            ao0c04455_si_007.cif
_cod_data_source_block           shelx
_cod_depositor_comments
'Adding full bibliography for 4518279--4518286.cif.'
_cod_original_cell_volume        3429.9(17)
_cod_original_formula_sum        'Ag7.80 O108 Si54'
_cod_database_code               4518284
_shelx_space_group_comment
;
The symmetry employed for this shelxl refinement is uniquely defined
by the following loop, which should always be used as a source of
symmetry information in preference to the above space-group names.
They are only intended as comments.
;
_shelxl_version_number           2014-1
_shelx_res_file
;
TITL levAg275_0m_b.res in R3m
REM Old TITL Integration of levAg275

REM SHELXT solution in R3m
REM R1 0.225,  Rweak 0.010,  Alpha 0.065,  Orientation as input
REM Flack x = -9.990 ( 9.990 ) from Parsons' quotients
REM Formula found by SHELXT:  C15

CELL  0.71073  12.9433  12.9433  23.6410   90.000   90.000  120.000
ZERR    1.000   0.0030   0.0030   0.0050    0.030    0.030    0.030
LATT -3
SYMM -Y, X-Y, Z
SYMM -X+Y, -X, Z
SYMM -Y, -X, Z
SYMM -X+Y, Y, Z
SYMM X, X-Y, Z
SFAC AG O SI
UNIT 7.80 108 54
TEMP 23.000
L.S. 10
BOND $H
LIST 6
TWIN -1 0 0 0 -1 0 0 0 1
FMAP 2
EADP T11 T11B
PLAN 20
acta
WGHT    0.125500   45.222801
BASF   0.06083
FVAR       0.16920   0.84629
T1    3    0.246742    0.243278    0.516616    11.00000    0.09117    0.08395 =
         0.04760    0.01049    0.01603    0.05369
T11   3    0.243322    0.243300    0.639577    21.00000    0.05844
T11B  3    0.411081    0.333958    0.632192   -21.00000    0.05844
T2    3    0.423097    0.333168    0.410264    11.00000    0.05320    0.05600 =
         0.04887    0.00372    0.00078    0.02665
O1    2    0.347676    0.304453    0.468427    11.00000    0.09362
O11   2    0.363161    0.362936    0.358593    11.00000    0.08623
O2    2    0.133297    0.266593    0.501269    10.50000    0.09914
O22   2    0.091146    0.182292    0.636738    20.50000    0.07132
O3    2    0.202569    0.101284    0.527644    10.50000    0.07760
O33   2    0.251480    0.125740    0.653571    10.50000    0.10182
O4    2    0.312385    0.303902    0.578815    11.00000    0.07924
O5    2    0.461983    0.230991    0.404440    10.50000    0.09311
O55   2    0.554255    0.445745    0.432404    10.50000    0.09732
OB1   2    0.554070    0.445930    0.638181   -20.50000   10.05000
rem extraframework
AG1   1    0.000000    0.000000    0.579647     0.05897    0.08497
AG2   1    0.666667    0.333333    0.379726     0.03012    0.07318
AG2B  1    0.666667    0.333333    0.423511     0.02865    0.07144
AG2C  1    0.000000    0.000000    0.515377     0.00714    0.06839
AG4   1    0.496702    0.503298    0.578526     0.07432    0.06832
AG4A  1    0.511851    0.488149    0.545754     0.07739    0.10957
AG5   1    0.351320    0.175660    0.743634     0.05027    0.02790
AG5A  1    0.291719    0.145860    0.753823     0.09695   10.15000
AG6   1    0.666667    0.333333    0.630721     0.00499   10.06000

HKLF 4

REM  levAg275_0m_b.res in R3m
REM R1 =  0.0812 for     813 Fo > 4sig(Fo)  and  0.1092 for all    1130 data
REM     89 parameters refined using      1 restraints

END

WGHT      0.1256     45.1829

REM Highest difference peak  0.589,  deepest hole -0.594,  1-sigma level  0.123
Q1    1   0.6667  0.3333  0.4616  10.16667  0.05    0.59
Q2    1   0.4040  0.2020  0.3878  10.50000  0.05    0.58
Q3    1   0.5674  0.4326  0.3987  10.50000  0.05    0.57
Q4    1   0.2671  0.2609  0.5798  11.00000  0.05    0.52
Q5    1   0.6667  0.3333  0.3510  10.16667  0.05    0.52
Q6    1   0.4099  0.2049  0.7333  10.50000  0.05    0.50
Q7    1   0.1041  0.2082  0.5144  10.50000  0.05    0.49
Q8    1   0.5400  0.4600  0.5312  10.50000  0.05    0.46
Q9    1   0.1474  0.0737  0.5209  10.50000  0.05    0.43
Q10   1   0.4679  0.5321  0.6173  10.50000  0.05    0.42
Q11   1   0.5039  0.2520  0.5247  10.50000  0.05    0.42
Q12   1   0.3406  0.3600  0.4646  11.00000  0.05    0.41
Q13   1   0.5858  0.1717  0.3390  10.50000  0.05    0.41
Q14   1   0.3933  0.3456  0.4795  11.00000  0.05    0.41
Q15   1   0.0000  0.0000  0.7308  10.16667  0.05    0.40
Q16   1   0.2901  0.2603  0.4507  11.00000  0.05    0.40
Q17   1   0.4759  0.2379  0.6986  10.50000  0.05    0.40
Q18   1   0.6667  0.3333  0.4982  10.16667  0.05    0.39
Q19   1   0.1743  0.3486  0.4865  10.50000  0.05    0.38
Q20   1   0.1992  0.0996  0.7824  10.50000  0.05    0.38
;
_shelx_res_checksum              65027
_shelx_hkl_file
;
  -2   1   0 3717.99  338.51
  -2   1   0 3505.82  338.26
  -2   1   0 3748.32  338.48
   2  -1   0 3604.45  338.45
   2  -1   0 3827.92  338.49
  -1   2   0 3555.10  337.73
  -3   3   0 2649.47  249.12
  -3   3   0 2520.00  249.24
   3   0   0 2808.52  249.48
  -3   3   0 2680.11  249.57
   3  -3   0 2702.87  249.74
  -3   0   0 2881.95  249.93
  -3   0   0 2919.11  249.95
   0   3   0 2420.07  248.61
   3  -3   0 2657.03  249.48
  -4   2   0  118.92   13.50
   2   2   0  113.72   12.30
  -4   2   0  129.96   13.98
  -4   2   0  109.69   12.94
   4  -2   0  137.47   14.21
  -2   4   0  102.89   12.15
   4  -2   0  106.55   13.47
  -5   1   0  196.82   22.46
   4  -5   0  231.13   23.29
  -5   1   0  218.60   24.23
  -5   1   0  225.48   24.09
   4  -5   0  243.87   22.86
   1   4   0  242.83   24.16
   1   4   0  220.39   21.45
  -5   1   0  202.30   23.07
   5  -1   0  245.43   24.38
  -4   5   0  246.27   23.51
   5  -1   0  166.96   22.95
   4   1   0  220.77   21.76
   4   1   0  221.68   23.25
   4   1   0  223.65   22.32
  -5   4   0  250.54   23.92
  -5   4   0  224.55   23.17
  -5   4   0  217.35   23.39
   4   1   0  232.74   21.77
  -4  -1   0  210.75   23.14
  -1   5   0  204.52   22.12
   5  -4   0  224.62   23.87
  -4  -1   0  249.92   23.90
  -4  -1   0  194.99   22.81
  -1   5   0  207.59   21.57
   5  -4   0  226.44   24.10
   3   3   0  974.61  108.56
  -6   3   0 1162.95  110.21
   3   3   0 1126.17  110.53
   3   3   0 1273.67  109.30
   3  -6   0 1124.06  107.98
   3  -6   0 1162.83  107.79
  -6   3   0 1194.83  110.64
  -6   3   0 1169.67  109.14
  -3   6   0 1214.39  109.41
   6  -3   0 1214.01  111.30
   6  -3   0 1237.21  111.23
  -3  -3   0 1136.66  109.53
  -3  -3   0 1123.62  108.45
  -6   6   0  154.68   17.48
  -6   6   0  207.38   20.21
   6   0   0  143.71   18.48
   6   0   0  158.86   18.17
  -6   6   0  148.94   17.51
   0  -6   0  177.71   18.10
   6   0   0  149.88   18.66
  -6   0   0  178.32   19.92
  -6   0   0  169.05   19.78
  -6   0   0  155.53   18.10
   6  -6   0  179.72   19.90
   0   6   0  179.49   18.05
   0   6   0  169.37   19.62
   0   6   0  146.61   17.16
   6  -6   0  156.87   19.08
  -7   2   0  488.98   50.77
   5  -7   0  491.28   50.53
  -7   2   0  585.58   53.57
  -7   2   0  516.86   52.57
   5  -7   0  513.06   51.30
   2   5   0  578.05   50.37
   2   5   0  514.05   49.95
   2   5   0  515.08   52.08
  -7   2   0  479.35   51.42
   7  -2   0  524.89   52.29
  -5   7   0  532.36   51.89
   7  -2   0  578.60   53.17
  -2  -5   0  436.45   50.37
  -7   5   0  580.30   50.98
  -7   5   0  466.38   49.53
  -7   5   0  586.35   51.34
   5   2   0  482.31   48.58
   5   2   0  467.29   49.90
   7  -5   0  523.31   51.16
  -2   7   0  484.06   48.13
  -5  -2   0  485.87   49.53
  -5  -2   0  453.01   49.28
  -2   7   0  455.91   48.49
  -5  -2   0  532.68   50.61
   7  -5   0  534.16   51.34
   1   7   0  147.82   20.39
   1   7   0  164.63   17.31
  -8   1   0  163.35   19.10
   7  -8   0  132.40   19.80
  -8   1   0  186.28   22.00
  -8   1   0  121.81   18.67
   7  -8   0  166.24   20.49
   1   7   0  152.57   16.89
  -8   1   0  167.24   22.19
   8  -1   0  157.88   20.93
  -1  -7   0  155.53   18.21
  -7   8   0  179.63   20.66
  -8   4   0 3759.99  350.53
   4  -8   0 3775.71  347.70
  -8   4   0 3521.44  350.49
   4  -8   0 3710.94  348.30
   4   4   0 3554.31  348.37
  -8   4   0 4229.20  351.72
   4   4   0 4037.73  349.50
  -8   4   0 3952.72  349.10
   4   4   0 3521.02  350.19
  -4   8   0 3672.43  349.37
  -4  -4   0 3689.29  348.44
  -4  -4   0 3744.02  348.90
  -4   8   0 3562.17  349.26
   8  -4   0 3947.31  351.75
  -4  -4   0 3688.51  349.52
   8  -4   0 3737.66  351.14
  -8   7   0  108.59   17.74
  -8   7   0  136.79   18.05
   1  -8   0  170.82   17.43
  -8   7   0  178.21   21.63
   7   1   0  139.20   19.75
   8  -7   0  160.10   21.41
  -1   8   0  166.95   17.15
  -7  -1   0  181.14   21.51
   8  -7   0  166.09   21.93
  -7  -1   0  175.67   20.50
  -1   8   0  174.92   16.47
  -7  -1   0  114.41   17.99
  -1   8   0  142.68   17.29
   6  -9   0   48.12   10.92
  -9   3   0   79.67   11.27
   6  -9   0   56.60   10.37
  -9   3   0   69.86   12.42
   3   6   0   52.13    8.82
  -9   3   0   61.72   13.26
  -9   3   0   70.13   13.77
   3   6   0   39.72    9.89
   3   6   0   54.34   11.07
   9  -3   0   53.49   13.10
   9  -3   0   60.07   12.22
  -3  -6   0   51.18   10.04
  -6   9   0   54.43   11.50
   6   3   0   62.59   11.54
  -9   6   0   41.51   10.45
  -9   6   0   53.44   11.94
  -9   6   0   59.82    9.65
  -9   6   0   67.75   12.16
  -6  -3   0   35.79   10.34
   9  -6   0   54.24   13.38
  -6  -3   0   62.54   10.54
  -6  -3   0   41.30   11.89
  -3   9   0   67.61   10.41
   9  -6   0   55.88   13.15
  -3   9   0   60.67    9.96
   9   0   0  513.23   50.38
  -9   9   0  479.31   52.53
  -9   9   0  446.56   47.40
   0  -9   0  567.30   50.22
   9   0   0  477.77   51.49
   0   9   0  560.09   48.48
  -9   0   0  492.19   51.03
   0   9   0  488.17   48.33
  -9   0   0  496.57   53.52
   9  -9   0  404.84   52.16
   0   9   0  488.50   48.60
 -10   2   0   12.96   10.77
   2   8   0    8.93    7.50
 -10   2   0   -1.86    9.75
   2   8   0   13.50    5.69
 -10   2   0   11.48    7.24
  -2  -8   0    7.70    7.07
  -8  10   0   23.19    9.76
 -10   5   0    7.59    9.35
   5 -10   0   19.98    6.21
   5   5   0   10.99    6.83
 -10   5   0   32.68   10.74
 -10   5   0   17.27    7.72
 -10   5   0    5.90   13.49
  -5  10   0   19.38    8.21
  10  -5   0   23.58   11.55
  -5  -5   0    9.40    7.15
  -5  10   0   16.90    6.56
  -5  -5   0   24.86    7.69
  10  -5   0   20.67    9.68
 -10   8   0    5.95   10.00
   8   2   0    5.90    7.10
  10  -8   0    6.14   10.10
  10  -8   0    6.94   10.87
  -8  -2   0    9.30    6.87
  -2  10   0   -2.52    5.63
  -2  10   0    0.98    4.73
   1  10   0   18.40    6.79
 -11   1   0   14.28    8.92
  -1 -10   0   23.96    8.50
 -10  11   0   13.59   10.85
  11  -1   0   34.51   10.85
 -11   4   0    7.40    7.29
 -11   4   0   11.76   11.03
   4   7   0    4.81    6.47
  -4  -7   0    3.51    6.72
  -7  11   0    3.41    6.59
  -7  11   0    4.32    7.63
   4 -11   0    4.44    6.49
   7   4   0   13.62    7.68
 -11   7   0    6.11    6.37
 -11   7   0   14.12    9.62
  11  -7   0   -7.04   11.53
  -4  11   0   10.66    6.88
  -7  -4   0   -0.28    6.18
  -4  11   0    2.88    5.42
 -11  10   0   18.11   11.58
  10   1   0   10.82    9.46
  -1  11   0   12.53    6.25
  -1  11   0   19.48    7.14
 -10  -1   0    1.24    7.44
 -12   3   0   69.52   13.68
   3   9   0   81.05   15.30
  -3  -9   0   50.18   12.65
  -9  12   0   75.37   16.25
  -9  12   0   79.31   15.78
   6   6   0    2.48    7.26
 -12   6   0   -8.53    6.96
  -6  12   0   -9.19    7.10
  -6  12   0    4.30    6.37
  -6  -6   0   18.33    8.44
   9   3   0   69.52   15.89
 -12   9   0   62.21   16.76
  -3  12   0   78.69   13.09
  -9  -3   0   64.03   14.17
  -3  12   0   77.71   13.71
  12   0   0  255.63   33.03
 -12  12   0  278.96   36.39
   0  12   0  235.91   27.49
 -12   0   0  199.90   30.17
   2  11   0    5.41    7.08
 -13   2   0   11.57    9.53
  -2 -11   0   12.27    9.09
  13  -2   0    0.36    8.78
 -11  13   0   22.11   14.54
   5   8   0   75.39   16.02
 -13   5   0   76.43   15.72
  -8  13   0   84.06   17.31
  -5  -8   0  112.28   17.22
   8   5   0   73.16   15.16
  -8  -5   0   78.05   15.16
  -5  13   0   51.34   13.12
  11   2   0    1.18    9.77
 -13  11   0    4.25   14.16
  -2  13   0    0.82    8.73
 -11  -2   0   16.24   10.58
 -14   7   0   18.74   10.21
   7   7   0   13.41    8.78
  -7  14   0   -2.25    8.79
  -7  -7   0    5.16    9.02
   0   1  -1  361.81   34.63
  -1   0  -1  370.83   34.76
   1  -1  -1  358.32   34.63
  -1   0  -1  391.85   34.76
   0   1  -1  413.03   34.91
   0  -1   1  364.20   34.59
  -1   1   1  359.85   34.70
   0  -1   1  377.39   34.83
  -1   1   1  337.34   34.51
   1   0   1  374.26   34.69
   1   0   1  391.66   34.70
   0  -1   1  353.36   34.61
  -2  -1  -1   94.03   10.41
   3  -2  -1   87.39   11.49
   3  -2  -1  103.36   11.81
  -1   3  -1  110.86   10.64
  -1   3  -1  114.88   11.16
  -2  -1  -1  106.33   10.44
  -3   2   1   94.65   11.35
  -3   2   1  108.54   11.69
  -3   2   1  109.54   11.58
  -2   2  -1  203.83   19.64
  -2   2  -1  190.71   19.64
   2   0  -1  171.85   19.53
   2   0  -1  203.30   19.85
  -2   2  -1  205.47   19.48
  -2   0   1  192.70   19.79
   2  -2   1  203.95   19.56
  -2   0   1  204.02   19.95
   2  -2   1  207.92   19.85
  -3  -2  -1   17.49    4.56
  -2   5  -1   13.08    3.81
  -2   5  -1   17.17    4.00
   5  -3  -1   20.87    6.13
   5  -3  -1   17.97    6.12
  -3  -2  -1   13.18    3.49
  -3  -2  -1   14.22    3.85
   3   2   1   12.95    4.66
  -5   3   1   23.88    5.80
   3   2   1   12.75    3.59
   3   2   1   13.01    3.93
  -5   3   1   22.37    5.66
  -5   3   1   27.42    6.12
   1   2  -1   99.59   10.77
  -3   1  -1  121.55   12.30
  -3   1  -1  116.50   12.15
  -3   1  -1  115.05   11.68
  -2   3   1   97.35   11.04
   3  -1   1  113.02   12.01
  -1  -2   1   87.35   10.83
   3  -1   1  129.44   12.42
   4  -1  -1   47.36    7.98
  -3   4  -1   41.40    5.45
  -3   4  -1   37.32    6.69
  -3   4  -1   54.25    5.42
   4  -1  -1   34.51    6.96
  -4   1   1   35.08    7.68
   3  -4   1   51.56    6.67
  -4   1   1   39.44    6.85
   3  -4   1   43.51    6.78
  -4   1   1   52.64    8.14
   7  -4  -1   35.12    8.84
  -3   7  -1   21.10    6.07
  -4  -3  -1   39.74    7.27
   7  -4  -1   22.89    8.87
  -3   7  -1   36.48    6.70
  -4  -3  -1   32.05    7.19
  -4  -3  -1   36.89    6.28
  -7   4   1   37.46    8.74
   3  -7   1   27.46    5.00
   4   3   1   45.94    8.26
  -7   4   1   28.48    7.81
  -7   4   1   26.01    7.49
   3  -7   1   25.97    5.45
   4   3   1   38.94    6.51
   4   3   1   20.84    6.12
  -7   4   1   31.33    6.51
   0   4  -1  210.27   22.26
   4  -4  -1  222.18   23.20
  -4   0  -1  260.77   24.14
  -4   0  -1  242.79   23.80
   0   4  -1  226.29   21.67
   4  -4  -1  243.67   23.66
   0  -4   1  207.80   21.60
  -4   4   1  199.18   22.28
   4   0   1  242.79   23.24
   4   0   1  239.92   22.96
  -4   4   1  219.92   23.38
  -4   4   1  194.13   22.16
  -4   3  -1   52.90    7.17
   3   1  -1   33.83    5.70
   3   1  -1   28.66    5.36
  -4   3  -1   45.41    7.47
  -4   3  -1   44.41    7.14
  -3  -1   1   41.10    7.02
  -3  -1   1   41.26    6.56
   4  -3   1   55.82    7.91
   4  -3   1   55.05    7.92
  -4   6  -1   42.59    7.84
  -2  -4  -1   32.49    6.66
   6  -2  -1   33.68    8.05
   6  -2  -1   38.40    8.87
   2   4   1   37.77    7.76
   2   4   1   33.23    5.61
  -6   2   1   39.34    8.53
  -6   2   1   45.70    8.95
   2   4   1   25.06    5.32
  -6   2   1   31.66    6.80
  -6   2   1   29.97    7.27
   4  -6   1   34.40    6.01
   4  -6   1   36.33    7.08
  -5  -4  -1   19.34    7.63
   9  -5  -1   15.90   10.23
  -5  -4  -1   20.09    8.34
  -4   9  -1   24.53    7.43
  -4   9  -1   14.93    6.03
   9  -5  -1   13.56    8.65
  -5  -4  -1   18.65    6.79
   4  -9   1   13.46    6.11
  -9   5   1   18.99    9.25
   5   4   1   32.35    8.44
  -9   5   1    2.54    8.46
   4  -9   1   13.25    5.16
  -9   5   1    4.86    5.99
  -9   5   1    8.55    7.44
   5   4   1   22.59    6.35
  -1   6  -1   32.83    6.03
   6  -5  -1   36.06    8.62
  -1   6  -1   41.15    6.91
   6  -5  -1   41.94    8.81
  -5  -1  -1   41.62    8.56
  -5  -1  -1   44.33    8.23
  -5  -1  -1   38.42    7.61
  -6   5   1   38.11    7.31
   5   1   1   47.45    7.02
   5   1   1   51.29    8.56
  -6   5   1   46.37    8.79
   2   3  -1   16.96    4.18
  -5   2  -1   21.62    6.32
   3  -5  -1   17.24    3.25
   2   3  -1   20.20    5.36
  -5   2  -1   17.15    5.97
   3  -5  -1   20.11    3.00
  -5   2  -1   21.38    5.34
  -2  -3   1   12.96    3.24
  -3   5   1   23.26    4.81
   5  -2   1   12.30    5.87
   5  -2   1   17.58    5.52
  -2  -3   1   18.38    3.58
   5   0  -1   57.77    8.84
  -5   5  -1   47.38    8.30
  -5   5  -1   49.89    9.28
  -5   5  -1   52.39    8.03
   5   0  -1   73.30    9.43
  -5   0   1   78.07   10.80
  -5   0   1   55.86    9.57
   5  -5   1   51.41    9.43
   5  -5   1   67.78    9.76
  -5   0   1   49.11    8.17
   0   5   1   58.58    6.96
   0   5   1   66.67    9.99
  -5   0   1   51.07    8.18
   8  -3  -1    5.88    7.99
   8  -3  -1   -0.27    6.63
  -5   8  -1    1.67    4.53
  -3  -5  -1    2.93    5.00
  -5   8  -1   14.35    6.76
  -8   3   1    2.81    7.01
   5  -8   1    0.18    4.28
   3   5   1    4.04    3.97
   3   5   1    3.05    5.33
  -8   3   1    8.46    6.38
   5  -8   1    5.17    5.59
   3   5   1   -1.78    4.66
  -8   3   1    7.05    5.29
  -8   3   1    3.66    6.82
  -5  11  -1   -2.05    6.60
  -6  -5  -1   16.35    7.58
  -5  11  -1    2.46    6.07
  11  -6  -1    5.44   12.14
   6   5   1    2.49    6.21
 -11   6   1    5.81    6.71
 -11   6   1    4.76    8.95
   8  -6  -1   18.89    8.66
  -2   8  -1   11.16    4.88
   8  -6  -1    8.65    6.75
  -6  -2  -1    2.98    5.01
  -6  -2  -1   17.01    6.58
  -2   8  -1   10.49    4.80
  -6  -2  -1    2.39    6.90
  -8   6   1    2.93    5.30
   6   2   1    9.73    6.27
  -8   6   1    8.10    6.14
  -8   6   1   10.27    7.78
  -8   6   1    3.64    4.90
   6   2   1    8.71    4.22
   5  -6  -1   36.37    7.32
   1   5  -1   47.27    8.73
   1   5  -1   47.33    6.22
   5  -6  -1   30.05    7.35
  -6   1  -1   33.62    8.51
  -6   1  -1   22.78    6.74
  -6   1  -1   48.43    7.56
   1   5  -1   43.35    6.18
  -6   1  -1   49.10    9.48
  -1  -5   1   44.98    7.20
   6  -1   1   33.45    7.62
  -1  -5   1   40.54    5.27
  -5   6   1   36.81    7.90
   6  -1   1   38.32    8.56
  -6   4  -1   31.42    7.52
  -6   4  -1   37.34    8.04
   4   2  -1   40.86    7.56
  -6   4  -1   33.61    7.32
  -2   6   1   29.19    5.38
  -2   6   1   26.77    4.98
   6  -4   1   35.88    8.59
  -4  -2   1   27.66    7.37
  -4  -2   1   28.39    6.40
  -4  -2   1   37.35    7.13
   6  -4   1   49.59    9.25
   7  -1  -1   43.85    8.22
  -1  -6  -1   14.37    5.65
   7  -1  -1   30.66    8.93
  -6   7  -1   15.98    7.10
   1   6   1   23.22    4.35
  -7   1   1   28.17    6.78
   1   6   1   35.07    8.34
   6  -7   1   18.19    7.18
  -7   1   1   32.67    9.32
   6  -7   1   16.63    6.67
  -7   1   1   15.40    6.20
  -7   1   1   33.71    9.14
   1   6   1   20.28    4.95
  10  -4  -1    3.81   10.04
  -4  -6  -1   11.16    5.40
  -6  10  -1    9.02    6.26
  -4  -6  -1    7.36    6.46
  -6  10  -1    6.16    7.34
  -4  -6  -1    4.19    8.48
   4   6   1    0.63    4.65
 -10   4   1   11.07    7.58
 -10   4   1   12.51    9.35
   4   6   1   10.12    6.79
 -10   4   1    8.43    8.87
 -10   4   1    8.71    8.14
   6 -10   1   10.43   10.44
  -6  13  -1   -4.82    9.03
  -7  -6  -1    7.27    7.91
 -13   7   1   11.07    9.07
   7   6   1   -5.45    8.00
  -7  -3  -1   16.04    7.12
  -3  10  -1   18.64    7.37
  10  -7  -1    7.89   11.09
  10  -7  -1    4.03    9.61
  -3  10  -1    7.35    5.35
 -10   7   1    5.05    8.86
   7   3   1    7.55    7.46
 -10   7   1   11.31    6.39
   0   7  -1   32.11    5.61
   7  -7  -1   28.58    8.97
   0   7  -1   38.82    6.28
  -7   0  -1   24.86    7.19
   7  -7  -1   31.23    8.98
   0   7  -1   26.24    6.25
   0   7  -1   42.19    6.64
  -7   0  -1   32.12    9.36
  -7   0  -1   33.93    9.84
   0  -7   1   27.62    6.70
   7   0   1   43.54    7.54
   7   0   1   28.96    8.03
   7   0   1   36.49    8.06
  -7   7   1   33.67    6.20
  -7   7   1   28.72    8.55
   4  -7  -1   28.96    4.96
   3   4  -1   48.23    7.92
  -7   3  -1   37.24    7.82
   3   4  -1   46.08    8.44
  -7   3  -1   24.80    7.77
  -7   3  -1   39.96    8.94
  -7   3  -1   25.98    6.23
   4  -7  -1   19.34    5.27
   7  -3   1   45.70   10.11
  -3  -4   1   34.42    6.36
   7  -3   1   34.63    8.54
  -4   7   1   22.00    6.81
  -3  -4   1   37.46    6.99
  -3  -4   1   29.43    5.69
   6   1  -1   19.49    5.46
   6   1  -1   27.63    6.01
  -7   6  -1   10.49    5.53
  -7   6  -1   23.39    6.29
   6   1  -1   22.60    6.67
  -7   6  -1   18.30    7.24
  -1   7   1   25.89    4.41
  -6  -1   1   18.36    7.03
   7  -6   1   27.62    8.39
  -1   7   1   28.94    5.07
  -6  -1   1    9.18    5.01
  -6  -1   1   24.73    8.33
   7  -6   1   15.95    7.85
  -7   9  -1    5.20    5.90
  -7   9  -1    7.62    8.24
   9  -2  -1   10.31   10.23
   9  -2  -1    0.45    8.89
  -2  -7  -1    4.36    6.19
  -9   2   1   11.85    9.01
  -9   2   1   11.83    8.96
   2   7   1    9.64    5.30
   2   7   1   15.75    5.60
   7  -9   1    5.74    6.84
   7  -9   1    8.04    8.06
  -9   2   1   14.13    6.69
   2   7   1   14.29    7.35
  -7  12  -1    9.34    9.09
  -7  12  -1    4.86    7.35
  -5  -7  -1    7.27    7.93
   5   7   1   12.00    7.76
 -12   5   1   16.60    8.55
  -4  12  -1    8.86    6.79
  -4  12  -1   -0.45    7.82
  -8  -4  -1    9.98    8.96
 -12   8   1    8.30    8.89
   8   4   1   17.26    9.42
 -12   8   1    8.25   11.39
  -8  -1  -1   -2.61    9.53
  -1   9  -1    4.15    5.39
  -8  -1  -1   -6.91    4.88
  -1   9  -1   -8.18    5.30
  -1   9  -1   -5.08    4.29
   9  -8  -1    0.44    9.14
   9  -8  -1  -11.92    8.05
  -8  -1  -1    0.87    8.46
  -9   8   1   -0.58    6.05
  -9   8   1   -9.48    8.30
  -9   8   1   -0.05    5.79
   8   1   1    1.64    6.22
   1  -9   1    3.33    5.37
   2   6  -1    9.73    5.70
  -8   2  -1    8.17    6.12
   6  -8  -1    9.01    5.62
  -8   2  -1   14.57    7.66
  -8   2  -1   15.81    8.17
  -8   2  -1    5.65    4.65
   2   6  -1   10.90    5.30
   6  -8  -1    9.98    6.55
   8  -2   1   19.55    8.77
   8  -2   1    4.29    6.17
  -6   8   1    0.22    6.24
  -2  -6   1    9.38    5.20
  -8   5  -1    8.82    6.38
  -8   5  -1    1.35    4.19
   5   3  -1   -4.51    4.62
  -8   5  -1    1.33    6.41
  -8   5  -1   -5.18    5.86
   8  -5   1    3.21    6.29
  -3   8   1    3.84    3.91
  -5  -3   1   -4.89    6.63
   8  -5   1    1.55    7.23
  -5  -3   1    2.68    4.46
  -5  -3   1    1.94    5.34
  -3   8   1    7.11    4.49
  -8   8  -1   49.27    9.40
   8   0  -1   60.79   11.38
  -8   8  -1   36.79   11.95
  -8   8  -1   37.50    8.46
   8   0  -1   72.55   11.36
   8   0  -1   53.71   11.34
   0  -8  -1   63.37   10.46
  -8   0   1   72.33   14.18
   8  -8   1   56.62   13.40
   0   8   1   63.51    9.17
   0   8   1   67.78    8.24
   8  -8   1   43.47   12.08
  -8   0   1   48.95   11.14
   0   8   1   63.75    8.39
   0   8   1   59.79    8.78
  -8   0   1   67.22   14.48
  -8  11  -1    0.34    8.10
  -8  11  -1   -5.10    6.46
  -3  -8  -1    0.68    7.21
 -11   3   1    1.64   10.27
   3   8   1   -4.05    6.19
 -11   3   1   -5.50    6.00
   3   8   1   -0.08    5.27
  -2  11  -1    9.20    5.90
  -2  11  -1   10.94    6.62
  -9  -2  -1   14.84    7.60
  11  -9  -1   13.12   12.24
   9   2   1   12.29    8.93
 -11   9   1   12.25   11.86
   8  -9  -1    5.34    8.22
  -9   1  -1    2.83    6.21
   1   8  -1    0.88    5.06
  -9   1  -1    3.07    9.13
   1   8  -1    1.14    4.93
   8  -9  -1    0.49    8.46
   1   8  -1   -3.13    5.62
  -9   1  -1   -1.56    9.47
  -1  -8   1    9.25    6.03
   9  -1   1   -1.57    6.31
  -8   9   1    2.53    8.37
   4   5  -1   43.62   12.00
  -9   4  -1   13.85    9.16
   5  -9  -1   11.92    6.40
  -9   4  -1   15.49    8.30
  -9   4  -1   19.30    7.23
   5  -9  -1   22.53    6.05
  -9   4  -1   11.44    8.50
   4   5  -1    9.03    6.34
   9  -4   1   24.70   10.45
  -4  -5   1   11.63    6.76
   9  -4   1   30.26    8.98
  -5   9   1    6.58    6.55
  -4  -5   1   32.71    8.69
  -4  -5   1   23.02    7.18
  -9   7  -1    9.55    7.32
  -9   7  -1   10.08    5.96
  -9   7  -1   13.89    8.51
   7   2  -1   -0.04    5.93
  -9   7  -1    6.03    7.29
   2  -9  -1   10.44    5.16
  -2   9   1    3.23    4.14
  -7  -2   1    6.93    7.70
  -2   9   1   13.48    5.33
  -7  -2   1    4.63    9.41
  -2   9   1    2.45    3.80
  -7  -2   1    8.90    6.25
   9  -7   1   -3.16    8.70
   9  -7   1   10.55    8.65
  -9  10  -1    2.11    9.25
  -1  -9  -1    7.93    7.58
  10  -1  -1    0.63    6.76
 -10   1   1   -0.69   10.54
   1   9   1    9.54    5.64
 -10   1   1   -6.21    6.02
   1   9   1    2.66    4.55
  -4  -9  -1    3.15    8.17
  -9  13  -1   11.33   11.08
 -13   4   1   17.07    9.81
   4   9   1    0.63    8.07
 -10  -3  -1    3.11    7.51
  -3  13  -1   -7.33    7.75
 -13  10   1    3.37   12.33
  10   3   1    7.09    9.52
 -10   0  -1    7.23    7.31
   0  10  -1    2.82    5.88
 -10  10   1    9.78   10.24
   0 -10   1    0.61    6.47
  10   0   1   16.95    9.07
 -10   3  -1   15.65    6.97
 -10   3  -1   11.30   10.26
   3   7  -1   20.98    7.92
 -10   3  -1    3.79    9.52
  -3  -7   1   -0.88    6.16
  -7  10   1   10.62    8.66
  -3  -7   1   10.28    5.83
 -10   6  -1   20.32    9.83
 -10   6  -1   17.36    6.89
   6   4  -1    9.63    6.86
 -10   6  -1    8.39    8.15
  10  -6   1   -7.63    8.59
  -4  10   1    7.88    5.06
  -4  10   1   16.34    7.04
  -6  -4   1   12.25    6.94
  10  -6   1   12.66   11.22
   9   1  -1    6.61    7.99
 -10   9  -1   12.03   10.13
   1 -10  -1    6.76    6.39
  10  -9   1   -0.42    9.54
  -1  10   1    7.50    5.08
  -9  -1   1    0.78    5.73
  -1  10   1    5.31    5.09
  -1  10   1    0.70    4.95
  12  -2  -1   10.41    8.88
 -10  12  -1    2.11    9.49
  -2 -10  -1    1.08    8.22
 -10  12  -1   -6.11   10.55
   2  10   1   -2.18    6.65
   2  10   1    3.34    5.43
 -12   2   1    3.07    7.29
  -1  12  -1   -5.58    6.65
 -11  -1  -1   -3.05    6.88
 -12  11   1  -10.88   11.38
  11   1   1    2.60    8.01
   2   9  -1    3.39    5.59
   2   9  -1    4.72    7.32
 -11   2  -1   17.16    8.35
 -11   2  -1   -3.02   10.93
  -2  -9   1    3.78    6.28
  -9  11   1    4.92    9.59
  11  -2   1   18.88    8.33
 -11   5  -1    8.45    7.02
   5   6  -1    4.40    6.54
 -11   5  -1   17.51   11.18
  -6  11   1    4.90    7.44
  -6  11   1    1.09    6.15
  -5  -6   1   10.31    6.77
 -11   8  -1    0.33   10.57
   8   3  -1   -0.82    7.32
  -8  -3   1    7.85    6.83
  11  -8   1    3.04   11.81
  -3  11   1    5.38    6.08
  11  -8   1   12.08   13.83
  -3  11   1    2.94    5.31
 -11  11  -1    0.10    8.41
 -11  11  -1   -2.03   10.42
  11   0  -1    5.74    8.66
   0  11   1    1.93    6.05
 -11   0   1    6.46    8.08
 -12   1  -1    3.16    8.84
   1  11  -1   -1.23    6.53
 -11  12   1   -9.30    9.87
  12  -1   1    1.60    8.43
 -12   4  -1   10.69   12.26
   4   8  -1   17.23    8.99
 -12   4  -1   -1.64    6.96
  -8  12   1    1.09    9.16
  -8  12   1    8.81    8.20
  -4  -8   1   16.97    8.37
 -12   7  -1    1.39    7.22
 -12   7  -1    3.12   12.06
   7   5  -1    2.30    7.76
  -5  12   1    9.43    6.24
  -5  12   1    6.39    7.41
  -7  -5   1    1.14    6.47
  10   2  -1    5.45    9.37
 -12  10  -1    5.40   12.48
  -2  12   1    2.63    6.39
 -10  -2   1   -2.35    7.44
   3  10  -1   -0.49    6.84
 -13   3  -1    7.14    8.58
   3  10  -1   -7.72    6.82
  -3 -10   1    9.55    9.15
 -10  13   1   11.57   12.05
  13  -3   1   -8.25    7.95
   6   7  -1   -2.76    6.64
 -13   6  -1    0.37    7.56
  -7  13   1    2.10    8.12
  -6  -7   1    1.79    8.41
   9   4  -1   -0.17    7.99
 -13   9  -1   13.80   12.53
  -9  -4   1   -0.69    8.01
  -4  13   1    1.97    7.35
  -1   1  -2 4579.70  439.20
  -1   1  -2 4705.99  439.01
   1   0  -2 5422.01  439.42
  -1   1  -2 4746.67  439.20
   1   0  -2 4652.22  439.11
  -1   1  -2 4676.07  439.00
   1  -1   2 4437.65  439.13
   1  -1   2 4654.43  438.97
  -1   0   2 5430.10  439.37
   1  -1   2 4034.09  439.03
  -1   0   2 4985.03  438.90
  -2   0  -2  172.92   17.84
  -2   0  -2  166.10   17.85
   2  -2  -2  198.38   17.78
   0   2  -2  189.94   18.06
  -2   0  -2  194.58   18.02
   0   2  -2  199.41   17.71
   2   0   2  160.31   17.52
   2   0   2  172.77   17.63
  -2   2   2  171.58   17.27
   0  -2   2  169.95   17.65
   0  -2   2  189.84   17.91
  -2   3  -2 1591.50  156.87
  -2   3  -2 1680.14  156.75
   3  -1  -2 1762.09  157.32
   3  -1  -2 1899.29  157.67
  -2   3  -2 1579.61  156.06
  -2   3  -2 1397.11  156.16
  -3   1   2 1862.83  157.39
   2  -3   2 1542.53  156.33
  -3   1   2 1906.57  157.05
   2  -3   2 1602.97  156.65
  -3   1   2 1776.23  157.40
  -3  -1  -2  574.31   59.92
   4  -3  -2  687.88   61.25
  -1   4  -2  676.85   60.67
  -3  -1  -2  614.88   60.01
  -1   4  -2  638.33   59.97
   4  -3  -2  621.00   60.94
  -4   3   2  713.47   61.21
  -4   3   2  643.52   60.74
   1  -4   2  635.02   60.11
  -4   3   2  612.53   60.55
   1  -4   2  593.73   59.45
  -3   2  -2 1547.89  151.13
   2   1  -2 1575.08  150.39
  -3   2  -2 1646.14  150.76
   2   1  -2 1653.20  150.42
  -3   2  -2 1617.69  150.85
  -2  -1   2 1634.91  150.87
  -2  -1   2 1563.53  150.57
   3  -2   2 1651.19  151.18
   3  -2   2 1659.51  151.05
  -2  -3  -2  123.47   15.57
  -3   5  -2  181.84   16.78
  -3   5  -2  174.50   16.77
   5  -2  -2  147.74   17.33
   5  -2  -2  142.21   17.08
   2   3   2  127.82   16.13
  -5   2   2  135.50   16.42
   2   3   2  111.81   14.79
   3  -5   2  170.85   15.53
   2   3   2  136.91   14.76
   3  -5   2  162.62   16.18
  -5   2   2  141.02   16.98
  -5   2   2  138.58   16.85
   6  -4  -2  549.33   55.27
  -2   6  -2  556.52   54.16
  -4  -2  -2  532.11   53.55
  -4  -2  -2  554.53   54.15
   6  -4  -2  647.87   56.05
  -4  -2  -2  511.68   53.19
  -2   6  -2  564.85   53.63
  -6   4   2  624.94   55.21
  -6   4   2  589.07   54.96
   4   2   2  499.64   53.12
   4   2   2  546.87   54.58
  -6   4   2  578.29   54.70
   2  -6   2  519.15   52.69
  -4   1  -2  634.68   58.69
   3  -4  -2  626.30   57.62
  -4   1  -2  713.81   59.51
  -4   1  -2  642.66   59.42
   4  -1   2  654.87   59.18
  -1  -3   2  533.84   57.91
   4  -1   2  671.04   59.32
  -1  -3   2  550.71   57.62
  -3   4   2  635.08   58.36
  -1  -3   2  548.53   57.59
   4   0  -2 9420.06  845.49
  -4   4  -2 9726.74  845.35
  -4   4  -2 8698.30  844.86
  -4   4  -2 8425.66  844.45
   4   0  -2 8771.59  844.87
  -4   0   2 9920.99  845.76
   4  -4   2 9999.00  845.27
  -4   0   2 8997.14  844.60
  -4   0   2 9184.36  845.38
   4  -4   2 9339.19  845.40
  -4   0   2 8126.72  844.65
  -4   7  -2  549.07   51.83
   7  -3  -2  485.45   52.69
  -4   7  -2  562.85   51.89
   7  -3  -2  524.07   52.60
  -3  -4  -2  519.57   51.09
  -7   3   2  543.66   52.89
  -7   3   2  513.80   50.92
   4  -7   2  512.83   50.32
  -7   3   2  498.20   51.87
   3   4   2  466.28   50.03
   3   4   2  561.41   50.21
   4  -7   2  510.16   51.12
  -7   3   2  463.63   52.03
   3   4   2  536.63   52.02
  -3   8  -2  147.72   16.78
  -5  -3  -2  121.67   15.81
   8  -5  -2  151.09   20.40
  -5  -3  -2  112.61   16.69
   8  -5  -2  136.99   19.11
  -3   8  -2  141.30   16.51
  -5  -3  -2  118.82   16.63
   3  -8   2  113.07   15.14
  -8   5   2  151.75   17.88
  -8   5   2  161.26   16.38
  -8   5   2  157.63   19.00
   3  -8   2  128.11   15.09
   5   3   2  120.65   15.22
  -8   5   2  150.08   17.99
   5   3   2  116.35   17.43
   5  -5  -2  194.39   20.46
   5  -5  -2  232.82   21.02
   0   5  -2  168.73   18.91
   0   5  -2  193.47   19.06
  -5   0  -2  182.21   20.69
   0   5  -2  160.68   19.40
  -5   0  -2  185.00   19.97
  -5   0  -2  175.48   20.60
   0   5  -2  190.17   20.78
  -5   5   2  210.04   18.93
   5   0   2  154.84   18.85
   0  -5   2  169.61   18.73
  -5   5   2  238.52   21.19
   5   0   2  166.43   19.23
   5   0   2  200.56   20.02
  -5   3  -2  187.44   18.77
  -5   3  -2  181.90   18.14
   3   2  -2  146.01   17.45
  -5   3  -2  184.30   17.91
   5  -3   2  165.56   18.27
  -3  -2   2  114.46   16.86
   5  -3   2  188.86   18.68
  -3  -2   2  135.67   16.89
  -2   5   2  146.34   15.53
  -5   6  -2   83.56   10.87
   6  -1  -2  108.22   14.93
  -1  -5  -2  121.87   12.35
  -5   6  -2   82.92   13.09
  -5   6  -2   81.58   10.73
   6  -1  -2   94.75   13.52
   5  -6   2   84.57   12.52
  -6   1   2   89.27   13.96
   1   5   2  114.68   11.21
  -6   1   2  103.72   14.18
  -6   1   2   90.28   12.62
  -6   1   2  102.52   12.87
   1   5   2  115.05   14.13
   5  -6   2   74.34   12.88
  -5   9  -2  268.92   29.70
  -5   9  -2  292.85   29.60
   9  -4  -2  254.65   31.31
  -4  -5  -2  272.23   28.84
   9  -4  -2  260.43   30.81
   5  -9   2  251.68   29.05
   5  -9   2  242.32   27.81
   4   5   2  246.91   29.07
   4   5   2  279.29   28.64
  -9   4   2  264.30   30.61
  -9   4   2  234.15   28.00
  -9   4   2  259.28   30.48
  -9   4   2  255.85   29.85
   4   5   2  260.57   27.50
  -4  10  -2   28.76    7.86
  10  -6  -2   20.17   10.55
  -6  -4  -2   14.23    7.63
  -4  10  -2   13.94    7.93
  10  -6  -2    6.96   10.03
  -6  -4  -2   16.91    7.68
 -10   6   2   25.25    7.95
   6   4   2   24.34    6.99
 -10   6   2   25.15   10.10
   4 -10   2   25.02    6.61
 -10   6   2   22.66   10.26
   6   4   2   24.68    8.69
   7  -6  -2   21.75    7.84
  -6  -1  -2   33.36    8.07
  -6  -1  -2   11.46    7.48
   7  -6  -2   26.58    8.95
  -1   7  -2   44.27    7.58
  -6  -1  -2   20.93    6.45
  -1   7  -2   48.69    7.29
  -7   6   2   26.10    8.30
  -7   6   2   35.87    6.79
   6   1   2   33.99    6.49
   6   1   2   21.10    7.17
   4  -6  -2  560.02   52.89
  -6   2  -2  577.43   53.94
  -6   2  -2  568.20   55.45
   4  -6  -2  507.23   52.97
   2   4  -2  610.90   55.33
  -6   2  -2  561.42   54.59
   2   4  -2  598.21   53.99
  -6   2  -2  587.09   55.80
   6  -2   2  583.45   53.38
  -2  -4   2  545.54   53.24
   6  -2   2  574.62   55.25
  -2  -4   2  494.90   53.12
   6  -2   2  561.80   55.44
  -2  -4   2  518.20   53.24
  -2  -4   2  586.34   53.90
  -4   6   2  533.18   54.00
  -6   5  -2   97.98   13.77
  -6   5  -2   79.66   12.96
   5   1  -2  111.03   12.69
  -6   5  -2   76.80   12.20
   5   1  -2  130.60   12.33
   5   1  -2  144.95   13.98
  -1   6   2   74.28   10.23
  -5  -1   2  135.81   14.91
   6  -5   2   83.76   13.73
  -5  -1   2  101.08   12.80
   6  -5   2   88.93   13.74
  -5  -1   2  105.54   13.91
  -6   8  -2   62.82   10.82
  -6   8  -2   57.25   11.00
   8  -2  -2   51.07   12.24
  -2  -6  -2   59.98    9.49
   8  -2  -2   34.53    9.73
   2   6   2   52.03    7.81
  -8   2   2   41.83   11.16
   2   6   2   48.84    7.99
   6  -8   2   39.66   10.07
   2   6   2   43.75    9.68
  -8   2   2   48.19    9.78
  -8   2   2   34.67   10.46
  -8   2   2   56.69    9.56
   6  -8   2   55.85    9.97
  -6  11  -2   49.88   13.11
  11  -5  -2   59.73   16.48
  -5  -6  -2   75.24   13.12
  -6  11  -2   71.09   13.05
 -11   5   2   62.68   12.00
 -11   5   2   56.23   15.33
   5   6   2   48.73   12.29
 -11   5   2   84.99   15.73
   5   6   2   74.37   11.33
  -5  12  -2   70.48   13.36
  -5  12  -2   56.30   12.69
  12  -7  -2   50.19   18.06
  -7  -5  -2   59.64   13.35
   7   5   2   49.36   12.87
 -12   7   2   65.90   12.83
 -12   7   2   48.89   15.64
  -2   9  -2   71.86   11.94
   9  -7  -2  103.14   15.99
  -7  -2  -2   74.82   14.54
  -2   9  -2   68.16   11.80
   9  -7  -2   90.97   15.88
  -7  -2  -2   79.49   13.28
  -7  -2  -2   58.61   11.83
   7   2   2   67.00   12.88
  -9   7   2   65.86   11.87
  -9   7   2   95.41   15.52
  -9   7   2   96.97   12.01
   7   2   2   73.95   11.29
   2  -9   2   62.82   10.36
   6  -7  -2   32.60    8.00
  -7   1  -2   33.83    8.78
   1   6  -2   19.66    5.58
   1   6  -2   21.04    5.77
  -7   1  -2   43.55    7.83
   1   6  -2   20.42    7.73
   6  -7  -2   39.45    8.40
  -7   1  -2   36.03    7.54
  -7   1  -2   48.50   10.30
   7  -1   2   46.54    9.37
   7  -1   2   41.78    8.41
   7  -1   2   46.47    7.11
  -6   7   2   37.94    8.47
  -1  -6   2   23.38    6.30
  -7   4  -2  538.64   54.20
  -7   4  -2  636.53   55.63
  -7   4  -2  511.34   54.00
   4   3  -2  573.87   54.37
  -7   4  -2  554.34   52.29
   7  -4   2  572.87   55.10
  -4  -3   2  508.29   53.19
  -4  -3   2  542.93   53.05
   7  -4   2  518.29   54.48
  -4  -3   2  517.04   53.83
  -3   7   2  504.68   52.01
   7   0  -2  107.08   14.04
  -7   7  -2   88.02   14.20
   7   0  -2  105.31   13.50
   7   0  -2  106.86   14.59
  -7   7  -2   69.12   11.72
   0  -7  -2  109.68   12.15
  -7   7  -2   64.01   11.82
   0   7   2   87.78   10.56
   0   7   2  119.29   11.56
  -7   0   2   86.26   13.35
  -7   0   2  114.05   16.36
   7  -7   2   91.59   14.96
  -7   0   2  126.76   16.08
   0   7   2   93.39   14.10
   7  -7   2   72.40   13.90
  -7   0   2   74.82   12.53
  -7  10  -2    8.60    7.46
  10  -3  -2   19.71   12.89
  -3  -7  -2    9.36    7.19
  -7  10  -2    1.14    8.06
   3   7   2    9.61    7.58
 -10   3   2   32.57   11.92
   3   7   2   20.63    8.04
 -10   3   2   16.10    7.99
   3   7   2   18.76    6.49
 -10   3   2   14.55   10.45
  -7  13  -2    8.82    9.33
  -6  -7  -2   -5.48    7.29
 -13   6   2    4.44    8.97
   6   7   2    1.49    7.14
  -8  -3  -2   14.21    7.88
  -3  11  -2    9.49    7.49
  11  -8  -2   14.66   11.14
  -3  11  -2    8.68    6.81
 -11   8   2   11.21    7.43
   8   3   2   16.16    8.61
 -11   8   2   15.32   10.33
   8  -8  -2 1212.00  119.11
   0   8  -2 1205.71  116.26
   0   8  -2 1106.61  116.51
   0   8  -2 1198.42  115.80
  -8   0  -2 1254.41  119.38
   8  -8  -2 1131.13  118.55
  -8   0  -2 1325.82  119.75
  -8   0  -2 1262.96  117.75
  -8   8   2 1317.46  119.27
   8   0   2 1190.18  118.23
   0  -8   2 1299.82  116.15
   8   0   2 1247.12  115.94
   8   0   2 1224.29  115.51
   3   5  -2  112.97   16.34
  -8   3  -2  127.41   17.57
  -8   3  -2  131.98   16.90
   5  -8  -2  126.65   14.26
  -8   3  -2  144.69   15.04
   5  -8  -2  105.74   14.36
   3   5  -2  132.73   16.53
  -8   3  -2  126.73   18.18
  -3  -5   2  106.18   14.81
  -3  -5   2  100.60   15.12
   8  -3   2  138.00   17.66
  -3  -5   2  101.08   14.93
  -5   8   2  124.21   16.19
   8  -3   2  141.52   18.70
  -8   6  -2   32.12    8.66
  -8   6  -2   36.81    9.37
  -8   6  -2   44.67   10.01
  -8   6  -2   46.88   10.46
   6   2  -2   65.92   10.63
   8  -6   2   38.62   11.08
  -2   8   2   40.16    7.04
  -2   8   2   46.66    6.79
  -6  -2   2   52.83   11.68
  -6  -2   2   41.40    8.78
   8  -6   2   45.52   11.48
  -6  -2   2   42.02   10.00
  -2   8   2   39.65    7.19
  -8   9  -2  177.77   22.50
   9  -1  -2  119.63   19.36
  -1  -8  -2  183.00   18.70
  -8   9  -2  172.21   20.88
   1   8   2  129.27   19.58
   1   8   2  173.37   17.10
   8  -9   2  153.92   21.38
  -9   1   2   99.39   20.72
  -9   1   2  130.04   18.76
   1   8   2  131.40   15.70
  -9   1   2  146.80   21.59
   8  -9   2  130.39   21.10
  -8  12  -2  391.39   42.25
  -4  -8  -2  361.18   39.38
  -8  12  -2  373.52   40.80
   4   8   2  360.79   37.52
   4   8   2  291.53   39.17
 -12   4   2  354.57   39.44
  -4  13  -2   32.10   11.68
  -9  -4  -2   66.50   14.01
 -13   9   2   65.58   18.30
   9   4   2   69.80   15.33
  -9  -1  -2   14.95    7.85
  -1  10  -2   19.81    7.02
  -1  10  -2   10.02    6.32
  10  -9  -2   16.80   15.75
 -10   9   2   22.62   11.24
   9   1   2   11.05    8.22
  -9   2  -2   71.95   15.19
   7  -9  -2   83.34   14.31
   7  -9  -2   78.88   13.37
  -9   2  -2   80.82   15.19
   2   7  -2   76.77   13.49
  -9   2  -2   66.24   11.86
  -7   9   2  101.36   14.83
  -2  -7   2   97.78   11.89
   9  -2   2   65.03   16.15
  -2  -7   2   96.97   12.86
  -2  -7   2   61.95   11.21
  -9   5  -2  248.06   28.10
  -9   5  -2  257.31   25.95
  -9   5  -2  236.97   28.34
   5   4  -2  235.09   27.73
  -9   5  -2  245.21   29.02
  -4   9   2  230.54   26.05
  -5  -4   2  253.83   26.96
   9  -5   2  235.35   28.68
   9  -5   2  230.39   29.56
  -5  -4   2  240.20   27.49
  -5  -4   2  220.69   28.09
  -4   9   2  239.48   25.75
   8   1  -2  159.73   20.51
   8   1  -2  149.51   17.08
  -9   8  -2  168.26   22.40
   1  -9  -2  148.32   17.10
   8   1  -2  149.25   16.75
  -8  -1   2  164.58   22.00
  -8  -1   2  186.95   23.88
  -1   9   2  104.33   15.65
  -1   9   2  122.93   15.64
  -8  -1   2  166.14   20.03
   9  -8   2  156.95   22.32
   9  -8   2  147.81   21.92
  -1   9   2  143.17   16.01
  11  -2  -2   28.49   10.40
  -2  -9  -2   47.05   11.06
  -9  11  -2   40.97   12.07
  -9  11  -2   46.03   13.42
   2   9   2   48.14   11.88
 -11   2   2   33.68   10.51
   2   9   2   54.20    9.93
 -10  -2  -2   -7.19    6.55
  -2  12  -2   10.24    8.05
 -12  10   2   -0.74   10.97
  10   2   2   -2.93    8.23
   1   9  -2   10.95    6.06
 -10   1  -2    6.45   10.56
 -10   1  -2   10.69    7.93
  -1  -9   2   11.75    7.32
  -1  -9   2   17.86    7.08
  -9  10   2   25.58   10.26
  10  -1   2   13.49    8.37
 -10   4  -2   20.67    7.65
   6 -10  -2   20.56    7.38
 -10   4  -2   16.69   13.10
 -10   4  -2   15.44    9.81
 -10   4  -2   28.50   12.29
   4   6  -2    7.60    6.91
  -4  -6   2   14.41    7.09
  10  -4   2   39.89   12.59
  -6  10   2   19.83    8.13
  -4  -6   2   18.64    7.96
   7   3  -2   21.01    8.78
 -10   7  -2    5.09    6.06
 -10   7  -2    7.51    9.96
  10  -7   2   14.46   10.61
  -7  -3   2    3.88    6.65
  -3  10   2   16.37    6.32
  10  -7   2    5.92   10.98
  -3  10   2    8.64    4.80
  10   0  -2   28.28   10.70
 -10  10  -2   28.24   10.51
   0 -10  -2   32.49    8.60
 -10  10  -2   24.49   12.69
   0  10   2   23.27    6.75
   0  10   2   27.09    6.41
 -10   0   2   17.59    8.06
 -10  13  -2   -5.95   10.43
  13  -3  -2    7.84    9.20
  -3 -10  -2    7.80    8.88
 -13   3   2    2.77    8.74
   3  10   2   -2.14    7.62
 -11   0  -2    0.00    7.40
   0  11  -2   -0.50    6.37
 -11  11   2   -6.67   10.77
  11   0   2    2.90    8.25
   3   8  -2   16.25    8.30
 -11   3  -2   13.66   11.15
 -11   3  -2   16.18   13.39
 -11   3  -2   23.15    8.48
  -8  11   2   11.23    8.33
  -3  -8   2   12.36    7.41
   5 -11  -2   73.45   10.57
   6   5  -2   48.00   12.27
 -11   6  -2   59.97   18.35
 -11   6  -2   65.37   11.74
 -11   6  -2   51.42   13.55
  -5  11   2   64.83   11.31
  11  -6   2   59.67   16.05
  -5  11   2   59.43   12.12
  -6  -5   2   65.66   12.84
   9   2  -2   45.08   12.15
 -11   9  -2   43.35   13.88
  -2  11   2   31.15    7.90
  -2  11   2   38.96    8.07
  -9  -2   2   27.81   10.16
  11  -9   2   53.14   16.17
  12  -1  -2   19.68   10.76
 -11  12  -2   15.70   10.81
  -1 -11  -2    6.25    8.33
 -11  12  -2    3.18   11.68
   1  11   2   14.02    6.60
   1  11   2    1.99    6.57
 -12   1   2    0.70    8.45
   2  10  -2   -2.01    6.25
 -12   2  -2    8.28    8.29
  -2 -10   2   -0.97    7.57
 -10  12   2   12.80   10.37
  12  -2   2    2.44    8.30
 -12   5  -2   58.65   11.55
   5   7  -2   38.31   11.73
 -12   5  -2   79.34   22.18
  -7  12   2   60.42   13.95
  -7  12   2   59.76   12.00
  -5  -7   2   61.15   12.69
 -12   8  -2  329.05   39.62
   8   4  -2  347.79   39.04
  -8  -4   2  360.21   38.26
  12  -8   2  342.50   42.29
  -4  12   2  310.30   35.26
  -4  12   2  317.64   35.87
  11   1  -2    2.33    8.19
 -12  11  -2   -3.14   12.37
 -12  11  -2    8.10   11.29
  -1  12   2    9.32    6.62
 -11  -1   2    4.29    8.44
 -13   4  -2   78.09   14.27
   4   9  -2   42.07   12.16
   4   9  -2   46.11   11.28
  -4  -9   2   62.28   13.91
  -9  13   2   38.43   13.64
 -13   7  -2   -3.51    7.89
   7   6  -2    6.49    7.77
  -7  -6   2    7.11    8.61
  -6  13   2    5.64    8.37
  10   3  -2   -1.51    8.74
 -13  10  -2   -5.99   12.42
  -3  13   2    6.61    7.75
 -10  -3   2    8.05    9.07
   0   0  -3  281.39   26.47
   0   0  -3  278.49   26.23
   0   0   3  266.89   26.41
   0   0   3  276.45   26.24
  -1   2  -3   36.46    4.76
  -1   2  -3   33.64    4.32
  -1  -1  -3   23.06    3.38
   2  -1  -3   37.18    5.32
  -1   2  -3   34.76    4.89
  -1   2  -3   36.33    5.01
   1   1   3   22.20    3.71
   1  -2   3   32.83    4.27
   1  -2   3   35.47    5.10
  -2   1   3   33.27    5.02
   1   1   3   21.29    3.28
  -2   1   3   40.44    4.85
   1  -2   3   38.79    4.65
   1   1  -3   32.30    4.50
  -2   1  -3   30.17    4.63
  -2   1  -3   38.74    5.09
  -2   1  -3   32.76    5.34
  -2   1  -3   29.28    4.78
   1   1  -3   35.01    5.03
   1   1  -3   27.63    4.65
   2  -1   3   25.60    5.00
  -1  -1   3   41.27    5.53
   2  -1   3   25.87    4.73
  -1   2   3   27.10    3.45
  -1   2   3   33.62    3.59
   2  -1   3   39.58    5.17
  -1  -1   3   35.62    5.28
   4  -2  -3   96.66   11.87
   4  -2  -3   84.36   10.55
  -2   4  -3   97.29   10.28
  -2   4  -3   83.07    8.83
  -2  -2  -3   67.55    8.31
  -2   4  -3   84.99   10.20
   2  -4   3   81.80    9.28
  -4   2   3   92.21   10.88
   2  -4   3   70.04    9.54
  -4   2   3   85.10   10.75
   2   2   3   76.80    8.63
   2  -4   3   82.07    9.95
  -4   2   3   90.83   10.61
  -3   0  -3   15.29    3.64
  -3   0  -3   18.71    4.56
   3  -3  -3   18.07    4.07
  -3   0  -3   15.34    4.39
   0   3  -3   16.99    3.81
   0   3  -3   20.00    3.80
  -3   3   3   15.37    2.82
   3   0   3   18.65    3.89
  -3   3   3   19.00    4.33
  -3   3   3   17.93    2.91
   0  -3   3   13.88    3.38
   3   0   3   17.13    3.71
   0  -3   3   18.85    4.03
  -3   3  -3   91.53   10.95
  -3   3  -3   83.97   10.30
  -3   3  -3   97.89   10.90
   3   0  -3   87.25   10.73
  -3   3  -3   95.14   10.89
   3   0  -3   92.61   11.30
   3  -3   3   73.19   10.97
  -3   0   3   79.89   10.05
   3  -3   3   86.32   10.63
  -3   0   3   92.43   11.44
  -3   0   3   93.73   11.02
  -3  -3  -3    5.81    2.48
  -3  -3  -3    4.69    4.47
  -3   6  -3    9.64    4.30
  -3   6  -3   -1.52    4.11
   6  -3  -3    0.49    6.37
   6  -3  -3    5.80    5.84
   3   3   3    3.70    4.26
   3   3   3   -1.60    3.37
   3  -6   3   -1.99    3.93
  -6   3   3    7.85    4.17
   3  -6   3    1.62    3.13
  -6   3   3   -0.15    4.88
   3   3   3    2.02    3.11
  -6   3   3   -2.04    4.87
  -6   3   3    0.12    5.49
   5  -4  -3   91.43   12.38
  -4  -1  -3   73.18   10.98
   5  -4  -3   89.67   12.34
  -1   5  -3   91.91   10.57
  -4  -1  -3   67.07   10.75
  -4  -1  -3   80.98   11.32
  -1   5  -3   99.84   11.35
   1  -5   3   89.59   10.29
  -5   4   3   84.51   10.86
   4   1   3   92.23   10.44
   4   1   3   71.12   11.06
  -5   4   3   94.38   12.25
   1  -5   3   87.83   10.41
  -4   2  -3  101.06   11.24
  -4   2  -3   91.47   11.34
  -4   2  -3   85.44   10.52
   2   2  -3   83.74    9.55
   2   2  -3   78.96    9.35
  -2  -2   3   83.17   10.28
  -2  -2   3   82.95   10.71
  -2   4   3   84.75    9.12
   4  -2   3   84.93   11.43
   4  -2   3   90.81   11.37
  -4   5  -3   22.37    5.03
  -4   5  -3   19.09    5.35
  -4   5  -3   22.91    6.33
   5  -1  -3   11.55    7.16
   5  -1  -3   28.25    7.01
  -4   5  -3   18.42    5.90
  -5   1   3   25.73    7.60
  -5   1   3   21.43    5.90
  -5   1   3   23.51    6.10
  -5   1   3   18.68    6.89
   4  -5   3   33.08    6.34
   1   4   3   18.77    4.56
   1   4   3   30.93    6.65
   4  -5   3   22.70    6.56
  -4   8  -3    5.42    4.72
   8  -4  -3    8.37    8.47
  -4   8  -3    0.70    5.48
   8  -4  -3    3.03    6.92
  -4  -4  -3    3.91    4.98
  -8   4   3    1.64    6.66
   4   4   3    1.81    5.19
   4   4   3    3.05    4.15
   4  -8   3    4.02    4.18
   4   4   3    9.91    5.85
   4  -8   3    2.78    5.21
  -8   4   3   -0.57    6.22
  -8   4   3   -2.43    6.23
  -8   4   3    8.76    5.27
  -2   7  -3   24.82    5.97
   7  -5  -3    8.93    6.31
  -2   7  -3   21.79    5.50
  -5  -2  -3   11.46    5.38
  -5  -2  -3   15.79    5.45
   7  -5  -3   11.60    7.46
  -5  -2  -3   17.92    6.23
   5   2   3    9.14    4.10
  -7   5   3    5.64    5.43
   5   2   3   21.25    7.04
  -7   5   3   18.58    6.49
  -7   5   3    4.97    5.18
  -7   5   3   19.01    5.55
   5   2   3   16.32    6.30
   2  -7   3   13.30    4.80
  -5   1  -3   84.84   11.11
   4  -5  -3   86.65   10.05
  -5   1  -3  105.03   12.14
   1   4  -3   71.62   10.01
  -5   1  -3   93.09   11.00
   4  -5  -3   74.10    9.89
  -5   1  -3   89.53   12.31
   1   4  -3   90.28   12.35
   5  -1   3   94.48   11.85
  -1  -4   3   75.43   10.04
  -4   5   3   91.58   10.84
   5  -1   3   83.97    9.79
  -1  -4   3   74.75    9.81
  -1  -4   3   73.17    9.75
   4   1  -3   27.80    6.11
  -5   4  -3   24.84    7.08
  -5   4  -3   21.00    6.39
   4   1  -3   15.20    5.48
  -5   4  -3   22.56    6.02
   4   1  -3   22.85    6.24
  -4  -1   3   31.61    6.15
  -4  -1   3   10.91    6.76
   5  -4   3   28.79    7.75
  -4  -1   3   27.37    6.83
   5  -4   3   27.77    7.64
   7  -2  -3    9.46    7.50
   7  -2  -3    5.25    5.59
  -2  -5  -3   10.60    5.28
  -5   7  -3   12.75    6.47
  -5   7  -3    8.77    5.11
  -7   2   3   11.18    7.27
  -7   2   3   18.50    7.46
   5  -7   3   14.17    6.37
  -7   2   3    5.61    5.36
   5  -7   3    7.56    4.86
   2   5   3   17.82    6.04
   2   5   3    6.17    3.70
  -7   2   3   10.17    5.30
  -5  10  -3    1.13    5.59
  10  -5  -3    8.41   10.84
  -5  10  -3   -0.39    7.28
  -5  -5  -3   -2.77    5.25
  10  -5  -3    7.35    9.23
  -5  -5  -3    3.09    6.32
 -10   5   3   -8.16    7.33
 -10   5   3   18.84    9.66
   5   5   3    8.24    5.15
 -10   5   3    6.83    6.43
   5   5   3   -2.72    5.52
  -3   9  -3   -2.59    4.87
  -6  -3  -3    4.47    5.56
  -6  -3  -3   -1.73    7.19
   9  -6  -3   -2.90    9.22
  -6  -3  -3    3.84    4.68
   9  -6  -3    8.03    8.70
  -3   9  -3   12.70    6.64
  -6  -3  -3    1.43    6.07
   3  -9   3    4.31    5.55
  -9   6   3    8.20    7.28
   6   3   3    4.14    6.30
  -9   6   3   -1.14    5.46
   6   3   3    1.48    4.32
  -9   6   3    2.47    6.16
  -9   6   3    4.82    8.18
   3  -9   3    8.09    5.16
  -6   0  -3   86.60   13.17
   6  -6  -3   82.43   12.59
   0   6  -3   86.37   10.80
  -6   0  -3   85.68   11.95
   6  -6  -3   76.65   12.53
  -6   0  -3   81.98   12.90
   0   6  -3   98.38   11.27
   0   6  -3   88.26   11.67
   0  -6   3   89.30   10.44
   6   0   3   96.30   11.58
  -6   6   3   79.43   12.51
   6   0   3   97.54   10.94
   0  -6   3   76.74   10.23
   6   0   3   86.99   10.96
  -6   3  -3   -0.43    4.75
  -6   3  -3    6.21    5.62
   3   3  -3    6.39    4.72
  -6   3  -3   -2.78    4.82
  -3   6   3    1.42    3.61
  -3  -3   3    0.12    4.06
   6  -3   3   -0.10    5.65
  -3  -3   3    8.77    3.98
   6  -3   3   -4.89    4.81
   6  -3   3    3.43    3.76
  -3  -3   3   -4.67    4.51
   6   0  -3   70.75   10.21
   6   0  -3   54.88   10.58
  -6   6  -3   44.37   10.08
  -6   6  -3   57.51   10.41
   6   0  -3   57.96   10.18
  -6   6  -3   61.50    9.30
   6  -6   3   63.03   11.17
  -6   0   3   59.50    9.30
   0   6   3   52.14    7.89
   0   6   3   62.84   10.40
  -6   0   3   53.43   11.33
  -6   0   3   49.98    9.30
   6  -6   3   59.17   10.77
  -6   0   3   80.26   11.77
  -3  -6  -3   19.49    6.98
  -6   9  -3   12.85    8.27
   9  -3  -3   12.18    8.22
   9  -3  -3    6.00    9.69
  -6   9  -3    4.40    5.77
  -9   3   3   10.60    8.62
   6  -9   3    7.96    6.68
  -9   3   3   27.83    7.93
  -9   3   3   -1.88    8.65
   6  -9   3    1.47    7.64
   3   6   3   13.05    6.53
   3   6   3   14.72    5.54
  -9   3   3    3.77    6.52
   3   6   3   12.57    5.67
  -6  -6  -3    6.17    8.19
  -6  12  -3   -0.03    6.79
  -6  12  -3    5.07    8.99
 -12   6   3   13.88    8.58
   6   6   3    9.64    6.39
   6   6   3    2.41    7.72
  -4  11  -3    1.33    5.90
  -4  11  -3   11.08    7.65
  11  -7  -3    2.49   10.84
  11  -7  -3    4.25   12.27
  -7  -4  -3    1.77    7.27
   7   4   3    2.34    5.21
 -11   7   3   15.85    7.71
   7   4   3    4.26    7.21
 -11   7   3    9.45   10.22
  -1   8  -3    2.88    4.49
   8  -7  -3    6.55    8.72
  -7  -1  -3   -2.44    5.42
  -7  -1  -3   -8.27    5.99
  -7  -1  -3    7.34    8.15
  -1   8  -3   12.83    5.88
   8  -7  -3   16.18    8.87
  -1   8  -3    9.46    5.64
  -8   7   3    3.10    7.98
   7   1   3    7.87    5.21
  -8   7   3    9.30    5.59
   1  -8   3   -4.28    4.87
   7   1   3    4.71    6.73
  -8   7   3    4.93    5.89
   1  -8   3    1.53    4.79
  -7   2  -3   14.59    5.92
  -7   2  -3   22.90    5.67
  -7   2  -3   16.30    7.34
   5  -7  -3   13.43    4.98
   2   5  -3    3.58    3.76
  -7   2  -3    8.99    6.91
   2   5  -3   15.05    6.64
   5  -7  -3   15.85    4.94
  -2  -5   3   16.30    5.63
   7  -2   3   15.41    6.33
   7  -2   3    9.66    7.20
   7  -2   3   15.45    4.49
  -5   7   3   13.53    5.36
  -2  -5   3   14.80    4.91
  -2  -5   3   19.81    5.28
  -7   5  -3    6.21    5.06
  -7   5  -3    8.62    6.19
  -7   5  -3   10.62    5.95
   5   2  -3   11.12    6.07
   5   2  -3   11.90    3.91
   5   2  -3    5.50    3.97
   7  -5   3   14.19    7.17
  -5  -2   3   -0.01    4.46
  -5  -2   3    7.80    7.26
   7  -5   3   25.67    7.86
  -5  -2   3    1.58    5.13
  -7   8  -3    2.52    6.78
   8  -1  -3   19.35    8.09
   8  -1  -3   25.87   10.13
  -1  -7  -3   29.18    7.43
  -7   8  -3   10.37    5.31
  -7   8  -3    2.36    8.88
   8  -1  -3   26.29    7.99
  -7   8  -3   21.05    6.22
  -8   1   3   27.80   10.35
   1   7   3   17.51    5.48
  -8   1   3   41.11   11.85
  -8   1   3   26.48    8.00
   1   7   3   10.00    7.02
   7  -8   3    0.22    8.65
   7  -8   3    8.60    8.25
  -8   1   3   13.71    6.94
  -7  11  -3   19.84   10.40
  -4  -7  -3   10.49    7.31
  -7  11  -3   10.70    7.84
 -11   4   3    5.62   10.98
   4   7   3    3.19    6.15
   4   7   3   15.36    6.49
 -11   4   3   10.10    7.41
  -5  13  -3    7.64    9.19
  -8  -5  -3    5.59    8.45
 -13   8   3    9.87   12.83
   8   5   3    4.18    8.55
 -13   8   3    9.53    8.74
  10  -8  -3    3.43    9.01
  -2  10  -3    9.99    6.80
  -2  10  -3    5.89    5.36
  -8  -2  -3   -6.04    5.79
 -10   8   3    6.75    9.21
 -10   8   3    1.84    6.25
   8   2   3    2.03    4.82
   8   2   3   12.73    7.53
  -8   1  -3    2.07    7.36
   7  -8  -3    7.78    7.48
   1   7  -3    6.86    5.42
   1   7  -3   -1.83    4.80
  -8   1  -3    6.37    6.11
   7  -8  -3   -4.28    6.37
   1   7  -3   -8.27    5.42
  -8   1  -3    9.01    8.78
  -1  -7   3    9.82    5.59
  -7   8   3    7.62    7.19
   8  -1   3   -5.91    5.62
   8  -1   3    1.98    7.09
   8  -1   3    0.19    4.20
  -1  -7   3   -4.44    4.99
  -1  -7   3    6.34    5.62
  -8   4  -3   -2.89    6.06
  -8   4  -3   -1.27    6.36
   4   4  -3    3.78    5.19
  -8   4  -3   -1.18    4.66
  -8   4  -3    7.82    7.21
  -4  -4   3    6.88    7.08
   8  -4   3    4.75    7.96
  -4  -4   3    6.06    5.70
   8  -4   3    5.14    6.64
  -4  -4   3    3.94    4.65
  -4   8   3    4.67    5.12
  -8   7  -3   18.41    7.32
  -8   7  -3   13.39    9.06
   7   1  -3   10.20    6.96
   7   1  -3    8.34    6.14
   7   1  -3   21.38    7.54
  -8   7  -3    2.51    6.83
   8  -7   3   10.81    9.44
   8  -7   3   12.41    9.39
  -1   8   3   16.08    4.19
  -7  -1   3   21.64    8.82
  -7  -1   3   12.67    9.68
  -7  -1   3   17.33    7.09
  -1   8   3    6.63    5.11
  -8  10  -3    2.57    7.68
  -8  10  -3    1.76    9.61
  -2  -8  -3   13.15    7.38
  10  -2  -3   -6.59    5.84
   2   8   3   15.76    6.06
 -10   2   3   23.01   11.08
   2   8   3   16.79    6.22
   2   8   3   17.39    7.83
 -10   2   3   12.20   11.17
 -10   2   3    8.86    7.32
  -8  13  -3   24.68   11.92
  -5  -8  -3   26.27   10.40
   5   8   3    7.75    8.01
   5   8   3   27.70    8.93
 -13   5   3   25.75   10.62
  -3  12  -3   -2.61    7.81
  -9  -3  -3   -0.63    7.02
 -12   9   3    6.94   10.97
   9   3   3   -3.78    9.02
  -9   0  -3   19.21    7.99
   0   9  -3   12.32    6.72
  -9   0  -3   10.59   12.88
   0  -9   3   -3.77    6.30
  -9   9   3   39.79   12.14
   0  -9   3    7.49    7.04
   9   0   3   15.81    9.02
   3   6  -3    3.04    6.01
   6  -9  -3   -1.21    5.35
  -9   3  -3   -9.62    5.83
   6  -9  -3   10.58    5.90
  -9   3  -3    1.56    7.93
  -9   3  -3    3.83    5.15
  -9   3  -3    4.04    8.45
  -3  -6   3    7.82    6.08
   9  -3   3   -0.24    7.40
  -6   9   3    1.56    6.12
  -3  -6   3    1.80    6.56
   9  -3   3   -8.75    8.20
  -3  -6   3    4.80    5.72
   6   3  -3   13.07    7.08
  -9   6  -3   14.21    9.04
  -9   6  -3    8.30    7.28
  -9   6  -3    2.13    7.34
  -9   6  -3   15.48    5.71
   9  -6   3    9.61    9.39
  -6  -3   3    9.00    9.83
  -6  -3   3   13.83    5.99
  -3   9   3   10.15    5.18
  -3   9   3    6.19    4.23
   9  -6   3    5.50    8.76
  -3   9   3   12.52    4.28
  -6  -3   3   17.57    7.91
  -9   9  -3   21.80   10.11
   0  -9  -3   18.79    7.67
   9   0  -3   20.42    9.29
  -9   9  -3   32.57   12.60
  -9   0   3   19.90    8.71
   9  -9   3   34.57   12.96
   0   9   3   12.55    6.33
  -9   0   3   27.76   13.23
  -9   0   3   21.69   11.90
  12  -3  -3    3.61    7.41
  -9  12  -3    8.21    9.55
  -9  12  -3    0.68   11.04
  -3  -9  -3   -1.98    8.05
   3   9   3    2.46    6.24
 -12   3   3   -0.58    8.14
   3   9   3   -4.99    6.51
  -1  11  -3    0.34    6.64
 -10  -1  -3    1.75    7.03
 -11  10   3   -8.15    8.72
  10   1   3    5.57    8.91
 -10   2  -3    8.79    6.69
 -10   2  -3    5.84   10.59
   2   8  -3   -3.58    5.03
   2   8  -3    7.87    7.15
 -10   2  -3    2.39    9.55
  -2  -8   3    1.67    6.50
  -8  10   3   13.75    9.01
   5 -10  -3    9.27    8.28
   5 -10  -3    2.45    3.95
 -10   5  -3   11.69    7.76
   5   5  -3    8.93    6.79
 -10   5  -3    7.41    8.45
 -10   5  -3   16.45    6.69
 -10   5  -3    8.87    9.95
  10  -5   3   -8.45    9.21
  -5  10   3    3.14    5.76
  -5  -5   3    7.69    6.86
 -10   8  -3    8.32   10.04
   8   2  -3   14.61    8.42
   2 -10  -3   10.06    6.12
  -2  10   3   13.35    4.77
  -2  10   3    7.59    4.65
  10  -8   3    8.25   10.45
  -2  10   3   10.58    5.02
  10  -8   3   -7.12   10.13
  -8  -2   3   10.22    7.59
  11  -1  -3    3.81    7.49
  -1 -10  -3   -3.45    7.66
 -10  11  -3    3.03    8.29
 -10  11  -3    5.78   10.11
 -11   1   3   -3.44    7.22
   1  10   3   -4.24    5.70
   1  10  -3   -5.20    6.18
 -11   1  -3   -1.62    6.32
 -10  11   3   -4.73    9.69
  -1 -10   3   -0.95    7.55
  11  -1   3   -7.90    6.51
 -11   4  -3    5.28    6.19
   4   7  -3   -4.31    5.75
 -11   4  -3    2.64   10.51
  -7  11   3    0.00    6.70
  -4  -7   3   -3.44    6.15
   7   4  -3   25.29    9.03
 -11   7  -3   23.04   11.54
 -11   7  -3   13.53    7.26
  -4  11   3   13.10    6.28
  -7  -4   3   18.62    8.68
  11  -7   3   -1.15   11.57
  -4  11   3   17.50    7.56
 -11  10  -3    0.23    9.11
 -11  10  -3   14.77   11.74
  10   1  -3   -0.35    7.50
  -1  11   3   -5.16    4.77
  -1  11   3   -2.96    3.91
 -10  -1   3    3.22    8.03
   0  12  -3    6.09    8.10
 -12   0  -3   10.01    9.86
 -12  12   3   -2.70   11.91
  12   0   3   -2.87    8.45
   3   9  -3    0.48    7.81
 -12   3  -3    0.35    7.67
   3   9  -3    4.77    6.37
  -3  -9   3   -2.08    8.38
  -9  12   3   -6.39    9.28
 -12   6  -3   -6.28    6.25
   6   6  -3    2.87    6.85
  -6  12   3    0.49    7.45
  -6  12   3    7.37    6.52
  -6  -6   3   -3.68    7.69
   9   3  -3    3.35    9.18
 -12   9  -3    9.47   12.10
 -12   9  -3   -4.27    8.87
  -3  12   3    3.34    6.62
  -9  -3   3   -4.56    6.91
  -3  12   3    1.03    5.60
 -12  12  -3    8.93   14.08
  12   0  -3    0.03    9.02
 -12  12  -3   -6.94   12.66
 -12   0   3    4.35    8.94
   0  12   3    0.01    5.98
 -13   5  -3    3.39    8.01
   5   8  -3   16.32    9.15
  -8  13   3   16.67    9.93
  -5  -8   3   10.12    9.61
   8   5  -3    3.06    7.98
  -5  13   3    8.03    8.64
  -8  -5   3   14.15    9.41
   0   1  -4 1031.24   87.04
  -1   0  -4  934.08   86.18
   0   1  -4  975.00   86.57
   0   1  -4  970.76   86.41
  -1   0  -4  932.01   86.32
   1  -1  -4  789.62   85.86
  -1   0  -4  942.64   86.52
   1  -1  -4  844.74   86.20
   0   1  -4 1008.40   87.05
   0  -1   4 1061.43   87.13
  -1   1   4  850.12   86.12
   1   0   4  834.80   86.47
  -1   1   4  865.75   85.93
   1   0   4  907.65   85.94
   0  -1   4  940.46   86.44
   0  -1   4 1002.37   86.36
  -1   1   4  832.47   85.75
   1   0   4  953.95   86.12
   1   0   4  973.99   86.11
   0  -1   4  896.62   86.82
  -2  -1  -4  175.48   21.76
  -1   3  -4  249.26   22.68
   3  -2  -4  249.82   23.21
  -1   3  -4  232.95   23.21
   3  -2  -4  183.24   22.74
  -1   3  -4  268.50   22.78
   1  -3   4  230.31   22.88
   2   1   4  202.74   22.07
   1  -3   4  253.52   22.54
   1  -3   4  270.65   23.49
  -3   2   4  210.66   22.85
  -3   2   4  205.57   22.53
  -2   2  -4  735.77   68.31
   2   0  -4  736.06   67.98
   2   0  -4  670.45   68.44
  -2   2  -4  781.45   68.91
   2   0  -4  697.20   68.83
  -2   2  -4  709.08   68.72
  -2   2  -4  750.06   68.44
   2  -2   4  745.25   68.41
   2  -2   4  677.20   68.57
   2  -2   4  743.82   68.90
  -2   0   4  676.68   68.08
  -2   0   4  735.10   68.94
   5  -3  -4    9.79    6.03
   5  -3  -4   15.12    6.99
  -2   5  -4    8.54    4.81
  -2   5  -4    9.92    4.96
  -3  -2  -4   11.96    3.63
  -5   3   4   12.03    6.11
   3   2   4   18.76    5.03
   2  -5   4    8.40    3.88
   3   2   4    7.43    4.92
   2  -5   4    4.71    4.10
  -5   3   4    9.39    5.72
   2  -5   4   10.50    5.23
   3   2   4    8.09    4.02
   1   2  -4  203.59   21.32
  -3   1  -4  218.33   21.47
  -3   1  -4  224.55   21.96
   1   2  -4  196.07   21.17
   1   2  -4  211.01   21.33
  -3   1  -4  261.40   22.16
  -1  -2   4  208.24   21.88
  -2   3   4  179.34   20.66
   3  -1   4  248.28   22.20
   3  -1   4  269.31   22.07
  -2   3   4  195.75   20.49
  -1  -2   4  169.62   21.36
   4  -1  -4  152.07   16.41
  -3   4  -4  140.34   15.98
  -3   4  -4  124.53   14.93
  -3   4  -4  122.25   15.81
  -3   4  -4  127.59   15.45
   4  -1  -4  145.12   16.85
   3  -4   4  153.64   15.92
  -4   1   4  148.75   16.72
   3  -4   4  118.63   15.54
   3  -4   4  166.49   16.76
  -4   1   4  160.49   15.98
  -4   1   4  164.88   16.80
  -4  -3  -4  298.43   29.56
  -3   7  -4  303.93   31.99
  -4  -3  -4  262.92   31.04
  -3   7  -4  286.08   31.62
   7  -4  -4  366.21   33.83
   7  -4  -4  337.73   33.61
   4   3   4  320.38   31.05
  -7   4   4  342.37   31.20
   4   3   4  306.97   31.79
  -7   4   4  299.29   32.13
   4   3   4  270.73   30.14
  -7   4   4  336.15   32.79
   3  -7   4  252.26   30.76
  -7   4   4  275.16   31.82
   3  -7   4  276.92   30.22
   0   4  -4 1813.61  173.12
   0   4  -4 1813.79  172.39
  -4   0  -4 1775.18  172.77
  -4   0  -4 1852.59  172.90
   4  -4  -4 1876.34  172.57
  -4   0  -4 1841.95  172.96
   4  -4  -4 1859.25  172.74
   0  -4   4 1651.84  172.35
   4   0   4 1902.89  171.67
   4   0   4 2009.14  171.81
   0  -4   4 1982.39  172.85
  -4   4   4 1887.75  172.99
   4   0   4 1751.08  172.05
   3   1  -4  128.02   15.91
  -4   3  -4  142.21   16.02
  -4   3  -4  173.09   17.00
  -4   3  -4  158.31   16.17
   3   1  -4  112.40   15.42
  -4   3  -4  149.52   16.36
   4  -3   4  164.98   16.62
   4  -3   4  173.56   17.19
  -3  -1   4  143.22   16.20
  -3  -1   4  111.17   15.00
  -3  -1   4  117.67   16.48
  -4   6  -4  297.00   30.08
  -4   6  -4  256.14   27.74
  -4   6  -4  302.41   30.23
   6  -2  -4  303.71   30.76
   6  -2  -4  278.10   30.81
   2   4   4  278.34   28.26
  -6   2   4  280.80   29.64
   2   4   4  270.33   29.24
  -6   2   4  287.27   30.77
   4  -6   4  282.02   29.80
  -6   2   4  297.18   30.50
   4  -6   4  263.06   28.86
  -6   2   4  269.41   28.97
  -4   9  -4    5.38    6.86
   9  -5  -4    5.60    9.90
  -5  -4  -4   14.29    5.91
  -4   9  -4   15.93    6.84
   9  -5  -4    8.21    8.33
  -5  -4  -4   20.51    7.55
  -5  -4  -4    6.27    5.89
   4  -9   4    8.27    5.66
  -9   5   4    2.20    6.01
  -9   5   4   -1.47    6.96
   5   4   4   17.27    7.69
   4  -9   4    5.83    6.62
  -9   5   4    6.17    8.09
   5   4   4    5.57    6.58
  -9   5   4   16.81    8.07
   5   4   4   15.03    5.69
  -5  -1  -4   58.41    9.21
  -1   6  -4   52.81    8.54
  -1   6  -4   59.44    9.26
  -5  -1  -4   60.31    9.24
  -5  -1  -4   52.10    8.38
  -1   6  -4   50.07    8.31
   6  -5  -4   47.22    9.15
  -5  -1  -4   61.64    9.53
   6  -5  -4   42.81    9.41
  -6   5   4   42.76    8.35
   1  -6   4   51.02    8.54
   1  -6   4   47.04    9.11
   5   1   4   70.99    9.84
  -6   5   4   54.84    8.29
  -6   5   4   52.06    9.55
   5   1   4   56.98    8.09
   2   3  -4    4.72    5.41
  -5   2  -4   13.50    6.61
  -5   2  -4   -4.78    3.92
  -5   2  -4    6.52    4.74
  -5   2  -4    7.96    5.74
  -3   5   4   15.36    4.30
  -2  -3   4   -0.11    3.73
   5  -2   4    5.10    6.19
  -2  -3   4    6.42    4.89
   5  -2   4    6.32    5.66
  -2  -3   4    7.69    4.51
  -2  -3   4   10.33    5.90
  -5   5  -4  522.38   57.62
  -5   5  -4  554.68   57.17
   5   0  -4  605.41   57.27
  -5   5  -4  611.92   58.63
  -5   5  -4  601.56   58.24
   5   0  -4  629.42   58.32
   5   0  -4  585.17   58.51
  -5   0   4  605.57   58.58
   0   5   4  615.07   57.84
  -5   0   4  592.61   57.34
   5  -5   4  572.02   57.98
  -5   0   4  629.91   58.95
   0   5   4  564.77   56.29
   5  -5   4  563.81   58.33
  -5   0   4  600.17   57.48
   8  -3  -4  117.94   16.72
  -5   8  -4  110.58   15.45
  -5   8  -4  120.03   15.84
  -3  -5  -4   90.91   14.11
   8  -3  -4  103.91   17.18
  -8   3   4  108.50   15.24
  -8   3   4  104.42   14.57
   5  -8   4  105.63   14.34
  -8   3   4  145.12   18.04
   3   5   4   87.00   12.35
   3   5   4   94.48   13.05
   3   5   4   82.06   14.14
   5  -8   4   98.16   14.88
  -8   3   4  106.31   16.35
  11  -6  -4    1.16   11.95
  -5  11  -4    6.83    7.36
  -5  11  -4   24.17    9.38
  -6  -5  -4   15.96    7.81
   6   5   4   14.53    7.95
 -11   6   4   16.15   10.21
 -11   6   4   10.41    7.74
   6   5   4    4.20    5.71
   8  -6  -4  131.40   19.21
  -6  -2  -4  144.16   16.70
  -6  -2  -4  123.68   16.57
  -6  -2  -4  106.92   16.72
  -2   8  -4  115.89   16.00
   8  -6  -4  120.75   18.35
  -6  -2  -4  160.82   16.04
  -2   8  -4  114.30   16.08
   6   2   4  125.46   17.67
   2  -8   4  103.89   15.44
  -8   6   4  135.65   15.67
  -8   6   4  105.77   15.85
  -8   6   4  131.10   18.06
   6   2   4  125.97   15.29
   5  -6  -4   42.30    8.27
   1   5  -4   79.57   13.01
   1   5  -4   73.92   10.80
  -6   1  -4   43.18    8.48
  -6   1  -4   54.46   10.16
  -6   1  -4   66.67   11.00
   1   5  -4   70.50    9.17
   5  -6  -4   41.65    8.51
  -5   6   4   49.90    8.98
   6  -1   4   69.06   10.39
   6  -1   4   65.17    9.85
  -1  -5   4   59.10    8.93
   6  -1   4   57.20    8.10
  -1  -5   4   57.42    8.99
  -1  -5   4   55.50    9.25
  -1  -5   4   69.02    8.78
  -6   4  -4  282.26   29.68
   4   2  -4  242.49   27.95
  -6   4  -4  309.60   30.58
  -6   4  -4  265.16   29.69
   4   2  -4  295.43   29.57
  -6   4  -4  282.99   29.53
   4   2  -4  286.39   28.22
  -4  -2   4  264.11   29.53
   6  -4   4  263.72   30.10
   6  -4   4  302.29   30.24
  -4  -2   4  295.16   30.68
  -4  -2   4  260.77   28.58
   7  -1  -4  141.44   16.59
   7  -1  -4  150.01   19.64
  -6   7  -4  120.43   15.46
  -6   7  -4  140.29   18.57
   7  -1  -4  167.97   18.26
  -6   7  -4  147.66   17.83
  -6   7  -4  141.60   15.68
  -7   1   4  151.80   17.11
   6  -7   4  135.57   18.40
   1   6   4  108.44   14.70
  -7   1   4  139.83   19.45
  -7   1   4  120.61   17.02
   1   6   4  105.81   16.92
   6  -7   4  118.03   17.37
  -7   1   4  147.55   19.04
  10  -4  -4   41.40   14.01
  -6  10  -4   55.91   13.05
  -6  10  -4   58.34   11.56
  -4  -6  -4   64.23   12.04
 -10   4   4   65.38   11.81
 -10   4   4   40.35   12.33
 -10   4   4   51.95   11.99
   4   6   4   37.81   10.69
   4   6   4   57.63    9.81
  -7  -6  -4    2.38    7.64
  -6  13  -4    0.26    9.32
   7   6   4    7.46    7.09
 -13   7   4   -3.64    7.74
   7   6   4    7.87    8.46
  10  -7  -4   15.83   12.95
  -7  -3  -4   13.11    8.12
  -3  10  -4   19.80    8.53
  -3  10  -4    7.06    8.21
  10  -7  -4   15.56   10.83
   7   3   4   18.22    6.91
 -10   7   4   32.18    9.19
 -10   7   4   22.61   11.46
   7   3   4   24.12    9.89
   7  -7  -4   19.07    8.28
  -7   0  -4   47.43   10.03
   7  -7  -4   27.50    8.48
   0   7  -4   35.07    7.04
   0   7  -4   24.20    6.29
   0   7  -4   25.70    7.32
  -7   0  -4   45.57   10.49
  -7   0  -4   31.05    7.52
   7   0   4   34.09    7.14
   0  -7   4   22.36    6.37
   0  -7   4   36.98    7.60
  -7   7   4   29.13    8.65
   7   0   4   36.03    8.59
  -7   7   4   21.04    6.63
  -7   3  -4  286.01   30.45
  -7   3  -4  286.80   31.84
  -7   3  -4  313.57   33.34
   3   4  -4  372.68   32.76
  -7   3  -4  300.44   32.64
  -3  -4   4  317.16   31.24
   7  -3   4  274.32   29.96
  -4   7   4  281.31   30.56
   7  -3   4  279.80   32.41
  -3  -4   4  321.40   31.76
  -3  -4   4  289.78   32.16
   7  -3   4  305.10   33.17
  -7   6  -4  130.38   16.21
   6   1  -4  127.63   15.52
  -7   6  -4  134.46   17.07
   6   1  -4  144.12   16.40
  -7   6  -4  120.80   17.22
   6   1  -4   96.07   15.77
  -7   6  -4  106.19   16.67
   7  -6   4  140.76   18.62
  -6  -1   4  117.84   17.31
  -6  -1   4  122.21   18.48
  -6  -1   4  115.35   14.97
   7  -6   4  140.27   18.33
  -6  -1   4   90.48   15.22
  -1   7   4  147.95   14.15
  -7   9  -4   38.21    9.96
   9  -2  -4   28.66   12.06
  -2  -7  -4   27.63    8.08
  -7   9  -4   51.65   11.83
   9  -2  -4   30.10    9.16
   2   7   4   33.95    7.67
  -9   2   4   38.35    9.76
   7  -9   4   49.35   11.76
   2   7   4   22.43    8.87
   7  -9   4   44.30   10.61
  -9   2   4   34.49   11.57
  -9   2   4   69.90   14.24
  -9   2   4   45.84   10.04
  -7  12  -4   19.97   11.59
  -5  -7  -4   23.53    9.56
  -7  12  -4   12.07    8.68
   5   7   4   29.14    8.53
 -12   5   4   27.09   10.00
   5   7   4   18.98    8.99
  -4  12  -4   88.49   17.79
  -4  12  -4  114.14   19.13
  -8  -4  -4  105.28   18.54
   8   4   4  131.08   17.73
 -12   8   4  136.50   18.97
   8   4   4  150.43   21.57
 -12   8   4  167.56   23.96
   9  -8  -4   43.29   15.97
  -1   9  -4   48.73   10.52
  -1   9  -4   62.59   11.52
   9  -8  -4   68.39   14.44
  -8  -1  -4   55.55   11.79
  -9   8   4   69.74   14.13
   8   1   4   67.46   10.80
  -9   8   4   62.18   10.99
  -9   8   4   60.41    9.11
   8   1   4   46.02   11.55
   1  -9   4   51.91   13.10
  -8   2  -4  143.15   16.32
   6  -8  -4   85.59   14.41
   2   6  -4   75.79   14.41
  -8   2  -4  119.69   17.91
   2   6  -4  133.39   14.84
  -8   2  -4   96.04   15.34
  -8   2  -4  134.55   18.38
   6  -8  -4  118.64   15.05
   2   6  -4  155.24   18.21
  -2  -6   4  134.80   15.83
   8  -2   4  122.63   14.14
   8  -2   4  105.25   16.03
  -6   8   4  110.02   16.05
  -2  -6   4  144.03   15.76
  -2  -6   4  104.04   15.37
  -8   5  -4  117.26   15.51
  -8   5  -4  113.29   16.77
  -8   5  -4  117.82   12.78
  -8   5  -4  104.87   15.77
   5   3  -4   79.11   14.05
   8  -5   4  104.94   16.36
  -3   8   4   99.88   12.03
  -5  -3   4   59.88   12.91
  -5  -3   4   83.33   16.00
   8  -5   4  130.35   17.45
  -3   8   4  124.09   12.04
  -5  -3   4   80.76   14.32
  -8   8  -4  672.66   71.76
  -8   8  -4  701.34   72.50
  -8   8  -4  829.75   75.46
   8   0  -4  694.07   73.31
  -8   8  -4  790.27   75.24
   8   0  -4  751.79   73.36
   8   0  -4  731.25   74.20
   8  -8   4  777.07   74.98
   0   8   4  755.26   71.24
   8  -8   4  755.04   75.40
  -8   0   4  754.97   75.60
  -8   0   4  779.69   75.37
  -8   0   4  675.28   73.19
  -8  11  -4   16.56   10.39
  -8  11  -4   24.29    9.72
  -3  -8  -4   26.69    9.06
   3   8   4   29.29    9.55
   3   8   4   31.22    8.08
 -11   3   4    8.29   11.16
 -11   3   4   32.85    9.42
  -9  -2  -4   18.72    8.96
  -2  11  -4   19.02    8.29
  -2  11  -4   20.39    7.59
   9   2   4   12.95    7.01
 -11   9   4   26.70   11.90
   9   2   4   18.41   10.12
  -9   1  -4   63.04   13.67
  -9   1  -4   53.90   11.51
   1   8  -4   60.24   10.82
  -9   1  -4   79.26   15.53
   9  -1   4   48.48    9.77
   9  -1   4   61.94   10.97
  -8   9   4   65.84   13.23
  -1  -8   4   69.27   11.60
  -1  -8   4   63.74   11.22
   5  -9  -4   11.47    4.37
  -9   4  -4   15.27    7.94
  -9   4  -4    8.91    9.47
  -9   4  -4   20.15    6.18
  -9   4  -4    9.35    8.40
   4   5  -4   17.56    7.26
   9  -4   4    6.65    7.70
  -4  -5   4   24.00    9.23
  -4  -5   4   11.28    6.96
  -4  -5   4    6.75    6.48
  -5   9   4    1.30    5.97
   9  -4   4   20.25   10.33
  -9   7  -4   55.44   12.50
  -9   7  -4   62.25   12.28
   7   2  -4   30.13    9.37
  -9   7  -4   57.13   12.02
  -9   7  -4   51.29    8.22
  -7  -2   4   47.38   10.06
  -7  -2   4   30.57   13.33
  -7  -2   4   23.55   10.95
   9  -7   4   58.38   13.36
   9  -7   4   54.98   13.34
  -2   9   4   32.45    6.63
  -2   9   4   49.17    7.70
  -9  10  -4    1.22    7.48
  -1  -9  -4   -3.81    5.98
  -9  10  -4   -3.04    8.35
  10  -1  -4    1.56    6.48
 -10   1   4    9.19   13.39
 -10   1   4   -1.28    6.55
   1   9   4   -0.22    6.56
 -10   1   4   -8.31   10.68
   1   9   4    1.04    5.05
  -9  13  -4   17.41   12.72
  13  -4  -4   20.71    9.83
  -4  -9  -4    7.93    9.24
 -13   4   4    7.69    9.21
   4   9   4   17.53    8.10
   4   9   4   17.40   10.09
  -3  13  -4    1.71    8.75
 -10  -3  -4   -2.88    7.62
  10   3   4    9.63   11.00
 -13  10   4    4.87   13.76
 -10   0  -4   71.82   14.10
   0  10  -4   78.13   13.58
 -10  10   4   74.07   16.99
  10   0   4   86.12   15.63
 -10   3  -4   27.19    7.96
 -10   3  -4   13.45   10.67
   3   7  -4   21.70    7.35
 -10   3  -4    7.02   10.06
   3   7  -4   13.14    8.35
  -7  10   4   18.43    8.90
  -3  -7   4   16.78    8.81
   6   4  -4   43.51   10.91
 -10   6  -4   57.28   10.31
 -10   6  -4   57.41   13.93
 -10   6  -4   54.12   13.84
  -6  -4   4   42.83   10.73
  -4  10   4   51.86    9.82
  10  -6   4   41.40   14.37
 -10   9  -4    6.06   10.50
   9   1  -4    0.47    7.59
 -10   9  -4   -0.28    7.40
   1 -10  -4    0.57    5.83
  -1  10   4    6.16    5.34
  10  -9   4    4.96   11.13
  -9  -1   4    9.60   13.32
  -9  -1   4    2.28    7.14
  -2 -10  -4    3.44    8.00
  12  -2  -4    3.38    7.96
 -10  12  -4    5.34    9.47
 -10  12  -4    6.86   11.53
   2  10   4    5.60    8.16
   2  10   4   -4.92    5.60
 -12   2   4   10.58    9.02
  -1  12  -4   14.50    8.68
 -11  -1  -4    4.67    9.05
 -12  11   4    9.28   11.96
  11   1   4    7.04    9.70
   2   9  -4   21.90    7.41
 -11   2  -4   14.57    8.04
  -2  -9   4   26.59    9.35
  -9  11   4   41.69   11.82
 -11   5  -4   40.57   13.74
   5   6  -4   -0.49    6.61
 -11   5  -4   14.96    6.83
  -6  11   4    5.53    7.49
  -5  -6   4   16.28    8.32
   8   3  -4   40.76   11.12
 -11   8  -4   16.49   11.44
 -11   8  -4   19.83   10.04
  -3  11   4   20.45    5.89
  11  -8   4   25.24   13.70
  -3  11   4   20.34    6.66
  -8  -3   4   31.27    9.90
 -11  11  -4   14.11   10.68
  11   0  -4    8.64    8.92
   0 -11  -4    9.03    7.46
 -11  11  -4   21.15   14.02
   0  11   4   10.66    6.63
 -11   0   4    3.25    7.81
   0  11   4    3.98    4.59
 -12   1  -4    8.83    8.15
   1  11  -4    3.32    7.45
 -11  12   4   -0.43   12.66
  12  -1   4   13.14    9.30
   4   8  -4   92.82   18.18
 -12   4  -4  133.55   18.51
   4   8  -4  125.69   17.86
  -8  12   4  114.76   19.57
  -4  -8   4  133.10   19.02
   7   5  -4   17.19    9.13
 -12   7  -4   20.01    8.27
  -7  -5   4   38.28   10.82
  -5  12   4   16.75    8.45
  -5  12   4   13.22    7.29
 -12  10  -4  -13.34   10.88
  10   2  -4   -7.62    8.01
 -12  10  -4   11.03   10.76
 -10  -2   4    5.19    8.47
  -2  12   4    3.10    6.70
  -2  12   4    3.58    5.58
 -13   3  -4    4.73    8.65
   3  10  -4    4.92    7.69
 -10  13   4  -11.78    9.74
  -3 -10   4   -2.84    8.89
 -13   6  -4    3.94    8.03
   6   7  -4   -1.15    7.71
  -7  13   4   -2.43    8.10
  -6  -7   4    0.15    8.09
   9   4  -4   20.16   10.70
  -9  -4   4    7.86    8.46
  -4  13   4   -0.52    6.75
   1   0  -5 1231.65  124.96
  -1   1  -5 1329.84  125.58
  -1   1  -5 1419.33  125.89
   1   0  -5 1355.61  125.79
  -1   1  -5 1458.53  125.47
  -1   1  -5 1289.75  125.22
   0  -1  -5 1214.55  124.23
   0   1   5 1285.17  124.68
   1  -1   5 1505.69  125.28
   1  -1   5 1352.92  125.74
  -1   0   5 1279.60  125.64
   1  -1   5 1302.37  125.66
  -1   0   5 1291.70  125.11
   1  -1   5 1481.60  125.45
  -1   0   5 1374.84  125.22
  -2   0  -5  697.93   66.90
  -2   0  -5  711.10   67.07
  -2   0  -5  663.38   66.58
   2  -2  -5  687.70   66.79
   0   2  -5  750.38   67.08
   2  -2  -5  688.74   66.44
   0   2  -5  820.39   67.83
   0   2  -5  797.60   68.03
   2   0   5  662.83   67.12
   2   0   5  704.69   66.27
   0  -2   5  710.78   67.10
  -2   2   5  681.89   65.83
   0  -2   5  640.23   67.26
   0  -2   5  731.17   67.76
  -2   2   5  723.87   66.88
  -2   2   5  666.79   65.86
   2   0   5  709.26   66.18
   0  -2   5  744.85   66.87
   3  -1  -5  919.09   83.32
  -2   3  -5  944.47   82.64
  -2   3  -5  871.85   82.70
   3  -1  -5  959.66   83.00
  -2   3  -5  925.71   83.10
  -2   3  -5  899.20   82.21
   1   2   5  785.55   81.14
   2  -3   5  786.59   82.50
  -3   1   5  894.25   82.95
  -3   1   5  893.68   82.45
   2  -3   5  849.39   82.28
   2  -3   5  851.50   82.97
   1   2   5  819.46   80.79
   1   2   5  843.14   80.72
  -1   4  -5  281.48   30.33
  -1   4  -5  308.45   29.74
  -3  -1  -5  283.49   28.79
   4  -3  -5  283.20   29.98
  -1   4  -5  279.91   29.04
  -3  -1  -5  298.85   29.24
   4  -3  -5  311.42   30.59
  -3  -1  -5  299.92   28.92
   1  -4   5  265.84   29.68
  -4   3   5  318.14   29.61
  -4   3   5  350.72   30.67
   3   1   5  284.70   29.12
   1  -4   5  286.10   29.42
   1  -4   5  301.04   30.41
  -3   2  -5  928.87   88.48
   2   1  -5  978.03   88.09
  -3   2  -5  858.90   87.67
  -3   2  -5  907.39   87.89
  -3   2  -5  914.23   88.22
   2   1  -5  913.28   87.51
   2   1  -5  940.04   88.39
  -2  -1   5 1049.25   88.97
   3  -2   5  927.97   88.07
  -2  -1   5  940.74   87.53
   3  -2   5  920.03   88.43
   3  -2   5  874.24   88.30
  -3   5  -5   81.85   11.41
   5  -2  -5   89.36   11.96
  -3   5  -5   71.98   10.84
  -3   5  -5   63.51    9.78
  -3   5  -5   69.69    9.57
   5  -2  -5   83.35   12.25
  -5   2   5  102.45   11.24
   3  -5   5   71.88   10.70
  -5   2   5   99.78   11.89
   3  -5   5   72.53   10.22
  -5   2   5   73.43   11.66
   3  -5   5   80.56   11.66
   2   3   5   62.38    8.11
   2   3   5   72.22    9.61
   2   3   5   73.57   10.44
  -4  -2  -5   33.01    6.33
  -2   6  -5   38.96    7.61
   6  -4  -5   43.91    9.22
  -4  -2  -5   39.34    6.40
  -2   6  -5   40.99    7.79
  -4  -2  -5   32.09    6.00
   6  -4  -5   33.92    8.19
   2  -6   5   31.76    6.73
   4   2   5   34.27    7.35
  -6   4   5   35.04    8.42
  -6   4   5   38.53    7.82
  -6   4   5   31.66    6.97
   2  -6   5   48.53    8.50
   4   2   5   42.76    6.91
   4   2   5   33.02    7.55
   2  -6   5   46.14    7.12
   1   3  -5  314.24   28.60
   3  -4  -5  293.80   27.69
  -4   1  -5  276.59   29.84
  -4   1  -5  283.30   29.44
   1   3  -5  322.83   29.05
   3  -4  -5  257.66   27.44
   1   3  -5  329.76   28.82
  -4   1  -5  311.55   29.63
   4  -1   5  250.85   29.00
   4  -1   5  219.24   28.56
  -3   4   5  263.91   28.54
  -1  -3   5  309.33   29.38
  -1  -3   5  333.93   30.08
  -4   4  -5  340.09   34.35
  -4   4  -5  356.56   34.42
   4   0  -5  331.61   34.21
  -4   4  -5  294.30   34.09
  -4   4  -5  315.62   33.45
   4   0  -5  373.27   35.30
   0   4   5  281.48   35.19
   4  -4   5  360.40   34.31
  -4   0   5  369.73   35.01
  -4   0   5  363.12   35.36
   4  -4   5  377.40   35.32
  -4   0   5  296.72   33.24
  -4   0   5  285.61   33.32
   7  -3  -5  146.00   19.22
  -4   7  -5  139.00   17.61
   7  -3  -5  132.61   19.33
  -4   7  -5  127.93   17.73
   4  -7   5  130.60   16.37
   3   4   5  143.38   17.10
  -7   3   5  142.63   18.87
   3   4   5  141.24   16.01
   3   4   5  139.53   15.24
  -7   3   5  136.05   16.72
  -7   3   5  179.62   19.20
  -7   3   5  128.98   17.66
   4  -7   5  132.66   17.48
  -3   8  -5   13.05    7.02
  -5  -3  -5   16.39    6.73
   8  -5  -5   27.50    9.77
  -5  -3  -5   22.92    5.10
  -5  -3  -5   15.74    6.78
  -3   8  -5   12.39    6.60
  -5  -3  -5   15.48    6.39
   8  -5  -5   24.30    9.10
  -8   5   5   15.68    7.09
   5   3   5   16.43    7.12
  -8   5   5   21.24    6.43
   5   3   5   11.93    5.34
   3  -8   5   28.15    6.61
   5   3   5   28.45    8.13
   3  -8   5   17.06    7.59
  -8   5   5   17.39    8.12
  -5   0  -5  116.40   14.42
   5  -5  -5  106.29   13.46
  -5   0  -5   96.19   13.21
  -5   0  -5  116.52   14.23
   0   5  -5  113.64   13.23
   5  -5  -5  121.02   13.98
   0   5  -5  102.86   13.73
  -5   0  -5  110.61   13.98
  -5   5   5  156.55   14.91
   0  -5   5  107.64   13.65
   0  -5   5   94.02   12.65
   5   0   5   94.75   12.40
  -5   3  -5   68.26   11.40
   3   2  -5   70.48   10.08
   3   2  -5   88.41   10.91
  -5   3  -5   62.59   10.25
  -5   3  -5   64.47   10.35
  -5   3  -5   63.16   10.56
   3   2  -5   63.39    9.87
  -3  -2   5   87.50   10.41
  -3  -2   5   74.70   11.61
   5  -3   5   69.19   11.35
   5  -3   5   62.87   11.03
  -3  -2   5   88.39   11.42
   6  -1  -5   66.41   11.53
  -5   6  -5   44.03    9.06
   6  -1  -5   76.53   11.09
  -5   6  -5   50.41    8.72
  -5   6  -5   44.23    9.71
  -5   6  -5   44.76    7.91
   6  -1  -5   45.75    8.39
  -6   1   5   45.99    8.66
  -6   1   5   58.37   10.37
  -6   1   5   55.32   11.09
   5  -6   5   58.02    9.62
  -6   1   5   51.07    9.46
   1   5   5   42.92    8.73
   1   5   5   49.30    7.63
   5  -6   5   35.04    9.54
   9  -4  -5  123.21   21.02
   9  -4  -5  136.84   20.82
  -5   9  -5  164.47   19.39
  -5   9  -5  131.29   19.47
  -4  -5  -5  145.63   18.67
   4   5   5   90.62   17.10
  -9   4   5  159.69   20.99
   4   5   5  114.63   16.45
  -9   4   5  144.68   19.37
   4   5   5  131.34   17.02
   5  -9   5  149.57   18.05
   5  -9   5  146.28   19.78
  -9   4   5  122.47   19.37
  -9   4   5  166.82   19.21
  -4  10  -5   21.63    8.48
  -6  -4  -5   12.70    8.16
  -4  10  -5    0.02    8.22
  -6  -4  -5   16.05    8.14
  10  -6  -5   11.59   12.92
  10  -6  -5    8.30   10.84
 -10   6   5   36.73   11.87
   6   4   5   14.14    9.02
 -10   6   5   11.24    7.69
   6   4   5   22.03    7.09
  -6  -1  -5  260.06   27.43
  -6  -1  -5  240.25   26.74
  -1   7  -5  238.27   26.94
  -1   7  -5  225.42   26.27
  -6  -1  -5  233.75   27.06
  -6  -1  -5  258.58   26.52
   7  -6  -5  266.61   27.88
   7  -6  -5  236.97   27.87
  -7   6   5  266.04   26.36
   6   1   5  256.84   27.32
  -7   6   5  245.35   27.53
  -7   6   5  248.54   25.20
   1  -7   5  216.36   26.30
   6   1   5  225.85   25.62
  -6   2  -5   48.17    9.49
  -6   2  -5   28.78    7.24
  -6   2  -5   43.17    7.05
   4  -6  -5   35.26    5.32
  -6   2  -5   34.08    8.00
   2   4  -5   48.19    7.42
  -6   2  -5   19.48    6.46
   2   4  -5   30.49    7.54
  -2  -4   5   43.63    7.10
  -2  -4   5   46.43    7.55
   6  -2   5   51.58    8.93
   6  -2   5   33.96    8.27
  -2  -4   5   40.00    8.27
  -4   6   5   28.90    6.61
   6  -2   5   32.99    5.98
  -2  -4   5   59.25    8.73
   5   1  -5   45.71    8.44
  -6   5  -5   35.67    8.63
  -6   5  -5   38.11    8.06
  -6   5  -5   44.47    9.45
   5   1  -5   38.65    8.22
  -6   5  -5   53.12    9.92
   6  -5   5   45.94   10.20
  -1   6   5   49.22    7.22
  -5  -1   5   48.51    9.54
  -5  -1   5   34.07    7.73
  -5  -1   5   42.49   10.33
   6  -5   5   52.97   10.17
  -5  -1   5   36.61    7.82
  -6   8  -5   87.36   15.35
   8  -2  -5  121.58   18.61
  -6   8  -5  115.57   17.35
   8  -2  -5  109.96   16.70
  -6   8  -5   91.82   12.43
  -8   2   5  119.84   17.45
   2   6   5  101.56   15.27
   6  -8   5   84.31   14.79
  -8   2   5  120.86   15.75
  -8   2   5  106.14   15.34
  -8   2   5   96.85   17.08
   6  -8   5  103.60   16.81
   2   6   5  124.84   14.34
  -6  11  -5   30.39    9.80
  -5  -6  -5   49.33   10.63
  -6  11  -5   12.23   10.27
  11  -5  -5   48.28   15.01
 -11   5   5   39.84   11.75
 -11   5   5   32.91   10.02
   5   6   5   45.41    9.11
   5   6   5   14.54    8.50
  -5  12  -5   30.41   10.11
  -7  -5  -5   18.10    9.28
  -5  12  -5   24.72   11.69
   7   5   5   39.47   12.24
 -12   7   5   26.25   13.69
   7   5   5   50.71   10.08
 -12   7   5   14.73    9.34
  -7  -2  -5    7.54    6.76
   9  -7  -5    6.37    9.21
  -7  -2  -5   16.56    7.93
   9  -7  -5   -6.70    8.92
  -2   9  -5    9.53    6.06
  -2   9  -5    1.54    6.40
  -9   7   5   -0.09    5.79
   7   2   5   10.47    7.71
  -9   7   5   14.49    8.77
  -9   7   5    7.04    6.34
   7   2   5    4.44    5.22
  -7   1  -5  275.03   28.46
  -7   1  -5  240.65   26.23
   6  -7  -5  215.72   26.11
   1   6  -5  248.75   26.09
   6  -7  -5  213.46   26.30
   1   6  -5  250.61   27.13
  -7   1  -5  251.57   28.04
  -7   1  -5  236.95   26.81
   7  -1   5  240.00   25.34
  -6   7   5  255.16   25.88
  -6   7   5  261.12   27.15
  -1  -6   5  237.47   26.97
   7  -1   5  234.95   26.48
   7  -1   5  236.99   26.09
  -1  -6   5  255.79   25.73
  -7   4  -5  136.72   15.63
  -7   4  -5  160.25   18.98
  -7   4  -5  144.76   17.74
  -7   4  -5  134.79   17.78
  -7   4  -5  146.76   17.65
   4   3  -5  135.25   14.74
   4   3  -5  120.30   17.28
  -3   7   5  143.65   15.40
  -3   7   5  142.07   15.21
   7  -4   5  135.94   19.06
   7  -4   5  137.24   15.01
   7  -4   5  131.09   18.88
  -4  -3   5  143.37   19.15
  -4  -3   5  132.29   16.57
  -7   7  -5    4.12    6.37
   7   0  -5   20.09    8.83
  -7   7  -5   18.70    7.78
  -7   7  -5    6.40    6.33
   7   0  -5   19.91    7.18
   7   0  -5   27.55    8.16
  -7   7  -5   22.62    8.49
  -7   0   5   12.99    6.35
  -7   0   5   29.03    7.44
   7  -7   5    7.75    8.32
   7  -7   5   12.87    9.24
  -7   0   5   29.69    9.68
   0   7   5   14.36    6.58
  -7   0   5   31.36   10.68
   0   7   5   27.46    5.78
  -7  10  -5  216.25   28.22
  -7  10  -5  255.47   27.47
  -3  -7  -5  208.68   24.53
  10  -3  -5  203.37   29.38
   3   7   5  182.11   22.42
   3   7   5  217.31   23.59
 -10   3   5  221.02   27.32
 -10   3   5  231.48   25.63
   3   7   5  149.02   24.66
  -7  13  -5   -6.13    9.70
  -6  -7  -5   -1.52    7.95
   6   7   5    8.39    8.52
   6   7   5    6.72    7.14
 -13   6   5    2.25    8.62
  11  -8  -5    5.23   11.23
  -3  11  -5    5.33    7.68
  -8  -3  -5    4.84    7.29
  -3  11  -5   10.10    7.28
 -11   8   5   17.25   10.67
   8   3   5    7.50    6.08
 -11   8   5   16.25    8.41
   8   3   5   10.66    8.92
   0   8  -5  289.11   28.66
  -8   0  -5  260.47   28.89
   8  -8  -5  240.10   29.72
   8  -8  -5  238.24   30.03
  -8   0  -5  262.93   30.59
   8   0   5  257.84   29.58
  -8   8   5  266.20   27.79
   8   0   5  234.16   27.04
  -8   8   5  250.54   30.07
   0  -8   5  244.92   29.22
   0  -8   5  242.64   27.17
  -8   3  -5   12.43    6.40
  -8   3  -5   18.63    7.19
  -8   3  -5   18.84    8.72
  -8   3  -5   22.21    8.58
   5  -8  -5   18.17    5.13
   3   5  -5   17.14    5.97
   3   5  -5   21.41    7.79
  -8   3  -5   23.53    6.54
  -3  -5   5   25.11    7.67
   8  -3   5   14.08    7.52
  -5   8   5   10.34    5.62
  -5   8   5   18.99    6.35
   8  -3   5   17.15    5.44
   8  -3   5   19.22    9.23
  -3  -5   5   19.32    8.10
  -3  -5   5   21.78    6.29
   6   2  -5  106.60   14.37
  -8   6  -5  132.95   17.95
   6   2  -5  117.48   13.82
  -8   6  -5  104.86   16.56
   6   2  -5  127.73   16.66
  -8   6  -5   83.72   14.71
  -8   6  -5  114.87   17.36
  -2   8   5  113.43   12.98
  -6  -2   5  102.71   18.01
   8  -6   5   93.33   16.88
  -6  -2   5   95.88   16.54
   8  -6   5  122.53   18.44
  -6  -2   5   87.40   14.66
  -1  -8  -5  156.14   20.32
  -8   9  -5  159.72   24.10
  -8   9  -5  176.91   22.40
   9  -1  -5  173.51   21.81
   8  -9   5  160.29   23.82
  -9   1   5  158.24   21.82
  -9   1   5  163.05   23.91
   8  -9   5  178.55   23.72
  -9   1   5  183.29   25.43
   1   8   5  163.22   18.99
   1   8   5  124.80   20.93
  -4  -8  -5  106.04   17.95
  -8  12  -5  141.46   21.94
  -8  12  -5  112.02   19.30
   4   8   5   97.23   18.22
   4   8   5  111.20   16.55
 -12   4   5  128.29   18.87
  -4  13  -5   29.97   12.34
  -9  -4  -5   25.28   11.16
   9   4   5   26.90   12.40
 -13   9   5   34.63   15.32
   9   4   5   48.75   10.66
  -1  10  -5   -1.55    5.80
  -1  10  -5   -3.47    6.68
  -9  -1  -5   -1.06    6.91
   9   1   5   -1.77    7.32
   9   1   5    2.83    5.21
 -10   9   5   10.46    9.39
  -9   2  -5    6.19    8.77
   7  -9  -5   16.83    8.02
  -9   2  -5   12.02    6.80
  -9   2  -5   15.99    9.63
   2   7  -5    0.49    5.60
   2   7  -5    5.15    6.97
  -2  -7   5   18.12    7.74
  -7   9   5    6.59    5.46
  -7   9   5   20.01    7.81
  -2  -7   5   17.78    7.10
   9  -2   5   13.04    5.82
  -9   5  -5  160.26   16.60
  -9   5  -5  132.93   19.38
  -9   5  -5  139.77   21.20
  -9   5  -5  163.18   19.77
   5   4  -5  130.43   18.68
  -9   5  -5  140.67   19.68
   9  -5   5  144.50   21.72
  -4   9   5  128.50   15.21
  -5  -4   5  136.01   18.11
   9  -5   5  130.00   20.26
  -5  -4   5  138.54   21.07
  -5  -4   5  107.68   18.39
  -4   9   5  112.81   15.99
  -9   8  -5  149.56   23.77
  -9   8  -5  207.02   24.48
   8   1  -5  166.70   22.42
  -8  -1   5  149.59   24.80
  -8  -1   5  160.95   21.96
  -1   9   5  196.68   19.35
   9  -8   5  155.40   24.96
   9  -8   5  140.31   23.84
  -8  -1   5  155.01   24.04
  -9  11  -5   14.60    9.12
  11  -2  -5    4.87    7.53
  -9  11  -5   10.45   11.67
  -2  -9  -5   14.81    8.33
 -11   2   5   19.74    8.83
   2   9   5    2.03    7.68
   2   9   5   14.47    6.73
 -11   2   5   12.15   13.70
  -2  12  -5   13.33    9.54
 -10  -2  -5   28.65   10.99
 -12  10   5   23.53   13.42
  10   2   5   10.42   10.15
  10   2   5   15.46    7.56
 -10   1  -5   -6.84    6.46
   1   9  -5   -1.79    5.88
  -9  10   5    7.13    9.04
  -1  -9   5   -3.82    6.16
  10  -1   5   -6.24    6.79
  10  -1   5   -6.52    4.40
 -10   4  -5    5.48   11.29
 -10   4  -5    3.02    9.56
   6 -10  -5   16.56    6.62
 -10   4  -5    7.15    6.37
   4   6  -5    0.56    7.72
   4   6  -5    3.61    6.91
  -4  -6   5   25.43    8.06
  -6  10   5   19.64    8.20
   7   3  -5  214.85   26.86
 -10   7  -5  232.13   27.17
 -10   7  -5  249.70   24.10
 -10   7  -5  208.41   27.82
  -3  10   5  187.40   21.80
  -7  -3   5  201.79   25.85
  10  -7   5  222.29   29.34
  -3  10   5  177.88   21.82
  -3  10   5  205.16   21.74
  10   0  -5   10.06    8.75
 -10  10  -5   25.13   12.68
   0 -10  -5   32.80    8.51
 -10  10  -5   24.30   10.40
   0  10   5   32.84    7.58
 -10   0   5   14.91    8.32
 -10   0   5   19.12   14.11
  10 -10   5   -0.63   13.51
 -10  13  -5  -12.80   12.04
  -3 -10  -5   10.46    8.83
  13  -3  -5    2.97    8.72
 -13   3   5   -0.65    8.63
   3  10   5   -3.84    6.78
   3  10   5    6.63    7.95
 -11   0  -5    2.50    7.39
   0  11  -5    4.68    7.99
 -11  11   5   10.43   10.73
  11   0   5    3.66    9.04
 -11   3  -5   -7.10    6.11
 -11   3  -5   14.07   11.93
   3   8  -5   -3.60    6.79
   3   8  -5   -0.30    6.44
  -3  -8   5   -0.28    6.84
  -8  11   5    6.28    7.69
 -11   6  -5   22.50   13.08
 -11   6  -5   29.63    8.40
   6   5  -5   28.18    9.90
  -5  11   5   24.04    8.07
  -6  -5   5   28.56    9.67
   9   2  -5   22.41   10.15
 -11   9  -5   14.71   11.80
 -11   9  -5   12.14   10.16
  -9  -2   5   25.37    9.57
  -1 -11  -5    8.68    8.81
 -11  12  -5   -7.10   11.94
  12  -1  -5    1.09    9.20
 -11  12  -5   25.60   12.62
 -12   1   5    0.50    9.14
   1  11   5   10.47    7.37
 -12   2  -5   23.09    9.99
   2  10  -5   18.31    8.34
  12  -2   5   23.80   11.05
  -2 -10   5   18.73   10.31
 -10  12   5   21.22   12.02
 -12   5  -5   25.71   14.83
 -12   5  -5   38.69    9.90
   5   7  -5   15.98    9.57
   5   7  -5   21.18    9.19
  -5  -7   5   43.46   11.14
  -7  12   5   13.63    9.03
   8   4  -5  100.19   17.93
  -4  12   5   95.00   14.18
  -8  -4   5  108.97   17.80
  -4  12   5  113.33   15.60
  11   1  -5   -2.31    9.01
 -12  11  -5    5.01   13.20
 -12  11  -5    9.22   12.04
 -11  -1   5   -1.32    8.52
   4   9  -5   23.21   10.38
   4   9  -5   31.39   10.94
 -13   4  -5   34.80   10.82
  -4  -9   5   50.73   12.91
  -9  13   5   46.27   13.55
   7   6  -5   -3.35    7.18
 -13   7  -5    9.07   12.47
  -7  -6   5   10.64    9.49
  -6  13   5   -3.47    7.84
  10   3  -5   -5.69    7.99
  -3  13   5   -3.80    6.03
 -10  -3   5   -3.34    8.34
   0   0  -6  273.49   26.67
   0   0  -6  288.61   26.10
   0   0   6  249.33   26.26
   0   0   6  275.26   26.07
   0   0   6  235.02   26.42
  -1   2  -6   39.79    7.38
  -1   2  -6   62.78    7.33
  -1   2  -6   69.88    7.69
   2  -1  -6   37.84    7.17
  -1   2  -6   50.38    6.85
   2  -1  -6   38.22    5.86
   1  -2   6   63.45    7.87
   1   1   6   22.18    5.20
  -2   1   6   33.46    6.55
   1  -2   6   54.35    8.03
   1  -2   6   44.48    6.45
   1   1   6   24.28    5.52
  -2   1   6   52.32    6.67
   1  -2   6   57.64    7.19
  -2   1   6   39.57    5.99
  -2   1  -6   42.92    6.96
   1   1  -6   21.40    6.24
  -2   1  -6   49.43    6.78
   1   1  -6   32.24    5.54
  -2   1  -6   34.63    5.96
  -2   1  -6   45.36    6.54
   1  -2  -6   39.85    4.43
  -1  -1   6   25.16    5.49
  -1  -1   6   27.86    5.85
  -1   2   6   37.22    5.43
   2  -1   6   36.45    6.52
  -1  -1   6   28.05    6.80
   2  -1   6   46.50    6.59
   2  -1   6   44.23    6.56
  -1   2   6   45.10    5.38
   4  -2  -6  491.37   50.92
  -2  -2  -6  456.15   48.71
  -2   4  -6  597.75   51.82
   4  -2  -6  518.53   51.46
  -2   4  -6  498.11   50.11
  -2   4  -6  506.95   50.56
  -2   4  -6  599.97   51.31
   2   2   6  537.19   49.83
   2   2   6  560.90   50.25
  -4   2   6  561.97   50.97
   2  -4   6  508.58   50.28
  -4   2   6  507.85   51.07
   2   2   6  527.70   49.38
  -4   2   6  521.50   50.50
   2   2   6  460.69   48.91
   2  -4   6  513.18   50.84
   2  -4   6  531.45   51.54
   0   3  -6   15.36    4.82
   3  -3  -6    7.55    4.25
   0   3  -6   19.38    4.45
  -3   0  -6    6.91    3.65
   0   3  -6   13.14    4.58
  -3   0  -6    5.38    4.46
  -3   0  -6   17.80    4.88
  -3   3   6    7.29    4.23
   0  -3   6   12.31    5.49
   3   0   6   15.30    4.74
   0  -3   6   13.23    4.15
   0  -3   6   11.79    3.74
   0  -3   6   15.98    4.50
  -3   3  -6   46.69    7.75
   3   0  -6   46.74    7.81
   3   0  -6   44.75    6.69
  -3   3  -6   24.32    6.30
  -3   3  -6   33.24    7.50
  -3   3  -6   31.74    6.86
   3   0  -6   53.92    8.75
   3  -3   6   30.94    6.86
  -3   0   6   50.77    7.25
   3  -3   6   31.73    7.56
   3  -3   6   29.64    6.92
  -3   0   6   45.36    7.27
  -3   0   6   63.29    9.37
  -3   6  -6   33.02    7.68
  -3   6  -6   30.74    7.39
   6  -3  -6   29.35    8.65
  -3   6  -6   32.91    5.81
   6  -3  -6   19.34    7.10
   3  -6   6   29.61    6.74
   3   3   6   21.39    6.44
   3  -6   6   37.64    6.77
  -6   3   6   44.19    8.11
  -6   3   6   32.26    7.99
   3   3   6   14.84    4.83
  -6   3   6   38.01    7.17
   3  -6   6   38.40    8.36
   3   3   6   15.48    5.45
  -1   5  -6   30.86    6.49
  -1   5  -6   28.38    4.94
  -4  -1  -6   19.08    5.08
  -1   5  -6   32.90    5.11
   5  -4  -6   21.48    6.41
   5  -4  -6   11.06    6.53
  -4  -1  -6   17.65    5.51
  -1   5  -6   29.50    6.82
  -4  -1  -6   15.86    5.47
   4   1   6   20.28    6.14
   1  -5   6   29.18    6.16
   1  -5   6   29.55    7.33
  -5   4   6   20.33    5.67
  -5   4   6   11.24    4.31
   4   1   6   21.67    5.13
  -5   4   6   16.43    5.14
   1  -5   6   26.02    5.84
  -5   4   6   15.85    6.67
   2   2  -6  480.17   50.90
  -4   2  -6  576.86   51.91
   2   2  -6  504.69   50.74
  -4   2  -6  502.40   51.78
  -4   2  -6  493.27   51.09
   2   2  -6  516.45   51.24
  -4   2  -6  533.86   50.99
  -2  -2   6  559.86   51.00
  -2  -2   6  467.21   50.31
   4  -2   6  567.73   51.55
  -2   4   6  536.88   49.66
  -2   4   6  515.49   49.72
   4  -2   6  501.22   51.65
   4  -2   6  553.60   52.09
  -2  -2   6  557.03   52.31
  -4   5  -6   13.60    4.83
  -4   5  -6   13.88    5.95
  -4   5  -6   18.48    6.25
   5  -1  -6    4.97    6.27
   5  -1  -6   10.24    4.52
   5  -1  -6    5.11    5.66
  -4   5  -6   20.05    6.47
   4  -5   6   13.66    6.91
  -5   1   6    6.69    4.92
   1   4   6   22.72    5.15
  -5   1   6    6.49    5.00
   1   4   6   20.32    5.54
   4  -5   6   17.40    5.64
   4  -5   6    5.79    5.14
  -5   1   6    6.94    6.75
   8  -4  -6  120.37   18.60
  -4   8  -6  108.75   16.26
  -4   8  -6  142.67   16.50
   8  -4  -6  112.80   17.63
   4   4   6  104.84   14.36
  -8   4   6  101.57   14.72
   4  -8   6  110.35   15.06
  -8   4   6  116.22   16.73
  -8   4   6  102.92   15.94
   4   4   6   89.86   15.11
   4  -8   6   99.20   16.29
   4   4   6   89.94   14.10
   7  -5  -6   10.10    7.54
  -5  -2  -6    9.12    4.36
  -2   7  -6    9.91    5.91
  -2   7  -6   16.69    6.41
  -5  -2  -6   15.71    5.63
  -5  -2  -6   13.17    5.65
  -5  -2  -6   11.51    5.86
   7  -5  -6   13.32    6.82
  -7   5   6   22.41    6.72
  -7   5   6    5.43    5.38
  -7   5   6    6.31    6.76
   5   2   6   25.27    7.10
   5   2   6   21.93    5.39
   2  -7   6   17.24    6.62
   5   2   6    2.55    4.39
   2  -7   6    9.46    4.70
   4  -5  -6    9.02    4.75
   1   4  -6   16.38    4.81
  -5   1  -6   29.09    6.31
   1   4  -6   12.64    5.32
   1   4  -6   19.89    4.80
   1   4  -6   22.09    6.13
  -5   1  -6   21.92    6.60
  -5   1  -6   25.51    7.22
   5  -1   6   27.35    6.58
   5  -1   6   31.67    5.31
  -4   5   6   19.88    5.71
  -1  -4   6   23.49    5.40
  -1  -4   6   18.44    6.69
  -1  -4   6   19.75    5.44
   5  -1   6   32.55    6.77
  -5   4  -6   17.57    7.15
  -5   4  -6   17.01    6.11
   4   1  -6    7.33    6.37
   4   1  -6   15.36    6.28
  -5   4  -6   20.37    5.87
  -5   4  -6   25.64    6.64
   4   1  -6   21.01    5.96
  -4  -1   6   16.09    5.61
  -1   5   6    2.92    4.18
  -4  -1   6   13.86    7.98
  -4  -1   6   19.41    5.55
   5  -4   6   27.79    7.76
   5  -4   6   16.36    6.92
   7  -2  -6    4.56    6.28
   7  -2  -6    0.66    7.66
  -5   7  -6    4.16    5.13
  -5   7  -6    1.86    4.18
  -5   7  -6   13.42    7.11
  -5   7  -6    8.52    5.16
  -7   2   6    1.43    5.33
  -7   2   6   -4.37    4.76
   5  -7   6    0.07    6.53
  -7   2   6    0.88    6.69
  -7   2   6   -8.10    6.57
   2   5   6   -3.18    3.75
   2   5   6    3.15    4.88
   5  -7   6    8.96    6.01
  -5  -5  -6   -8.22    6.20
  -5  10  -6    9.07    8.87
  10  -5  -6    7.60   11.09
  -5  10  -6    2.17    7.10
  10  -5  -6    6.02   10.74
   5   5   6   -4.18    5.98
   5   5   6   -6.32    5.02
 -10   5   6    5.33    8.86
 -10   5   6    0.28    6.46
   9  -6  -6  -12.68    8.52
  -3   9  -6    1.83    6.27
  -6  -3  -6    9.26   10.96
  -6  -3  -6    1.53    5.12
   9  -6  -6   -0.34    8.30
  -3   9  -6   10.29    7.23
  -6  -3  -6    7.05    6.69
  -6  -3  -6    2.97    6.89
   6   3   6    9.18    6.94
  -9   6   6    4.12    8.09
   6   3   6    9.65    5.37
   3  -9   6    2.64   10.35
  -9   6   6    1.14    6.37
   3  -9   6    4.31    5.82
   6  -6  -6  221.65   27.87
  -6   0  -6  257.40   27.76
  -6   0  -6  226.01   27.99
   0   6  -6  270.83   27.76
   0   6  -6  263.06   28.44
   6  -6  -6  257.59   27.99
  -6   0  -6  240.07   28.21
  -6   0  -6  250.42   27.73
   0  -6   6  256.56   26.39
   0  -6   6  255.55   28.32
  -6   6   6  288.56   27.74
   6   0   6  289.49   26.96
  -6   6   6  263.27   28.26
   3   3  -6   23.77    6.48
  -6   3  -6   31.82    8.05
   3   3  -6   20.39    5.89
   3   3  -6   14.67    5.54
   3   3  -6   22.27    5.51
  -6   3  -6   33.87    7.41
  -6   3  -6   28.93    7.66
  -6   3  -6   38.83    6.27
  -6   3  -6   29.09    6.89
   6  -3   6   34.09    8.15
  -3   6   6   38.20    6.57
  -3   6   6   32.16    5.50
  -3  -3   6   15.12    5.69
  -3  -3   6   22.56    8.23
   6  -3   6   24.93    4.88
   6  -3   6   25.91    8.08
   6   0  -6  407.18   41.93
   6   0  -6  343.27   42.26
  -6   6  -6  447.04   43.16
   6   0  -6  426.53   43.77
  -6   6  -6  482.42   44.11
  -6   6  -6  506.54   44.16
  -6   6  -6  399.43   41.96
   0   6   6  404.79   42.08
   0   6   6  367.71   40.70
  -6   0   6  416.33   43.94
   6  -6   6  419.77   43.04
  -6   0   6  414.46   43.53
  -6   0   6  356.65   41.74
   6  -6   6  486.47   44.70
  -6   0   6  388.37   41.91
  -3  -6  -6   -0.36    6.07
  -6   9  -6    4.65    6.55
   9  -3  -6   -3.24    9.55
   9  -3  -6    3.44    8.03
  -6   9  -6   10.54    8.55
  -9   3   6   11.82    7.56
   3   6   6    4.36    6.10
   3   6   6   14.99    5.96
   6  -9   6    0.37    8.26
   6  -9   6    3.87    6.29
  -9   3   6   -5.66    7.89
  -9   3   6   14.47    7.32
   3   6   6    9.31    4.74
  -9   3   6    8.84    9.13
  -6  12  -6   42.19   13.29
  -6  -6  -6   53.68   12.09
  -6  12  -6   46.91   12.79
 -12   6   6   37.46   13.21
   6   6   6   58.95   11.28
   6   6   6   25.43   10.90
 -12   6   6   50.22   11.72
  11  -7  -6    7.07   11.13
  -4  11  -6    0.85    7.34
  -7  -4  -6   -1.37    7.03
  -4  11  -6   -0.79    8.25
 -11   7   6    5.84    8.16
   7   4   6   11.83    8.69
 -11   7   6   -8.77    8.86
   7   4   6    6.65    5.95
   8  -7  -6   -5.25    7.56
   8  -7  -6    0.83    8.64
  -1   8  -6    3.30    5.74
  -1   8  -6    8.56    6.28
  -7  -1  -6   -0.53    5.07
  -7  -1  -6    4.60    6.37
  -7  -1  -6   -3.64    6.31
  -7  -1  -6    3.38    7.79
  -8   7   6    8.45    8.36
   1  -8   6    8.15    5.18
  -8   7   6   14.04    6.76
   7   1   6    9.63    7.24
   1  -8   6   -2.88    7.13
   7   1   6    0.99    4.98
   2   5  -6   19.07    6.12
  -7   2  -6   13.70    7.55
   2   5  -6    8.23    6.13
   5  -7  -6    4.79    4.81
  -7   2  -6   13.25    5.84
  -7   2  -6   19.24    5.65
  -7   2  -6   20.99    6.13
  -7   2  -6    9.75    7.04
   7  -2   6   21.14    7.02
  -5   7   6    1.18    4.49
   7  -2   6   12.08    4.53
   7  -2   6    6.23    5.45
  -2  -5   6   18.51    5.88
  -2  -5   6   27.96    8.22
  -5   7   6   14.02    5.71
  -7   5  -6    3.33    5.31
  -7   5  -6    0.26    5.87
   5   2  -6    1.86    4.85
   5   2  -6    1.41    4.73
  -7   5  -6    9.28    6.91
  -7   5  -6    6.08    5.76
   5   2  -6    7.48    5.99
  -5  -2   6    0.19    6.00
  -2   7   6    4.36    4.43
  -5  -2   6   -4.02    5.79
   7  -5   6    2.33    7.11
  -5  -2   6   12.48    5.98
   7  -5   6    3.67    6.88
  -5  -2   6   -0.79    7.57
   8  -1  -6    4.00    6.21
   8  -1  -6   13.05   10.02
  -7   8  -6   -5.68    5.06
  -7   8  -6    0.57    6.40
  -7   8  -6   -4.06    6.13
   8  -1  -6    2.69    6.80
  -7   8  -6   14.61    8.92
   7  -8   6    9.86    9.88
   7  -8   6   -0.62    7.60
  -8   1   6   -1.46    7.41
  -8   1   6   11.82    9.66
  -8   1   6   -1.00    6.26
   1   7   6    4.27    4.69
   1   7   6   -0.18    6.05
  -8   1   6    5.74    5.82
  -7  11  -6    4.83    9.94
  -7  11  -6    3.55    7.95
  -4  -7  -6    0.96    6.53
   4   7   6   11.22    6.82
 -11   4   6   -6.59    7.16
   4   7   6    8.76    7.20
  -5  13  -6    9.79   11.18
  -8  -5  -6   -0.30    8.70
 -13   8   6    3.00    8.92
   8   5   6   -3.71    6.24
 -13   8   6    4.12   11.93
   8   5   6   13.31   10.28
  -2  10  -6   40.89   10.41
  -8  -2  -6   56.09   11.56
  10  -8  -6   29.17   12.42
  -2  10  -6   39.07   10.70
   8   2   6   57.38   10.20
 -10   8   6   43.30   13.16
   8   2   6   34.88   10.95
 -10   8   6   42.50   10.64
  -8   1  -6    4.03    5.60
  -8   1  -6    7.97    5.97
  -8   1  -6   -2.05    7.79
   1   7  -6    2.06    5.42
  -8   1  -6   20.43    8.65
   7  -8  -6   -2.95    6.14
   7  -8  -6   11.83    7.57
  -1  -7   6    4.56    7.37
  -1  -7   6    7.47    5.67
   8  -1   6   18.52    6.15
  -7   8   6    4.47    7.59
   8  -1   6    4.43    4.66
   8  -1   6    1.13    6.01
  -7   8   6    3.96    5.89
   4   4  -6   81.15   14.35
  -8   4  -6  107.50   17.32
  -8   4  -6  107.48   16.40
  -8   4  -6  110.71   14.20
  -8   4  -6  112.41   16.18
  -8   4  -6  110.77   16.67
   8  -4   6  119.54   17.95
  -4  -4   6   68.69   14.64
  -4  -4   6   91.15   16.51
  -4   8   6  114.11   13.24
  -4   8   6  117.15   13.17
  -4  -4   6  100.27   14.82
   8  -4   6  115.97   12.73
   8  -4   6  107.61   16.68
   7   1  -6   21.70    7.69
  -8   7  -6   12.84    8.40
   7   1  -6    3.72    7.99
  -8   7  -6    0.57    7.38
  -8   7  -6   -0.18    5.74
  -8   7  -6   10.85    7.44
   7   1  -6  -10.84    6.61
  -7  -1   6    3.85    9.20
  -1   8   6   -3.11    4.18
  -7  -1   6   13.48    7.05
   8  -7   6   12.24    9.69
  -7  -1   6   -0.19   10.19
   8  -7   6    4.43    8.96
  -8  10  -6   84.33   15.81
  10  -2  -6   44.65   10.88
  -8  10  -6   55.63   12.78
  -2  -8  -6   56.19   11.62
 -10   2   6   29.75   13.59
   2   8   6   46.51   11.55
 -10   2   6   57.34   11.91
   2   8   6   61.71   10.31
  -5  -8  -6   -3.56    8.21
  -8  13  -6  -12.32    9.06
   5   8   6   -0.36    6.36
 -13   5   6   -4.38    8.11
   5   8   6    0.73    7.24
  -9  -3  -6   -4.35    7.61
  -3  12  -6    5.41    9.37
 -12   9   6   11.38   11.21
   9   3   6   -5.59    8.34
   9   3   6    1.88    5.91
 -12   9   6    5.15   11.70
  -9   0  -6   -5.20    5.96
   0   9  -6    2.20    6.77
   9   0   6    0.61    5.17
  -9   9   6   -8.60    7.81
   9   0   6    4.90    7.65
  -9   9   6   -7.40    6.07
   0  -9   6    0.95    6.10
  -9   3  -6   -0.83    6.01
  -9   3  -6    0.47    8.38
   6  -9  -6    5.60    5.99
   3   6  -6   12.13    6.40
  -9   3  -6    8.59    5.95
   6  -9  -6   11.04    7.43
  -9   3  -6    1.63    9.23
   3   6  -6   11.56    6.97
  -3  -6   6    5.40    7.62
  -3  -6   6    2.19    9.79
   9  -3   6    1.92    4.79
  -3  -6   6    4.83    6.34
  -6   9   6    9.23    6.34
   9  -3   6   -4.99    7.91
  -6   9   6    5.43    5.01
  -9   6  -6    6.58    6.89
  -9   6  -6   -0.17    7.07
  -9   6  -6    4.48    8.34
  -9   6  -6    0.56    8.99
   6   3  -6    4.65    7.39
  -9   6  -6    3.03    4.77
  -3   9   6   -2.11    4.41
   9  -6   6   19.01   10.65
   9  -6   6    3.17    8.79
  -3   9   6    7.02    4.18
  -6  -3   6    5.62    8.35
  -6  -3   6   -8.86    9.86
  -6  -3   6   -0.67    5.86
   9   0  -6   22.42    8.48
  -9   9  -6    0.66    7.85
  -9   9  -6   -1.54    8.87
  -9   0   6   13.04   13.16
   9  -9   6   11.98   17.00
  -9   0   6   15.36   11.27
   0   9   6    5.85    5.43
  -9   0   6   -5.63    6.54
   9  -9   6    1.81   11.65
  -3  -9  -6    0.33    7.57
  -9  12  -6    3.73   11.45
  -9  12  -6   12.98    9.62
  12  -3  -6    5.51    8.32
   3   9   6    7.20    8.23
 -12   3   6   24.78   10.15
   3   9   6    2.15    6.54
 -10  -1  -6   -0.68    7.90
  -1  11  -6    6.94    8.60
 -11  10   6    2.09   10.82
  10   1   6    4.80    6.23
  10   1   6   -5.30    8.75
   2   8  -6   44.66   10.18
 -10   2  -6   23.91   12.00
 -10   2  -6   52.07   10.96
  10  -2   6   57.04    9.88
  -2  -8   6   46.23   10.64
  -8  10   6   39.53   11.71
 -10   5  -6   10.44   10.63
   5   5  -6   -8.59    6.30
 -10   5  -6    3.54    6.21
 -10   5  -6   -5.30    8.04
 -10   5  -6    0.00    7.69
  -5  10   6   -6.84    5.08
  -5  -5   6   -8.44    6.46
  10  -5   6   22.66   16.09
  -5  10   6    7.76    7.16
   8   2  -6   32.15   11.37
 -10   8  -6   72.67   15.16
 -10   8  -6   63.86   14.15
  -2  10   6   52.30    9.04
  -8  -2   6   62.59   18.66
  10  -8   6   53.98   14.96
  -8  -2   6   56.16   12.52
 -10  11  -6   12.41   11.66
  -1 -10  -6    7.76    7.52
 -10  11  -6   -3.61    8.54
  11  -1  -6    6.16    8.04
 -11   1   6    1.87    7.86
   1  10   6   -0.91    5.83
 -11   1  -6    6.70    7.95
   1  10  -6   -5.22    6.60
  11  -1   6   -1.56    6.13
 -10  11   6    3.01   10.54
  11  -1   6    1.87    8.73
 -11   4  -6    7.02    6.82
   4   7  -6   10.60    7.67
   4   7  -6    6.94    7.23
 -11   4  -6    0.74   13.84
  -4  -7   6    8.25    8.36
  -7  11   6   15.93    8.33
   7   4  -6   14.64    8.38
 -11   7  -6    9.75   12.88
  -4  11   6    6.98    5.91
  -7  -4   6   -3.87    7.49
 -11  10  -6   13.64   10.43
   1 -11  -6  -11.98    6.15
  10   1  -6   -1.78    8.23
 -11  10  -6    1.32   11.54
  -1  11   6   -4.92    5.37
 -10  -1   6   -2.94    7.72
   3   9  -6   -5.40    7.52
 -12   3  -6    4.46    7.80
   3   9  -6   11.02    7.40
  -9  12   6   -7.06    8.45
  -3  -9   6    6.48    9.65
 -12   6  -6   47.00   10.56
   6   6  -6   38.08   11.16
  -6  -6   6   48.71   12.02
  -6  12   6   34.23    9.89
   9   3  -6   15.56    9.72
 -12   9  -6   -4.17   12.35
  -9  -3   6    5.96    8.02
  -3  12   6    9.54    5.12
 -13   5  -6    5.78    8.57
   5   8  -6    8.16    8.44
   5   8  -6   -1.29    7.98
  -5  -8   6  -10.19    8.15
  -8  13   6    7.94    8.40
   8   5  -6    3.09    8.44
  -5  13   6    2.49    6.93
  -8  -5   6    2.64    8.83
  -1   0  -7 1633.86  152.33
  -1   0  -7 1536.58  152.33
   0   1  -7 1695.10  152.37
   0   1  -7 1639.99  152.15
   1  -1  -7 1616.94  151.78
  -1   0  -7 1603.43  151.92
   0   1  -7 1705.70  153.08
   1  -1  -7 1580.73  152.33
  -1   1   7 1644.23  151.75
  -1   1   7 1826.40  152.39
   0  -1   7 1649.10  153.04
   0  -1   7 1617.46  153.15
   1   0   7 1569.11  151.56
   1   0   7 1488.25  151.81
   1   0   7 1556.03  151.84
  -1   1   7 1680.92  151.53
   0  -1   7 1581.61  152.19
   0  -1   7 1734.62  152.26
  -1   3  -7  842.19   79.37
  -1   3  -7  905.67   80.35
  -2  -1  -7  798.51   78.09
  -1   3  -7  898.10   79.33
  -2  -1  -7  828.52   78.42
  -2  -1  -7  792.19   77.90
  -1   3  -7  818.31   79.79
   3  -2  -7  840.07   79.71
   1  -3   7  853.02   79.99
  -3   2   7  877.63   79.34
   2   1   7  806.31   78.97
  -3   2   7  882.76   79.40
   1  -3   7  850.12   80.28
  -3   2   7  809.75   78.97
   2   1   7  816.87   79.06
   2   1   7  769.12   78.16
  -3   2   7  782.25   78.39
   1  -3   7  860.50   79.17
   1  -3   7  812.66   78.79
   2   0  -7  813.79   77.66
   2   0  -7  851.23   78.86
  -2   2  -7  856.57   78.79
  -2   2  -7  818.62   78.02
  -2   2  -7  807.55   78.53
  -2   2  -7  862.99   78.20
   2  -2   7  825.78   78.72
   2  -2   7  769.28   77.88
   0   2   7  821.89   76.98
   0   2   7  733.70   76.76
  -2   0   7  837.86   77.99
   2  -2   7  839.44   78.69
  -2   0   7  812.57   78.85
  -2   0   7  838.60   77.94
  -2   5  -7   68.63   10.77
  -2   5  -7   62.41   10.23
   5  -3  -7   73.23   12.22
   5  -3  -7   62.55   10.60
  -2   5  -7   49.37    8.99
  -3  -2  -7   47.12    7.41
   5  -3  -7   64.67    9.00
   2  -5   7   76.88   11.49
  -5   3   7   62.89    9.82
  -5   3   7   66.47   10.76
  -5   3   7   69.56   10.32
   3   2   7   36.14    8.26
   3   2   7   53.89    9.08
   2  -5   7   61.51    9.81
   3   2   7   58.53    9.26
   3   2   7   59.35    9.41
   2  -5   7   71.92    9.64
   1   2  -7  948.23   80.31
   1   2  -7  964.71   79.51
  -3   1  -7  757.76   79.62
   2  -3  -7  767.22   77.61
   2  -3  -7  794.04   77.85
  -3   1  -7  869.03   79.38
  -3   1  -7  817.96   79.58
  -1  -2   7  921.98   80.74
  -1  -2   7  819.34   79.34
   3  -1   7  764.03   79.19
  -1  -2   7  790.06   78.82
  -2   3   7  770.89   78.37
  -1  -2   7  954.50   80.43
  -2   3   7  804.84   78.54
   3  -1   7  830.15   79.95
   4  -1  -7   98.85   13.52
  -3   4  -7   76.42   11.80
  -3   4  -7   87.43   10.99
  -3   4  -7   81.04   12.16
   4  -1  -7   82.47   10.96
  -3   4  -7   93.39   12.08
   4  -1  -7   96.33   12.58
   3  -4   7   90.86   13.01
   1   3   7   62.35    9.38
  -4   1   7   93.01   11.68
   1   3   7   80.41   11.15
   3  -4   7  108.13   12.42
  -4   1   7   84.12   11.67
   3  -4   7   79.22   11.75
  -4   1   7   94.84   13.06
   7  -4  -7   12.54    8.50
   7  -4  -7    3.50    6.00
  -3   7  -7    6.49    5.00
  -3   7  -7   12.57    6.68
   4   3   7    2.31    3.41
  -7   4   7   12.78    6.56
   3  -7   7   12.54    7.20
   4   3   7    5.47    5.47
  -7   4   7    2.14    5.39
   4   3   7   10.09    5.73
  -7   4   7    3.48    5.23
   3  -7   7    4.36    4.49
  -4   0  -7 1116.22  106.79
  -4   0  -7 1076.39  106.56
   0   4  -7 1083.23  106.52
   0   4  -7 1229.98  107.96
  -4   0  -7 1170.05  106.65
   4  -4  -7 1028.77  106.20
   0   4  -7 1172.57  106.72
   0   4  -7 1154.68  106.38
  -4   4   7 1171.02  106.92
   0  -4   7 1079.97  106.41
   0  -4   7 1102.10  106.94
   0  -4   7 1059.90  107.35
   4   0   7 1130.54  105.92
  -4   4   7 1184.26  106.63
   4   0   7 1120.47  107.23
  -4   3  -7   78.29   11.77
   3   1  -7   98.36   13.33
  -4   3  -7  105.04   13.54
  -4   3  -7   87.52   12.25
  -4   3  -7   89.17   12.01
   3   1  -7   90.81   11.67
   3   1  -7   75.64   12.07
  -3  -1   7   94.47   13.59
   4  -3   7   91.29   13.27
  -1   4   7   79.30   11.32
   4  -3   7   92.49   12.73
  -3  -1   7   72.59   11.11
  -3  -1   7   91.19   11.68
   4  -3   7   95.18   12.38
   6  -2  -7  135.65   17.99
  -4   6  -7  125.32   17.01
   6  -2  -7  144.01   19.23
  -4   6  -7  165.72   16.03
  -4   6  -7  127.08   17.24
  -4   6  -7  107.07   15.91
  -6   2   7  126.68   18.14
   4  -6   7  135.87   16.53
   2   4   7  129.27   15.15
  -6   2   7  133.93   17.26
   2   4   7  111.79   14.23
  -6   2   7  134.37   16.05
   4  -6   7  138.01   18.29
   2   4   7  141.46   15.80
   4  -6   7  131.31   16.53
  -5  -4  -7  301.23   35.50
  -4   9  -7  390.04   39.96
   9  -5  -7  363.97   41.06
  -4   9  -7  339.21   39.06
   9  -5  -7  378.54   40.42
  -5  -4  -7  362.87   38.42
  -9   5   7  394.47   40.01
   5   4   7  330.59   38.35
   4  -9   7  343.91   37.48
   4  -9   7  366.53   39.71
  -9   5   7  394.33   38.19
   5   4   7  350.29   37.10
   6  -5  -7  235.76   25.04
  -5  -1  -7  173.23   22.98
  -5  -1  -7  176.39   22.85
  -1   6  -7  225.97   24.40
  -5  -1  -7  184.25   22.47
   6  -5  -7  181.93   23.38
  -1   6  -7  231.82   23.89
  -6   5   7  225.86   21.93
  -6   5   7  234.28   23.52
   5   1   7  219.84   23.61
   1  -6   7  225.61   24.75
   1  -6   7  237.21   23.45
  -6   5   7  221.30   24.31
  -6   5   7  209.13   21.47
   5   1   7  202.84   22.49
  -5   2  -7   59.55   10.08
   2   3  -7   61.02    9.87
   2   3  -7   78.20   10.50
  -5   2  -7   44.24   10.12
   2   3  -7   65.21    9.74
  -5   2  -7   59.03    9.90
  -5   2  -7   69.61   10.91
   2   3  -7   69.50    9.72
   5  -2   7   54.47    8.13
  -2  -3   7   54.44    8.79
  -2  -3   7   62.10    9.26
   5  -2   7   68.42   10.67
  -2  -3   7   63.79   11.59
  -2  -3   7   60.40   10.06
   5  -2   7   51.12   10.12
  -3   5   7   63.18    9.45
  -3   5   7   54.42    8.49
  -5   5  -7  530.59   51.21
   5   0  -7  480.69   50.81
   5   0  -7  522.91   49.88
  -5   5  -7  510.53   51.44
   5   0  -7  466.18   51.27
  -5   5  -7  545.22   51.42
  -5   5  -7  554.09   50.68
   0   5   7  516.74   49.62
  -5   0   7  475.52   50.18
   5  -5   7  547.30   52.06
  -5   0   7  496.86   51.69
   5  -5   7  555.45   51.25
   0   5   7  429.44   49.41
  -5   0   7  460.15   49.97
   8  -3  -7  249.78   29.76
  -5   8  -7  244.66   27.93
  -5   8  -7  281.45   28.80
  -5   8  -7  243.34   24.63
   8  -3  -7  217.25   27.95
   5  -8   7  233.11   26.93
   3   5   7  253.28   25.56
  -8   3   7  245.44   27.44
   3   5   7  216.50   24.39
   3   5   7  198.22   25.78
  -8   3   7  220.34   26.19
  -8   3   7  189.64   27.13
   5  -8   7  251.59   29.00
  -5  11  -7   23.79   11.88
  11  -6  -7   23.10   13.39
  -5  11  -7   17.16    9.51
  -6  -5  -7   34.46   10.28
   6   5   7   33.25    8.78
   6   5   7   44.63   11.94
 -11   6   7   33.07    9.95
 -11   6   7   23.34   10.11
  -6  -2  -7   88.27   15.15
  -2   8  -7   97.45   15.77
  -6  -2  -7  118.34   14.26
   8  -6  -7   89.76   17.57
  -6  -2  -7  119.99   16.13
  -2   8  -7  125.16   16.76
   8  -6  -7  105.06   16.66
  -6  -2  -7   97.28   15.27
  -8   6   7  139.23   16.36
   2  -8   7   87.49   16.25
  -8   6   7  117.41   17.73
   6   2   7  122.22   14.84
  -8   6   7   76.13   13.64
   6   2   7  122.85   17.02
   2  -8   7  110.34   14.79
   1   5  -7  207.97   23.88
   5  -6  -7  220.94   23.56
  -6   1  -7  240.93   24.86
  -6   1  -7  227.32   25.33
  -6   1  -7  247.85   25.30
  -5   6   7  241.53   24.01
   6  -1   7  195.00   23.20
  -1  -5   7  186.28   24.59
  -1  -5   7  215.19   23.27
  -5   6   7  220.63   24.16
   6  -1   7  223.78   23.71
   6  -1   7  205.37   22.91
   4   2  -7  135.17   16.27
  -6   4  -7  132.49   16.90
  -6   4  -7  116.85   17.00
  -6   4  -7  115.47   17.97
   4   2  -7  175.11   17.06
   4   2  -7  157.26   17.07
  -6   4  -7  131.08   17.14
  -4  -2   7  111.37   15.52
   6  -4   7  145.99   17.73
  -4  -2   7  169.23   16.94
  -4  -2   7  141.68   19.30
   6  -4   7  117.96   18.02
  -2   6   7  114.22   14.94
  -6   7  -7  403.02   42.86
  -6   7  -7  438.76   43.46
  -6   7  -7  388.36   41.08
   7  -1  -7  360.73   42.59
   7  -1  -7  417.53   44.18
   7  -1  -7  411.84   41.33
  -7   1   7  377.07   41.82
  -7   1   7  375.67   43.45
   6  -7   7  490.74   45.33
   1   6   7  439.81   40.68
   6  -7   7  372.54   42.15
   1   6   7  402.57   41.69
  -7   1   7  386.54   41.77
  -6  10  -7  176.97   24.02
  -4  -6  -7  176.32   23.36
  10  -4  -7  183.67   27.36
  -6  10  -7  174.04   24.62
 -10   4   7  177.31   23.30
   4   6   7  169.56   23.30
 -10   4   7  155.82   23.63
   4   6   7  201.65   21.49
  -7  -6  -7   17.05   10.10
  -6  13  -7   14.30   12.35
   7   6   7    7.27    8.48
   7   6   7   -2.70    6.39
 -13   7   7   -3.86    8.94
  10  -7  -7  173.90   28.59
  -3  10  -7  245.52   28.12
  -7  -3  -7  225.31   27.26
  -3  10  -7  244.38   28.68
   7   3   7  251.33   26.15
   7   3   7  188.80   27.63
 -10   7   7  228.52   26.28
 -10   7   7  213.48   29.30
  -7   0  -7   25.58    8.44
   7  -7  -7   26.08    8.91
  -7   0  -7   26.84    9.80
   0   7  -7   19.63    8.25
  -7   0  -7   37.15    8.78
   7  -7  -7   25.26    9.47
  -7   0  -7   29.85    9.70
   7   0   7   34.37    7.51
  -7   7   7   27.55    8.86
  -7   7   7   21.91    9.21
   0  -7   7   43.97    8.01
   0  -7   7   34.78   10.39
  -7   3  -7    5.59    6.72
   3   4  -7    6.71    3.97
   3   4  -7    7.23    3.80
   3   4  -7    7.89    5.15
  -7   3  -7    7.87    7.52
  -7   3  -7    9.74    5.53
  -7   3  -7   -4.03    5.41
  -7   3  -7    5.59    4.54
   3   4  -7   10.50    6.14
   7  -3   7    5.70    7.24
  -3  -4   7    7.16    5.25
   7  -3   7    2.34    6.57
  -4   7   7    9.31    4.92
   7  -3   7    6.46    3.75
  -4   7   7    2.19    4.37
  -3  -4   7   15.32    8.10
  -7   6  -7  422.59   43.89
   6   1  -7  369.66   42.53
  -7   6  -7  415.12   43.96
   6   1  -7  404.48   43.55
  -7   6  -7  402.26   42.65
  -7   6  -7  428.43   44.12
   6   1  -7  435.89   42.69
   7  -6   7  413.50   44.92
  -6  -1   7  400.25   43.98
  -6  -1   7  366.49   41.77
  -6  -1   7  474.43   45.80
  -6  -1   7  429.45   42.80
   7  -6   7  425.41   44.00
  -1   7   7  398.33   40.83
  -7   9  -7  210.97   28.05
   9  -2  -7  241.80   26.83
   9  -2  -7  199.49   30.00
  -7   9  -7  226.83   29.85
  -7   9  -7  255.34   26.57
  -9   2   7  230.51   27.32
  -9   2   7  218.04   27.49
   7  -9   7  236.31   29.83
   2   7   7  203.47   26.75
   2   7   7  243.51   25.77
  -9   2   7  242.92   30.29
  -9   2   7  251.95   30.29
   7  -9   7  243.75   28.42
  -7  12  -7    9.91    8.94
  -5  -7  -7    2.65    8.00
  -7  12  -7   19.46   12.15
   5   7   7   21.43    8.23
 -12   5   7   11.06    8.38
   5   7   7    9.67    7.78
  -8  -4  -7  165.97   23.62
  -4  12  -7  133.64   23.48
 -12   8   7  152.66   22.05
   8   4   7  163.99   21.64
 -12   8   7  167.58   26.14
   8   4   7  170.30   24.92
  -1   9  -7  120.47   18.26
  -8  -1  -7  114.39   18.26
  -1   9  -7  123.44   19.06
   8   1   7  114.53   18.61
  -9   8   7  134.06   18.67
  -9   8   7  133.06   20.54
   8   1   7  145.87   17.57
  -8   2  -7  128.42   18.32
  -8   2  -7   81.18   16.55
  -8   2  -7  115.72   15.45
   6  -8  -7   92.69   14.89
   2   6  -7  120.79   15.87
   2   6  -7  144.71   17.55
  -8   2  -7  102.49   16.07
   8  -2   7  103.90   15.61
   8  -2   7  118.74   14.73
  -6   8   7  126.24   16.57
  -2  -6   7  101.06   17.07
  -2  -6   7  139.23   16.17
  -6   8   7  118.17   15.24
   8  -2   7  100.26   16.12
  -8   5  -7  217.06   27.36
   5   3  -7  260.52   27.31
   5   3  -7  228.24   25.50
  -8   5  -7  235.54   24.86
  -8   5  -7  256.04   28.37
  -8   5  -7  239.43   28.85
  -8   5  -7  244.99   27.64
   5   3  -7  243.58   25.26
   8  -5   7  239.37   24.24
   8  -5   7  262.07   29.34
  -5  -3   7  244.43   26.77
  -3   8   7  233.13   25.01
  -5  -3   7  241.88   30.00
  -5  -3   7  256.12   28.70
  -3   8   7  183.83   23.67
   8  -5   7  238.18   28.95
   8   0  -7 1275.97  123.42
  -8   8  -7 1303.83  125.27
  -8   8  -7 1327.12  125.33
  -8   0   7 1271.74  125.80
   0   8   7 1225.38  121.20
   8  -8   7 1305.87  124.96
   8  -8   7 1272.29  125.85
  -8   0   7 1285.45  123.69
  -8   0   7 1260.60  125.25
  -8  11  -7    5.56   10.25
  -3  -8  -7   -5.58    6.63
  -8  11  -7    9.45    8.48
  11  -3  -7   12.97    8.29
   3   8   7    9.68    6.54
 -11   3   7   -2.29    7.54
   3   8   7   15.52    8.11
  -2  11  -7    8.64    9.50
  -2  11  -7   24.55    9.98
  -9  -2  -7   21.50   10.28
   9   2   7   39.96    9.59
 -11   9   7   38.69   13.74
 -11   9   7   23.76    9.65
   9   2   7   25.61   10.48
  -9   1  -7  124.80   20.91
   1   8  -7   97.33   17.20
  -9   1  -7  120.30   18.26
   9  -1   7  156.68   17.05
  -8   9   7  128.10   18.16
  -1  -8   7  148.55   18.10
  -8   9   7  130.87   19.39
  -9   4  -7  320.73   38.39
   4   5  -7  318.60   37.17
  -9   4  -7  332.45   37.94
   4   5  -7  339.24   36.75
  -9   4  -7  380.84   36.08
  -9   4  -7  356.04   39.73
  -4  -5   7  357.63   39.84
  -5   9   7  351.45   34.93
   9  -4   7  335.72   38.97
  -5   9   7  282.71   35.24
  -4  -5   7  357.77   36.82
   9  -4   7  380.20   35.17
   7   2  -7  258.60   28.87
  -9   7  -7  240.23   30.29
  -9   7  -7  245.43   30.23
  -9   7  -7  227.85   29.46
   9  -7   7  257.85   31.00
  -7  -2   7  227.39   32.43
  -7  -2   7  242.43   28.35
   9  -7   7  221.42   31.72
  -7  -2   7  254.20   31.18
  -2   9   7  252.38   26.19
  -9  10  -7    2.62    8.09
  -9  10  -7    6.27   10.74
  10  -1  -7    2.87    8.08
 -10   1   7   10.29   11.80
   9 -10   7    9.68   13.14
   1   9   7    6.64    6.21
   1   9   7   12.13    7.79
 -10   1   7    5.02    7.63
  -9  13  -7   35.46   15.43
  -4  -9  -7   48.67   12.35
  13  -4  -7   28.21   11.45
 -13   4   7   40.02   13.11
   4   9   7   41.12   10.30
   4   9   7   38.34   12.10
 -10   0  -7   21.97    9.90
   0  10  -7   15.94    8.88
 -10  10   7   15.10   10.85
  10   0   7   22.13   10.24
  10   0   7   16.81    7.36
 -10   3  -7  191.10   28.55
 -10   3  -7  253.22   26.27
   3   7  -7  213.58   25.93
   3   7  -7  193.64   27.09
  -7  10   7  164.58   25.42
  -3  -7   7  267.47   26.88
  10  -3   7  237.05   24.60
 -10   6  -7  169.75   24.54
   6   4  -7  175.68   23.29
 -10   6  -7  177.12   19.91
 -10   6  -7  177.41   25.97
 -10   6  -7  209.80   24.80
  -4  10   7  166.62   19.24
  -4  10   7  128.73   19.69
  10  -6   7  208.69   27.06
  -6  -4   7  196.47   23.64
 -10   9  -7   10.92    9.61
 -10   9  -7    3.41   11.08
   9   1  -7   15.77    9.09
  -1  10   7   12.99    6.19
  -9  -1   7   -1.81   12.81
  -9  -1   7   14.53    8.30
  12  -2  -7   11.01    9.50
  -2 -10  -7    3.56    8.13
 -10  12  -7    7.67   12.47
 -10  12  -7   31.54   12.18
   2  10   7    7.17    7.32
   2  10   7   18.24    9.17
 -12   2   7   18.14   10.69
 -11  -1  -7   -3.40    9.23
  -1  12  -7    8.07    9.84
  11   1   7    8.82    7.34
  11   1   7    7.51   10.75
 -12  11   7    4.72   11.69
 -11   2  -7   11.71    8.41
   2   9  -7   36.36   10.35
  -9  11   7   15.77   10.67
  -2  -9   7   30.72    9.71
  11  -2   7   41.80    9.22
   5   6  -7   20.11    8.83
 -11   5  -7   10.46    7.28
 -11   5  -7    1.72   11.58
   5   6  -7   19.98    9.38
  -5  -6   7   24.48    9.85
  -6  11   7   15.71    8.06
   8   3  -7   -0.90    7.51
 -11   8  -7    1.87    7.98
 -11   8  -7   -0.42   10.75
  -3  11   7    4.13    4.40
  11  -8   7    8.34   12.87
  -8  -3   7    0.23    7.20
  -3  11   7   13.39    7.33
   0 -11  -7    1.42    7.06
  11   0  -7    1.83    9.55
 -11  11  -7   -0.54   10.10
 -11  11  -7   15.89   12.67
   0  11   7    4.76    6.54
 -11   0   7    3.03    8.64
 -12   1  -7    9.57    8.40
   1  11  -7    2.06    9.00
 -11  12   7   12.32   11.60
  12  -1   7   21.92   10.88
 -12   4  -7  155.53   21.65
   4   8  -7  182.52   22.69
   4   8  -7  157.96   23.20
  -4  -8   7  164.12   22.88
  -8  12   7  121.96   21.80
   7   5  -7    7.16    7.95
  -7  -5   7    8.13    8.45
  -5  12   7   -1.19    6.57
 -12  10  -7   10.52   12.25
  10   2  -7   12.04   10.04
 -10  -2   7   14.09    9.49
 -13   6  -7    8.52    8.35
   6   7  -7   15.68    9.92
   6   7  -7    1.97    8.37
  -7  13   7   10.72    8.30
  -6  -7   7    1.86    9.33
   9   4  -7   41.38   12.32
  -4  13   7   20.67    8.51
  -9  -4   7   39.12   12.35
  -1   1  -8  184.02   17.14
   1   0  -8  136.46   15.36
   1   0  -8  130.09   15.59
   0  -1  -8  132.09   15.59
   1   0  -8  123.75   16.34
   0  -1  -8  138.65   15.09
   0   1   8  153.57   15.69
   1  -1   8  156.21   16.72
   1  -1   8  186.90   17.24
  -1   0   8  152.95   16.09
   0   1   8  140.01   16.03
  -1   0   8  121.99   16.19
  -1   0   8  133.66   15.42
  -2   0  -8  727.29   72.05
   0   2  -8  850.48   73.45
   2  -2  -8  728.31   72.13
  -2   0  -8  788.17   71.91
   0   2  -8  841.01   72.40
  -2   0  -8  683.16   72.10
   2  -2  -8  720.21   71.42
   2   0   8  729.41   71.74
   2   0   8  714.42   71.11
   2   0   8  778.97   72.07
   2   0   8  778.87   72.71
  -2   2   8  710.71   70.58
   2   0   8  727.04   70.92
   0  -2   8  850.84   73.49
   0  -2   8  796.24   72.45
  -2   2   8  692.04   71.82
  -2   2   8  755.78   70.79
   0  -2   8  809.59   72.20
   0  -2   8  801.39   73.68
  -2   2   8  705.34   72.18
  -2   3  -8  205.77   19.50
  -2   3  -8  175.14   18.01
  -2   3  -8  162.90   18.79
   3  -1  -8  111.97   18.40
  -2   3  -8  183.61   18.42
   3  -1  -8  124.52   16.91
   2  -3   8  155.65   18.94
   2  -3   8  178.59   18.31
  -3   1   8  127.19   17.49
  -3   1   8  115.62   17.93
  -3   1   8  133.27   17.44
   2  -3   8  193.87   19.10
   1   2   8  167.19   17.02
   1   2   8  160.56   16.57
   1   2   8  170.79   17.33
   1   2   8  194.31   18.25
  -1   4  -8   12.78    5.30
  -1   4  -8   13.05    5.75
  -1   4  -8    6.36    4.68
  -3  -1  -8   16.92    4.71
  -3  -1  -8   12.45    3.92
   4  -3  -8    9.77    5.95
  -3  -1  -8   12.44    4.64
   3   1   8   15.20    4.26
  -4   3   8    4.35    3.40
  -4   3   8    9.34    4.93
   3   1   8    5.08    3.89
   3   1   8    6.18    3.69
  -4   3   8    6.62    4.61
   1  -4   8    9.30    4.84
  -4   3   8    5.09    4.19
   1  -4   8   13.17    7.04
   1  -4   8   10.55    4.56
  -3   2  -8  212.90   19.45
   2   1  -8  194.02   18.80
  -3   2  -8  158.75   18.98
  -3   2  -8  159.62   19.52
   2   1  -8  174.08   19.87
  -3   2  -8  167.27   18.75
   3  -2   8  176.24   19.04
  -1   3   8  115.43   17.67
   3  -2   8  134.44   18.86
  -2  -1   8  179.68   18.89
   3  -2   8  156.44   19.03
  -2  -1   8  176.83   18.77
  -2  -1   8  173.91   20.38
  -2  -1   8  197.79   18.82
   5  -2  -8    3.83    5.34
  -3   5  -8    9.25    5.01
   5  -2  -8    6.15    7.12
  -3   5  -8    4.75    4.12
   5  -2  -8    5.82    4.06
  -3   5  -8    0.58    4.30
  -3   5  -8    7.51    5.32
   2   3   8    2.77    2.61
   2   3   8    6.07    3.66
  -5   2   8    6.10    6.15
  -5   2   8    6.23    4.85
  -5   2   8   -2.83    5.08
   2   3   8    5.52    4.26
   3  -5   8   -0.76    3.80
   3  -5   8    2.89    4.10
   3  -5   8   12.09    6.33
   2   3   8   -1.07    3.59
   2   3   8    2.07    3.04
   6  -4  -8  250.99   28.14
  -2   6  -8  267.63   27.51
   6  -4  -8  265.26   27.69
  -4  -2  -8  234.59   25.24
   6  -4  -8  226.23   25.65
  -4  -2  -8  235.34   24.98
  -4  -2  -8  207.44   24.74
  -2   6  -8  300.53   28.47
  -2   6  -8  231.29   25.39
   2  -6   8  269.92   28.48
  -6   4   8  294.22   28.09
   2  -6   8  279.01   26.74
   4   2   8  235.32   25.79
   4   2   8  246.44   26.24
  -6   4   8  262.74   26.66
  -6   4   8  206.52   25.94
   4   2   8  215.05   25.97
   3  -4  -8    7.47    3.18
   3  -4  -8    5.89    3.94
  -4   1  -8   10.31    5.11
  -4   1  -8    3.44    4.82
   1   3  -8   21.23    5.89
  -4   1  -8    5.29    4.18
   1   3  -8   22.20    5.21
  -1  -3   8   19.44    4.90
  -1  -3   8   19.36    5.00
  -1  -3   8   18.67    5.68
   4  -1   8   15.21    4.20
  -1  -3   8   21.31    7.04
   4  -1   8   14.03    5.28
  -3   4   8    8.47    4.68
  -3   4   8   -0.23    2.41
   4  -1   8    5.13    4.66
   4  -1   8   13.00    5.39
  -3   4   8    7.46    4.43
   4   0  -8   92.17   14.25
   4   0  -8   96.46   13.66
   4   0  -8   76.49   11.88
  -4   4  -8  108.02   14.22
  -4   4  -8   96.99   14.12
  -4   4  -8   81.27   12.32
  -4   4  -8   91.00   13.29
   4  -4   8   90.30   13.48
   4  -4   8   91.31   13.14
  -4   0   8   86.83   12.30
   0   4   8   71.73   11.54
  -4   0   8   80.46   14.11
   4  -4   8  108.46   15.18
  -4   0   8   89.36   12.67
   7  -3  -8   23.98    8.43
  -4   7  -8    3.98    6.81
   7  -3  -8   31.34   10.64
  -4   7  -8   10.18    6.35
  -4   7  -8    7.93    5.17
   4  -7   8   16.50    6.76
   4  -7   8   -0.96    7.00
  -7   3   8   23.97    8.23
   3   4   8    7.78    5.43
  -7   3   8   12.55    6.38
   3   4   8    9.91    5.21
  -7   3   8   24.03    7.87
   3   4   8   16.52    6.43
   8  -5  -8   -1.25    9.19
  -3   8  -8    2.32    7.15
  -5  -3  -8    6.69    6.23
  -5  -3  -8    6.28    4.32
   8  -5  -8   13.17    8.17
  -5  -3  -8    4.18    5.76
  -3   8  -8    5.40    6.84
  -8   5   8   -2.89    6.83
  -8   5   8   12.74    6.98
   5   3   8    8.37    5.45
   5   3   8   24.02    8.02
  -8   5   8    3.80    6.94
   3  -8   8    0.06    5.40
   5   3   8   21.36    7.94
   3  -8   8   -2.57    7.71
   0   5  -8    6.14    4.60
   0   5  -8   12.87    4.84
   0   5  -8   16.54    5.93
  -5   0  -8   10.04    6.02
   5  -5  -8   11.44    6.36
  -5   0  -8    3.28    5.53
  -5   0  -8   10.28    4.75
  -5   5   8   18.44    6.56
   0  -5   8    9.17    4.89
   5   0   8    9.54    4.31
   0  -5   8    7.80    6.92
  -5   5   8   19.04    5.53
   0  -5   8   11.53    4.57
  -5   3  -8    3.62    4.17
   3   2  -8    6.09    4.60
  -5   3  -8    0.19    5.48
  -5   3  -8   -0.05    4.45
   3   2  -8   11.52    4.75
   3   2  -8   14.22    6.27
  -5   3  -8   11.40    5.78
   3   2  -8    6.67    4.99
  -2   5   8    5.33    3.59
   5  -3   8    2.69    5.47
  -2   5   8    4.62    3.14
  -3  -2   8    6.03    6.66
   5  -3   8    5.26    3.15
  -3  -2   8   11.19    4.58
  -2   5   8    4.25    4.04
   5  -3   8    1.15    3.97
  -3  -2   8    0.56    3.75
   5  -3   8    5.36    5.72
   6  -1  -8   26.64    8.73
   6  -1  -8   17.93    9.29
  -5   6  -8   35.55    9.30
  -5   6  -8   30.95    7.35
  -5   6  -8   39.07    8.46
  -5   6  -8   49.72    9.71
   6  -1  -8   35.90    7.17
   1   5   8   14.50    6.31
   1   5   8   22.96    6.24
   5  -6   8   29.29    9.52
   5  -6   8   42.24    9.17
  -6   1   8   30.35    7.72
  -6   1   8   35.98    8.44
  -6   1   8   25.27    9.19
   9  -4  -8   20.38   10.41
   9  -4  -8   12.45   11.70
  -5   9  -8   26.41   10.09
  -5   9  -8   44.67   10.53
   5  -9   8   33.27   11.49
  -9   4   8    9.75    7.82
   4   5   8   29.09    8.04
   4   5   8   23.62    7.55
   4   5   8   20.43    8.54
   5  -9   8   49.25   13.43
  -9   4   8   13.29    9.22
  -4  10  -8   69.76   14.01
  10  -6  -8   55.00   14.67
  10  -6  -8   36.02   15.57
  -4  10  -8   70.54   14.41
  -6  -4  -8   60.15   13.11
 -10   6   8   61.74   14.11
   6   4   8   62.47   11.20
   6   4   8   47.03   12.25
 -10   6   8   37.99   11.29
  -1   7  -8   26.45    8.41
  -1   7  -8   27.44    8.27
  -6  -1  -8   33.01    7.71
   7  -6  -8   36.12   10.21
  -6  -1  -8   33.83    9.26
   7  -6  -8   15.79    8.26
  -6  -1  -8   37.64    9.33
   6   1   8   52.61    8.43
   1  -7   8   20.16    6.03
   6   1   8   40.37    9.54
  -7   6   8   17.46    8.64
  -7   6   8   18.30    7.92
   1  -7   8   17.59    7.13
   1  -7   8    7.45    7.93
   2   4  -8  217.80   24.80
  -6   2  -8  263.53   26.93
  -6   2  -8  199.54   26.22
   2   4  -8  203.00   24.38
   4  -6  -8  233.98   23.65
   2   4  -8  244.62   25.71
  -6   2  -8  290.73   26.94
   4  -6  -8  202.98   23.07
   2   4  -8  294.42   26.32
  -6   2  -8  242.09   25.47
   6  -2   8  222.97   25.86
   6  -2   8  199.36   25.49
  -4   6   8  250.32   25.24
  -4   6   8  239.49   25.25
   6  -2   8  261.97   24.39
  -2  -4   8  241.75   25.01
  -2  -4   8  226.92   27.23
   5   1  -8   17.71    7.55
   5   1  -8   25.46    7.57
  -6   5  -8   46.27    8.79
  -6   5  -8   28.45    8.26
  -6   5  -8   31.58    8.10
  -6   5  -8   60.25   10.48
   5   1  -8    6.69    7.16
   5   1  -8    6.46    5.59
  -5  -1   8   25.07    7.02
  -5  -1   8   24.28    7.28
  -5  -1   8   12.65    9.03
   6  -5   8   32.57    9.56
  -1   6   8   33.07    6.72
   6  -5   8   33.56    9.25
   8  -2  -8  135.94   19.98
  -6   8  -8  164.26   19.54
  -6   8  -8  122.02   19.38
   8  -2  -8  142.17   17.48
   8  -2  -8  135.68   20.54
  -6   8  -8  126.74   16.32
  -6   8  -8  103.53   16.48
   2   6   8   87.31   16.16
  -8   2   8  112.79   17.32
   6  -8   8  114.22   17.98
  -8   2   8  143.02   19.31
   2   6   8  145.86   16.22
   6  -8   8  163.72   21.41
  -8   2   8  117.52   20.03
  -6  11  -8  -13.32    8.50
  -5  -6  -8    0.17    6.88
  11  -5  -8    8.86   13.43
  -6  11  -8    5.34    8.12
 -11   5   8    8.58    9.89
   5   6   8    4.11    6.21
   5   6   8    8.20    6.98
 -11   5   8    9.13    7.84
  -5  12  -8   -7.20    9.47
  -5  12  -8    0.99   11.71
  -7  -5  -8   -9.07    7.27
   7   5   8    2.92    5.89
 -12   7   8   19.48   11.02
   7   5   8    2.64    8.45
 -12   7   8   12.03    9.24
  -2   9  -8    1.86    8.88
  -7  -2  -8   16.08    8.22
  -2   9  -8   10.17    8.23
   9  -7  -8    9.46    9.91
  -9   7   8   20.01    9.22
  -9   7   8    3.71    9.65
   7   2   8   18.13    7.06
   7   2   8   13.16    9.14
  -9   7   8    1.93    6.53
   1   6  -8   40.63    8.34
  -7   1  -8   23.00    8.97
  -7   1  -8   21.31    7.62
   6  -7  -8   10.46    7.51
  -7   1  -8   30.59    7.88
  -7   1  -8   26.93    9.00
   7  -1   8   23.82    6.64
  -6   7   8   12.16    7.69
  -1  -6   8   43.18   10.46
   7  -1   8   23.37    6.35
  -1  -6   8   28.06    7.05
  -6   7   8   24.81    8.03
   7  -1   8   23.20    7.27
  -7   4  -8   13.43    7.06
  -7   4  -8    2.70    4.64
  -7   4  -8   -6.59    5.81
   4   3  -8    6.78    5.88
   4   3  -8   10.63    5.84
   4   3  -8    7.63    5.93
   4   3  -8    8.20    5.65
  -7   4  -8    2.45    7.19
  -7   4  -8   14.10    6.86
  -4  -3   8    5.63    8.35
   7  -4   8    2.34    7.05
   7  -4   8    1.15    7.91
  -3   7   8   14.26    4.73
  -4  -3   8   -1.77    4.78
  -4  -3   8    3.87    5.03
   7  -4   8    7.14    3.74
  -3   7   8   16.95    5.44
  -7   7  -8    6.64    5.97
   7   0  -8   -0.66    6.14
   7   0  -8    3.33    8.66
  -7   7  -8    5.49    7.14
  -7   7  -8   10.01    8.15
   7   0  -8   10.66    8.07
  -7   7  -8   14.20    7.49
   0   7   8    7.80    5.45
  -7   0   8    4.64    6.53
   7  -7   8   27.17    9.74
  -7   0   8   -6.99    9.17
  -7   0   8    6.74    6.82
   7  -7   8    7.16    8.80
   0   7   8    8.02    6.15
  -7  10  -8   34.01   10.85
  -7  10  -8   48.14   13.19
  10  -3  -8   23.14    8.89
  10  -3  -8   16.17   15.23
   3   7   8   28.97    8.58
   3   7   8   26.00    8.50
 -10   3   8   20.76    8.77
  -7  13  -8   -6.22   11.49
  -6  -7  -8   15.23    9.65
   6   7   8    5.00    8.42
   6   7   8   -1.61    6.72
 -13   6   8    1.74    8.42
  -8  -3  -8   -6.44    6.90
  -3  11  -8    1.43    7.53
  -3  11  -8   -3.56    9.02
 -11   8   8    4.20    7.92
 -11   8   8  -11.74    9.73
   8   3   8    1.50    6.18
   8   3   8   -0.50    8.29
   0   8  -8   11.87    7.89
  -8   0  -8    1.93    6.33
  -8   8   8    6.43    8.83
   8   0   8   12.49    6.34
   8   0   8   15.34    8.61
  -8   8   8   14.55    8.19
   0  -8   8    4.81    5.61
  -8   3  -8   15.28    8.84
   3   5  -8   16.08    6.94
  -8   3  -8   -3.96    8.01
   3   5  -8    8.77    6.83
  -8   3  -8   16.91    6.46
   5  -8  -8    6.24    5.14
  -8   3  -8   14.98    7.06
  -3  -5   8   12.84    6.61
   8  -3   8    7.38    4.80
  -5   8   8   -0.36    5.13
   8  -3   8   11.60    8.47
  -3  -5   8   16.36   10.09
   8  -3   8    2.36    7.92
  -5   8   8   10.23    6.69
   6   2  -8   86.62   18.05
   6   2  -8   98.61   18.04
  -8   6  -8  149.29   16.13
  -8   6  -8  160.71   20.20
  -8   6  -8  129.21   18.92
  -8   6  -8  185.61   21.90
   6   2  -8  156.04   19.45
  -8   6  -8  136.95   20.70
   8  -6   8  152.87   15.65
  -2   8   8  146.68   16.92
   8  -6   8  148.98   21.52
   8  -6   8  169.74   21.96
  -6  -2   8  132.83   18.74
  -6  -2   8  165.88   23.99
   9  -1  -8    4.39    7.38
  -8   9  -8   -5.18    8.33
  -8   9  -8    4.43    7.77
   1   8   8   10.31    6.10
  -9   1   8    8.56   11.95
  -9   1   8    2.40    7.70
   1   8   8    0.81    6.68
   8  -9   8   -4.46   10.56
   8  -9   8    5.09   11.60
  12  -4  -8   10.85    9.28
  -4  -8  -8   -9.06    7.06
  -8  12  -8   20.08   12.40
  -8  12  -8    1.60    9.19
 -12   4   8   -3.62    8.05
   4   8   8    8.26    6.87
   4   8   8    4.68    7.80
  -4  13  -8   21.36   11.99
  -9  -4  -8    5.95    9.71
 -13   9   8   -5.24   10.05
   9   4   8    1.37    9.62
 -13   9   8    0.83   12.81
   9   4   8    5.38    7.43
  -9  -1  -8    2.71    7.97
  -1  10  -8    6.25    8.22
 -10   9   8    1.19    9.00
   9   1   8    3.57    8.22
   9   1   8    7.78    6.03
 -10   9   8    2.96    8.27
   2   7  -8   21.34    8.44
  -9   2  -8   28.94   17.04
  -9   2  -8   22.81    8.55
  -9   2  -8    8.65   10.92
  -7   9   8   25.37    8.69
  -7   9   8   19.95    9.23
   9  -2   8   16.21    6.94
  -2  -7   8    2.84    7.16
  -9   5  -8   12.07    9.34
  -9   5  -8   20.58    9.34
  -9   5  -8   21.21   10.73
   5   4  -8   40.53    9.27
  -9   5  -8   25.09    7.30
   5   4  -8   29.82    8.91
  -9   5  -8   17.17    8.89
  -5  -4   8   29.80    8.74
  -4   9   8   19.31    6.53
  -4   9   8   12.57    6.30
   9  -5   8   24.52    6.32
   9  -5   8   40.24   12.67
  -5  -4   8   44.80   14.16
  -9   8  -8   -1.09    7.25
  -9   8  -8   -0.48    9.46
   8   1  -8    2.30    7.49
  -8  -1   8    0.67   12.03
   9  -8   8   -3.19   10.25
  -1   9   8    9.30    5.61
  -8  -1   8  -10.80   10.19
   9  -8   8    5.79   11.35
  -8  -1   8   -4.50    6.92
  -2  -9  -8   11.19    7.33
  -9  11  -8   11.34    9.26
  -9  11  -8   -1.51   10.23
  11  -2  -8    0.54    7.85
   2   9   8   -0.78    7.37
 -11   2   8    4.58    8.22
   2   9   8   -2.03    5.84
  -2  12  -8   27.22   11.46
 -10  -2  -8    9.90    9.24
  10   2   8    5.43    9.82
  10   2   8   13.51    8.24
 -12  10   8    8.74   13.07
   1   9  -8    6.05    7.86
 -10   1  -8   13.37    7.47
  -1  -9   8   -0.28    7.18
  -9  10   8    9.58    8.49
  10  -1   8    1.21    5.63
 -10   4  -8   49.59   10.57
   4   6  -8   45.30   11.65
   4   6  -8   52.72   11.61
 -10   4  -8   49.32   15.13
 -10   4  -8   56.71   14.14
   6 -10  -8   44.02   12.13
  -6  10   8   43.01    9.55
  -6  10   8   30.30    9.96
  10  -4   8   67.26   10.36
  -4  -6   8   69.54   12.42
   7   3  -8   28.82    9.22
 -10   7  -8   22.36   10.47
 -10   7  -8   17.00   10.27
  -3  10   8   18.13    6.70
  -7  -3   8   23.81    9.06
  10  -7   8   29.09   13.27
  10   0  -8   37.05   11.71
 -10  10  -8   41.55   12.54
 -10  10  -8   62.39   15.56
 -10   0   8   31.98   11.05
   0  10   8   36.26    8.97
   0  11  -8    5.36    8.75
 -11   0  -8   -0.45    7.93
  11   0   8    2.97    8.70
  11   0   8    9.13    7.03
 -11  11   8    9.82   11.21
   3   8  -8   -1.37    7.24
   3   8  -8    4.39    7.83
 -11   3  -8   10.19    7.49
  -3  -8   8    8.44    7.50
  -8  11   8    7.09    9.19
  11  -3   8   11.73    6.82
   6   5  -8    0.55    7.25
   6   5  -8    4.65    7.22
 -11   6  -8    1.91    6.26
 -11   6  -8   -4.62   11.01
  -5  11   8    0.02    6.01
  -6  -5   8    3.29    7.20
   9   2  -8   -5.79    7.21
 -11   9  -8    2.71   11.10
 -11   9  -8   -5.38    8.01
  -2  11   8   -1.30    5.76
  11  -9   8    2.86   16.72
  -9  -2   8    9.93    8.16
 -11  12  -8    3.58   11.01
 -11  12  -8   -8.33   12.40
  12  -1  -8   -1.42    9.66
  -1 -11  -8    5.96    8.19
 -12   1   8    6.29    9.63
   1  11   8   -0.32    7.06
   2  10  -8   13.13    9.02
 -12   2  -8    4.18    8.73
  12  -2   8   23.89    8.75
 -10  12   8   33.56   12.52
   5   7  -8   -3.67    7.32
   5   7  -8    0.92    8.03
 -12   5  -8    6.76    7.43
  -5  -7   8    8.44    8.53
  -7  12   8   -0.85    7.74
   8   4  -8   -3.29    7.77
  -4  12   8   -0.46    6.03
  -8  -4   8   -2.80    7.27
 -12  11  -8   -5.82   12.54
  11   1  -8    0.74    9.57
 -11  -1   8    5.04    8.59
   4   9  -8    3.99    8.57
   4   9  -8   -1.23    7.87
 -13   4  -8    1.41    7.64
  -4  -9   8   -8.77    9.06
  -9  13   8    0.48   10.56
   7   6  -8    8.41    9.35
   7   6  -8   -3.67    8.83
  -7  -6   8    8.86    9.89
  -6  13   8   -9.67    7.29
   0   0  -9 4534.68  403.41
   0   0  -9 4394.40  402.52
   0   0  -9 4443.09  405.32
   0   0   9 4104.32  402.59
   0   0   9 4389.15  402.65
   0   0   9 4242.18  403.63
   0   0   9 4305.64  402.86
  -1   2  -9   32.67    6.63
  -1  -1  -9   17.83    4.51
  -1   2  -9   30.01    6.09
   2  -1  -9   23.26    6.80
  -1   2  -9   36.90    6.43
   2  -1  -9   14.19    5.15
  -1   2  -9   19.69    6.76
  -1  -1  -9   10.64    4.83
   2  -1  -9   20.79    4.66
   1  -2   9   34.79    6.04
   1  -2   9   18.90    7.01
  -2   1   9   17.59    5.99
  -2   1   9   18.78    5.17
   1   1   9   16.97    5.13
   1   1   9    8.93    4.54
  -2   1   9   25.82    5.85
   1  -2   9   18.98    5.48
   1  -2   9   19.25    5.86
   1   1   9   14.84    4.55
  -2   1  -9   22.46    5.67
  -2   1  -9   21.52    6.70
   1   1  -9   22.23    6.78
  -2   1  -9   27.08    5.67
  -2   1  -9   27.87    5.89
   1  -2  -9   17.34    4.46
   1  -2  -9   25.08    5.62
   1   1  -9   23.02    5.27
  -1  -1   9   17.52    5.00
   2  -1   9    7.04    4.59
  -1  -1   9   18.93    5.94
   2  -1   9   16.18    5.87
  -1  -1   9   17.82    6.75
  -1   2   9   24.72    5.44
  -1  -1   9   17.74    5.23
  -1   2   9   18.64    5.37
   2  -1   9   33.39    6.57
   2  -1   9   22.97    5.68
   2  -1   9   19.62    5.30
  -1  -1   9   21.28    5.47
   4  -2  -9   41.84   10.60
  -2   4  -9   52.75    9.85
   4  -2  -9   50.28    8.60
  -2   4  -9   72.39   10.70
  -2   4  -9   79.66   11.69
  -2   4  -9   66.47    9.69
   2  -4   9   57.21   10.05
   2  -4   9   65.53   11.62
   2  -4   9   69.98   10.34
  -4   2   9   55.25    9.91
   2   2   9   60.94    8.96
   2   2   9   57.80    8.64
  -4   2   9   57.15    9.63
   2   2   9   47.03    8.91
   2   2   9   41.79    7.60
  -4   2   9   44.25    9.75
  -4   2   9   43.05    8.48
   3  -3  -9  290.86   32.71
   0   3  -9  350.59   33.01
  -3   0  -9  326.42   32.47
  -3   0  -9  302.62   32.49
  -3   0  -9  268.41   32.48
   0   3  -9  374.39   34.09
   3  -3  -9  263.43   31.47
   3   0   9  321.37   32.45
   3   0   9  337.95   33.38
  -3   3   9  264.42   32.34
   0  -3   9  333.54   33.76
   0  -3   9  352.46   32.57
   0  -3   9  411.61   35.31
   0  -3   9  340.72   33.80
  -3   3   9  291.40   32.55
   0  -3   9  349.05   32.98
  -3   3  -9 2188.07  200.38
  -3   3  -9 2074.92  199.48
  -3   3  -9 2056.11  200.16
  -3   3  -9 2128.88  199.52
   3   0  -9 2230.01  199.20
   3   0  -9 2209.58  200.60
   3  -3   9 1939.44  200.06
   0   3   9 2123.99  198.01
  -3   0   9 2374.40  199.71
   0   3   9 2004.35  198.99
   3  -3   9 2099.19  200.16
  -3   0   9 2306.19  199.52
  -3   0   9 1972.10  200.20
   0   3   9 1944.71  197.74
   3  -3   9 2322.14  199.91
  -3   0   9 2100.06  199.30
   6  -3  -9  468.45   47.11
   6  -3  -9  444.74   48.38
   6  -3  -9  460.20   49.43
  -3   6  -9  558.43   49.25
  -3   6  -9  570.95   50.13
   3  -6   9  578.37   50.53
  -6   3   9  462.34   47.66
  -6   3   9  434.28   47.79
   3  -6   9  480.59   47.81
   3   3   9  448.19   46.78
   3   3   9  440.88   47.05
  -6   3   9  465.01   48.22
   3   3   9  433.24   46.90
   3   3   9  433.52   46.35
  -1   5  -9  393.48   41.19
  -4  -1  -9  366.89   40.44
  -4  -1  -9  422.97   41.34
   5  -4  -9  394.01   42.03
  -4  -1  -9  399.49   40.58
  -1   5  -9  444.04   42.99
  -1   5  -9  413.91   41.59
  -5   4   9  379.41   39.26
   1  -5   9  365.98   41.40
   4   1   9  390.71   40.75
   4   1   9  455.14   42.16
   1  -5   9  405.31   41.21
  -5   4   9  375.05   41.21
   1  -5   9  535.43   44.59
  -5   4   9  420.82   41.99
   4   1   9  416.05   40.86
  -5   4   9  405.69   39.72
  -4   2  -9   64.67   10.34
  -4   2  -9   58.02    9.67
   2   2  -9   57.03   10.82
   2   2  -9   62.56    9.59
  -4   2  -9   72.99   11.41
  -4   2  -9   60.88   10.17
  -2   4   9   54.46    9.25
   4  -2   9   68.66   10.35
  -2  -2   9   64.24    9.35
   4  -2   9   61.89    8.97
  -2  -2   9   66.92    9.67
   4  -2   9   37.73    9.47
  -2   4   9   40.54    8.23
  -2  -2   9   79.11   12.74
  -2   4   9   49.19    8.34
   4  -2   9   59.62   10.23
  -4   5  -9  911.77   82.70
   5  -1  -9  855.31   82.39
  -4   5  -9  874.98   82.26
   5  -1  -9  839.40   83.18
  -4   5  -9  835.33   81.24
  -4   5  -9  925.24   83.35
   5  -1  -9  864.01   81.27
   4  -5   9  850.68   81.83
  -5   1   9  857.90   82.86
   1   4   9  781.68   78.85
   4  -5   9  823.05   82.99
   4  -5   9  949.14   83.05
   1   4   9  770.41   80.20
   1   4   9  817.38   80.99
   1   4   9  759.56   79.49
  -5   1   9  925.82   82.15
  -5   1   9  767.07   81.23
  -4   8  -9 1864.03  171.36
  -4   8  -9 1940.73  168.03
  -4   8  -9 1884.29  171.86
   8  -4  -9 1779.63  172.16
   8  -4  -9 1689.00  170.77
  -8   4   9 1852.83  170.90
   4   4   9 1704.56  169.03
  -8   4   9 1641.53  169.50
   4   4   9 1735.09  169.65
   4  -8   9 1897.02  172.01
   4   4   9 1933.05  168.70
   4  -8   9 1772.83  169.93
  -8   4   9 1541.93  169.77
   7  -5  -9   44.55   11.57
  -5  -2  -9   78.96   11.72
  -2   7  -9   73.96   13.10
  -2   7  -9   91.54   13.76
  -5  -2  -9   71.47   10.26
  -2   7  -9   63.44    9.39
   7  -5  -9   34.27   12.19
  -5  -2  -9   60.41   11.27
  -2   7  -9   75.42    9.77
   2  -7   9   91.44   14.99
  -7   5   9   58.08   11.38
   5   2   9   95.81   12.81
   2  -7   9   66.21   11.46
   5   2   9   72.99   11.08
  -7   5   9   48.84    9.48
  -7   5   9   71.00   12.88
  -7   5   9   58.02   10.60
  -5   1  -9  417.93   43.59
  -5   1  -9  410.73   42.95
   1   4  -9  450.43   42.78
   1   4  -9  448.95   43.01
  -5   1  -9  467.10   43.42
   4  -5  -9  390.66   41.68
  -4   5   9  408.65   42.66
  -4   5   9  420.54   42.68
   5  -1   9  374.48   41.65
   5  -1   9  427.28   41.66
  -1  -4   9  417.22   43.14
  -1  -4   9  418.77   41.87
   5  -1   9  434.27   42.06
  -1  -4   9  389.73   41.73
  -1  -4   9  493.53   45.22
   4   1  -9  918.47   82.97
   4   1  -9  885.06   81.94
   4   1  -9  906.85   83.43
   4   1  -9  976.83   81.54
  -5   4  -9  904.60   83.29
  -5   4  -9  809.89   82.07
  -5   4  -9  872.76   83.17
  -5   4  -9  835.41   82.29
   5  -4   9  788.73   83.07
  -1   5   9  762.85   79.34
  -1   5   9  725.10   80.83
  -4  -1   9  870.36   81.65
  -4  -1   9  917.63   84.18
  -4  -1   9  847.71   81.67
  -1   5   9  755.57   79.33
   5  -4   9  857.57   82.69
   5  -4   9  872.55   83.30
   7  -2  -9  290.32   29.83
  -5   7  -9  267.14   30.16
   7  -2  -9  326.71   33.15
   7  -2  -9  265.15   33.25
  -5   7  -9  274.72   31.92
  -5   7  -9  285.03   32.37
   5  -7   9  284.00   31.38
   5  -7   9  302.82   33.52
   2   5   9  285.58   28.99
  -7   2   9  245.14   32.09
   2   5   9  310.43   30.39
   2   5   9  289.73   30.53
  -7   2   9  263.15   31.63
  -7   2   9  272.88   30.88
  10  -5  -9   16.52   12.87
  -5  10  -9    6.23    8.09
  10  -5  -9   -8.45   10.33
  -5  10  -9    8.87    9.77
 -10   5   9   17.94   10.11
   5   5   9   15.22    8.10
 -10   5   9   18.06    8.86
   5   5   9   14.58    6.74
   9  -6  -9  144.34   22.67
  -3   9  -9  149.47   21.75
   9  -6  -9  140.20   23.71
  -6  -3  -9  147.60   17.51
  -3   9  -9  190.25   23.57
  -6  -3  -9  109.81   20.09
   6   3   9  174.52   22.45
  -9   6   9  153.04   22.18
  -9   6   9  136.76   20.41
   6   3   9  179.29   19.85
  -6   0  -9  978.63   94.68
  -6   0  -9  954.00   95.50
   6  -6  -9  794.83   94.29
   0   6  -9  956.69   94.82
   0   6  -9  970.96   92.37
  -6   0  -9 1054.89   95.31
   0   6  -9 1043.01   92.50
   0  -6   9  965.71   94.57
  -6   6   9  993.42   94.69
   0  -6   9 1008.03   96.40
   0  -6   9  989.13   93.06
   6   0   9  943.95   93.55
  -6   6   9 1084.88   95.89
   3   3  -9  527.98   47.38
   3   3  -9  440.92   46.96
  -6   3  -9  492.99   48.22
   3   3  -9  477.67   47.09
  -6   3  -9  483.00   47.75
  -6   3  -9  520.32   48.97
  -6   3  -9  430.29   46.90
  -3   6   9  470.20   46.48
   6  -3   9  495.73   48.04
  -3   6   9  434.54   45.53
  -3   6   9  429.20   45.67
  -3  -3   9  414.64   45.97
   6  -3   9  508.16   45.44
  -3  -3   9  420.67   48.70
   6  -3   9  464.31   48.18
  -3  -3   9  465.45   46.63
  -6   6  -9  460.52   53.55
   6   0  -9  523.66   54.63
  -6   6  -9  563.57   54.06
   6   0  -9  559.02   52.48
   6   0  -9  560.18   52.95
  -6   6  -9  484.54   52.42
  -6   6  -9  561.66   54.14
   6   0  -9  534.33   53.84
   0   6   9  506.96   51.75
   6  -6   9  597.67   54.42
  -6   0   9  520.13   54.90
  -6   0   9  539.00   53.27
   6  -6   9  519.54   54.85
  -6   0   9  449.35   52.10
   0   6   9  488.45   51.76
   9  -3  -9  226.60   31.02
   9  -3  -9  204.32   25.38
  -6   9  -9  258.17   28.97
  -6   9  -9  208.91   28.80
   3   6   9  209.27   25.05
   6  -9   9  291.76   30.85
  -9   3   9  252.17   28.54
   3   6   9  212.27   25.90
  -9   3   9  203.77   26.11
   3   6   9  200.23   23.99
  -6  -6  -9   32.18   11.31
  -6  12  -9   30.09   12.24
  -6  12  -9   39.85   14.30
 -12   6   9   21.67   11.89
   6   6   9   34.61    9.80
 -12   6   9   33.54   11.62
   6   6   9   31.60   11.26
  -4  11  -9   17.42   10.75
  -7  -4  -9    2.52    8.17
  -4  11  -9   15.59    8.54
  11  -7  -9   -2.10   14.20
   7   4   9   17.59   10.05
   7   4   9    7.58    6.65
 -11   7   9   20.85   11.17
 -11   7   9    6.84    8.34
  -1   8  -9   64.98   12.86
  -7  -1  -9   74.63   12.66
  -1   8  -9   64.51   13.30
   8  -7  -9   80.33   14.70
  -8   7   9   79.37   13.81
   7   1   9   73.94   13.56
   1  -8   9   52.93   16.60
   1  -8   9   50.92    9.85
   7   1   9   68.59   11.61
  -8   7   9   79.45   14.79
   2   5  -9   69.06   12.10
   2   5  -9   67.10   10.23
  -7   2  -9   71.21   13.63
   5  -7  -9   65.41   10.85
   2   5  -9   78.32   12.18
   2   5  -9   76.72   10.35
  -7   2  -9   53.44   12.57
  -7   2  -9   63.08   12.06
  -2  -5   9   82.48   11.61
  -2  -5   9   81.91   14.92
  -5   7   9   65.05   11.64
  -5   7   9   57.06   11.27
   7  -2   9   77.54   12.78
   7  -2   9   79.46   10.92
   7  -2   9   55.61   11.63
  -7   5  -9  274.72   33.16
   5   2  -9  343.44   32.13
  -7   5  -9  313.83   33.27
   5   2  -9  304.51   32.79
  -7   5  -9  275.58   32.38
   5   2  -9  288.01   32.45
   5   2  -9  346.33   32.50
  -7   5  -9  274.62   31.99
   7  -5   9  297.62   33.42
  -5  -2   9  295.06   34.63
   7  -5   9  273.88   33.54
   7  -5   9  286.78   29.19
  -2   7   9  260.08   30.26
  -5  -2   9  257.29   31.04
  -5  -2   9  317.11   31.88
  -7   8  -9   67.45   14.69
   8  -1  -9   79.08   17.65
  -7   8  -9  114.92   17.34
   8  -1  -9   68.77   13.73
  -8   1   9  110.82   18.92
   1   7   9  121.77   15.71
   7  -8   9   77.14   15.58
   1   7   9  140.63   14.06
   7  -8   9  109.00   18.35
  -8   1   9   70.96   14.80
  -8   1   9   84.81   14.54
  -7  11  -9    8.82    8.70
  -7  11  -9   10.63   11.10
  11  -4  -9   -1.38    7.55
  -4  -7  -9    9.78    8.07
   4   7   9    7.78    6.77
 -11   4   9    8.65    8.60
   4   7   9    1.67    6.59
  -5  13  -9   48.90   16.35
  -8  -5  -9   26.96   12.13
 -13   8   9   42.50   13.05
   8   5   9   62.92   15.21
 -13   8   9   39.46   15.53
   8   5   9   42.39   11.17
  -2  10  -9  147.96   21.53
  -8  -2  -9  124.51   19.58
  -2  10  -9  127.02   20.58
   8   2   9  140.00   18.31
 -10   8   9  126.28   19.35
   8   2   9  113.69   20.02
 -10   8   9  108.13   20.85
  -8   1  -9   51.37   11.31
  -8   1  -9   48.37   12.99
  -8   1  -9   50.69   14.47
   1   7  -9   94.78   13.69
  -1  -7   9   58.70   10.58
  -1  -7   9   74.31   16.39
   8  -1   9   66.45   10.61
  -7   8   9   69.98   13.07
  -7   8   9   66.69   12.68
   4   4  -9 1779.87  169.86
  -8   4  -9 1823.18  168.31
  -8   4  -9 1874.20  171.24
   4   4  -9 1857.03  168.50
   4   4  -9 1732.51  169.79
  -8   4  -9 1667.78  170.11
  -8   4  -9 1823.95  171.62
   4   4  -9 1907.57  168.32
  -4   8   9 1804.31  168.49
  -4  -4   9 1803.90  172.15
  -4  -4   9 1646.92  169.09
   8  -4   9 1749.02  167.38
   8  -4   9 1971.29  171.52
  -4   8   9 1743.25  167.88
   8  -4   9 1621.96  170.52
   7   1  -9  122.17   16.03
  -8   7  -9  112.42   17.41
  -8   7  -9   70.45   14.75
  -8   7  -9  102.35   16.95
  -7  -1   9   82.93   19.38
   8  -7   9   91.68   17.11
   8  -7   9  103.36   18.44
  -1   8   9   60.75   12.63
  -7  -1   9   97.63   15.14
  -8  10  -9   62.39   14.39
  10  -2  -9   44.17   11.44
  -8  10  -9   32.39   13.02
   2   8   9   38.69   10.90
   2   8   9   50.17   10.05
   8 -10   9   49.62   18.23
 -10   2   9   52.93   12.09
  13  -5  -9   36.55   12.47
  -5  -8  -9   32.13   11.61
  -8  13  -9   27.52   15.46
   5   8   9   43.20   11.08
   5   8   9   26.43   11.24
 -13   5   9   38.19   12.52
  -9  -3  -9    2.78    8.90
  -3  12  -9   33.19   13.32
   9   3   9   26.82    8.68
   9   3   9   25.67   11.89
 -12   9   9    6.29   10.42
 -12   9   9   18.25   10.82
   0   9  -9  248.76   30.36
  -9   0  -9  247.65   30.15
  -9   9   9  225.49   31.99
  -9   9   9  266.96   30.44
   9   0   9  244.69   31.20
   9   0   9  294.46   29.33
  -9   3  -9  150.10   23.06
   3   6  -9  156.81   21.56
   6  -9  -9  144.22   19.42
   3   6  -9  190.76   21.79
   9  -3   9  169.61   18.94
  -6   9   9  149.08   20.63
  -6   9   9  150.69   20.11
  -3  -6   9  167.89   21.20
  -9   6  -9  194.07   24.41
   6   3  -9  258.55   27.78
   6   3  -9  226.38   27.07
  -9   6  -9  237.07   29.51
  -9   6  -9  236.43   28.90
  -9   6  -9  236.48   28.92
  -6  -3   9  232.70   31.99
   9  -6   9  233.37   24.08
   9  -6   9  237.76   29.89
  -3   9   9  223.88   25.23
  -6  -3   9  220.12   27.02
  -9   9  -9  126.94   20.64
  -9   9  -9  163.59   22.94
   9   0  -9  106.48   18.15
   0   9   9  130.16   16.43
  -9   0   9  100.80   17.85
   9  -9   9  125.64   24.20
   9  -9   9   95.65   24.68
  12  -3  -9   35.94   11.61
  -9  12  -9   29.86   14.17
  -3  -9  -9   33.81   10.31
  -9  12  -9   20.68   12.25
   3   9   9   33.98   10.75
   3   9   9   44.12   10.23
 -12   3   9   41.61   12.57
  -1  11  -9   20.01   11.01
 -10  -1  -9   14.11   10.13
 -11  10   9    5.83   11.97
  10   1   9   25.82   11.49
  10   1   9   35.79    9.48
   2   8  -9  126.92   19.02
 -10   2  -9  134.98   18.71
  -8  10   9  114.28   18.86
  -8  10   9  123.38   18.01
  10  -2   9  122.25   16.87
  -2  -8   9  124.78   18.14
   5   5  -9   10.87    8.62
   5   5  -9    6.32    7.63
 -10   5  -9   11.73   10.58
 -10   5  -9   -1.27    5.93
  -5  -5   9   17.11    8.46
  -5  10   9   13.38    5.95
  -5  10   9    9.01    6.54
  10  -5   9   12.17    5.85
   8   2  -9   79.83   13.87
 -10   8  -9   53.62   14.51
 -10   8  -9   42.69   12.83
  -2  10   9   26.66    8.26
  -8  -2   9   62.80   13.03
  -8  -2   9   59.02   16.79
  10  -8   9   34.76   14.36
 -10  11  -9   36.19   14.91
 -10  11  -9   32.52   13.42
  11  -1  -9   26.08   11.06
   1  10   9   39.11    9.73
 -11   1   9   46.35   11.89
   1  10  -9   27.27   11.07
 -11   1  -9   36.23   11.10
  11  -1   9   34.21    9.70
  11  -1   9   25.44   12.15
 -10  11   9   30.80   12.98
 -11   4  -9   13.33    8.13
   4   7  -9   -1.21    7.09
   4   7  -9   29.67    9.70
  -4  -7   9   13.97    9.05
  -7  11   9    3.76    8.39
  11  -4   9   12.77    6.63
   7   4  -9    9.30    8.03
   7   4  -9   16.74    8.54
  -4  11   9    0.55    6.03
  -4  11   9    7.45    5.58
  -7  -4   9    4.91    7.95
 -11  10  -9   45.30   14.61
  10   1  -9   37.21   11.74
 -11  10  -9   20.97   13.98
 -10  -1   9   35.42   11.31
  -1  11   9   30.67    8.63
   3   9  -9   10.53    9.20
 -12   3  -9    5.27    8.75
  12  -3   9   14.50    7.48
  -9  12   9    8.03    9.42
  -3  -9   9   10.31   10.05
   6   6  -9   21.53   10.44
 -12   6  -9   35.23    9.39
   6   6  -9   33.68   11.27
  -6  12   9   31.62   10.03
  -6  -6   9   24.40   10.50
   9   3  -9   31.29   11.13
  -9  -3   9   38.01   12.29
   5   8  -9   30.81   12.29
   5   8  -9   32.15   11.92
 -13   5  -9   56.97   12.72
  -5  -8   9   68.98   15.09
  -8  13   9   41.26   13.21
   8   5  -9   17.40   10.18
   8   5  -9   25.78   12.02
  -5  13   9   20.35    9.20
  -8  -5   9   44.15   12.87
   0   1 -10   47.20    8.24
  -1   0 -10   39.23    8.65
  -1   0 -10   38.90    7.85
   1  -1 -10   66.92    9.70
   0   1 -10   45.53    7.91
   1  -1 -10   70.82    8.62
   0   1 -10   33.42    8.79
   0  -1  10   43.40    8.12
   0  -1  10   40.41    8.61
   0  -1  10   45.61    9.29
   1   0  10   38.63    7.79
   0  -1  10   48.50    7.97
   1   0  10   47.64    8.01
   1   0  10   36.70    7.66
   0  -1  10   46.99    8.06
   1   0  10   41.54    7.29
  -1   1  10   63.12    7.58
  -1   1  10   60.86    8.59
  -1   1  10   74.41    9.35
  -1   1  10   67.52    8.46
  -1   3 -10    9.78    5.34
  -1   3 -10    6.04    4.88
   3  -2 -10   15.15    7.23
  -1   3 -10    9.86    6.89
  -1   3 -10   10.34    5.51
  -2  -1 -10   16.67    5.01
  -2  -1 -10   17.51    5.99
  -3   2  10   13.85    5.96
   1  -3  10   14.37    4.85
  -3   2  10   10.06    5.75
   2   1  10   16.78    5.43
   1  -3  10    6.25    5.25
   1  -3  10    7.39    7.25
  -3   2  10   14.67    5.94
   1  -3  10    4.93    4.96
   2   1  10   20.34    5.61
   1  -3  10   15.90    5.82
   2   1  10   10.73    4.58
  -3   2  10   13.48    4.52
  -2   2 -10  519.33   45.48
   2   0 -10  503.85   46.41
  -2   2 -10  429.87   44.83
  -2   2 -10  469.39   45.73
   0  -2 -10  412.96   43.81
   0  -2 -10  403.64   43.31
   2   0 -10  417.02   44.25
  -2   2 -10  473.20   46.06
   0   2  10  422.04   44.13
   0   2  10  433.15   44.93
   2  -2  10  489.31   45.37
   2  -2  10  405.08   45.58
  -2   0  10  495.61   45.25
   2  -2  10  443.49   45.76
   2  -2  10  473.44   44.81
  -2   0  10  420.87   44.58
   2  -2  10  492.21   44.46
  -2   0  10  445.25   45.93
  -2   0  10  477.78   44.93
   0   2  10  468.92   45.17
   5  -3 -10    9.87    7.90
   5  -3 -10   14.74    5.50
  -3  -2 -10   22.66    5.34
  -3  -2 -10   12.09    5.73
  -2   5 -10   17.90    7.10
  -3  -2 -10    8.51    4.44
  -2   5 -10   26.10    7.57
  -2   5 -10   26.45    7.42
   3   2  10   26.09    6.25
   2  -5  10   18.25    8.23
  -5   3  10   14.03    5.23
   2  -5  10   25.56    6.80
  -5   3  10    5.33    6.07
  -5   3  10   15.90    5.99
   3   2  10   17.06    5.70
   2  -5  10   24.31    6.93
  -5   3  10    2.88    6.24
   3   2  10   24.40    6.37
   3   2  10   18.97    5.66
   3   2  10   28.13    5.31
   1   2 -10   27.82    7.67
   1   2 -10   24.64    5.95
   2  -3 -10   11.95    5.46
   2  -3 -10   13.04    4.16
  -3   1 -10    8.17    5.54
  -3   1 -10    8.09    4.80
  -3   1 -10   14.84    6.53
  -1  -2  10   21.52    6.47
  -1  -2  10   24.20    5.56
  -2   3  10    6.34    4.88
   3  -1  10   12.52    5.82
   3  -1  10   12.61    5.77
   3  -1  10   20.32    5.58
  -1  -2  10   21.87    5.97
  -2   3  10    6.59    5.02
  -1  -2  10   21.47    5.96
  -1  -2  10   21.81    8.21
   3  -1  10   11.07    5.23
  -3   4 -10    4.04    5.05
   4  -1 -10    2.64    3.93
  -3   4 -10    8.29    6.14
   4  -1 -10    5.18    6.65
  -3   4 -10    6.36    4.64
  -3   4 -10    6.62    5.40
   3  -4  10    0.24    5.43
  -4   1  10    2.38    5.88
   1   3  10   14.67    4.49
   3  -4  10   -0.58    5.93
  -4   1  10    4.59    4.58
   1   3  10   13.33    4.27
   1   3  10   10.80    4.12
   1   3  10   13.73    5.00
  -4   1  10    6.71    5.43
   3  -4  10    5.81    5.15
  -4   1  10    6.34    4.71
  -4  -3 -10   16.01    6.37
   7  -4 -10   18.49    9.16
  -3   7 -10   30.10    7.87
  -3   7 -10   32.38    9.56
  -3   7 -10   40.30   10.59
   7  -4 -10   14.14   10.39
  -7   4  10   32.17    8.80
  -7   4  10   15.64    8.22
   3  -7  10   30.40    8.47
   4   3  10   14.90    7.16
  -7   4  10    4.32    4.31
  -7   4  10   29.32    9.64
   4   3  10   19.27    7.41
   3  -7  10   44.59   12.13
   4   3  10   17.75    6.73
  -4   0 -10  211.44   24.24
  -4   0 -10  218.71   24.28
   4  -4 -10  216.54   24.86
  -4   0 -10  199.30   24.73
   0   4 -10  217.44   24.56
   0   4 -10  219.31   25.23
  -4   4  10  226.93   24.67
   0  -4  10  231.82   26.33
   4   0  10  225.54   23.89
   0  -4  10  216.32   24.39
   0  -4  10  249.77   25.65
   4   0  10  222.87   25.21
  -4   4  10  246.49   25.11
   0  -4  10  234.20   24.28
   0  -4  10  211.49   23.26
   3   1 -10   13.81    4.97
  -4   3 -10    9.49    5.58
   3   1 -10   21.63    7.94
  -4   3 -10   -0.71    4.76
  -4   3 -10    3.28    4.69
  -4   3 -10    7.40    6.00
  -3  -1  10   14.57    5.37
  -1   4  10    6.23    4.88
  -1   4  10    0.42    3.59
  -3  -1  10   18.64    5.78
   4  -3  10    1.72    3.80
  -3  -1  10    6.04    5.05
  -1   4  10    2.63    3.25
   4  -3  10    7.86    6.26
   4  -3  10    8.02    6.53
   4  -3  10    0.81    4.45
  -3  -1  10    3.63    6.76
  -4   6 -10  163.81   18.87
   6  -2 -10  151.01   16.22
   6  -2 -10  154.36   21.52
  -4   6 -10  182.58   19.96
   6  -2 -10  139.48   19.84
   6  -2 -10  113.29   17.34
  -4   6 -10  144.43   17.16
  -4   6 -10  161.73   19.75
   2   4  10  142.52   16.97
  -6   2  10  132.82   18.18
  -6   2  10  143.49   19.16
  -6   2  10  125.44   19.70
   2   4  10  120.43   15.53
   4  -6  10  129.14   20.19
   2   4  10  113.60   14.82
   2   4  10  151.30   16.19
   2   4  10  120.23   17.02
   4  -6  10  157.87   18.47
  -4   9 -10    2.99    8.90
  -5  -4 -10    4.88    6.85
  -4   9 -10    7.06    8.91
   9  -5 -10   -9.18    8.04
   9  -5 -10  -14.43    9.48
   4  -9  10   15.56   11.16
  -9   5  10    0.35    7.17
   5   4  10   18.59    8.71
  -9   5  10   -0.70    8.54
   5   4  10    8.14    6.53
  -5  -1 -10   -1.26    5.49
  -1   6 -10   19.84    6.24
  -5  -1 -10    3.03    4.29
   6  -5 -10    5.37    8.05
  -1   6 -10   -0.20    5.42
  -1   6 -10   13.08    6.62
  -5  -1 -10   -4.07    5.18
  -1   6 -10    8.22    6.52
  -6   5  10   11.86    6.81
  -6   5  10   10.25    7.41
   1  -6  10    4.53    7.89
   1  -6  10   16.87    6.30
   5   1  10    2.55    5.55
   5   1  10    6.88    4.81
   1  -6  10    5.17    4.59
  -5   2 -10   17.29    6.60
   2   3 -10   23.17    5.58
   3  -5 -10   12.61    4.46
  -5   2 -10   22.54    6.14
   2   3 -10   22.86    6.46
   2   3 -10   17.65    6.88
   2   3 -10   11.66    6.00
  -5   2 -10   16.65    7.19
  -5   2 -10   31.09    6.99
   3  -5 -10    7.22    3.47
   5  -2  10   13.69    6.69
  -3   5  10    9.83    5.68
  -2  -3  10   18.02    6.86
   5  -2  10   17.82    6.87
  -2  -3  10   21.26    6.02
  -2  -3  10    8.88    5.15
   5  -2  10   -0.27    4.28
  -3   5  10   21.33    6.01
  -2  -3  10   28.77    9.45
   5  -2  10   17.83    5.09
  -3   5  10    9.35    5.29
   5   0 -10   12.16    6.00
  -5   5 -10   21.95    7.14
   5   0 -10    5.68    6.36
  -5   5 -10   38.47    8.59
   5   0 -10   23.94    6.39
  -5   5 -10   15.30    7.27
   5   0 -10    9.22    8.04
  -5   5 -10   32.41    8.71
   5  -5  10   18.49    8.96
   5  -5  10   24.05    7.65
   0   5  10    5.88    5.07
  -5   0  10   11.31    6.25
  -5   0  10   15.13    6.64
   0   5  10   11.70    5.22
  -5   0  10   14.03    8.26
   5  -5  10   19.30    7.73
   8  -3 -10    0.81   10.27
   8  -3 -10    4.83    6.61
   8  -3 -10   -4.24    7.68
   8  -3 -10    2.55    5.79
  -5   8 -10   -8.89    7.03
  -5   8 -10    6.47    7.20
  -8   3  10    8.98    8.78
   3   5  10    3.45    5.51
   5  -8  10   -7.19    8.92
  -8   3  10   -4.91    6.12
   3   5  10    5.20    5.60
   5  -8  10    0.81    7.98
   3   5  10    7.77    5.54
  -5  11 -10   -8.56    8.02
  -6  -5 -10    5.59    8.09
  -5  11 -10    2.19    9.96
 -11   6  10   12.06    8.63
   6   5  10    0.80    6.59
   6   5  10    6.61    8.29
 -11   6  10    7.16   10.40
  -2   8 -10   43.70   11.34
  -2   8 -10   63.11   12.47
  -6  -2 -10   47.07    9.08
   8  -6 -10   43.67   12.91
  -6  -2 -10   38.58   10.70
   8  -6 -10   30.47   11.26
   2  -8  10   56.92   14.19
   6   2  10   52.32    9.85
  -8   6  10   44.96   12.01
  -8   6  10   39.15    8.56
  -8   6  10   72.92   12.23
   2  -8  10   39.83   11.25
   6   2  10   48.53   11.29
  -6   1 -10    3.49    7.66
   5  -6 -10    1.06    6.06
   1   5 -10    3.64    5.72
   1   5 -10   -0.92    4.89
  -6   1 -10    4.39    6.79
  -6   1 -10    9.25    5.43
   1   5 -10    7.63    5.86
  -1  -5  10   -0.65    7.72
   6  -1  10    8.71    5.18
  -5   6  10    3.97    6.44
  -5   6  10   -1.76    5.47
  -1  -5  10    6.11    5.71
  -1  -5  10   -0.27    4.46
   6  -1  10    6.79    5.07
   6  -1  10    6.81    5.22
   4   2 -10  140.61   18.70
  -6   4 -10  119.74   18.07
  -6   4 -10  162.33   19.14
  -6   4 -10  144.73   19.88
   4   2 -10  183.59   17.47
  -6   4 -10  145.92   18.23
   4   2 -10  147.39   17.39
   4   2 -10  160.25   18.97
  -2   6  10   93.46   15.57
  -2   6  10  119.93   16.83
  -4  -2  10  159.36   21.66
  -4  -2  10  157.53   17.54
  -2   6  10   93.75   15.26
   6  -4  10  155.62   20.30
  -4  -2  10  129.47   17.39
   6  -4  10  183.43   19.94
   6  -4  10  134.50   15.14
   7  -1 -10   10.05   10.61
  -6   7 -10   14.01    7.02
  -6   7 -10   14.88    6.86
   7  -1 -10    1.19    6.23
  -6   7 -10    3.79    7.70
   7  -1 -10   10.79    5.93
  -6   7 -10   11.56    8.00
   7  -1 -10    9.13    8.76
   1   6  10    9.55    3.63
   6  -7  10   22.00   11.05
  -7   1  10   -1.62    8.88
  -7   1  10    1.24    7.20
  -7   1  10    0.80    5.02
   1   6  10    6.94    5.65
   1   6  10    9.90    6.61
   6  -7  10   12.50    8.17
  -6  10 -10   18.23    9.87
  10  -4 -10    8.25   13.18
  10  -4 -10    4.88    7.30
  -6  10 -10   13.95   10.42
 -10   4  10    5.37    9.71
   4   6  10   23.37    8.83
   4   6  10   11.66    6.87
 -10   4  10   19.12    8.72
  -7  -3 -10   22.06    9.94
  -3  10 -10   25.51   10.49
  -3  10 -10   24.59   11.26
 -10   7  10   30.84   11.72
   7   3  10   27.77    8.35
   7   3  10   13.91    8.99
 -10   7  10    6.26    8.31
  -7   0 -10   17.73    9.02
   7  -7 -10   17.11   10.02
   0   7 -10   10.62    7.49
  -7   0 -10   -6.23    7.17
   7  -7 -10   23.73    8.53
   0  -7  10    6.96    6.95
   7   0  10    5.00    5.40
   0  -7  10    3.76    8.55
  -7   7  10   25.23    9.48
   0  -7  10   -3.88    5.13
  -7   7  10   28.41    9.00
   3   4 -10   36.64    8.93
   3   4 -10   22.53    8.11
   3   4 -10   10.95    7.36
  -7   3 -10   34.21   10.01
  -7   3 -10   26.30    7.97
  -7   3 -10   27.39    8.61
   3   4 -10   18.22    7.83
  -7   3 -10   28.99   10.20
  -4   7  10   33.33    8.42
  -3  -4  10   22.03    7.49
  -3  -4  10   24.16   11.79
   7  -3  10   32.61   10.28
  -4   7  10   23.57    8.12
   7  -3  10   32.03    6.99
   7  -3  10   34.14    9.86
  -7   6 -10   -0.22    6.56
   6   1 -10   12.94    9.10
   6   1 -10    2.27    7.76
  -7   6 -10   21.38    9.08
  -7   6 -10   15.37    8.98
   6   1 -10   19.21    7.07
  -7   6 -10   17.22    7.80
   6   1 -10   13.88    7.12
  -6  -1  10    4.95   10.43
  -6  -1  10   24.72    7.44
  -6  -1  10    7.94    6.77
   7  -6  10    5.47    8.45
   7  -6  10   15.57    4.29
   7  -6  10   11.62    8.82
  -1   7  10   13.47    6.19
  -7   9 -10    3.24    8.05
   9  -2 -10    1.77    7.44
   9  -2 -10   19.64   13.39
  -7   9 -10    4.77    9.90
  -9   2  10    0.68    8.01
   7  -9  10    1.28   10.61
  -9   2  10    3.53    7.12
   2   7  10   -0.67    5.59
   2   7  10    1.29    6.65
  12  -5 -10    5.94    8.37
  -7  12 -10    4.47   10.19
  -7  12 -10   20.57   13.25
  -5  -7 -10    2.70    8.05
   5   7  10   -3.59    6.11
   5   7  10    8.30    8.35
 -12   5  10   12.52    9.73
  -4  12 -10    6.56   11.12
  -8  -4 -10    9.01    8.45
 -12   8  10   -7.97   10.22
   8   4  10    2.11    7.70
   8   4  10   15.72   11.02
 -12   8  10   35.66   11.19
  -8  -1 -10   -2.44    6.71
  -1   9 -10    3.49    7.67
  -9   8  10   -2.16    9.15
   8   1  10   -0.88    7.61
   8   1  10    0.56    5.44
  -9   8  10    3.38    7.99
  -8   2 -10   52.32   12.73
   6  -8 -10   24.07    9.44
   2   6 -10   36.18    9.78
  -8   2 -10   20.97   10.63
  -8   2 -10   40.18    9.70
   8  -2  10   43.88    8.71
  -2  -6  10   46.12    9.51
   8  -2  10   23.45    9.05
  -2  -6  10   55.60   14.60
  -6   8  10   67.88   11.05
  -6   8  10   39.55   10.12
   5   3 -10    3.84    6.94
  -8   5 -10   -0.16    5.24
  -8   5 -10   -3.54    7.70
  -8   5 -10   -5.08    5.79
  -8   5 -10    5.09    9.06
   5   3 -10    5.53    6.38
  -8   5 -10    4.65    7.40
   8  -5  10    4.41    8.76
  -3   8  10    0.80    5.16
  -5  -3  10    7.28   11.56
   8  -5  10   -0.71    4.14
  -5  -3  10    3.81    6.32
  -3   8  10    4.90    5.00
  -3   8  10   -1.16    4.68
   8   0 -10   47.09   11.42
   8   0 -10   77.91   13.17
  -8   8 -10   39.84   11.71
  -8   8 -10   56.51   13.95
  -8   0  10   38.06   10.96
   8  -8  10   58.20   14.57
   8  -8  10   58.49   15.39
  -8   0  10   54.84   16.28
   0   8  10   39.94    9.14
  -8  11 -10   10.03    9.90
  -8  11 -10   -4.66   10.24
  11  -3 -10   -0.66    7.93
   3   8  10   -3.72    5.91
   3   8  10   -3.66    6.22
 -11   3  10    4.86    8.42
  -2  11 -10    4.75    9.09
  -9  -2 -10   -6.08    7.61
 -11   9  10    5.43    9.75
   9   2  10   -1.84    8.73
   9   2  10   -0.84    6.26
 -11   9  10   14.42   11.33
  -9   1 -10   10.07    7.76
   1   8 -10    3.72    7.43
   9  -1  10   -6.56    4.64
  -8   9  10    1.99    8.24
  -1  -8  10    0.60    6.27
  -8   9  10    8.04    8.66
   4   5 -10   -5.06    6.44
  -9   4 -10   -0.21    9.31
  -9   4 -10    9.80    6.88
   4   5 -10   -3.55    6.59
  -9   4 -10    8.30    9.98
  -4  -5  10   -4.11   11.60
  -5   9  10   -1.50    6.88
   9  -4  10   -1.53    4.78
  -5   9  10   -2.87    5.63
  -4  -5  10   -0.71    6.51
   7   2 -10    8.88    7.89
   7   2 -10   -3.15    6.95
  -9   7 -10    2.01    7.94
  -9   7 -10    3.35    9.51
  -9   7 -10   12.60   14.26
  -2   9  10    0.25    5.35
  -7  -2  10    3.83    7.56
   9  -7  10   -7.84    9.55
  -7  -2  10  -14.94   11.63
  10  -1 -10    1.47    8.20
  -9  10 -10   -6.08    7.70
  -9  10 -10   -6.76    9.80
 -10   1  10    2.22    7.56
   1   9  10    7.51    6.71
   1   9  10    2.25    7.02
 -10   0 -10    2.97    8.50
   0  10 -10   17.72    9.74
  10   0  10    8.56    9.50
 -10  10  10   20.56   10.68
 -10  10  10    8.73   11.18
  10   0  10   15.87    7.76
 -10   3 -10   11.80   11.04
 -10   3 -10   25.17    9.10
   3   7 -10   17.76    8.96
   3   7 -10   17.85    8.93
  -7  10  10   25.46    9.27
  -3  -7  10   27.56    8.94
  10  -3  10   33.39    7.72
  -7  10  10   10.14    7.92
 -10   6 -10   25.52    7.49
   6   4 -10   11.84    8.57
   6   4 -10   21.73    8.48
 -10   6 -10   11.41   11.15
  -4  10  10   17.62    6.92
  -4  10  10   21.05    6.76
  -6  -4  10   20.29    9.21
  10  -6  10   21.61    6.50
 -10   9 -10   -7.80    9.49
   9   1 -10   -2.39    7.87
 -10   9 -10    5.39    9.19
  -9  -1  10    3.02    7.88
  10  -9  10   -1.25   11.87
  -1  10  10    0.32    5.51
  -2 -10 -10    5.72    8.72
  12  -2 -10    4.90    9.49
 -10  12 -10   10.00   14.24
 -10  12 -10    6.93   11.02
   2  10  10   -3.75    7.42
   2  10  10   11.38    8.29
 -12   2  10    6.79    9.02
 -11   2 -10    2.46    7.77
   2   9 -10   -8.43    7.63
  -9  11  10    3.84    9.79
  11  -2  10   -2.17    6.08
  -2  -9  10   -7.58    7.78
   5   6 -10   -4.49    6.77
   5   6 -10    5.34    7.77
 -11   5 -10    3.93    6.85
  -6  11  10    3.79    7.63
  -5  -6  10    3.98    8.22
  11  -5  10    0.04    5.44
   8   3 -10  -12.31    7.20
   8   3 -10    6.90    8.99
  -8  -3  10    2.47    8.34
  -3  11  10    7.05    6.33
  11   0 -10   -6.24    9.29
 -11  11 -10   -1.14   12.87
   0  11  10    6.46    6.81
 -11   0  10    3.55    9.21
   4   8 -10    9.62    9.83
   4   8 -10   -1.98    7.74
 -12   4 -10   -1.16    8.23
  12  -4  10    0.17    6.39
  -4  -8  10    7.28    9.34
  -8  12  10   11.47    8.89
   7   5 -10    2.38    8.14
   7   5 -10    6.07    8.84
  -5  12  10   -0.86    6.28
  -7  -5  10   -6.88    7.20
  10   2 -10    9.64   10.82
  10   2 -10    1.99    9.48
  -2  12  10   12.29    8.69
 -10  -2  10    5.07   10.13
   1   0 -11   36.33    7.19
  -1   1 -11   51.73    7.87
   0  -1 -11   37.19    7.17
   1   0 -11   36.19    8.45
   1   0 -11   26.40    6.26
  -1   1 -11   41.14    8.72
   0  -1 -11   26.11    7.56
  -1   1 -11   42.04    7.56
  -1   0  11   41.39    7.60
   1  -1  11   40.90    8.68
  -1   0  11   31.74    7.48
   0   1  11   30.54    7.16
   1  -1  11   41.69    7.84
   1  -1  11   57.91    8.11
   0   1  11   38.54    8.09
   1  -1  11   41.87    7.82
   0   1  11   40.32    7.50
  -1   0  11   43.25    7.65
   1  -1  11   35.15    8.47
  -1   0  11   44.20    8.68
   2  -2 -11   49.37    9.92
   0   2 -11   49.23    9.01
  -2   0 -11   39.34    8.46
  -2   0 -11   62.40    9.58
   0   2 -11   64.92   10.14
  -2   0 -11   64.01   10.61
   0   2 -11   55.78   10.73
   2  -2 -11   53.42    8.71
  -2   2  11   57.51    7.70
  -2   2  11   49.80    7.30
   0  -2  11   54.48   11.25
   2   0  11   65.08   10.52
   0  -2  11   70.72   10.36
   2   0  11   66.13    9.51
   0  -2  11   56.46    9.08
   0  -2  11   71.17    9.97
  -2   2  11   57.31    9.72
   2   0  11   58.32    8.08
   0  -2  11   69.77   11.06
   2   0  11   59.34    8.45
  -2   2  11   60.54    9.96
   2   0  11   74.45   10.14
   3  -1 -11  384.64   41.90
  -1  -2 -11  401.86   41.63
  -2   3 -11  446.15   43.12
   3  -1 -11  378.13   43.71
  -2   3 -11  495.91   44.67
  -2   3 -11  455.48   43.99
  -2   3 -11  445.32   43.06
  -1  -2 -11  415.34   41.14
  -3   1  11  402.42   42.19
   2  -3  11  499.32   43.64
  -3   1  11  447.08   43.14
   1   2  11  368.09   42.17
   2  -3  11  404.14   44.07
   1   2  11  382.88   42.36
   2  -3  11  486.43   42.17
   2  -3  11  452.09   42.59
  -3   1  11  352.84   42.79
   1   2  11  404.57   41.72
   2  -3  11  433.91   43.87
  -3   1  11  480.07   43.58
  -1   4 -11   18.71    6.88
  -1   4 -11    8.27    7.11
  -3  -1 -11    7.15    5.61
  -3  -1 -11   12.45    5.20
  -1   4 -11   24.41    6.76
   4  -3 -11    8.62    7.34
  -3  -1 -11    7.72    4.62
  -4   3  11   11.51    5.76
   3   1  11   14.11    5.37
  -4   3  11   10.71    4.58
   1  -4  11   16.73    5.74
   1  -4  11   28.48    6.34
   1  -4  11   30.70    8.72
   1  -4  11   23.66    7.27
  -4   3  11    3.54    5.83
  -4   3  11    6.10    4.99
   3   1  11   13.38    5.76
   3   1  11   12.16    4.69
   1  -4  11   25.48    5.58
   1  -3 -11  404.71   42.38
  -3   2 -11  402.54   43.56
  -3   2 -11  446.31   44.46
  -3   2 -11  485.08   44.35
   2   1 -11  455.68   45.30
   1  -3 -11  379.45   41.89
  -3   2 -11  408.51   44.69
   2   1 -11  442.93   43.57
   3  -2  11  434.00   44.72
  -2  -1  11  481.07   44.02
  -2  -1  11  478.67   44.11
  -2  -1  11  423.85   43.42
  -1   3  11  398.56   43.44
   3  -2  11  439.47   44.76
   3  -2  11  513.83   43.54
   3  -2  11  503.57   44.52
  -2  -1  11  418.44   45.06
  -1   3  11  370.00   42.70
  -3   5 -11   92.12   15.27
   5  -2 -11  129.05   17.65
  -3   5 -11  100.42   13.97
   5  -2 -11   98.47   13.49
  -3   5 -11  110.91   15.85
  -3   5 -11   72.88   13.77
  -5   2  11  121.98   15.61
   3  -5  11   98.45   16.30
  -5   2  11   93.89   14.19
  -5   2  11  115.99   13.53
   2   3  11   71.30   12.25
   2   3  11  103.98   14.03
   3  -5  11   99.38   14.89
   2   3  11   92.01   12.87
   3  -5  11  118.82   15.32
  -5   2  11  108.44   15.78
   2   3  11   87.28   12.54
   2   3  11   82.69   11.88
  -4  -2 -11   47.28    8.69
   6  -4 -11   46.63   12.69
   6  -4 -11   59.66   12.32
  -2   6 -11   60.75   12.10
  -4  -2 -11   67.19   10.25
  -4  -2 -11   67.01   10.94
  -2   6 -11   82.36   13.00
   4   2  11   42.57    9.24
   4   2  11   62.59   10.40
  -6   4  11   54.05   10.08
   4   2  11   49.38   10.11
  -6   4  11   52.17    9.19
   2  -6  11   58.57   10.51
   4   2  11   53.23   10.23
   2  -6  11   80.30   14.56
  -6   4  11   59.90   12.35
  -6   4  11   49.04   10.44
   2  -6  11   64.66    9.39
  -4   1 -11   10.68    5.93
   1   3 -11    5.40    6.31
  -4   1 -11   13.63    5.27
   1   3 -11   15.40    5.52
   3  -4 -11    4.99    4.13
  -4   1 -11   22.19    7.21
   3  -4 -11    4.83    5.67
  -1  -3  11    2.72    4.52
   4  -1  11   15.50    5.90
  -1  -3  11   10.13    5.56
  -3   4  11    8.89    5.51
  -3   4  11   12.95    5.80
   4  -1  11   21.29    6.78
  -1  -3  11   16.37    8.16
   4  -1  11   26.46    6.48
  -1  -3  11   18.52    5.36
  -1  -3  11   14.53    6.11
   4  -1  11   15.22    5.72
   4   0 -11  456.30   50.97
  -4   4 -11  484.86   50.27
  -4   4 -11  549.17   51.95
   4   0 -11  540.23   52.39
   4   0 -11  446.61   49.61
  -4   4 -11  566.44   52.52
  -4   4 -11  509.45   50.82
   0   4  11  477.98   49.81
   0   4  11  473.71   48.74
  -4   0  11  536.30   50.56
   4  -4  11  558.07   52.11
  -4   0  11  462.75   50.15
   4  -4  11  535.60   51.13
   0   4  11  430.33   48.25
   4  -4  11  590.79   49.09
   0   4  11  485.47   49.13
  -4   0  11  431.51   51.28
  -4   0  11  483.30   50.28
   4  -4  11  550.79   52.53
   7  -3 -11   20.34   10.56
  -4   7 -11   14.08    8.02
   7  -3 -11   -1.09    6.63
  -4   7 -11    7.47    7.27
   7  -3 -11   31.31    6.80
  -4   7 -11   -5.63    5.01
   7  -3 -11   -4.64   10.69
   3   4  11    9.85    6.06
   3   4  11   -0.12    5.39
   3   4  11    2.32    4.49
   4  -7  11    7.57    9.00
  -7   3  11   15.40    9.96
  -7   3  11   27.96    8.09
   4  -7  11    2.32    6.76
  -7   3  11   -1.40    8.52
   8  -5 -11  208.29   30.61
   8  -5 -11  249.95   29.61
  -3   8 -11  215.90   29.77
  -5  -3 -11  211.36   26.89
  -3   8 -11  251.13   29.89
  -8   5  11  258.19   29.52
   5   3  11  262.79   28.48
  -8   5  11  245.47   28.15
   3  -8  11  208.87   27.44
   5   3  11  258.98   27.48
   3  -8  11  286.62   31.58
  -5   0 -11   86.37   13.12
  -5   0 -11   93.08   14.58
   5  -5 -11   89.20   14.44
   0   5 -11   72.03   12.88
  -5   0 -11   99.98   14.19
   5   0  11  100.56   14.90
   0  -5  11   91.54   13.63
   0  -5  11   77.27   12.12
   5   0  11   78.09   12.55
   0  -5  11   85.78   15.60
   0  -5  11   94.61   12.33
  -5   5  11   90.15   14.26
  -5   5  11   83.77   14.19
   3   2 -11  110.19   14.28
  -5   3 -11   84.98   15.43
   3   2 -11  114.17   13.57
  -5   3 -11   63.85   12.97
  -5   3 -11   99.20   14.99
   3   2 -11  111.92   15.34
   3   2 -11  101.33   15.79
  -5   3 -11   92.84   14.49
   5  -3  11   81.61   14.48
   5  -3  11   75.24   14.29
  -3  -2  11  119.59   15.24
  -2   5  11   89.65   12.62
   5  -3  11  104.62   12.83
   5  -3  11   86.63   14.74
  -3  -2  11   95.72   13.65
  -3  -2  11  106.51   14.25
  -3  -2  11  120.41   17.77
  -2   5  11  113.39   14.19
  -2   5  11  112.84   12.80
   6  -1 -11   17.73   10.45
   6  -1 -11   10.38    8.86
  -5   6 -11   13.66    6.51
   6  -1 -11    9.00    7.02
   6  -1 -11   22.15    7.13
  -5   6 -11   21.18    8.09
  -5   6 -11    1.70    7.74
  -5   6 -11   17.37    8.22
  -6   1  11   11.80    9.57
  -6   1  11    7.37    6.67
   1   5  11   13.01    5.98
   5  -6  11    5.65    7.44
   1   5  11   16.17    4.82
   1   5  11   10.37    4.51
   1   5  11    0.76    5.33
   5  -6  11   20.55    9.79
   1   5  11   23.11    5.25
  -6   1  11   15.08    8.49
   9  -4 -11   -4.75   11.39
  -5   9 -11   23.25    9.94
   9  -4 -11    2.48    6.33
   9  -4 -11    0.07    9.07
  -5   9 -11    1.12    8.63
   4   5  11   18.76    7.53
   5  -9  11    4.59   11.57
  -9   4  11   -1.50    6.60
   4   5  11   -5.77    6.05
  -9   4  11    5.85   10.17
  -4  10 -11   77.66   15.68
  -4  10 -11   77.32   15.97
  10  -6 -11   52.88   14.36
 -10   6  11   40.40   12.14
   6   4  11   86.90   13.36
   6   4  11   78.94   15.08
 -10   6  11   55.59   14.72
  -1   7 -11  265.00   28.58
  -6  -1 -11  220.72   27.35
  -6  -1 -11  232.62   27.81
  -6  -1 -11  255.20   27.32
  -1   7 -11  199.81   24.84
  -1   7 -11  221.56   25.21
  -1   7 -11  243.00   28.96
   7  -6 -11  204.47   28.21
   7  -6 -11  222.03   27.94
  -7   6  11  236.66   28.17
   6   1  11  254.34   27.56
   1  -7  11  239.82   24.92
  -7   6  11  269.47   27.80
   1  -7  11  219.68   30.13
   1  -7  11  241.50   27.13
   6   1  11  232.84   25.88
   2   4 -11   43.95    9.69
   2   4 -11   20.15    8.64
   4  -6 -11   46.29    9.11
  -6   2 -11   58.20   13.89
   2   4 -11   56.33   10.87
  -6   2 -11   56.39   10.68
  -6   2 -11   52.79   10.96
   4  -6 -11   47.58    7.95
  -6   2 -11   58.01   12.71
  -4   6  11   47.71   10.20
  -2  -4  11   68.67   10.52
  -2  -4  11   71.38   14.45
   6  -2  11   60.21   10.84
   6  -2  11   66.49   11.60
  -2  -4  11   60.92   11.00
  -4   6  11   53.91   10.10
   6  -2  11   72.03   12.38
   6  -2  11   76.35    9.77
  -2  -4  11   43.80    9.28
  -6   5 -11   20.27    8.52
  -6   5 -11   10.44    8.75
   5   1 -11   10.45    7.92
  -6   5 -11   15.26    7.42
  -6   5 -11    4.74    7.10
   5   1 -11   26.02   10.18
   6  -5  11   13.35    8.74
  -1   6  11   34.70    5.80
  -1   6  11   34.62    7.31
  -5  -1  11   15.45    7.06
   6  -5  11   14.41    4.96
  -5  -1  11   30.29   11.50
  -1   6  11   22.02    5.12
   6  -5  11    6.02    7.06
   6  -5  11    8.45    8.81
   8  -2 -11   40.89    9.74
   8  -2 -11   27.45   14.76
  -6   8 -11   57.44   12.61
  -6   8 -11   48.43   12.96
   8  -2 -11   51.12   11.02
   8  -2 -11   45.87   14.66
   2   6  11   31.55    6.10
   6  -8  11   45.37   13.53
   2   6  11   34.37    8.93
   2   6  11   36.63    7.20
  -8   2  11   41.06   10.52
  -8   2  11   51.35   12.27
   6  -8  11   50.40   11.99
   2   6  11   45.31    9.48
  -6  11 -11   30.81   12.71
  11  -5 -11    8.60    8.41
  -6  11 -11   24.32   11.65
 -11   5  11   22.23   10.23
   5   6  11   29.35    8.96
 -11   5  11   19.17   12.56
   5   6  11    9.13    8.54
  -7  -5 -11   -7.31    7.95
  -5  12 -11    7.69   12.34
   7   5  11    9.39    7.09
 -12   7  11   15.86   12.57
   7   5  11   23.29   10.39
 -12   7  11   13.38    9.23
  -2   9 -11   54.51   13.44
  -2   9 -11   56.05   14.26
  -9   7  11   61.10   13.47
   7   2  11   62.30   13.62
   7   2  11   65.20   12.36
  -9   7  11   50.96   12.18
   1   6 -11  249.23   25.69
   1   6 -11  246.12   27.75
   6  -7 -11  205.57   27.41
  -7   1 -11  231.90   28.88
  -7   1 -11  243.32   28.46
   1   6 -11  197.64   25.23
  -1  -6  11  265.05   26.47
  -1  -6  11  265.24   30.41
  -6   7  11  191.85   27.13
  -1  -6  11  289.57   28.75
  -6   7  11  244.15   27.70
   7  -1  11  246.23   26.09
   4   3 -11    0.29    7.45
  -7   4 -11    3.26    6.55
   4   3 -11    8.78    6.19
   4   3 -11    5.94    7.15
  -7   4 -11    9.54    7.27
   4   3 -11   -3.85    5.18
  -7   4 -11   -3.84    6.99
  -7   4 -11    8.35    6.19
  -4  -3  11   -2.41    8.94
   7  -4  11    4.67    8.03
  -3   7  11    2.50    5.96
   7  -4  11    7.87    8.30
  -4  -3  11    5.44    6.26
   7  -4  11   -2.49    4.62
  -3   7  11   17.20    6.92
  -3   7  11  -12.56    6.10
  -7   7 -11   49.90   13.15
  -7   7 -11   62.51   13.74
   7   0 -11   48.33   14.64
   7   0 -11   93.88   13.57
   7   0 -11   75.75   12.93
  -7   7 -11   74.19   14.54
  -7   0  11   65.46   13.60
  -7   0  11   94.55   14.03
   0   7  11   61.04   11.16
   0   7  11   49.60   10.81
  -7   0  11   55.40   15.36
   7  -7  11   84.53   15.78
   7  -7  11   62.41   15.09
  -7  10 -11   75.73   14.99
  -7  10 -11   53.95   14.75
  10  -3 -11   42.28   11.00
   3   7  11   48.78   11.40
 -10   3  11   42.69   11.73
   3   7  11   43.57   10.34
  -3  11 -11    8.79   10.98
  -3  11 -11   -3.48    9.22
  -8  -3 -11   -0.77    7.92
   8   3  11   -6.54    8.58
 -11   8  11   -2.43    7.89
   8   3  11   -6.18    6.52
 -11   8  11   -4.19    9.36
  -8   0 -11  302.84   33.85
   0   8 -11  246.55   33.20
   0  -8  11  275.83   31.40
   8   0  11  317.36   32.37
   8   0  11  315.18   34.65
  -8   8  11  288.94   34.70
  -8   8  11  307.51   33.99
  -8   3 -11  216.38   28.09
  -8   3 -11  234.35   27.67
   3   5 -11  244.44   26.31
   3   5 -11  217.64   25.05
   5  -8 -11  191.57   24.28
   3   5 -11  262.14   27.27
  -5   8  11  209.56   25.42
  -3  -5  11  259.09   30.74
  -5   8  11  182.70   25.40
  -3  -5  11  261.01   26.16
   8  -3  11  223.38   24.35
  -8   6 -11   33.27   11.76
   6   2 -11   54.93   11.26
  -8   6 -11   36.08   10.67
   6   2 -11   51.34   10.47
  -8   6 -11   26.83   10.60
  -6  -2  11   53.16   15.52
  -2   8  11   42.52    9.35
  -6  -2  11   24.66    9.32
   8  -6  11   49.91   13.44
   8  -6  11   38.31    7.17
  -8   9 -11   18.96   10.86
   9  -1 -11   38.99   10.48
  -8   9 -11   32.73   11.48
   9  -1 -11   18.56    9.62
  -9   1  11   30.09    9.80
   8  -9  11   21.10   16.45
   1   8  11   12.72    8.28
   1   8  11    8.57    6.37
  -4  -8 -11   69.90   14.26
  12  -4 -11   60.61   13.54
  -8  12 -11   44.42   15.05
  -8  12 -11   57.95   17.74
 -12   4  11   72.23   15.55
   4   8  11   56.47   14.14
   4   8  11   68.12   13.00
  -9  -1 -11    5.99    7.81
  -1  10 -11   10.20    9.89
 -10   9  11   11.12   10.29
   9   1  11    7.72    6.94
 -10   9  11    3.14    8.63
   9   1  11   -1.81    8.54
  -9   2 -11   61.96   11.98
   2   7 -11   58.88   12.04
  -7   9  11   50.23   11.53
  -7   9  11   19.29   10.00
  -2  -7  11   42.68   10.20
   9  -2  11   55.91    9.99
  -9   5 -11   12.83    6.75
  -9   5 -11   14.45   10.27
  -9   5 -11    7.73    9.01
   5   4 -11    7.22    7.69
   5   4 -11    3.22    6.90
  -4   9  11    5.84    5.80
   9  -5  11   12.13    5.28
  -5  -4  11   11.63   12.75
  -5  -4  11   -2.09    7.02
  -4   9  11   -5.04    5.83
   8   1 -11   18.58    9.30
  -9   8 -11   24.58   11.87
  -9   8 -11   17.09   10.10
   8   1 -11   54.51   11.49
  -8  -1  11   26.11    9.02
  -1   9  11   10.81    6.82
   9  -8  11   22.11   12.16
  11  -2 -11   25.40   10.80
  -9  11 -11   21.15   12.61
  -9  11 -11   23.64   12.18
   2   9  11   19.69    8.34
 -11   2  11   12.85    9.22
   2   9  11    8.04    8.05
   1   9 -11   -1.89    7.84
 -10   1 -11    9.24    8.83
  -9  10  11    5.26    9.69
  10  -1  11    5.80    6.55
  -9  10  11    6.37    8.75
 -10   4 -11   70.14   15.76
   4   6 -11   63.92   13.54
   4   6 -11   81.48   14.57
 -10   4 -11   71.83   13.18
  -4  -6  11   74.97   13.44
  -6  10  11   59.89   12.63
  -6  10  11   47.99   11.68
  10  -4  11   98.04   12.57
   7   3 -11   59.56   13.64
   7   3 -11   71.12   13.05
  -7  -3  11   63.98   18.75
  -7  -3  11   52.38   12.57
  -3  10  11   54.50   11.06
  10   0 -11   -6.73    8.65
 -10  10 -11   12.72   11.18
  10   0 -11   -3.62    8.39
 -10  10 -11   12.66   12.73
 -10   0  11   13.26    9.24
   0  10  11   19.08    7.34
   3   8 -11    5.22    8.63
 -11   3 -11   -5.47    7.32
  -3  -8  11    4.51    8.19
  11  -3  11   -4.65    5.35
  -8  11  11   -3.73    8.08
 -11   6 -11   13.43    7.87
   6   5 -11    6.85    8.81
   6   5 -11   12.57    9.01
  11  -6  11   27.88    7.23
  -6  -5  11   30.36   11.01
  -5  11  11    9.60    6.83
  -5  11  11   20.22    8.28
   9   2 -11   20.16   10.19
   9   2 -11   17.99    9.99
  -9  -2  11   36.21   11.00
  -2  11  11   -0.75    6.14
   5   7 -11    4.41    9.03
 -12   5 -11    2.76    7.92
   5   7 -11   -3.77    8.02
  12  -5  11    6.48    6.24
  -7  12  11    8.16    8.66
  -5  -7  11    0.32    8.89
   8   4 -11   68.05   15.42
   8   4 -11   50.64   13.26
  -4  12  11   41.88   10.15
  -8  -4  11   73.28   15.40
   0   0 -12 1193.56  106.85
   0   0 -12 1045.92  107.54
   0   0 -12  999.25  107.37
   0   0  12 1212.35  107.05
   0   0  12 1221.11  108.59
   0   0  12 1244.98  107.16
   0   0  12 1049.91  106.83
   0   0  12 1030.99  106.06
  -1  -1 -12   45.78    7.55
  -1   2 -12   46.61    8.25
   2  -1 -12   27.87    8.39
  -1   2 -12   26.31    8.24
   2  -1 -12   47.46    8.29
  -1  -1 -12   44.17    8.47
   2  -1 -12   26.04    6.15
  -1   2 -12   34.55    7.79
  -2   1  12   37.49    7.72
  -2   1  12   34.21    6.82
   1  -2  12   22.69    7.43
   1  -2  12   21.59    8.47
   1  -2  12   37.39    6.95
   1  -2  12   28.33    8.02
  -2   1  12   43.18    8.13
   1   1  12   44.94    7.95
   1   1  12   34.08    7.77
  -2   1  12   31.62    7.82
   1   1  12   44.38    7.58
   1  -2  12   33.21    7.39
   1  -2 -12   32.13    6.55
   1   1 -12   44.44    7.65
  -2   1 -12   39.93    9.00
  -2   1 -12   30.78    7.08
   1  -2 -12   18.14    7.27
  -2   1 -12   46.69    8.54
   1   1 -12   54.08   10.01
  -2   1 -12   28.03    7.20
   2  -1  12   40.69    8.71
   2  -1  12   28.34    7.80
   2  -1  12   38.40    7.48
   2  -1  12   28.70    7.16
  -1  -1  12   46.63    9.84
   2  -1  12   26.40    7.19
  -1  -1  12   43.92    8.13
  -1   2  12   40.25    8.04
  -1   2  12   33.37    7.36
  -1  -1  12   40.41    7.60
  -1  -1  12   54.76    9.85
  -1  -1  12   34.97    7.49
   4  -2 -12   48.65    9.36
  -2   4 -12   77.83   12.79
   4  -2 -12   83.35   13.52
  -2  -2 -12   51.19    8.98
  -2   4 -12   78.56   11.58
  -2   4 -12   84.20   12.79
  -2  -2 -12   42.35    9.66
  -2   4 -12   73.84   11.88
   2  -4  12   78.89   10.18
  -4   2  12   65.88   11.47
   2   2  12   56.17    9.59
   2  -4  12   89.31   13.05
   2  -4  12   91.08   12.39
  -4   2  12   58.54   11.25
   2   2  12   57.96   10.25
   2   2  12   66.10   10.82
  -4   2  12   53.88   10.72
   2  -4  12   76.31   13.52
  -3   0 -12   76.29   13.03
   0   3 -12  100.24   14.63
  -3   0 -12   88.62   12.35
  -3   0 -12  115.39   12.76
   0   3 -12   80.83   12.40
   3  -3 -12   57.12   11.02
   3  -3 -12   52.51   12.31
   3   0  12   93.42   13.41
   3   0  12   82.50   12.20
  -3   3  12   61.51   11.86
   0  -3  12   92.04   11.83
   0  -3  12  101.63   15.34
   0  -3  12  104.25   14.62
  -3   3  12   58.98   11.94
   3   0  12   90.98   12.13
   0  -3  12   84.24   12.29
   0  -3  12   96.95   12.77
   3   0 -12   48.75   11.73
  -3   3 -12   92.80   12.56
  -3   3 -12   84.40   13.38
   3   0 -12   61.56    9.95
  -3   3 -12   59.06   10.69
   0  -3 -12   59.56    9.07
   0  -3 -12   45.84    7.86
  -3   3 -12   89.81   11.83
  -3   0  12   54.21    9.97
  -3   0  12   29.61   10.55
  -3   0  12   53.07   10.01
   3  -3  12   88.50   12.02
   0   3  12   49.56    9.47
   0   3  12   50.63    9.38
   3  -3  12   76.32   12.28
   3  -3  12   90.81   10.50
   0   3  12   60.79    9.52
   0   3  12   54.81   10.00
   3  -3  12   81.00   12.83
  -3   0  12   39.72    9.14
   6  -3 -12   16.23    8.08
  -3   6 -12    6.92    7.24
  -3   6 -12   12.94    8.25
  -3  -3 -12   10.65    6.46
  -3   6 -12    1.74    7.77
  -3  -3 -12    3.41    5.36
   6  -3 -12    6.73   10.40
   6  -3 -12   17.60    8.81
  -6   3  12    8.33    7.72
   3   3  12    7.19    5.55
   3  -6  12   17.30    5.86
  -6   3  12    1.75    4.58
   3  -6  12    6.16    7.20
   3  -6  12    8.03   10.08
   3   3  12    8.42    5.82
   3   3  12   -0.12    4.60
  -6   3  12   20.37    8.51
   3   3  12    1.26    6.04
  -6   3  12   26.27    8.28
   3   3  12    9.49    6.24
  -4  -1 -12   63.54   12.01
  -1   5 -12   61.06   12.46
  -1   5 -12   74.86   12.66
  -1   5 -12   49.06   11.55
   5  -4 -12   83.16   14.06
  -4  -1 -12   74.54   11.73
  -4  -1 -12   64.59   10.44
   1  -5  12   57.32   10.05
  -5   4  12   80.85   13.05
   4   1  12   64.49   11.85
   1  -5  12   61.39   11.41
   1  -5  12   73.68   14.64
  -5   4  12   85.53   12.79
   4   1  12   89.06   11.87
   4   1  12   75.17   11.29
   2  -4 -12   70.62   10.13
   2  -4 -12   58.05    8.84
   2   2 -12   57.68   12.07
  -4   2 -12   44.67    9.54
  -4   2 -12   72.91   11.42
  -4   2 -12   55.40   12.09
  -4   2 -12   72.81   11.66
   2   2 -12   56.83   10.39
  -2  -2  12   55.89   10.04
  -2  -2  12   74.59   11.29
  -2   4  12   63.39    9.92
   4  -2  12   60.48   11.28
   4  -2  12   84.96   12.92
  -2   4  12   61.14   10.54
  -2  -2  12   57.41    9.92
  -2   4  12   34.12    8.61
  -2  -2  12   76.00   12.39
  -2  -2  12   76.30   13.87
   4  -2  12   86.03   10.80
   5  -1 -12   13.91    6.52
   5  -1 -12   21.33    8.63
  -4   5 -12   40.70    9.67
  -4   5 -12   33.66    8.18
  -4   5 -12   40.84    9.52
   5  -1 -12    6.67    9.49
  -4   5 -12   36.29   10.09
   1   4  12   31.17    6.67
   4  -5  12   32.41    9.05
   1   4  12   28.31    7.03
  -5   1  12   17.59    8.08
  -5   1  12   18.15    7.43
   4  -5  12   39.45   10.87
  -5   1  12   23.72    9.49
   4  -5  12   34.24    9.01
  -5   1  12   16.67    7.18
   4  -5  12   29.91    6.81
   1   4  12   28.70    7.45
   1   4  12   20.48    5.91
   8  -4 -12  183.81   28.12
  -4   8 -12  216.76   28.63
   8  -4 -12  257.89   31.59
   8  -4 -12  218.79   24.20
  -4   8 -12  289.83   29.86
   4   4  12  165.39   24.71
   4   4  12  208.96   25.58
   4  -8  12  204.84   29.59
   4   4  12  196.54   25.04
   4  -8  12  218.58   26.59
  -8   4  12  243.81   28.36
  -8   4  12  242.35   26.45
  -2   7 -12   64.61   14.02
  -2   7 -12   57.93   13.45
  -5  -2 -12   57.31   10.22
   7  -5 -12   65.28   13.67
   7  -5 -12   54.19   14.65
  -5  -2 -12   73.27   12.95
  -7   5  12   69.41   14.05
  -7   5  12   62.37   10.72
   5   2  12   86.33   13.29
   5   2  12   78.96   12.06
   5   2  12   70.42   12.65
  -7   5  12   85.38   14.21
   2  -7  12   69.17   10.49
   2  -7  12   58.55   12.10
  -7   5  12   62.37    9.72
   2  -7  12   69.56   15.60
   1   4 -12   54.40   11.66
  -5   1 -12   45.11   11.94
   1   4 -12   86.90   12.38
   4  -5 -12   53.21   11.16
  -5   1 -12   55.19   10.75
  -5   1 -12   56.07   11.36
   4  -5 -12   53.33    9.29
   5  -1  12   65.98   10.04
  -1  -4  12   65.14   11.20
  -1  -4  12   61.23   13.98
  -4   5  12   84.52   12.60
   5  -1  12   46.58    9.27
  -1  -4  12   88.75   11.34
  -1  -4  12   59.54   10.17
   5  -1  12   55.84    9.54
  -4   5  12   66.53   11.40
  -5   4 -12   26.07    8.44
  -5   4 -12   36.51    8.81
   4   1 -12   25.39    9.75
  -5   4 -12   31.02    8.52
   4   1 -12   23.23    8.30
   4   1 -12   19.93    7.19
  -5   4 -12   31.79    9.87
   4   1 -12   37.31    7.06
  -4  -1  12   31.40    8.53
  -4  -1  12   24.82   10.90
  -1   5  12    8.94    5.97
  -1   5  12    8.77    5.25
   5  -4  12   22.56    9.21
  -1   5  12    1.96    5.04
  -4  -1  12   28.92    8.25
  -4  -1  12   27.98    8.10
   5  -4  12   32.55    6.76
   5  -4  12   35.78    9.71
   5  -4  12   12.34    9.03
   7  -2 -12   26.47   12.51
   7  -2 -12   30.90    8.33
   7  -2 -12   25.53   10.37
   7  -2 -12   26.73    8.88
  -5   7 -12   46.83   11.56
  -5   7 -12   22.57    9.38
  -5   7 -12   21.04    9.44
   2   5  12   37.01    8.34
  -7   2  12   62.64   10.98
   5  -7  12   43.42   12.63
  -7   2  12   24.61   10.09
   5  -7  12   46.48   11.38
   2   5  12   16.87    5.61
   2   5  12   13.15    6.71
   2   5  12   23.97    6.66
   2   5  12   28.88    6.66
  -5  10 -12    9.31   10.38
  -5  10 -12   -1.47    8.89
 -10   5  12    1.31    7.23
   5   5  12    2.09    6.10
 -10   5  12  -14.15    9.44
   5   5  12    0.53    7.35
  -3   9 -12   -5.66    7.85
   9  -6 -12   -7.44    9.40
  -3   9 -12   -2.71    8.29
   6   3  12   10.53    6.44
   6   3  12   -7.94    7.05
  -9   6  12    2.33    6.78
  -9   6  12    7.50    9.51
  -6   0 -12    3.86    8.38
  -6   0 -12    7.40    8.40
   0   6 -12   23.02    7.81
   0   6 -12   21.19    7.82
   6  -6 -12    1.37    8.65
  -6   0 -12   17.01    8.10
   0   6 -12   10.05    7.70
   0  -6  12   21.59    7.76
   0  -6  12   18.14    6.42
  -6   6  12   14.15    8.32
   0  -6  12   25.86   11.96
  -6   6  12    0.18    7.96
   6   0  12   17.02    6.32
   3   3 -12    6.69    5.62
   3   3 -12   14.81    7.62
   3   3 -12    4.63    8.11
  -6   3 -12   10.67    8.98
  -6   3 -12    4.33    6.41
  -6   3 -12   11.50    6.49
   3   3 -12   -0.21    6.43
  -6   3 -12    8.68    7.39
   6  -3  12    5.24    7.73
  -3   6  12    4.88    6.17
  -3  -3  12   12.80   10.65
   6  -3  12   11.98    7.77
  -3   6  12   -2.58    5.78
   6  -3  12    8.05    7.72
  -3   6  12   13.70    6.81
   6  -3  12    9.50    5.44
  -3  -3  12    5.29    6.05
  -3  -3  12   20.19    7.95
  -3  -3  12    7.34    6.67
  -6   6 -12   39.53   10.52
  -6   6 -12   30.05   10.38
   6   0 -12   18.37    8.32
   6   0 -12   25.71   10.08
   6   0 -12   43.70   12.52
   6   0 -12   43.15    8.73
  -6   6 -12   30.93    9.02
  -6   6 -12   31.54   10.16
   0   6  12   34.46    8.46
   0   6  12   32.94    6.63
  -6   0  12   38.52    9.82
   0   6  12   28.08    7.56
  -6   0  12   31.69   12.28
   6  -6  12   21.79    9.68
   6  -6  12   34.93   11.53
   6  -6  12   38.45    6.26
   0   6  12   30.23    6.38
  -6   0  12   28.95    9.22
   9  -3 -12   25.31    8.68
  -6   9 -12   22.59    9.77
   9  -3 -12   24.16   13.66
  -6   9 -12   33.86   11.69
   3   6  12    7.04    6.82
  -9   3  12   24.15    9.01
  -9   3  12   24.63    9.94
   3   6  12   24.19    7.43
   6  -9  12   31.23   13.73
  -6  -6 -12   -4.05    7.43
  -6  12 -12   -0.64   12.14
 -12   6  12    7.93   13.95
 -12   6  12   -5.02    8.32
   6   6  12   12.02    8.40
   6   6  12    7.43    8.99
  -4  11 -12   -3.21    8.65
  -7  -4 -12   -0.35    7.49
  -4  11 -12   -4.38    9.83
   7   4  12   -1.04    8.83
 -11   7  12    8.89    9.20
   7   4  12    3.31    6.33
 -11   7  12    4.92   11.75
  -1   8 -12    4.49    8.48
  -8   7  12    4.16    8.50
  -8   7  12    0.30    8.70
   7   1  12    1.73    7.37
   7   1  12    6.70    6.22
  -7   2 -12   58.46   14.31
   5  -7 -12   79.75   12.67
  -7   2 -12   72.78   13.92
   2   5 -12   68.74   12.84
   7  -2  12   50.66   11.52
  -2  -5  12   38.60   13.71
   7  -2  12   87.05   14.27
  -5   7  12   84.94   13.27
   7  -2  12   60.18   10.72
  -5   7  12   63.76   12.23
  -2  -5  12   80.24   13.84
  -2  -5  12   57.83   11.46
  -7   5 -12   32.61   11.33
  -7   5 -12   21.82    9.83
   5   2 -12   32.71    9.34
  -7   5 -12   19.81    8.70
  -7   5 -12   23.61    9.30
   5   2 -12   25.51    7.64
   5   2 -12   29.22   10.84
   7  -5  12   31.11   11.54
  -2   7  12   28.77    7.97
   7  -5  12   27.20    5.81
  -5  -2  12   30.68    8.76
  -2   7  12   22.14    6.44
  -2   7  12   27.31    6.86
  -5  -2  12   25.44   12.76
   8  -1 -12   25.93    9.17
   8  -1 -12   33.39   10.17
  -7   8 -12   17.76   10.81
  -7   8 -12   31.83   10.29
   8  -1 -12   16.61   12.38
   1   7  12   13.95    5.20
   1   7  12   12.89    7.65
   7  -8  12   30.77   13.16
  -8   1  12   10.47   10.62
   7  -8  12   22.41   11.24
   1   7  12   12.50    7.06
  -8   1  12   36.36    9.82
  -7  11 -12   11.07   10.46
  -7  11 -12   -4.21   11.63
  11  -4 -12   -5.00    7.37
   4   7  12    4.52    6.31
 -11   4  12   13.48    8.58
   4   7  12    7.70    7.62
  -2  10 -12    0.56   10.03
  -8  -2 -12    4.98    8.20
  -2  10 -12   15.48   10.26
   8   2  12   -4.90    5.35
 -10   8  12   -1.70    8.69
 -10   8  12    2.55    9.74
   8   2  12   -3.32    8.71
   1   7 -12   -4.46    7.41
  -7   8  12   -1.51    7.24
  -1  -7  12   -1.24    6.39
  -7   8  12   -8.41    7.15
   8  -1  12    0.33    5.82
   4   4 -12  237.45   25.42
  -8   4 -12  187.91   28.42
   4   4 -12  213.97   26.13
  -8   4 -12  182.31   27.13
  -4   8  12  170.93   24.30
  -4   8  12  227.42   25.25
   8  -4  12  225.99   23.38
  -4  -4  12  220.62   31.07
  -4  -4  12  249.25   25.77
  -8   7 -12   11.93   10.94
  -8   7 -12   50.56   20.36
  -8   7 -12   41.82   12.09
   7   1 -12   21.60    8.35
   7   1 -12   22.68    9.93
  -1   8  12   27.23    8.53
  -7  -1  12   23.69    9.57
   8  -7  12   14.86   11.58
  -7  -1  12   13.38   13.54
  -8  10 -12  -10.68    9.13
  10  -2 -12   -6.80    7.60
  -8  10 -12    4.43    8.92
 -10   2  12    5.80    7.83
   2   8  12    1.12    7.11
   2   8  12    0.69    6.29
   0   9 -12   34.08   11.54
  -9   0 -12   54.01   12.69
  -9   9  12   36.72   12.39
   9   0  12   31.40   11.72
  -9   9  12   32.05   12.34
   9   0  12   37.82    9.71
  -9   3 -12   -8.77    8.78
  -9   3 -12    3.91    7.24
   3   6 -12    2.34    6.55
   9  -3  12    0.86    5.31
  -6   9  12   -3.57    6.80
  -6   9  12    7.32    7.70
  -3  -6  12   -6.22    5.67
   6   3 -12   10.59    7.28
   6   3 -12   25.96    9.32
  -9   6 -12   19.39    6.96
  -9   6 -12   14.24   11.58
  -3   9  12    7.04    6.58
  -3   9  12   16.67    7.06
  -6  -3  12    3.61   12.71
  -3   9  12   11.38    6.63
  -6  -3  12    9.00    7.67
   9  -6  12   12.03    5.33
   9   0 -12    4.76    7.84
  -9   9 -12   12.55   10.61
   9   0 -12   23.69   10.76
  -9   9 -12   11.36   11.68
  -9   0  12    7.66    8.61
   9  -9  12   28.34   14.96
   0   9  12   13.15    6.63
 -10  -1 -12   -3.03    8.52
  -1  11 -12    7.63   10.63
 -11  10  12    3.67   11.07
 -11  10  12    0.16   11.38
  10   1  12    5.64    7.39
  10   1  12   -0.39   10.19
   2   8 -12    0.94    7.85
 -10   2 -12   -4.14    7.19
  -2  -8  12    0.24    6.73
  -8  10  12    3.62    8.81
  10  -2  12    1.03    6.03
  -8  10  12    7.79    9.31
 -10   5 -12    4.34    6.44
   5   5 -12    4.33    8.21
   5   5 -12   -5.17    6.67
  -5  10  12   -2.07    6.82
  10  -5  12   -0.87    5.20
  -5  -5  12    5.76    7.65
  -5  10  12    1.42    6.43
   8   2 -12  -10.47    7.99
   8   2 -12    7.89    7.94
  -8  -2  12    3.30    8.38
  -2  10  12    3.59    6.10
 -10  11 -12  -13.04   13.93
  11  -1 -12    1.42    9.33
 -10  11 -12    4.71   14.37
   1  10  12    8.41    7.65
 -11   1  12   16.40    9.29
   1  10 -12   10.57   10.73
 -11   1 -12   13.59    9.76
  11  -1  12   -5.43    8.97
  11  -1  12   -1.16    6.69
 -10  11  12   15.93   12.73
 -11   4 -12    5.37    8.26
   4   7 -12   -1.19    7.95
  -7  11  12   -1.42    7.93
  -4  -7  12   -7.23    7.97
  -7  11  12    2.80    8.69
  11  -4  12   11.31    6.48
   7   4 -12   -2.40    7.28
   7   4 -12    5.53    9.15
  -4  11  12    1.51    6.36
  -4  11  12    8.27    6.31
  -7  -4  12    7.94    8.20
  10   1 -12   -2.75    9.73
  10   1 -12    4.27   10.34
 -10  -1  12   11.68   10.03
  -1  11  12    5.13    6.18
   6   6 -12    7.83    9.50
 -12   6 -12    2.82    8.33
   6   6 -12   -3.04    8.62
  -6  -6  12   -2.57    8.74
  12  -6  12   -9.26    8.80
  -6  12  12   -2.54    7.95
  -1   0 -13   33.07    7.21
   0   1 -13   34.17    7.51
   0   1 -13   34.63    7.30
   0   1 -13   34.60    8.63
  -1   0 -13   28.94    8.36
   1  -1 -13   23.59    8.07
   1  -1 -13   35.46    7.47
   1   0  13   26.32    6.85
   1   0  13   28.68    6.40
  -1   1  13   35.33    7.75
   0  -1  13   28.49    7.07
   1   0  13   17.95    6.78
  -1   1  13   48.40    7.64
   0  -1  13   29.11    7.92
  -1   1  13   27.79    6.07
   1   0  13   29.54    7.06
   0  -1  13   39.39    9.18
   1   0  13   31.46    6.88
  -1   1  13   22.74    6.97
   0  -1  13   27.69    7.11
   0  -1  13   29.11    7.63
  -1   1  13   14.44    6.63
  -1   3 -13  106.41   15.61
  -2  -1 -13  122.90   14.59
  -1   3 -13  120.97   16.10
   3  -2 -13  143.64   17.99
  -2  -1 -13  122.93   16.15
  -1   3 -13  115.50   17.05
   1  -3  13  105.30   17.47
   1  -3  13  120.04   17.11
  -3   2  13  119.97   14.74
   1  -3  13   99.42   15.00
  -3   2  13  109.91   13.58
   2   1  13  121.41   14.34
   2   1  13  107.94   15.10
  -3   2  13  124.54   16.42
  -3   2  13  109.54   16.05
   2   1  13   90.24   15.24
   1  -3  13  113.01   15.65
   1  -3  13   88.42   14.07
   0  -2 -13   36.03    8.26
  -2   2 -13   26.94    7.53
   0  -2 -13   30.26    6.91
   2   0 -13   33.04    7.22
  -2   2 -13   33.96    7.84
  -2   2 -13   27.43    7.68
  -2   2 -13   43.91    9.95
   2   0 -13   35.81    9.55
   2  -2  13   40.75    8.43
   0   2  13   30.33    7.51
   2  -2  13   31.08    8.73
  -2   0  13   40.59    8.61
  -2   0  13   34.68    7.64
   2  -2  13   37.80    7.40
  -2   0  13   28.57    7.47
   0   2  13   33.44    8.07
   2  -2  13   29.78    7.75
  -2   0  13   38.48    9.51
   2  -2  13   42.20    9.42
   0   2  13   30.35    7.35
  -3  -2 -13  105.74   15.76
  -3  -2 -13  104.48   14.80
  -2   5 -13  138.58   18.96
   5  -3 -13   93.34   18.16
  -2   5 -13  118.44   17.34
  -2   5 -13  140.49   18.69
   3   2  13  113.12   15.95
   2  -5  13  150.61   20.57
   2  -5  13  131.76   14.71
  -5   3  13   93.16   15.90
   3   2  13  110.84   14.87
  -5   3  13  110.02   17.03
   2  -5  13  141.05   17.89
   3   2  13  104.44   14.67
  -5   3  13   92.04   14.01
   3   2  13  111.45   15.87
  -5   3  13  100.33   15.32
   2  -3 -13  113.76   16.05
  -3   1 -13  120.52   17.48
  -3   1 -13   78.75   14.48
   1   2 -13  149.92   18.21
   2  -3 -13  101.57   13.73
  -3   1 -13  118.55   16.04
   1   2 -13  122.25   15.50
   3  -1  13  105.43   14.52
   3  -1  13  103.82   16.30
  -2   3  13  127.77   15.78
   3  -1  13  102.13   14.96
  -1  -2  13  112.23   15.16
  -1  -2  13  132.82   17.82
   3  -1  13  102.83   14.87
  -1  -2  13  130.69   15.60
  -2   3  13   96.96   15.21
  -1  -2  13  139.83   15.51
   3  -1  13  111.10   14.79
  -1  -2  13  150.03   19.21
  -3   4 -13   12.23    6.51
  -3   4 -13    6.87    6.13
  -3   4 -13    9.62    8.14
   4  -1 -13    0.95    7.27
  -1  -3 -13   16.48    5.73
  -1  -3 -13    9.11    4.58
  -3   4 -13   16.63    7.18
   4  -1 -13   13.25    5.62
   3  -4  13    8.16    6.47
   3  -4  13    7.09    4.84
  -4   1  13    6.36    5.66
   1   3  13    6.23    5.75
   3  -4  13   14.99    7.31
   1   3  13   11.19    5.44
  -4   1  13    6.37    5.82
  -4   1  13    6.82    6.04
   1   3  13    8.74    5.48
   3  -4  13   19.46    9.12
  -4   1  13   12.16    7.67
   1   3  13    4.68    4.95
  -3   7 -13   25.52    9.81
  -3   7 -13    9.72    8.14
  -4  -3 -13   15.00    8.05
   7  -4 -13    1.18   10.65
   7  -4 -13   18.42   10.31
  -7   4  13   -0.92    6.49
  -7   4  13    5.31    8.55
   4   3  13    6.64    6.72
   3  -7  13   18.77   11.82
   4   3  13   11.14    7.45
   3  -7  13   15.46    8.86
   3  -7  13   10.63    9.79
   4   3  13    5.23    6.32
  -4   0 -13  118.65   15.38
   4  -4 -13   92.69   15.92
  -4   0 -13  114.77   16.52
  -4   0 -13   78.37   13.61
   0   4 -13  104.90   15.22
   0   4 -13  146.87   18.10
   0  -4  13   67.61   12.87
   0  -4  13   87.52   15.40
  -4   4  13   99.89   15.66
  -4   4  13  131.81   16.25
   4   0  13   82.71   14.70
   4   0  13   96.65   14.41
   0  -4  13  149.92   19.71
   0  -4  13  117.52   15.25
   0  -4  13  110.09   14.94
   3   1 -13   10.91    8.33
   1  -4 -13   12.69    5.54
   3   1 -13    7.86    5.66
  -4   3 -13    6.27    6.14
  -4   3 -13    2.02    5.60
  -4   3 -13    7.53    7.78
  -4   3 -13   15.40    7.39
   1  -4 -13   15.23    4.50
   4  -3  13   16.32    7.43
  -3  -1  13    5.37    5.38
  -1   4  13   18.15    6.16
  -1   4  13   10.33    5.64
  -3  -1  13   21.64    9.23
  -3  -1  13   21.07    6.99
  -1   4  13    6.71    5.75
   4  -3  13   14.11    7.70
   4  -3  13    3.01    6.80
   4  -3  13    9.53    5.44
  -3  -1  13   13.11    6.80
  -4   6 -13   -0.57    6.96
   6  -2 -13   12.46    6.93
   6  -2 -13   14.25    8.90
  -4   6 -13   13.67    7.42
   6  -2 -13    9.00   10.42
  -4   6 -13   13.86    8.46
  -4   6 -13    4.69    6.46
   6  -2 -13    5.56    5.51
   2   4  13    7.49    5.29
   4  -6  13   17.43    9.93
  -6   2  13   13.94    7.23
   4  -6  13   -2.91    6.72
   2   4  13   13.78    6.09
  -6   2  13    1.57    7.82
  -6   2  13    7.58    8.94
   2   4  13   12.88    5.34
   4  -6  13   20.58    6.06
  -6   2  13   15.73    7.11
   2   4  13   12.11    6.19
   2   4  13    0.52    6.26
   9  -5 -13    8.33   10.90
  -4   9 -13    3.15   10.37
  -4   9 -13   11.47    8.70
   5   4  13   -3.99    5.57
   5   4  13   -3.45    6.73
  -9   5  13   -2.94    9.75
   4  -9  13   -7.30   11.65
  -9   5  13    0.58    6.90
  -5  -1 -13   18.61    8.93
   6  -5 -13   27.12   11.08
  -5  -1 -13   13.78    6.56
  -1   6 -13   26.72    9.30
  -5  -1 -13   27.15    8.83
  -1   6 -13    3.09    7.05
  -6   5  13   27.20    8.96
  -6   5  13   18.88    9.49
   1  -6  13   29.15   11.80
   5   1  13   20.10    7.67
   1  -6  13   16.51    6.54
   5   1  13   22.09    8.53
   1  -6  13   41.28    9.06
   5   1  13   19.55    7.64
   2   3 -13  137.88   16.45
  -5   2 -13   88.02   15.59
   2   3 -13  117.67   17.46
   3  -5 -13   88.78   13.20
   3  -5 -13  100.36   15.26
  -5   2 -13  132.55   18.43
  -5   2 -13  111.33   16.36
  -3   5  13   89.37   15.29
  -2  -3  13  126.79   16.62
  -3   5  13  111.07   15.62
  -2  -3  13   84.68   14.43
  -2  -3  13  103.88   18.29
  -2  -3  13  114.83   15.31
   5  -2  13   98.31   15.97
   5  -2  13  123.58   16.18
   5  -2  13  134.24   18.19
   5  -2  13  142.60   15.86
   5   0 -13   10.09    5.42
  -5   5 -13   -0.53    8.04
   5   0 -13   13.62    6.94
   5   0 -13   11.25    8.09
  -5   5 -13   12.35    7.38
  -5   5 -13   -2.50    5.94
  -5   5 -13   12.00    7.59
   5   0 -13   19.95    9.68
  -5   0  13    8.53    6.26
   0   5  13   10.69    6.11
  -5   0  13    2.90    9.22
   5  -5  13    7.82    5.24
   5  -5  13   19.97    8.70
  -5   0  13   19.10    7.79
   0   5  13    1.77    4.79
   5  -5  13   17.07    8.01
   0   5  13   13.28    5.30
   5  -5  13   -0.07    8.58
  -5   0  13    5.18    6.92
   0   5  13    6.06    5.67
   8  -3 -13    8.86   11.86
   8  -3 -13   11.55    9.79
  -5   8 -13   11.19    8.99
   8  -3 -13    2.66    6.81
  -5   8 -13    6.07    9.26
   3   5  13    1.10    5.23
  -8   3  13   -4.45    8.05
   3   5  13    6.54    5.92
   5  -8  13    5.31   10.76
   3   5  13   15.84    6.99
   5  -8  13    9.50    8.76
  -8   3  13    8.40    7.88
  -5  11 -13   24.00   12.65
  -5  11 -13   22.47   13.13
   6   5  13   36.37   11.21
 -11   6  13   29.18   11.52
   6   5  13   19.25    8.66
 -11   6  13   20.75   13.47
  -2   8 -13    9.06    9.94
  -2   8 -13   -0.93    8.30
   2  -8  13    7.20   12.17
  -8   6  13   -0.67    8.11
  -8   6  13   13.10    9.73
   6   2  13    3.59    6.35
   6   2  13    4.42    8.07
   5  -6 -13   22.33    9.55
  -6   1 -13   32.59    9.47
   1   5 -13    8.42    7.55
   1   5 -13   26.19    7.86
  -6   1 -13   34.37   10.31
  -1  -5  13    4.96    6.70
  -5   6  13   19.35    8.75
   6  -1  13   20.89    6.95
  -1  -5  13   35.88   12.48
  -5   6  13   31.51    8.91
  -1  -5  13    0.78    6.38
   4   2 -13   17.36    6.30
  -6   4 -13    5.97    7.45
  -6   4 -13    4.90    6.94
   4   2 -13    9.24    8.81
  -6   4 -13    2.27    8.29
   4   2 -13    8.33    6.46
   4   2 -13   17.49    8.31
  -6   4 -13    8.76    6.18
  -4  -2  13    5.31    6.30
  -2   6  13   13.88    5.89
  -4  -2  13    7.09    6.18
   6  -4  13   11.54    5.00
   6  -4  13   11.27    8.72
  -4  -2  13    3.40    6.77
  -2   6  13    9.30    5.53
   6  -4  13    5.39    7.84
   6  -4  13    9.03    7.90
  -2   6  13   18.69    7.02
  -4  -2  13   12.32   10.46
   7  -1 -13   13.97   12.17
   7  -1 -13   15.89    8.78
  -6   7 -13   24.67   11.33
  -6   7 -13   29.48   12.36
  -6   7 -13   16.61    9.32
   7  -1 -13   26.04    8.67
   1   6  13   23.25    6.28
  -7   1  13   34.53   11.53
   6  -7  13   17.06    9.82
   1   6  13   22.07    6.36
  -7   1  13    1.73    7.74
   1   6  13   39.58    8.44
   1   6  13   27.40    8.23
   6  -7  13   33.09   13.44
   1   6  13   26.16    7.10
  -6  10 -13    2.03    9.77
  10  -4 -13    0.66   13.75
  -6  10 -13   12.88   10.54
 -10   4  13   -3.57    9.73
   4   6  13    6.48    8.20
   4   6  13   10.36    7.28
 -10   4  13   -2.79    7.69
  -3  10 -13   11.79   11.15
  -3  10 -13   10.92   11.37
 -10   7  13   11.62   11.13
 -10   7  13   16.11    9.57
   7   3  13   28.33    9.24
   7   3  13    3.80    8.36
   0   7 -13   19.90    8.63
   0  -7  13   11.56    6.89
  -7   7  13    9.84    9.94
   7   0  13   16.77    7.55
  -7   7  13   -0.55    7.96
   0  -7  13   16.07   12.46
  -7   3 -13    8.63    8.21
   3   4 -13   24.24    8.71
  -7   3 -13   12.86    9.58
   4  -7 -13    2.24    6.69
  -3  -4  13   13.52   11.83
  -4   7  13    3.33    7.07
  -3  -4  13   12.50    8.04
   7  -3  13   10.11    5.62
  -3  -4  13    8.99    7.19
  -4   7  13    2.39    6.84
   6   1 -13   30.46   12.46
   6   1 -13   32.16    9.79
  -7   6 -13   26.68   10.20
  -7   6 -13   30.63   11.47
  -7   6 -13   23.80    9.89
   6   1 -13   25.38    8.41
  -6  -1  13   10.98    8.35
   7  -6  13   22.01    5.91
  -1   7  13   23.73    8.35
  -6  -1  13   40.34   13.89
  -1   7  13   25.65    6.64
   7  -6  13   42.09   12.52
  -1   7  13   16.74    6.23
  -7   9 -13   37.77   11.71
   9  -2 -13   13.67    9.11
  -7   9 -13   15.29   11.25
   2   7  13   10.54    7.71
   2   7  13   14.62    7.35
   2   7  13   16.33    7.49
   2   7  13   18.25    5.34
  -9   2  13   37.71   11.19
  -7  12 -13    8.90   13.01
   5   7  13    0.54    7.98
   5   7  13    3.54    7.29
 -12   5  13  -11.50    8.42
  -1   9 -13   -6.12    8.77
  -9   8  13   -6.30    8.87
   8   1  13   10.14    8.71
  -9   8  13   -0.63    9.64
   8   1  13   10.50    7.24
  -8   2 -13   12.03   10.71
   2   6 -13   15.53    8.70
  -6   8  13    8.67    8.21
   8  -2  13    8.92    6.03
  -6   8  13    1.84    8.55
  -2  -6  13   20.44   12.70
  -2  -6  13  -14.65    6.09
  -8   5 -13    1.71    8.49
  -8   5 -13    7.62    9.30
   5   3 -13   24.39    8.97
   5   3 -13    8.34    6.93
   8  -5  13    2.42    4.77
  -3   8  13    0.14    6.10
  -5  -3  13   -1.49    6.43
  -5  -3  13    3.38   12.32
  -3   8  13   -3.77    5.59
   8   0 -13   24.72    9.75
   8   0 -13   21.50    9.62
  -8   8 -13   17.37    9.45
  -8   8 -13   23.32   10.52
   0   8  13   23.61    7.33
  -8   0  13   18.12    8.83
   8  -8  13   42.83   13.07
  -8  11 -13   -6.79   10.77
  -8  11 -13   -2.64    9.28
  11  -3 -13   -5.48    8.21
   3   8  13   -0.02    7.48
   3   8  13   -7.17    6.17
 -11   3  13    2.79    8.79
  -2  11 -13    5.25   11.85
  -9  -2 -13   -9.50    9.00
   9   2  13   -2.34    6.89
   9   2  13   -6.67    9.74
 -11   9  13   14.33   10.50
 -11   9  13  -14.27   10.65
  -9   1 -13    0.98    8.12
   1   8 -13    2.21    8.45
  -8   9  13    5.73    8.91
  -8   9  13    1.37    8.04
  -1  -8  13    7.36    7.19
   9  -1  13    7.80    6.74
  -9   4 -13   -1.40    8.71
   4   5 -13    0.17    6.45
   4   5 -13    3.64    7.35
  -5   9  13   -3.79    6.49
  -4  -5  13   -0.39   12.94
  -4  -5  13    3.34    7.01
  -5   9  13   -1.05    7.46
   9  -4  13   -3.60    4.99
   7   2 -13   15.41    9.84
   7   2 -13   23.01    9.22
  -7  -2  13   33.95   10.35
  -2   9  13   13.97    6.07
  -2   9  13   20.08    7.82
  -9  10 -13    2.51   10.92
  -9  10 -13   -3.20    8.28
  10  -1 -13    1.52    8.65
   1   9  13   -0.10    5.26
 -10   1  13    5.04    8.28
 -10   0 -13    4.85    9.13
   0  10 -13  -18.41    8.24
 -10  10  13   16.36   11.92
 -10  10  13   12.49   10.58
  10   0  13    9.01   10.13
  10   0  13   -2.11    6.48
 -10   3 -13   23.09    9.44
   3   7 -13   12.48    8.73
  10  -3  13   25.07    7.93
  -3  -7  13    4.18    8.37
  -7  10  13   21.20    9.71
  -7  10  13   12.25    8.99
 -10   6 -13    4.06    6.71
   6   4 -13    7.58    7.95
   6   4 -13   13.59    8.52
 -10   6 -13    9.63   12.76
  -4  10  13    7.21    7.19
  10  -6  13    9.36    6.91
  -4  10  13    2.60    6.99
  -6  -4  13    3.60    7.48
   9   1 -13    1.86    9.74
   9   1 -13    2.58    8.77
  -9  -1  13   -0.94    7.82
  -1  10  13    1.13    6.75
 -11   2 -13    2.84    8.90
   2   9 -13    5.83   10.01
  -9  11  13   -0.15   10.61
  -2  -9  13    4.14   14.64
  11  -2  13   -7.01    6.45
   5   6 -13   20.00   10.64
   5   6 -13   14.82    9.31
 -11   5 -13   19.65    9.11
  -6  11  13   27.14   10.07
  11  -5  13   27.14    7.40
  -5  -6  13    9.89    9.19
  -6  11  13   28.70    9.88
   8   3 -13  -11.81    7.87
   8   3 -13    6.11    9.85
  -8  -3  13   -5.05    7.94
  -3  11  13   -0.81    6.12
  -3  11  13   -1.23    6.08
   7   5 -13    8.78   10.16
   7   5 -13    2.74    9.47
  -7  -5  13    9.04   10.29
  -5  12  13   11.68    8.43
   1   0 -14  281.06   28.87
   0  -1 -14  277.56   28.44
   1   0 -14  259.68   28.16
  -1   1 -14  244.63   29.53
   1   0 -14  254.20   29.81
  -1   1 -14  230.49   28.14
   0  -1 -14  251.10   29.28
  -1   1 -14  214.04   27.69
   1  -1  14  225.39   28.12
  -1   0  14  265.06   28.71
  -1   0  14  316.06   30.15
   0   1  14  268.32   28.71
   0   1  14  300.51   30.40
   1  -1  14  281.77   30.68
  -1   0  14  285.27   30.67
   1  -1  14  244.18   29.36
   1  -1  14  259.68   28.32
   0   1  14  294.97   28.99
  -1   0  14  279.03   28.92
   0   2 -14   43.93    9.51
   0   2 -14   21.61    9.11
  -2   0 -14   36.88    9.85
   2  -2 -14   33.09    7.76
   0   2 -14   27.26    7.98
  -2   0 -14   46.24    9.13
   2  -2 -14   40.36   10.05
   0  -2  14   51.08    9.46
   0  -2  14   49.78   11.51
   2   0  14   42.90    8.37
   2   0  14   35.34    7.03
   0  -2  14   28.77    7.80
  -2   2  14   30.08    8.60
   2   0  14   36.68    8.03
  -2   2  14   48.57    9.07
   0  -2  14   33.19    8.18
   0  -2  14   44.54   10.37
   3  -1 -14  448.74   44.23
  -2   3 -14  384.92   42.03
  -1  -2 -14  357.36   41.60
   3  -1 -14  349.73   40.80
  -2   3 -14  422.75   43.44
  -2   3 -14  449.45   42.74
  -1  -2 -14  357.96   40.73
  -2   3 -14  439.80   44.19
   2  -3  14  465.18   41.72
  -3   1  14  488.21   43.09
   1   2  14  360.09   41.06
  -3   1  14  413.74   42.91
   2  -3  14  467.00   44.54
   2  -3  14  463.14   42.91
   1   2  14  388.70   42.56
   2  -3  14  357.94   43.36
  -3   1  14  382.40   42.38
   2  -3  14  432.39   42.17
   1   2  14  383.54   41.88
  -3  -1 -14  140.20   21.34
  -1   4 -14  244.75   25.38
   4  -3 -14  187.95   25.57
  -1   4 -14  209.92   23.93
  -3  -1 -14  145.23   23.35
   1  -4  14  220.42   22.32
   3   1  14  171.80   22.22
   3   1  14  153.84   21.65
   1  -4  14  225.98   25.04
   1  -4  14  220.74   27.76
   1  -4  14  220.61   23.86
  -4   3  14  223.25   24.25
  -4   3  14  220.12   24.09
  -4   3  14  195.65   20.53
   3   1  14  167.66   22.67
  -4   3  14  205.24   21.13
   1  -4  14  209.64   23.17
  -3   2 -14  387.91   41.93
   2   1 -14  364.85   41.42
   1  -3 -14  388.66   41.80
  -3   2 -14  411.99   42.94
   1  -3 -14  384.21   40.86
  -3   2 -14  457.21   42.88
   2   1 -14  464.07   44.26
  -3   2 -14  473.68   44.59
   3  -2  14  445.29   41.76
  -2  -1  14  430.74   42.06
  -2  -1  14  416.00   42.17
  -2  -1  14  391.74   41.84
  -2  -1  14  379.90   43.70
  -2  -1  14  418.29   43.98
  -1   3  14  403.38   42.28
   3  -2  14  402.67   42.11
   3  -2  14  398.25   43.62
   3  -2  14  347.65   42.51
  -1   3  14  396.02   41.53
   3  -2  14  414.51   42.14
   5  -2 -14   78.87   16.29
  -2  -3 -14   64.30   10.24
  -3   5 -14   91.76   13.60
  -3   5 -14   85.03   13.77
  -3   5 -14   95.72   15.10
  -3   5 -14   90.23   14.82
  -2  -3 -14   55.57   10.89
   3  -5  14   92.77   11.99
   3  -5  14   67.57   17.56
  -5   2  14   71.94   12.80
   2   3  14   66.58   14.13
  -5   2  14   70.46   11.84
   3  -5  14   84.78   13.84
  -5   2  14   89.75   14.15
   3  -5  14   66.48   14.66
   2   3  14   40.82    9.72
   2   3  14   49.77   10.21
  -5   2  14   66.74   13.35
   2   3  14   56.94   11.28
   2   3  14   60.77   11.25
  -2   6 -14   27.12    9.77
  -2   6 -14   23.66    9.32
   6  -4 -14   10.20   10.44
  -2   6 -14   19.88    9.59
  -4  -2 -14   18.42    8.70
   2  -6  14   25.68    7.57
   2  -6  14   24.90   11.60
  -6   4  14   10.33    8.28
  -6   4  14   27.92    9.52
  -6   4  14   18.16    7.48
   2  -6  14   26.36    9.43
   4   2  14   24.69    9.04
   4   2  14   18.84    7.31
  -6   4  14   18.55    6.76
   4   2  14    8.73    6.65
  -4   1 -14  233.34   23.56
  -4   1 -14  185.15   25.16
  -4   1 -14  176.90   22.38
   3  -4 -14  190.19   21.34
   1   3 -14  147.66   22.17
   3  -4 -14  177.83   23.17
   1   3 -14  171.22   23.25
  -1  -3  14  175.80   23.70
   4  -1  14  187.57   21.66
   4  -1  14  251.96   22.83
   4  -1  14  207.56   21.44
  -1  -3  14  190.40   22.45
  -1  -3  14  168.21   21.63
  -3   4  14  182.41   22.68
  -1  -3  14  175.05   25.72
  -1  -3  14  165.69   21.87
   4  -1  14  215.35   24.15
  -3   4  14  204.83   22.97
   0  -4 -14 1248.72  119.72
   0  -4 -14 1167.67  119.00
  -4   4 -14 1320.90  122.08
  -4   4 -14 1266.23  123.27
  -4   4 -14 1422.66  124.17
   4   0 -14 1241.57  121.44
   4   0 -14 1364.45  124.26
  -4   4 -14 1264.70  122.30
  -4   0  14 1228.88  122.09
  -4   0  14 1260.78  121.72
   0   4  14 1195.32  120.79
  -4   0  14 1232.07  122.10
   4  -4  14 1249.33  123.66
   4  -4  14 1503.69  121.14
   4  -4  14 1489.34  124.61
  -4   0  14 1228.09  123.41
   0   4  14 1189.35  121.24
   4  -4  14 1555.32  123.55
   0   4  14 1029.20  120.94
   0   4  14 1110.90  120.37
   7  -3 -14   61.05   16.59
  -3  -4 -14   67.52   11.03
  -4   7 -14   73.16   14.72
   7  -3 -14   51.72   15.32
  -4   7 -14   62.94   14.11
   3   4  14   53.41    9.94
   4  -7  14   63.57   14.06
   3   4  14   58.11   11.20
  -7   3  14   37.19   11.64
   4  -7  14   54.13   16.02
   3   4  14   62.46   11.55
  -7   3  14   68.00   15.22
   3   4  14   51.52   12.79
  -3   8 -14  146.51   22.08
   8  -5 -14  132.72   21.06
  -3   8 -14  133.04   20.79
   3  -8  14  109.90   22.12
  -8   5  14  115.42   19.52
  -8   5  14  110.65   20.18
   5   3  14  102.90   16.74
   5   3  14  121.52   18.25
  -5   0 -14  224.00   24.83
   5  -5 -14  168.48   25.59
   0   5 -14  188.42   24.14
   0   5 -14  191.79   25.06
  -5   0 -14  196.67   26.91
  -5   5  14  164.49   24.85
   5   0  14  214.88   23.36
   0  -5  14  248.54   23.73
  -5   5  14  192.10   25.81
   0  -5  14  213.84   24.62
   0  -5  14  202.67   28.48
  -5   3 -14   79.59   14.71
  -5   3 -14   70.76   13.34
   2  -5 -14   87.66   11.70
   2  -5 -14   72.75   10.29
   3   2 -14   65.28   12.00
   3   2 -14   66.84   14.06
  -5   3 -14   75.01   13.60
   5  -3  14   55.79   13.35
  -3  -2  14   76.54   12.42
  -2   5  14   65.97   11.35
  -3  -2  14   54.27   13.11
  -2   5  14   56.64   11.78
  -3  -2  14   49.67   14.10
   5  -3  14   75.27   14.20
  -2   5  14   55.68   10.99
  -3  -2  14   74.33   12.72
   5  -3  14   91.24   12.06
   5  -3  14   71.38   13.28
  -3  -2  14   64.13   11.82
   6  -1 -14   67.09   15.78
   6  -1 -14   46.52    9.19
  -5   6 -14   65.07   13.60
   6  -1 -14   39.81   10.34
   6  -1 -14   33.41   11.76
  -5   6 -14   60.76   13.22
  -5   6 -14   66.59   13.30
   5  -6  14   63.98   13.28
   5  -6  14   66.52    9.70
   1   5  14   50.97    9.12
  -6   1  14   71.54   12.84
   1   5  14   59.58   10.52
  -6   1  14   30.87   10.37
   1   5  14   50.13   10.40
   1   5  14   50.19    9.33
   1   5  14   53.98    9.83
   5  -6  14   59.91   15.40
  -6   1  14   64.11   12.91
  -5   9 -14   36.35   12.99
  -5   9 -14   61.59   14.39
   4   5  14   28.62    9.63
   4   5  14   40.60    9.76
   5  -9  14   38.68   15.53
  -9   4  14   29.71   10.27
  -9   4  14   40.99   12.22
  -4  10 -14    5.05   10.22
  -4  10 -14   31.73   12.91
   6   4  14   15.97    9.74
 -10   6  14   -1.82    8.40
   6   4  14    5.77    6.84
 -10   6  14  -15.43   10.03
  -1   7 -14  144.55   23.09
  -7   6  14  166.26   24.27
   1  -7  14  149.63   20.00
   6   1  14  185.34   22.87
  -7   6  14  155.04   23.16
   1  -7  14  160.46   26.33
   1  -7  14  145.81   28.28
   6   1  14  174.29   20.04
   4  -6 -14   31.70    9.66
  -6   2 -14   14.99    9.62
  -6   2 -14   23.49    9.64
   2   4 -14   16.79    7.42
   2   4 -14   19.24    9.47
  -2  -4  14    9.86   11.25
  -4   6  14   22.50    8.30
   6  -2  14   14.96    7.92
  -4   6  14    7.37    7.64
   6  -2  14   20.26    6.92
  -2  -4  14   15.41    7.57
  -2  -4  14   16.30    7.10
  -6   5 -14   36.29   12.36
   5   1 -14   64.94   10.48
   5   1 -14   78.34   15.20
  -6   5 -14   59.95   12.30
  -6   5 -14   42.86   11.98
  -6   5 -14   36.84   10.99
   5   1 -14   70.56   11.97
   6  -5  14   60.83   13.77
  -5  -1  14   77.00   16.86
  -5  -1  14   72.27   12.48
  -1   6  14   43.52   10.38
   6  -5  14   70.00    9.94
  -1   6  14   56.00    9.78
  -1   6  14   39.91    9.22
  -5  -1  14   49.17   10.81
  -5  -1  14   55.97   12.84
   6  -5  14   52.89   13.57
   8  -2 -14   -3.78   11.63
  -6   8 -14   16.29   10.06
  -6   8 -14   14.31   10.56
   2   6  14   17.63    7.03
  -8   2  14   20.70    8.42
   2   6  14    9.78    4.93
   2   6  14   11.35    7.00
  -8   2  14   18.24   10.34
   6  -8  14   18.23   10.32
  -6  11 -14   39.42   13.99
  -6  11 -14   17.56   13.76
 -11   5  14   37.53   14.23
 -11   5  14   31.37   11.47
   5   6  14   26.75   11.02
   5   6  14   21.17    9.19
  -2   9 -14   49.37   15.21
  -2   9 -14   51.12   15.54
   7   2  14   83.00   16.03
  -9   7  14   65.91   14.75
   7   2  14   59.33   11.91
  -9   7  14   74.27   16.01
   1   6 -14  137.06   21.16
   7  -1  14  159.44   18.89
  -1  -6  14  156.99   20.09
  -1  -6  14  178.14   26.59
  -1  -6  14  163.85   29.39
  -6   7  14  135.94   21.28
  -6   7  14  159.97   22.15
   4   3 -14   85.15   13.65
  -7   4 -14   55.85   13.80
   4   3 -14   69.96   11.68
  -7   4 -14   59.92   14.90
  -4  -3  14   83.49   14.03
  -3   7  14   57.45   12.44
   7  -4  14   54.79   10.37
  -4  -3  14   77.46   17.53
  -3   7  14   59.89   11.96
  -4  -3  14   57.55   13.72
  -7   7 -14   39.85   11.80
  -7   7 -14   65.63   14.08
   7   0 -14   50.21   11.45
   7   0 -14   63.74   11.29
   0   7  14   58.71   11.05
   0   7  14   54.30    9.32
  -7   0  14   34.47   10.56
   0   7  14   52.47    8.54
   0   7  14   34.47    7.83
   7  -7  14   37.49   13.77
  -7  10 -14   42.63   14.53
  -7  10 -14   47.58   14.85
   3   7  14   45.10   10.68
 -10   3  14   54.19   13.20
   3   7  14   43.25   11.17
  -8  -3 -14   18.28   10.39
  -3  11 -14    4.59   11.93
   8   3  14   12.72   11.27
   8   3  14    0.59    6.88
 -11   8  14   10.91   10.72
 -11   8  14    3.02   11.66
   0   8 -14  516.80   57.49
   0  -8  14  552.72   56.01
   8   0  14  540.07   57.69
   8   0  14  533.05   55.62
  -8   8  14  511.28   58.10
  -8   8  14  615.61   58.75
   3   5 -14   78.65   16.38
  -8   3 -14  131.87   20.12
   8  -3  14  124.47   15.71
  -5   8  14  122.63   17.88
  -3  -5  14  123.67   21.96
  -5   8  14  106.25   16.99
  -3  -5  14  100.52   16.73
   6   2 -14   12.13    8.35
   6   2 -14    9.20    7.54
  -8   6 -14   11.57   10.83
  -2   8  14   15.97    6.54
  -6  -2  14   13.33    8.05
  -2   8  14   12.31    6.77
   8  -6  14    6.20    5.54
  -8   9 -14   50.00   13.93
  -8   9 -14   54.75   15.13
   9  -1 -14   45.08   12.38
   1   8  14   46.94   10.78
  -9   1  14   60.98   13.11
   1   8  14   17.95    9.28
  -9  -1 -14   -8.38    8.01
  -1  10 -14   12.29   11.26
   9   1  14    2.85    9.35
   9   1  14    4.23    6.71
 -10   9  14    0.67   11.65
 -10   9  14    1.77    9.91
   2   7 -14   50.19   12.87
  -7   9  14   46.79   12.17
  -7   9  14   71.06   14.54
   9  -2  14   82.88   12.53
  -2  -7  14   54.15   12.67
   5   4 -14   50.69   11.72
   5   4 -14   32.20    9.80
  -9   5 -14   20.96   13.40
  -4   9  14   39.55    9.48
   9  -5  14   29.32    7.89
  -4   9  14   42.72   10.34
  -5  -4  14   56.60   12.06
  -5  -4  14   45.90   16.46
   8   1 -14   58.89   12.90
   8   1 -14   52.07   12.77
  -1   9  14   45.48   10.65
  -8  -1  14   59.50   13.91
  -9  11 -14   49.25   16.04
   2   9  14    5.82    8.93
   2   9  14   30.77    9.43
 -11   2  14    7.60    9.61
   1   9 -14    5.84    9.11
 -10   1 -14    1.32    8.61
  -9  10  14    1.78    9.51
  10  -1  14    4.42    6.76
  -9  10  14    1.62    9.54
   4   6 -14   17.33    9.49
 -10   4 -14   11.58    8.43
  10  -4  14    5.49    6.31
  -4  -6  14   -2.61    7.71
  -6  10  14    7.97    7.89
  -6  10  14    7.70    8.30
   7   3 -14   42.86   11.51
   7   3 -14   53.65   12.32
  -7  -3  14   24.28   10.14
  -3  10  14   17.22    7.62
  -3  10  14   26.81    9.31
  10   0 -14    7.51   10.26
   0  10  14   -2.53    6.34
 -10   0  14    1.12    8.03
   3   8 -14    5.64    9.60
 -11   3 -14    9.97    9.60
  -8  11  14   -6.55    9.04
  -8  11  14    1.80    9.40
  11  -3  14    9.38    7.43
  -3  -8  14   -0.32    8.86
   6   5 -14   49.81   13.57
   6   5 -14   25.84   11.34
  -6  -5  14   56.40   13.41
  -5  11  14   41.30   10.91
  -5  11  14   19.88    9.70
   9   2 -14   13.00    9.59
   9   2 -14   11.87   11.03
  -9  -2  14   24.48   10.27
  -2  11  14    9.74    7.89
   0   0 -15  261.94   30.86
   0   0 -15  300.47   30.06
   0   0  15  309.72   31.92
   0   0  15  281.74   29.58
   0   0  15  221.74   29.08
   0   0  15  253.80   28.43
   0   0  15  276.99   29.62
  -1   2 -15   -5.58    5.64
  -1  -1 -15    6.68    6.69
   2  -1 -15   -1.20    7.25
  -1  -1 -15    1.42    4.99
   2  -1 -15   -3.00    6.39
  -1   2 -15    4.49    7.48
   2  -1 -15   -3.12    5.15
  -1   2 -15    0.91    5.11
   1   1  15   -4.07    4.78
   1  -2  15   -1.50    4.59
  -2   1  15    2.97    4.73
   1  -2  15    1.60    6.18
   1   1  15   -1.94    4.61
  -2   1  15    9.10    6.96
   1  -2  15    2.42    5.23
   1   1  15   -4.20    4.59
   1  -2  15   -1.77    5.53
  -2   1  15    7.57    6.49
   1  -2  15   -2.52    6.90
  -2   1  15   -4.09    4.98
   1  -2 -15    2.63    6.67
   1  -2 -15    1.27    4.67
  -2   1 -15   -1.33    6.97
   1   1 -15    1.43    6.90
   1   1 -15    9.99    5.71
   1   1 -15   -3.54    5.62
  -2   1 -15    2.18    5.45
  -2   1 -15   -3.04    5.49
   2  -1  15   -0.56    5.24
  -1   2  15    1.24    5.60
  -1  -1  15    0.30    7.10
  -1   2  15   -3.87    5.14
   2  -1  15    0.01    6.78
  -1  -1  15    1.38    6.03
   2  -1  15   -4.43    5.50
   2  -1  15    7.58    5.58
  -1   2  15    3.98    5.78
   2  -1  15    7.54    6.79
  -1  -1  15    0.17    5.58
  -1  -1  15    3.97    5.79
  -1  -1  15   -3.45    5.16
   4  -2 -15   14.79   10.33
  -2   4 -15   35.80   11.04
  -2   4 -15   23.65    8.42
  -2   4 -15   29.07    9.61
  -2  -2 -15   21.58    8.74
  -2   4 -15   34.51    9.11
  -2  -2 -15   17.36    7.01
  -4   2  15   29.88    9.52
   2   2  15   17.31    6.85
   2  -4  15   22.87   10.87
  -4   2  15   31.52    7.71
   2  -4  15   26.68    9.55
  -4   2  15   34.14    9.44
   2  -4  15   40.89    9.93
   2  -4  15   31.48    7.63
   2   2  15   26.67    8.24
   2  -4  15   16.96    7.47
   2   2  15   15.56    6.83
  -4   2  15   33.18    9.42
   0   3 -15  119.26   15.63
   0   3 -15   77.54   16.00
   3  -3 -15   89.93   14.10
  -3   0 -15   81.62   15.43
  -3   0 -15  101.16   14.72
   3  -3 -15   84.63   15.71
   0  -3  15   98.82   15.08
   0  -3  15   62.88   13.21
   0  -3  15   90.62   16.35
   0  -3  15  106.04   14.47
   3   0  15   88.65   14.14
   3   0  15   74.86   13.66
  -3   3  15   99.66   15.74
   3   0  15   88.25   15.30
  -3   3  15  116.59   16.09
   0  -3  15   76.90   16.54
  -3   3 -15    3.68    8.30
  -3   3 -15   21.03    8.21
  -3   3 -15   15.71    8.05
   3   0 -15   21.39   10.21
   3   0 -15   14.39    6.92
  -3   3 -15   12.83    7.46
   0  -3 -15   19.32    8.38
   0  -3 -15   15.91    6.73
   0   3  15   16.81    7.85
   3  -3  15   21.15    8.77
  -3   0  15   19.76    8.61
   3  -3  15   24.47    9.24
  -3   0  15   19.04    7.64
  -3   0  15   20.28    7.63
   0   3  15   17.24    7.56
   3  -3  15   37.48    8.64
  -3   0  15   22.35    9.99
   0   3  15   20.71    7.85
   3  -3  15    8.37    9.36
  -3   6 -15    7.54    9.35
  -3   6 -15    4.82    8.01
  -3  -3 -15   23.72    8.77
   6  -3 -15    5.63   10.37
  -3   6 -15   16.51    8.68
  -6   3  15   22.54    9.84
  -6   3  15    4.35    7.53
   3  -6  15   21.64   11.72
   3   3  15    7.71    6.78
   3   3  15    5.75    5.85
   3  -6  15    4.47    8.82
   3   3  15   -5.95    5.25
   3  -6  15    3.93    6.01
  -4  -1 -15   64.40   13.58
  -4  -1 -15   42.56   12.02
  -1   5 -15   50.21   12.83
  -1   5 -15   55.82   12.62
   5  -4 -15   45.89   13.43
   4   1  15   71.95   11.54
   4   1  15   50.62   10.18
   1  -5  15   34.58    9.73
  -5   4  15   39.61   11.49
   1  -5  15   46.84   11.63
   1  -5  15   21.02   13.34
  -5   4  15   37.19   11.20
   1  -5  15   33.85    8.94
   2  -4 -15   49.77   10.30
  -4   2 -15   21.33    8.36
  -4   2 -15   26.47    7.98
   2   2 -15   23.42    7.52
   2  -4 -15   19.70    6.33
  -4   2 -15   28.85   10.05
   2   2 -15   23.05   10.23
  -2  -2  15    9.31    9.83
   4  -2  15   20.99    8.98
  -2   4  15   19.60    7.74
  -2  -2  15   16.08    8.62
  -2  -2  15   26.46    8.26
   4  -2  15   14.04    8.50
   4  -2  15   21.47    8.35
  -2   4  15   21.30    7.92
  -2  -2  15   26.54    7.97
  -2  -2  15   21.17    7.76
   4  -2  15   30.64    7.82
   5  -1 -15   13.16   10.32
  -1  -4 -15   14.12    6.08
  -4   5 -15    5.69    7.78
  -4   5 -15   19.56    8.40
  -4   5 -15   36.86    9.94
  -4   5 -15   40.25   11.75
  -1  -4 -15    8.17    6.41
   4  -5  15   28.28    9.63
  -5   1  15   24.34    8.24
  -5   1  15   25.91    9.63
  -5   1  15   11.52    7.51
   1   4  15   11.31    6.20
   1   4  15   10.01    6.50
   1   4  15   20.73    6.70
   4  -5  15   24.98    7.15
   4  -5  15   11.34   10.56
   4  -5  15   23.80    9.51
  -4   8 -15   16.24   10.19
  -4   8 -15   41.30   12.67
   8  -4 -15   25.54   11.93
   4   4  15   34.71    9.24
  -8   4  15   11.52    8.45
   4  -8  15   16.11   14.12
   4   4  15   10.44    7.68
  -8   4  15   27.58   11.73
  -2   7 -15    0.32    8.26
  -2   7 -15    1.15    8.71
   5   2  15   -0.01    6.41
   2  -7  15    2.18   12.30
  -7   5  15    1.18    8.01
   2  -7  15   -2.15    8.25
  -7   5  15   16.07   10.35
   5   2  15   11.35    7.77
   2  -7  15   10.19    6.71
   1   4 -15   48.98   10.74
  -5   1 -15   57.44   12.08
  -5   1 -15   43.70   12.34
   4  -5 -15   32.75   11.37
   1   4 -15   45.68   12.01
  -1  -4  15   48.26   10.93
  -4   5  15   29.81    9.69
  -4   5  15   41.69   10.64
  -1  -4  15   62.85   10.80
  -1  -4  15   62.34   10.93
  -1  -4  15   47.99   14.19
   5  -1  15   52.76   10.34
   1  -5 -15   20.44    7.28
   4   1 -15   12.47    5.49
  -5   4 -15   34.45   11.21
  -5   4 -15   26.07    9.32
   4   1 -15    6.46    9.43
  -5   4 -15   19.77    9.03
   1  -5 -15   15.69    5.67
   4   1 -15   23.99    8.41
   5  -4  15   32.80    7.61
  -4  -1  15   15.89   11.42
   5  -4  15   22.51    9.61
  -4  -1  15   16.41    7.72
  -1   5  15   17.37    7.14
  -4  -1  15   23.06    7.88
  -1   5  15   14.49    6.72
   5  -4  15   38.32   10.74
  -4  -1  15   22.70    9.07
   7  -2 -15   -2.62   11.93
  -5   7 -15   12.61    9.28
  -5   7 -15    1.53    8.21
   7  -2 -15   -0.17    9.22
   2   5  15    1.50    5.35
   2   5  15   -2.71    5.24
   5  -7  15    3.81    9.09
  -7   2  15   -7.39    8.41
  -7   2  15   -2.03    6.75
   2   5  15   -3.34    5.59
  -5  10 -15   17.84   12.84
  -5  10 -15   -8.26    8.47
 -10   5  15   -7.82    8.17
   5   5  15   -5.65    5.59
   5   5  15   -7.87    7.32
 -10   5  15    9.15   10.15
  -3   9 -15    2.31    9.95
  -3   9 -15    0.02    9.13
   6   3  15   -0.68    5.69
  -9   6  15   18.51   11.51
  -9   6  15    8.84    8.75
   6   3  15    3.22    8.67
   0   6 -15    3.04    7.61
   0  -6  15    6.33   12.84
  -6   6  15   -5.99    8.63
  -6   6  15   12.12    9.88
   6   0  15    8.57    6.62
   0  -6  15    8.05    8.20
   0  -6  15    6.43    7.23
  -6   3 -15    2.13    8.90
   3  -6 -15    3.18    7.02
  -6   3 -15   19.58    9.27
   3   3 -15    6.96    7.14
   3   3 -15    8.55    9.78
  -3  -3  15    2.30   10.79
  -3  -3  15    4.45   11.88
  -3   6  15   17.07    6.77
  -3  -3  15   14.29    7.17
  -3  -3  15    3.63    7.27
  -3   6  15    1.16    6.99
   6  -3  15   21.13    6.77
   6   0 -15    0.80    7.52
  -6   6 -15    8.31    8.24
  -6   6 -15    3.19    9.76
   6   0 -15    5.44   10.33
   6   0 -15    0.06    6.80
  -6   6 -15    6.25    8.40
  -6   0  15   -1.28    7.79
   0   6  15   -1.61    6.09
   6  -6  15   -0.42    5.21
  -6   0  15   14.50    7.61
   6  -6  15   -2.10    8.40
   0   6  15    6.49    5.11
   0   6  15    9.29    6.14
  -6   0  15   13.23    8.53
  -6   9 -15    4.99    9.91
   9  -3 -15   -9.90   13.21
  -6   9 -15   -1.77   10.58
  -9   3  15   12.08   11.39
   3   6  15    1.19    6.18
   3   6  15   -9.01    5.77
  -9   3  15   -3.96    6.78
  -4  11 -15    4.39   17.51
  -4  11 -15    6.79   12.01
 -11   7  15   10.06   10.32
 -11   7  15  -23.88   11.27
   7   4  15    3.85    7.46
   7   4  15   -3.11    9.84
  -1   8 -15    8.38    9.42
   7   1  15    7.16    6.96
   7   1  15    8.90    8.21
  -8   7  15    2.33    9.80
  -8   7  15    0.96   10.00
   2   5 -15   11.37    8.23
  -7   2 -15   -1.61    8.27
  -2  -5  15   -7.48   11.45
  -5   7  15   -6.64    7.08
  -5   7  15   13.55    8.74
   7  -2  15    6.90    6.16
  -2  -5  15    2.63    6.88
  -2  -5  15   -7.52    6.86
  -7   5 -15  -12.97    8.72
   5   2 -15   -4.04    6.78
   5   2 -15    7.04    6.69
  -5  -2  15   -1.00    6.79
  -5  -2  15    8.90    8.41
   7  -5  15   -5.99    4.85
  -2   7  15   -3.68    5.77
  -2   7  15    2.43    5.83
  -7   8 -15   20.53   10.99
  -7   8 -15   -0.71    9.13
  -8   1  15   -1.33    7.35
   1   7  15    6.66    5.06
   1   7  15   17.96    7.52
   7  -8  15   20.80   11.49
  -7  11 -15   -6.05   11.56
  -7  11 -15   14.16   12.86
   4   7  15    9.14    8.55
   4   7  15    2.94    7.25
 -11   4  15    4.07    8.42
  -2  10 -15   -0.28   10.49
   8   2  15   -1.85    6.17
 -10   8  15   21.67   12.48
 -10   8  15    0.32    9.74
   8   2  15    2.14    9.92
   1   7 -15   -1.48    7.61
  -1  -7  15    4.96    7.13
   8  -1  15   11.91    7.13
  -7   8  15    7.25    9.02
  -7   8  15    7.17    9.07
   4   4 -15   24.93    9.47
  -8   4 -15   28.09   11.21
  -4  -4  15   29.71   13.37
  -4  -4  15   31.57   16.26
  -4   8  15   22.31    8.92
  -4   8  15   42.40   10.51
   8  -4  15   25.11    7.51
  -4  -4  15   45.16   11.06
   7   1 -15   12.06    8.77
   7   1 -15   18.50    8.27
  -7  -1  15   29.83    9.86
  -1   8  15    2.15    7.04
  -1   8  15    0.90    5.68
  -8  10 -15    8.67   11.97
   2   8  15    4.52    6.64
   2   8  15    7.85    4.88
 -10   2  15    6.80    8.27
   0   9 -15    5.98   10.12
   9   0  15   22.00    9.13
   9   0  15   31.30   12.80
  -9   9  15   12.73   11.41
  -9   9  15   11.22   10.66
   3   6 -15   18.98    9.45
  -6   9  15    3.74    7.87
  -6   9  15    6.17    9.49
   9  -3  15    8.74    6.35
  -3  -6  15   10.18    8.25
   6   3 -15    3.28    7.76
  -9   6 -15   14.88   13.06
   6   3 -15   -2.14    7.65
  -3   9  15    1.41    7.00
  -3   9  15    2.78    5.95
  -6  -3  15    1.88    7.87
   9   0 -15   35.67   12.02
  -9   0  15   33.03   11.68
   0   9  15   44.62   10.41
 -10   2 -15    1.63    8.89
   2   8 -15   13.88   10.18
  -2  -8  15   -0.67    8.00
  -8  10  15    6.42   10.13
  10  -2  15   -3.17    6.14
  -8  10  15  -14.46    9.29
   5   5 -15   -1.35    7.32
 -10   5 -15    2.18    7.79
   5   5 -15    3.98    8.30
  -5  -5  15   -0.13    7.99
  -5  10  15   -4.67    6.79
  10  -5  15   -3.65    5.76
  -5  10  15   -6.56    6.93
   8   2 -15    1.30    8.98
   8   2 -15    2.84    8.09
  -2  10  15   -0.73    6.93
  -8  -2  15   12.34    9.53
 -11   4 -15    5.94    9.62
   4   7 -15   14.65   10.48
  -7  11  15   -0.74    9.32
  -4  -7  15    9.90    9.51
  11  -4  15    2.78    6.54
  -7  11  15    1.08    8.87
   7   4 -15   -9.22    8.61
   7   4 -15    7.58   10.17
  -4  11  15   -0.75    7.01
  -7  -4  15   -2.72    9.02
  -4  11  15    2.96    7.17
  -1   0 -16  532.53   44.59
   0   1 -16  437.32   43.73
   1  -1 -16  351.20   44.07
   0   1 -16  443.20   45.64
   0   1 -16  390.25   43.05
  -1   0 -16  442.48   45.17
   1  -1 -16  380.93   43.01
  -1   1  16  381.62   43.35
   1   0  16  441.42   42.58
   1   0  16  489.15   44.43
   0  -1  16  514.00   46.90
  -1   1  16  346.71   41.62
   0  -1  16  359.89   44.04
   1   0  16  439.75   41.95
  -1   1  16  405.28   45.24
   1   0  16  468.95   43.78
   1   0  16  496.42   46.67
   0  -1  16  409.20   42.99
  -1   1  16  349.69   42.88
   0  -1  16  442.70   43.55
   0  -1  16  424.74   43.68
  -1   1  16  350.76   41.05
  -2  -1 -16  101.02   19.34
  -1   3 -16  155.70   20.25
   3  -2 -16  144.73   21.65
  -1   3 -16  164.34   20.93
  -1   3 -16  147.39   21.57
  -2  -1 -16  150.93   19.80
  -3   2  16  136.37   19.68
   2   1  16  149.16   20.83
  -3   2  16  127.37   19.57
   1  -3  16  164.30   18.59
   1  -3  16  144.07   20.23
   1  -3  16  162.02   20.17
   1  -3  16  155.89   22.09
  -3   2  16  111.51   16.23
   1  -3  16  151.83   22.54
  -3   2  16  168.39   18.27
   2   1  16  134.25   18.83
   2   1  16  165.62   18.74
   0  -2 -16  232.11   26.12
   2   0 -16  265.78   30.08
  -2   2 -16  243.12   27.34
   0  -2 -16  224.96   27.37
  -2   2 -16  221.65   26.58
   2   0 -16  214.35   28.12
  -2   2 -16  218.90   28.53
   0   2  16  225.10   26.28
  -2   0  16  253.60   27.16
   2  -2  16  183.12   27.68
   2  -2  16  245.15   26.07
   0   2  16  222.25   27.38
  -2   0  16  224.89   28.51
   0   2  16  185.98   25.90
  -2   0  16  245.72   26.35
  -2   0  16  236.04   26.88
   2  -2  16  228.42   26.38
   2  -2  16  267.54   27.50
   2  -2  16  269.11   29.58
  -2   0  16  217.63   27.59
   5  -3 -16  151.98   23.79
  -2   5 -16  167.14   23.33
  -2   5 -16  118.31   21.86
  -2   5 -16  153.53   22.14
  -5   3  16  145.53   21.00
  -5   3  16  193.41   23.53
   3   2  16  137.35   18.29
  -5   3  16  233.42   23.95
   2  -5  16  173.47   22.93
   3   2  16  127.57   19.73
   3   2  16  147.24   20.31
   2  -5  16  180.97   19.78
   2  -5  16  145.52   24.64
  -3   1 -16  144.91   21.32
   1   2 -16  135.79   18.62
   2  -3 -16   95.78   16.94
  -3   1 -16  126.98   17.80
  -3   1 -16  176.19   19.48
   1   2 -16  115.84   19.77
   2  -3 -16  115.73   19.57
  -2   3  16  103.99   17.90
   3  -1  16  162.97   19.64
  -2   3  16  151.41   19.11
   3  -1  16  131.39   16.80
   3  -1  16  152.04   18.00
   3  -1  16  154.42   21.39
  -1  -2  16  176.24   19.37
   3  -1  16  155.92   18.57
  -1  -2  16  111.72   19.87
  -1  -2  16  129.36   17.92
  -1  -2  16  127.08   21.12
  -1  -2  16  152.49   19.25
  -1  -3 -16   63.16   14.74
  -3   4 -16   82.05   16.00
  -3   4 -16   68.33   13.64
  -3   4 -16   81.50   13.26
   4  -1 -16   67.34   15.09
  -3   4 -16   59.64   12.56
  -1  -3 -16   54.32   12.01
   1   3  16   55.92   11.74
  -4   1  16   61.64   12.56
   1   3  16   42.22   10.47
   3  -4  16   79.94   12.21
   3  -4  16   77.71   21.07
  -4   1  16   61.39   11.40
   3  -4  16   92.23   15.96
   1   3  16   60.29   12.44
  -4   1  16   72.70   13.32
   3  -4  16   84.62   14.30
  -3   7 -16  122.13   19.93
  -3   7 -16  104.47   18.62
   7  -4 -16   99.56   19.89
  -7   4  16  102.69   19.48
  -7   4  16   99.01   17.74
   4   3  16  114.17   16.43
   4   3  16   90.27   15.24
   3  -7  16  111.04   18.63
  -4   0 -16 2222.55  192.56
   4  -4 -16 1843.17  197.63
  -4   0 -16 1967.00  196.20
   0   4 -16 1881.30  193.38
   0   4 -16 1933.93  192.46
  -4   4  16 1859.10  192.87
   0  -4  16 2038.19  195.18
   4   0  16 2093.77  191.95
   0  -4  16 2076.74  191.59
   0  -4  16 2326.26  193.43
  -4   4  16 2154.34  193.32
   0  -4  16 1881.88  191.70
   3   1 -16   80.65   12.79
  -4   3 -16   61.84   12.92
   1  -4 -16   56.61   14.88
   3   1 -16   50.51   14.10
  -4   3 -16   92.69   16.71
   1  -4 -16   56.78   12.22
  -4   3 -16   81.72   14.12
   4  -3  16   82.41   12.26
  -1   4  16   72.49   12.92
  -3  -1  16   68.60   23.95
  -3  -1  16   78.24   13.05
   4  -3  16   74.77   14.61
   4  -3  16   72.70   13.87
  -3  -1  16   73.47   12.87
  -3  -1  16   49.46   11.91
  -1   4  16   55.87   12.09
  -1   4  16   52.68   11.61
  -3  -1  16   73.07   14.99
  -4   6 -16    3.85    8.63
  -4   6 -16   11.04    9.98
  -2  -4 -16    5.48    7.79
   6  -2 -16    0.49    9.03
  -4   6 -16    6.14    8.19
   6  -2 -16   -3.44   10.37
   4  -6  16    7.40    6.48
  -6   2  16   -6.16    6.18
   4  -6  16   -2.84    7.91
   2   4  16    1.00    5.81
   2   4  16   -0.19    5.75
  -6   2  16    5.53    9.15
  -4   9 -16  212.79   28.59
  -4   9 -16  196.16   26.52
  -9   5  16  114.73   22.02
  -9   5  16  182.79   26.50
   5   4  16  153.51   22.80
   5   4  16  146.13   21.29
  -1   6 -16  118.83   19.62
   5   1  16  122.58   17.59
  -6   5  16  139.23   20.65
   1  -6  16   81.95   21.21
   5   1  16  157.03   18.37
   1  -6  16  111.58   16.75
   1  -6  16  114.86   18.94
  -6   5  16  114.03   19.00
   2   3 -16  142.03   22.22
   3  -5 -16  151.68   27.08
   2   3 -16  131.79   19.66
  -5   2 -16  134.44   22.91
  -5   2 -16  168.21   22.34
   5  -2  16  167.37   20.18
  -2  -3  16  150.02   20.85
  -2  -3  16  135.80   19.72
  -3   5  16  156.89   20.68
  -3   5  16  173.62   21.62
  -2  -3  16  144.26   20.02
  -2  -3  16  143.21   23.94
   0  -5 -16   43.22    9.82
  -5   5 -16   58.00   18.34
  -5   5 -16   32.90   13.38
  -5   5 -16   68.98   14.39
   5   0 -16   33.53   13.51
   5   0 -16   61.10   15.19
   5  -5  16   28.68   12.03
  -5   0  16   57.88   12.05
   5  -5  16   70.94   10.78
  -5   0  16   37.72   11.95
  -5   0  16   35.77   11.43
   0   5  16   37.15    9.69
   5  -5  16   41.11   17.06
   0   5  16   36.80    9.71
  -5   8 -16   18.28   11.63
  -5   8 -16   13.97   10.76
  -8   3  16   19.98   12.33
  -8   3  16   -0.90    7.22
   3   5  16   15.76    6.19
   3   5  16   13.57    7.18
   5  -8  16   26.27   11.21
  -2   8 -16   63.09   14.44
  -8   6  16   54.85   15.57
   6   2  16   57.20   13.16
   2  -8  16   31.01   16.47
   6   2  16   32.93    9.84
  -8   6  16   37.57   12.74
   1   5 -16  117.82   19.59
  -1  -5  16  139.91   19.63
  -1  -5  16  159.94   21.54
  -1  -5  16  153.00   25.44
  -5   6  16  124.68   20.70
  -5   6  16  137.06   21.11
   6  -1  16  173.27   19.05
   2  -6 -16   13.26    7.91
   4   2 -16   12.61    7.90
  -6   4 -16   -3.72    8.28
  -6   4 -16    7.18   10.46
   4   2 -16    1.82   10.37
  -2   6  16   -5.72    6.11
   6  -4  16    2.61    6.00
  -4  -2  16    8.45    8.17
  -2   6  16    2.70    6.65
  -4  -2  16    3.56    6.62
  -4  -2  16   10.41    7.82
  -6   7 -16   36.81   12.29
  -6   7 -16   36.82   12.74
   7  -1 -16   26.22   13.63
  -7   1  16   56.84   12.34
  -7   1  16   43.76   12.28
   1   6  16   22.43    7.39
   6  -7  16   30.49   12.18
   1   6  16   41.22   10.04
  -6  10 -16   -4.16   11.02
  -6  10 -16   19.43   11.58
 -10   4  16    8.73   11.64
   4   6  16   17.77    9.67
   4   6  16   15.71    7.38
 -10   4  16    7.43    9.08
  -3  10 -16   26.29   13.79
  -3  10 -16   26.10   13.10
   7   3  16   18.19    8.31
 -10   7  16   32.76   12.17
   7   3  16   14.12   11.38
 -10   7  16   13.75   12.39
   0   7 -16   17.07    9.13
   0  -7  16   24.72    8.91
  -7   7  16   18.09   10.31
   0  -7  16   24.48   15.73
   7   0  16    4.56    7.79
  -7   7  16   11.11   13.27
  -7   3 -16   70.22   16.05
   3   4 -16  105.27   16.21
   7  -3  16   85.89   13.74
  -4   7  16   85.09   15.73
  -4   7  16   71.37   15.27
  -3  -4  16  114.15   17.31
  -3  -4  16  115.34   16.20
   6   1 -16   15.53   12.75
  -7   6 -16   30.01   12.30
  -6  -1  16   36.08   10.39
   7  -6  16   33.99    8.32
  -1   7  16   29.37    8.05
  -1   7  16   44.94   10.22
  -6  -1  16   36.99   15.11
  -7   9 -16   87.71   16.82
   2   7  16   24.99    7.90
  -9   2  16   62.32   12.99
   2   7  16   30.49   10.07
  -1   9 -16   19.97   13.17
   8   1  16   20.18   11.59
   8   1  16   40.01   10.72
  -9   8  16   29.29   12.97
  -9   8  16   46.61   14.86
   2   6 -16   26.36   10.63
  -6   8  16   52.98   12.91
   8  -2  16   36.20    9.18
  -2  -6  16   42.33   10.58
  -2  -6  16   34.77   19.83
  -6   8  16   31.48   11.51
  -8   5 -16   -5.95   10.67
   5   3 -16    1.41    7.81
   5   3 -16    9.99    6.83
  -5  -3  16   10.93    9.94
  -3   8  16    6.54    6.93
   8  -5  16   11.97    5.92
  -5  -3  16    9.32    7.79
  -3   8  16   21.09    8.44
  -8   0  16  362.36   36.36
   0   8  16  256.22   30.12
   0   8  16  290.78   32.51
   1   8 -16   28.64   11.77
   9  -1  16   19.24    8.28
  -8   9  16   18.08   11.49
  -1  -8  16   37.36   10.72
  -8   9  16   25.15   12.08
   4   5 -16  160.62   22.96
   9  -4  16  161.45   20.09
  -5   9  16  115.91   20.56
  -5   9  16  143.98   22.33
  -4  -5  16  186.71   23.13
   7   2 -16   46.99   15.33
   7   2 -16   52.82   11.83
  -7  -2  16   58.49   13.06
  -2   9  16   20.96    9.54
  -2   9  16   34.72    8.67
   3   7 -16   16.17   10.12
  -3  -7  16   44.48   11.15
  -7  10  16   10.07    9.34
  -7  10  16   20.87   11.55
  10  -3  16   10.59    8.41
   6   4 -16   13.07    9.17
   6   4 -16   -1.25    8.20
  -6  -4  16    7.15    9.22
  -4  10  16   23.34    8.52
  -4  10  16    2.46    7.66
   1   0 -17   91.15   15.03
  -1   1 -17   72.51   15.82
   0  -1 -17  100.07   14.58
   1   0 -17   69.77   15.70
   0  -1 -17   70.68   15.17
  -1   1 -17  126.16   16.50
  -1   0  17   94.38   14.82
   0   1  17   68.07   13.72
   1  -1  17   72.36   14.87
   0   1  17   73.08   13.68
   1  -1  17  113.16   15.02
  -1   0  17   95.06   14.80
  -1   0  17   72.01   14.55
  -1   0  17   78.09   13.17
   1  -1  17   95.14   14.94
   1  -1  17   88.85   13.91
  -1   0  17   88.33   16.20
   1  -1  17  102.62   17.47
   0   2 -17   16.32   10.09
   2  -2 -17    8.91    7.30
   2  -2 -17   -6.80    8.17
   0   2 -17   21.78    8.58
  -2   0 -17   24.27    8.94
  -2   0 -17   15.37    9.28
   0   2 -17   13.40    7.83
   0  -2  17   12.86    7.78
   2   0  17   24.60    8.95
  -2   2  17   20.17    7.63
  -2   2  17   24.11    8.97
   2   0  17   17.80    7.51
   0  -2  17   18.50    8.42
   0  -2  17   18.19    7.74
   0  -2  17    9.57    8.73
   3  -1 -17    1.61    8.96
  -1  -2 -17    7.32    9.27
  -2   3 -17    7.59    9.52
  -1  -2 -17   -3.69    7.62
  -2   3 -17   22.22    9.12
   1   2  17   -3.00    6.11
  -3   1  17   22.24    9.19
   2  -3  17   10.04    7.21
   2  -3  17    1.52    7.57
   1   2  17    3.73    5.65
  -3   1  17    6.69    7.18
   2  -3  17    9.91    8.58
   2  -3  17   18.27    6.98
  -1   4 -17   37.32   11.09
  -1   4 -17   46.80   12.74
   1  -4  17   39.95   11.20
  -4   3  17   29.89   10.67
   3   1  17   37.46    9.92
   1  -4  17   21.23    9.66
   1  -4  17   47.06    9.67
   3   1  17   37.51    9.58
  -4   3  17   32.57   10.56
  -3   2 -17   11.45    8.49
   1  -3 -17    4.71    8.33
   1  -3 -17   -3.15    8.79
  -3   2 -17    1.47    7.46
  -3   2 -17    4.03    6.64
   2   1 -17   -3.04    8.74
   3  -2  17    7.84   10.62
  -2  -1  17   10.78    7.44
  -1   3  17   17.67    7.60
   3  -2  17    0.38    6.42
  -2  -1  17    4.06    6.83
  -2  -1  17    1.30    7.77
  -1   3  17    4.13    7.33
  -2  -1  17   15.50    7.63
   3  -2  17    5.31    5.99
  -3   5 -17   -4.65    8.37
  -3   5 -17    5.28    8.52
  -3   5 -17   -2.39    7.54
   5  -2 -17    4.57   10.69
   3  -5  17   -1.78    8.03
   2   3  17    1.30    5.72
  -5   2  17   -5.27    8.42
   2   3  17    0.90    5.77
   3  -5  17    0.19    6.42
  -5   2  17   -2.50    6.71
  -2   6 -17    0.82    8.28
  -6   4  17    0.87    7.47
   2  -6  17   -2.47    6.46
   4   2  17    1.72    7.06
   2  -6  17    6.10    8.62
   4   2  17   -1.93    5.52
  -6   4  17    9.88    9.61
   1   3 -17   39.95   12.12
  -4   1 -17   31.03   10.96
   1   3 -17   54.93   11.22
  -1  -3  17   40.74   10.87
   4  -1  17   36.68    9.40
  -3   4  17   28.21    9.96
  -1  -3  17   45.79   10.35
  -3   4  17   33.40   10.17
  -1  -3  17   63.11   11.17
   4  -1  17   32.97    8.42
  -4   4 -17   47.08   12.58
   4   0 -17   44.32   14.46
  -4   4 -17   67.99   15.47
  -4   4 -17   58.68   12.60
   0   4  17   42.86   11.17
   4  -4  17   51.83   10.55
  -4   0  17   63.35   13.66
  -4   0  17   41.91   11.66
   0   4  17   51.79   10.72
   4  -4  17   65.52   22.16
  -4   7 -17   25.55   10.80
   7  -3 -17   15.17   11.51
  -4   7 -17    9.95    9.50
   3   4  17   17.67    7.09
   3   4  17   12.79    7.37
   4  -7  17   14.90   10.24
  -7   3  17   34.26   12.74
  -7   3  17   19.76    9.78
  -3   8 -17   19.38   11.94
  -3   8 -17   45.28   13.64
  -8   5  17   27.62   12.85
   5   3  17    9.96    8.94
   5   3  17   33.34    9.55
  -8   5  17   21.03   10.65
   0   5 -17   -1.61    7.50
   0  -5  17   -2.04    7.27
   5   0  17    0.58    5.68
  -5   5  17    5.27    8.20
   0  -5  17   -1.13    6.75
  -5   5  17    2.38    8.98
   3   2 -17   10.54    7.53
   3   2 -17   -6.14    8.59
  -5   3 -17   -9.44    8.59
  -5   3 -17  -14.91    6.58
   5  -3  17    4.57    6.05
  -3  -2  17    6.97    7.57
  -3  -2  17    5.49    7.39
  -2   5  17   -9.33    5.81
  -2   5  17    3.88    7.13
  -3  -2  17    0.15    6.95
  -5   6 -17    8.02   11.45
  -5   6 -17   -3.32   13.74
   6  -1 -17    2.74   10.97
  -6   1  17    2.01    6.12
   1   5  17    0.94    5.18
  -6   1  17    6.59    8.45
   1   5  17   -2.01    5.93
   5  -6  17   -2.46    6.33
  -5   9 -17   20.21   11.66
  -5   9 -17   24.76   12.78
  -9   4  17   12.52   13.28
   4   5  17   12.26    7.55
  -9   4  17   20.12   11.00
  -4  10 -17    7.71   12.66
  -4  10 -17   -0.20   11.27
   6   4  17    1.21    9.77
 -10   6  17    6.10   11.43
   6   4  17   18.53    8.53
 -10   6  17   -5.34    9.60
  -1   7 -17    2.37    9.13
   1  -7  17   -3.93    6.97
  -7   6  17   12.38    9.87
  -7   6  17    9.61    9.02
   6   1  17    0.86    7.39
   6   1  17    3.75    6.04
   2   4 -17   -4.99    6.13
  -6   2 -17   -2.59    9.72
  -4   6  17    2.61    7.47
  -2  -4  17    8.39    7.16
  -2  -4  17   -6.67    7.14
  -4   6  17    6.37    7.85
   6  -2  17    9.91    6.37
  -6   5 -17    0.07   10.56
   5   1 -17   -0.11   11.22
  -5  -1  17    6.81    7.06
  -5  -1  17  -12.07    7.97
  -1   6  17   -2.24    5.76
  -1   6  17    2.67    7.07
   6  -5  17   -2.71    5.86
  -6   8 -17    3.27   13.95
   8  -2 -17   25.05   16.12
   2   6  17   15.81    7.23
   2   6  17   10.97    6.31
  -8   2  17   17.40   11.50
  -8   2  17   19.37    9.24
  -2   9 -17   -0.67    9.84
  -9   7  17   -0.68    9.66
   7   2  17    5.70    7.48
   7   2  17   -8.58    9.13
  -9   7  17   15.60   12.07
   1   6 -17    4.96    8.14
   7  -1  17    0.89    5.91
  -6   7  17    2.35    9.15
  -6   7  17   -4.69    8.31
  -1  -6  17   -2.70    6.75
  -7   4 -17   22.43   10.87
   4   3 -17   13.46    8.51
  -4  -3  17   17.98   10.02
  -3   7  17   21.62    9.28
   7  -4  17   24.36    7.71
  -3   7  17   22.11    8.97
  -4  -3  17   13.82    8.21
  -7   0  17   20.59    9.58
   0   7  17   27.31    8.76
   0   7  17    8.66    6.85
  -7  10 -17   -6.92   12.87
 -10   3  17   -7.85    8.56
   3   7  17   -2.05    6.67
   0   8 -17   10.42   10.74
  -8   8  17   -0.21   11.19
  -8   8  17   12.85   11.35
   8   0  17   17.80    8.56
   8   0  17   12.63   10.54
   3   5 -17   15.71    9.74
  -5   8  17    9.84    9.64
  -5   8  17    3.51    8.71
  -3  -5  17   14.34    8.27
   8  -3  17   36.87    8.50
  -2   8  17    4.89    6.47
  -6  -2  17    5.56    8.65
  -2   8  17   18.38    8.87
  -9   1  17    1.74    8.03
   1   8  17    6.79    7.15
   1   8  17    5.43    5.48
   2   7 -17   -0.78    8.67
   9  -2  17    7.92    6.89
  -2  -7  17   -0.50    8.00
  -7   9  17    8.31   10.55
  -7   9  17    0.60    9.28
   5   4 -17   15.21    9.79
  -5  -4  17   21.12   10.44
  -4   9  17   16.82    8.67
   9  -5  17   11.78    7.08
  -4   9  17   25.07    9.66
  -1   9  17   -0.33    5.58
  -1   9  17    1.43    7.16
  -8  -1  17   11.53    9.00
   4   6 -17    1.88    9.59
  -6  10  17    3.60    9.48
  -4  -6  17   -0.16    8.79
  10  -4  17   -0.02    6.50
  -6  10  17    4.49    9.33
   7   3 -17    2.15    8.78
  -7  -3  17   -5.33    8.91
  -3  10  17   10.02    8.21
  -3  10  17   -5.50    6.04
   0   0 -18 3017.76  292.07
   0   0 -18 3426.54  291.25
   0   0  18 2788.96  290.19
   0   0  18 3061.49  289.71
   0   0  18 3183.43  291.04
   2  -1 -18  235.53   29.88
  -1   2 -18  264.14   28.74
  -1   2 -18  234.21   29.93
  -1  -1 -18  247.96   28.28
   2  -1 -18  223.83   28.21
   1   1  18  244.99   28.34
   1  -2  18  222.74   27.18
  -2   1  18  283.96   29.18
   1  -2  18  247.97   28.47
   1   1  18  206.61   27.20
  -2   1  18  237.01   33.33
   1  -2  18  258.47   38.54
  -2   1  18  222.82   28.22
  -2   1 -18  262.17   28.66
  -2   1 -18  227.97   29.72
   1  -2 -18  239.67   28.01
   1   1 -18  247.37   30.16
   2  -1  18  241.18   28.61
  -1  -1  18  218.39   27.76
   2  -1  18  201.85   26.78
  -1   2  18  175.16   27.65
  -1  -1  18  263.41   28.52
  -1  -1  18  350.87   45.88
  -1   2  18  271.60   28.95
  -2   4 -18  107.32   18.68
   2  -4  18  115.86   16.67
   2   2  18   70.57   14.02
   2   2  18  101.13   15.97
  -4   2  18   87.23   16.32
   2  -4  18   87.54   16.63
   2  -4  18  108.71   15.69
  -4   2  18  113.41   17.88
   0   3 -18  434.32   49.19
   0  -3  18  439.56   46.59
   0  -3  18  507.93   51.14
   0  -3  18  424.39   46.64
   3   0  18  430.05   46.15
  -3   3  18  390.64   46.88
  -3   3  18  429.11   47.26
   3   0  18  429.38   47.02
   0  -3  18  502.65   47.92
  -3   3 -18  186.51   26.63
  -3   3 -18  179.86   24.15
   3   0 -18  180.77   26.50
   0   3  18  186.49   22.26
  -3   0  18  156.68   23.23
   0   3  18  160.09   22.92
   3  -3  18  154.69   22.05
  -3   0  18  198.14   24.35
  -3   6 -18   17.51   10.81
  -3   6 -18   17.06    9.40
  -6   3  18   17.97    9.51
   3   3  18    8.25    6.76
   3  -6  18   19.62   10.39
  -6   3  18   12.50   10.02
   3   3  18   10.37    7.17
   3  -6  18   18.28    7.60
  -1   5 -18   21.46   10.14
   4   1  18    8.99    7.32
   1  -5  18   11.25    8.22
  -5   4  18   11.00    8.97
  -5   4  18   19.92   10.79
   1  -5  18   11.90   10.20
  -4   2 -18  124.54   19.04
   2   2 -18  121.33   19.95
  -2   4  18  109.82   17.33
  -2   4  18  111.97   17.68
  -2  -2  18   96.79   16.67
   4  -2  18  110.47   16.30
  -2  -2  18  110.26   19.60
  -2  -2  18  114.88   17.35
   5  -1 -18   44.51   14.62
  -4   5 -18   47.29   14.29
   4  -5  18   49.10   10.42
   1   4  18   50.26   10.16
  -5   1  18   15.93    9.29
   1   4  18   41.14    9.77
  -5   1  18   27.31   11.41
  -4   8 -18  620.99   62.99
  -4   8 -18  640.81   64.91
  -8   4  18  525.35   60.83
   4   4  18  436.63   58.00
  -8   4  18  748.34   65.28
  -2   7 -18   38.72   13.84
   2  -7  18   65.74   17.69
  -7   5  18   52.12   13.55
   5   2  18   47.92   11.27
   2  -7  18   29.44   16.29
  -7   5  18   59.50   15.62
   1   4 -18   16.21    9.22
  -4   5  18   12.94    8.99
  -4   5  18   15.60    9.53
  -1  -4  18   11.99    7.75
   5  -1  18   10.81    7.63
  -1  -4  18    3.73    8.18
  -5   4 -18   40.16   13.38
  -5   4 -18   43.53   11.50
   4   1 -18   22.72   12.71
  -1   5  18   36.77   10.24
  -1   5  18   44.63   10.77
  -4  -1  18   43.18   11.76
  -4  -1  18   47.13   11.47
   5  -4  18   57.37   10.66
   2   5  18   90.16   15.94
   2   5  18   90.35   14.36
  -7   2  18   94.99   16.98
  -7   2  18  105.38   18.97
  -3   9 -18    2.52   11.56
   6   3  18   -3.62   12.73
   6   3  18   10.54    7.20
  -9   6  18    5.13   11.72
  -9   6  18   16.91   10.33
   0   6 -18    0.77    8.91
   6   0  18    2.62    6.73
  -6   6  18    4.83    9.36
  -6   6  18   -5.41    9.36
   0  -6  18    7.78    9.81
   0  -6  18    4.92    7.35
   3   3 -18    7.66    7.69
  -6   3 -18   13.64    9.06
  -3   6  18   10.58    8.28
  -3  -3  18    9.12    9.05
  -3   6  18    8.17    8.08
   6  -3  18    7.47    7.59
  -3  -3  18   21.12    8.73
  -6   0  18   23.23   11.35
   0   6  18   16.79    7.93
   0   6  18    1.48    6.16
  -6   0  18   13.84    8.47
   6  -6  18   24.14    8.85
  -9   3  18   -3.30   12.31
  -9   3  18   15.89    9.41
   3   6  18    3.51    6.28
  -1   8 -18    8.74   10.69
   7   1  18    9.82    9.63
  -8   7  18   10.20   11.35
   7   1  18   -5.05    5.74
  -8   7  18   11.83   10.11
   2   5 -18   41.77   12.37
  -5   7  18   50.48   12.58
  -5   7  18   65.24   13.44
  -2  -5  18   56.86   14.59
  -2  -5  18   18.30   10.19
   7  -2  18   34.42    9.87
  -2   7  18  102.24   15.18
  -2   7  18   89.47   16.02
   7  -5  18  108.80   14.84
  -5  -2  18   71.77   15.57
  -8   1  18    4.00    8.58
   1   7  18   -4.02    5.97
   1   7  18    2.85    6.11
   1   7 -18   -1.96    8.85
  -7   8  18    1.61   10.50
  -7   8  18    5.24    9.49
  -1  -7  18   -0.82    8.14
   8  -1  18    7.80    7.26
   4   4 -18  467.77   54.86
   8  -4  18  609.81   53.37
  -4   8  18  485.44   54.17
  -4  -4  18  488.01   54.38
  -4   8  18  527.03   55.55
  -1   8  18    0.31    7.22
  -7  -1  18    3.47    8.37
  -1   8  18    6.32    6.75
   3   6 -18   17.93   10.23
  -3  -6  18   14.78    8.87
  -6   9  18    6.61    9.97
   9  -3  18    6.45    8.09
  -6   9  18   13.23    9.80
  -3   9  18    1.31    7.97
  -6  -3  18    8.77    9.00
  -3   9  18   19.14    8.84
   0   1 -19    1.78    8.44
   0   1 -19   10.11   10.21
   1  -1 -19    1.84    9.08
  -1   0 -19    7.15    8.88
   0  -1  19    9.85    7.99
   1   0  19   12.05    9.17
  -1   1  19   12.86    8.15
  -1   1  19   19.51    9.82
   1   0  19    0.12    7.57
   0  -1  19   14.94    9.26
   1   0  19   -0.87    6.86
  -1   1  19   15.66    7.26
  -1   3 -19   19.36   11.13
  -1   3 -19   17.91   11.17
   1  -3  19    7.21    8.24
   2   1  19   -1.36    6.13
  -3   2  19   21.09    9.10
  -3   2  19   19.74    9.78
   1  -3  19    1.23    6.94
   2   1  19    9.05    7.83
  -3   2  19   -1.21    6.35
  -2   2 -19  -12.17    7.31
   2   0 -19   10.79   10.69
  -2   2 -19   -4.90    9.85
  -2   0  19    5.21    7.77
   2  -2  19   14.59    8.58
  -2   0  19    0.26    7.33
   0   2  19   -5.66    5.96
   2  -2  19    0.58    6.13
   0   2  19   -5.74    6.74
   3   2  19    1.42    6.12
   3   2  19   -4.70    6.55
   2  -5  19   -1.64    6.58
  -5   3  19   -7.17    6.48
  -5   3  19  -17.22    7.41
  -3   1 -19    9.76    8.48
   1   2 -19    4.02   10.89
   3  -1  19    7.54    7.39
   3  -1  19    9.77    7.30
  -2   3  19    8.34    7.10
  -1  -2  19   17.42    8.22
  -2   3  19   19.62    9.22
  -1  -2  19   13.89    8.65
  -3   4 -19   -2.67   10.99
   3  -4  19    4.44    7.38
  -4   1  19    1.19    8.91
   1   3  19    4.42    7.34
   1   3  19    5.47    6.58
  -4   1  19    3.53    7.68
  -3   7 -19   34.67   19.24
  -7   4  19   34.41   11.52
   4   3  19   23.81    9.32
  -7   4  19   19.91   13.07
  -4   4  19   25.95   10.25
   4   0  19    6.59    7.27
  -4   4  19   32.13   10.55
   0  -4  19   28.96    9.23
  -4   3 -19   -0.93    7.12
   3   1 -19    4.23   10.38
  -4   3 -19   18.94   16.74
  -3  -1  19    2.63    7.04
   4  -3  19    5.93    6.94
  -1   4  19   -4.11    6.63
  -3  -1  19    2.69    7.15
  -1   4  19    6.71    7.81
   4  -6  19   -3.51    6.59
  -6   2  19   -6.72    6.36
  -6   2  19   -4.47    8.55
   2   4  19    0.13    6.06
   2   4  19    9.85    6.99
  -4   9 -19   -1.66   12.43
  -9   5  19   -4.30   11.57
  -9   5  19    5.32    9.84
   5   4  19   -1.95    6.12
  -1   6 -19   -3.78    9.65
   1  -6  19   -1.79   11.62
  -6   5  19    3.26    9.42
   5   1  19    4.49    6.36
  -6   5  19   -7.17    9.16
   1  -6  19    6.21    8.14
   5  -2  19    0.57    6.31
  -3   5  19    1.59    7.68
  -2  -3  19   -6.10    6.53
  -3   5  19   -6.90    6.50
  -5   5 -19   -3.47   11.29
   5   0 -19    1.79   11.92
  -5   0  19   -2.12    7.91
   5  -5  19    3.84    6.37
  -5   0  19    5.97    9.72
   0   5  19    0.95    5.92
   0   5  19    6.18    6.62
   3   5  19    0.38    6.64
   3   5  19    6.73    6.26
  -8   3  19   -1.18    7.96
  -8   3  19   -1.18   10.44
  -2   8 -19   -9.90    9.31
  -8   6  19    8.68   11.34
   6   2  19   11.83    7.36
  -8   6  19   -1.51    9.11
   1   5 -19    5.24    8.98
  -5   6  19   14.24   10.07
   6  -1  19   12.06    7.02
  -1  -5  19   -1.25    6.50
  -5   6  19    0.72    8.95
  -1  -5  19   -4.22   10.47
  -2   6  19    1.98    6.49
  -2   6  19   10.37    7.63
   6  -4  19   -5.16    6.51
  -4  -2  19   -0.20    7.50
   1   6  19   -0.64    5.69
   1   6  19    0.36    6.60
  -7   1  19    6.38    8.99
   0   7 -19    0.60    9.86
   7   0  19    1.11    6.61
  -7   7  19    4.71    9.95
   0  -7  19   -4.80    7.90
   7   0  19    5.18    9.53
  -7   7  19  -10.73    9.96
  -4   7  19   25.64   11.16
   7  -3  19   53.94   10.63
  -4   7  19   20.60   10.39
  -3  -4  19   19.71   10.39
  -6  -1  19   11.88    8.04
  -1   7  19    9.88    7.06
  -1   7  19   -1.10    6.25
   2   6 -19    5.90    9.09
  -6   8  19  -10.15    8.85
  -2  -6  19    6.14    8.79
  -6   8  19   -4.52    8.13
   8  -2  19   -1.13    6.60
  -5  -3  19    1.13    8.05
   8  -5  19    8.33    7.24
  -3   8  19    6.19    8.98
  -3   8  19   -2.86    7.31
  -8   0  19   11.26    9.53
   0   8  19    0.53    7.51
   0   8  19    2.53    6.06
   4   5 -19    8.44   12.06
  -5   9  19    0.91    9.31
  -4  -5  19   -5.45    7.79
   9  -4  19    9.10    7.03
  -5   9  19   -3.49    8.18
   1   0 -20   16.27    9.01
  -1   1 -20    8.31    7.95
   0   1  20    9.12    8.00
   1  -1  20    4.38    8.60
   0   1  20   11.09    8.53
  -1   0  20    7.47    7.04
   1  -1  20   17.92    7.66
  -1   0  20    1.68    8.18
   0   2 -20    1.43    8.27
   0   2 -20    0.15    9.91
  -2   2  20    6.93    8.22
   0  -2  20   -3.32    7.93
   0  -2  20    7.06    7.38
  -2   2  20    1.65    7.15
   2   0  20    2.99    8.77
   2   0  20    2.44    6.32
  -2   3 -20   18.14   12.35
  -3   1  20   18.02    9.07
   1   2  20   -1.26    6.60
   2  -3  20   10.10    8.13
  -3   1  20    2.68    7.39
   2  -3  20   14.56    8.12
   1   2  20   -1.94    6.51
  -1   4 -20   -2.86   10.37
   1  -4  20   -2.16    7.81
   3   1  20   11.54    7.11
  -4   3  20   -7.60    6.90
   1  -4  20    5.34    7.29
  -4   3  20    7.12    9.38
   3   1  20   10.88    8.78
  -3   2 -20   15.53    9.40
   2   1 -20    3.08   10.83
  -2  -1  20    7.13    8.73
   3  -2  20   13.46    7.60
  -1   3  20   13.99    7.99
  -2  -1  20   17.12    9.02
  -1   3  20    9.02    7.87
   3  -2  20   16.96    8.94
   2   3  20   84.40   14.20
  -5   2  20   40.12   14.03
  -5   2  20   62.76   14.81
   2   3  20   78.11   13.55
   3  -5  20   67.11   13.53
  -6   4  20    5.73   10.27
  -6   4  20    3.08    9.02
   2  -6  20   13.85    8.52
   4   2  20   -1.74    6.69
   1   3 -20   16.35   11.74
  -3   4  20    6.86    7.50
   4  -1  20   -0.82    6.05
  -1  -3  20    6.26    8.03
  -3   4  20   19.40    9.61
  -1  -3  20    9.23    8.02
   4   0 -20  252.10   37.61
  -4   4 -20  278.88   35.21
   4  -4  20  289.43   29.27
   0   4  20  205.13   28.18
  -4   0  20  211.83   30.47
   0   4  20  233.68   30.24
  -4   0  20  267.73   30.79
   3   4  20   26.31   10.03
   3   4  20   34.72    9.36
  -7   3  20   23.60   11.84
  -7   3  20   25.88   12.90
  -8   5  20    4.23   13.25
   5   3  20  -10.43    5.78
  -8   5  20   10.32   11.07
   0  -5  20   16.77    8.81
   5   0  20    3.12    7.24
  -5   5  20   15.26    9.82
  -5   5  20   -3.36    8.43
  -5   3 -20   82.31   16.01
  -3  -2  20   55.78   20.71
  -3  -2  20   87.03   15.16
  -2   5  20   56.53   13.98
   5  -3  20   88.93   14.37
  -2   5  20   47.63   13.29
  -6   1  20    4.79    8.14
  -6   1  20    0.70    9.90
   5  -6  20    3.62    8.47
   1   5  20    0.98    6.74
   1   5  20   -2.10    6.38
  -7   6  20    9.90   11.65
   1  -7  20   12.33   11.00
  -7   6  20   25.78   13.16
   6   1  20    4.32    7.37
   6  -2  20    5.64    7.45
  -2  -4  20   22.75    8.93
  -4   6  20    2.54    8.85
  -4   6  20   10.61    8.39
   6  -5  20   -0.54    7.63
  -1   6  20    3.01    7.57
  -1   6  20   -3.22    7.40
  -5  -1  20   -4.79    7.49
   2   6  20   -1.83    6.71
   2   6  20   -6.90    6.80
  -8   2  20    8.18    9.02
  -6   7  20    2.45    9.91
  -1  -6  20    3.82    8.62
  -6   7  20   11.75   10.68
   7  -1  20    7.54    8.33
   7  -4  20   23.44    8.88
  -3   7  20   21.81    9.62
  -4  -3  20   46.78   12.11
  -3   7  20    8.77    8.71
  -7   0  20    3.73    8.84
   0   7  20   -5.69    6.17
   0   7  20    7.52    7.43
  -5   8  20   -3.46    8.72
  -3  -5  20   -7.17    8.52
   8  -3  20   -0.35    6.88
  -5   8  20    2.39    8.95
  -6  -2  20    6.99    8.99
  -2   8  20   -6.68    6.67
  -2   8  20   10.44    8.19
   0   0  21  151.84   22.44
   0   0  21  189.12   24.60
  -1   2 -21   55.20   13.54
  -2   1  21   35.81   11.38
   1  -2  21   30.23   10.22
   1   1  21   57.79   12.30
   1   1  21   27.66   10.71
   1  -2  21   38.05   12.19
  -2   1  21   30.79   11.01
  -1   2  21   24.27    9.82
   2  -1  21   32.23   12.23
  -1   2  21   39.80   11.62
   2  -1  21   35.68   10.28
  -1  -1  21   55.48   13.04
  -1  -1  21   46.71   11.48
  -2   4 -21    9.54   10.95
   2  -4  21    7.23    7.48
  -4   2  21    1.87    9.65
   2   2  21   23.84    9.51
  -4   2  21    5.57    8.35
   2   2  21    9.48    7.74
   2  -4  21    5.09    8.71
   0   3 -21   36.65   14.17
   3   0  21   12.10    8.07
  -3   3  21   21.22   10.63
   0  -3  21   18.41   10.29
  -3   3  21   13.61    8.41
   3   0  21   18.47    9.70
   0  -3  21   19.16    9.19
   0   3  21   -1.12    7.14
  -3   0  21    8.95    9.23
   0   3  21    1.68    7.38
  -3   0  21   19.29    8.97
   3  -3  21   24.21    9.15
   3   3  21   46.60   12.02
   3  -6  21   61.21   13.20
   3   3  21   61.02   13.10
  -6   3  21   49.36   15.03
  -6   3  21   50.79   14.27
   1  -5  21   10.21    8.56
  -5   4  21   12.71   10.81
   4   1  21    7.62    7.38
  -5   4  21    3.24    9.22
   2   2 -21   -7.80   11.25
  -2   4  21    7.99    8.25
   4  -2  21    0.41    6.26
  -2   4  21    6.71    8.45
  -2  -2  21    9.59    8.34
  -2  -2  21    8.69    8.88
   1   4  21    0.96    7.16
  -5   1  21   18.31   10.14
   4  -5  21   13.70    9.04
  -5   1  21   26.51   11.96
   1   4  21   10.66    8.02
  -8   4  21   69.77   17.91
  -8   4  21   75.03   17.16
   4   4  21   41.86   11.07
   5   2  21   31.63    9.04
  -7   5  21    5.44   11.75
  -7   5  21   22.87   11.99
  -4   5  21    1.32    8.25
  -1  -4  21    4.64    8.99
   5  -1  21    5.64    7.50
  -4   5  21    4.31    8.86
  -4  -1  21   19.50    9.32
  -1   5  21    5.70    7.67
  -4  -1  21   21.00   11.34
   5  -4  21    6.07    7.88
  -1   5  21   10.13    8.39
   2   5  21   14.80    8.58
  -7   2  21   62.88   16.35
   2   5  21   24.28    9.55
  -7   2  21   17.79   10.20
  -6   6  21    5.00    9.83
  -6   6  21    2.72   11.53
   6   0  21   10.26    7.94
   0  -6  21   31.29   10.58
  -3  -3  21   67.06   14.23
   6  -3  21   52.08   12.12
  -3   6  21   51.68   12.92
  -3   6  21   50.00   14.07
   0   6  21   -6.46    6.50
  -6   0  21    8.24    8.83
   0   6  21    8.07    7.24
  -5   7  21    8.00    9.85
   7  -2  21   32.07    9.80
  -2  -5  21   20.11    9.96
  -5   7  21   14.26   12.00
  -5  -2  21   38.30   12.73
  -2   7  21   20.45   10.07
  -2   7  21   25.22   10.11
   7  -5  21   18.13    8.75
  -4   8  21   39.15   12.12
  -4   8  21   42.18   13.86
   8  -4  21   56.86   12.30
  -4  -4  21   84.18   16.13
   0   1 -22    4.64    9.81
   1   0  22    0.43    7.40
   1   0  22    3.27    7.68
  -1   1  22    0.86    6.87
   0  -1  22   -2.72    7.12
   0  -1  22   -0.78    9.02
  -1   1  22    9.49    8.69
   1  -3  22   24.85   10.63
   1  -3  22    6.57    8.39
  -3   2  22   25.69   11.32
   2   1  22   21.71    7.91
  -3   2  22    1.51    8.37
   2   1  22    5.89    9.28
  -2   2 -22   77.90   22.29
  -2   0  22   55.36   13.77
   0   2  22   61.43   13.26
   2  -2  22   56.19   12.59
   0   2  22   50.43   13.77
  -2   0  22   75.34   14.54
   2  -2  22   59.22   14.82
  -5   3  22   13.50   11.48
  -5   3  22    2.43    8.40
   3   2  22    0.94    6.61
   3   2  22   15.51    9.36
   2  -5  22    1.39    8.28
   3  -1  22   16.08    8.42
  -2   3  22   13.74    9.33
  -1  -2  22    4.79    8.86
  -2   3  22   23.15   10.02
   3  -1  22   19.34    9.75
  -1  -2  22   15.98    9.22
  -4   1  22   -3.42    8.93
  -4   1  22   -0.04    8.21
   1   3  22    0.34    7.76
   1   3  22    9.20    8.40
   3  -4  22    2.11    8.21
   4   3  22    2.05    7.09
  -7   4  22   18.07   12.38
  -7   4  22   -3.90   10.79
   0  -4  22    6.29    8.19
   4   0  22   13.26    8.01
  -4   4  22   19.35   10.79
  -4   4  22   28.39   11.96
  -3  -1  22   -3.95    8.93
  -1   4  22    5.61    8.06
  -1   4  22    3.44    8.11
  -3  -1  22   -5.34    7.78
   4  -3  22   -0.89    7.16
   2   4  22   -2.24    7.76
   2   4  22   -1.53    6.99
   4  -6  22   10.51    9.53
  -6   2  22    3.99    9.07
  -6   2  22    5.85   12.42
  -6   5  22    0.01    9.60
   1  -6  22  -14.86    7.73
   5   1  22    4.00    7.15
  -6   5  22    1.24   10.66
  -3   5  22   11.15   10.56
  -2  -3  22   -1.08    8.10
   5  -2  22   17.09    7.97
  -3   5  22   -2.28    8.66
   0   5  22    4.00    7.48
   0   5  22    2.55    7.80
   5  -5  22    0.90    7.61
  -5   0  22   12.13   11.23
  -5   0  22   -4.89    8.53
  -5   6  22   -7.86    8.71
  -5   6  22  -10.62    9.08
  -1  -5  22   -8.29    8.38
   6  -1  22   12.77    8.27
  -2   6  22    5.89    8.25
  -2   6  22    3.14    7.93
   6  -4  22   24.69    9.63
  -4  -2  22   11.01    9.69
   7  -3  22    3.51    7.35
  -4   7  22   -2.17    8.53
  -3  -4  22    1.78    9.00
  -4   7  22   14.30   10.38
  -1   0  23   36.09   12.91
   1  -1  23   18.25    9.80
   1  -1  23   34.05   13.18
   0   1  23   20.86    9.91
   0   1  23   39.92   13.38
  -1   0  23   26.98    9.77
   2   0  23    1.44    7.91
  -2   2  23   -4.36    7.10
   2   0  23    0.67    8.39
   0  -2  23   10.51    9.02
   0  -2  23   15.49    9.89
  -2   2  23   18.61   10.43
  -3   1  23  107.02   18.19
  -3   1  23   68.38   15.28
   1   2  23   59.79   13.82
   1   2  23   56.01   15.59
   2  -3  23   92.44   15.44
   2  -3  23   68.09   15.61
  -4   3  23   21.73   11.72
  -4   3  23   49.34   14.33
   3   1  23   31.35   10.09
   1  -4  23   35.86   11.45
   3   1  23   36.90   11.98
  -1   3  23   62.85   14.91
  -2  -1  23   86.31   15.85
   3  -2  23   52.47   12.90
  -1   3  23   58.38   14.47
   3  -2  23   72.01   15.63
  -2  -1  23   57.96   15.12
   2   3  23   40.70   13.15
   3  -5  23   57.12   13.05
   2   3  23   57.22   12.93
  -5   2  23   38.53   14.01
  -5   2  23   42.37   14.10
   2  -6  23    6.44    9.91
  -6   4  23   24.15   12.56
   4   2  23   19.61    9.57
  -6   4  23    6.00   10.75
   4  -1  23   23.28    9.68
  -1  -3  23   40.93   12.36
  -3   4  23   32.24   13.30
  -3   4  23   41.92   12.68
  -4   0  23  272.44   32.66
   0   4  23  211.78   29.66
   4  -4  23  247.25   29.03
   0   4  23  218.22   30.09
  -4   0  23  236.05   31.81
   5   0  23   37.17   12.10
   0  -5  23   70.66   14.73
  -5   5  23   57.34   15.56
  -5   5  23   36.70   14.25
  -3  -2  23   68.12   15.05
   5  -3  23   76.06   13.90
  -2   5  23   27.47   11.79
  -2   5  23   57.06   14.04
   6  -2  23   20.38   10.02
  -4   6  23    7.29    9.68
  -2  -4  23    5.42    9.41
  -4   6  23   26.29   12.24
   0   0  24    1.65    7.27
   0   0  24    5.27   10.43
   1  -2  24    7.43    8.64
  -2   1  24   -4.24    9.15
   1   1  24   -8.43    8.22
   1   1  24   -9.20    6.79
  -2   1  24   -8.50    7.10
   1  -2  24   12.07   10.55
  -1   2  24   -6.76    7.94
   2  -1  24   -2.43    9.41
   2  -1  24    8.44    8.36
  -1   2  24    3.05    9.76
  -1  -1  24   -4.41    7.85
  -1  -1  24   -3.04    9.08
  -4   2  24   41.66   13.21
   2  -4  24   27.89   11.17
   2   2  24   16.95   12.31
   2   2  24   20.51    9.52
  -4   2  24   34.80   12.76
  -3   3  24   11.55   11.31
   3   0  24    2.03    7.88
   0  -3  24    9.80   10.09
   3   0  24    9.64   10.19
  -3   3  24    2.42    8.74
   0   3  24    3.15    9.42
   3  -3  24    5.96    8.87
   0   3  24    8.01    9.49
  -3   0  24  -12.52    8.85
  -3   0  24    3.42    8.99
  -2  -2  24   16.66   10.92
  -2   4  24   18.71   11.36
   4  -2  24   29.87   10.74
  -2   4  24   22.39   10.99
   1   0  25    8.38    9.42
  -1   1  25   22.15   10.49
   0  -1  25   27.31   11.02
   0  -1  25   24.80   12.24
   1   0  25    1.82   11.41
  -1   1  25    5.83   11.25
   2   1  25   30.79   13.53
   2   1  25   33.39   11.70
  -3   2  25   21.42   11.28
  -3   2  25   39.51   13.63
   1  -3  25   23.26   10.50
   2  -2  25   11.33    9.40
   0   2  25    5.56   10.54
  -2   0  25   12.93   10.29
  -2   0  25   19.22   12.05
   0   2  25   23.95   10.77
   2  -2  25   19.62   12.07
   3  -1  25   20.22   10.24
   3  -1  25   29.01   12.89
  -2   3  25   20.81   12.17
  -1  -2  25   49.16   13.51
  -2   3  25   27.24   12.06
   0   0   0    0.00    0.00


_computing_structure_solution     'SHELXT 2014/5 (Sheldrick, 2014)'
;
_shelx_hkl_checksum              1920
loop_
_space_group_symop_operation_xyz
'x, y, z'
'-y, x-y, z'
'-x+y, -x, z'
'-y, -x, z'
'-x+y, y, z'
'x, x-y, z'
'x+2/3, y+1/3, z+1/3'
'-y+2/3, x-y+1/3, z+1/3'
'-x+y+2/3, -x+1/3, z+1/3'
'-y+2/3, -x+1/3, z+1/3'
'-x+y+2/3, y+1/3, z+1/3'
'x+2/3, x-y+1/3, z+1/3'
'x+1/3, y+2/3, z+2/3'
'-y+1/3, x-y+2/3, z+2/3'
'-x+y+1/3, -x+2/3, z+2/3'
'-y+1/3, -x+2/3, z+2/3'
'-x+y+1/3, y+2/3, z+2/3'
'x+1/3, x-y+2/3, z+2/3'
loop_
_atom_site_label
_atom_site_type_symbol
_atom_site_fract_x
_atom_site_fract_y
_atom_site_fract_z
_atom_site_U_iso_or_equiv
_atom_site_adp_type
_atom_site_occupancy
_atom_site_site_symmetry_order
_atom_site_calc_flag
_atom_site_refinement_flags_posn
_atom_site_refinement_flags_adp
_atom_site_refinement_flags_occupancy
_atom_site_disorder_assembly
_atom_site_disorder_group
T1 Si 0.2467(7) 0.2433(7) 0.5166(2) 0.070(2) Uani 1 1 d . . . . .
T11 Si 0.2433(7) 0.2433(6) 0.6396(3) 0.058(2) Uiso 0.846(11) 1 d . . P . .
T11B Si 0.411(3) 0.334(3) 0.6322(16) 0.058(2) Uiso 0.154(11) 1 d . . P . .
T2 Si 0.4231(5) 0.3332(8) 0.4103(3) 0.0530(14) Uani 1 1 d . . . . .
O1 O 0.348(2) 0.3045(16) 0.4684(9) 0.094(6) Uiso 1 1 d . . . . .
O11 O 0.3632(16) 0.3629(16) 0.3586(8) 0.086(5) Uiso 1 1 d . . . . .
O2 O 0.1333(13) 0.267(3) 0.5013(11) 0.099(8) Uiso 1 2 d S . P . .
O22 O 0.0911(11) 0.182(2) 0.6367(10) 0.071(8) Uiso 0.846(11) 2 d S . P . .
O3 O 0.203(2) 0.1013(10) 0.5276(11) 0.078(6) Uiso 1 2 d S . P . .
O33 O 0.251(3) 0.1257(13) 0.6536(12) 0.102(9) Uiso 1 2 d S . P . .
O4 O 0.3124(14) 0.3039(13) 0.5788(9) 0.079(4) Uiso 1 1 d . . . . .
O5 O 0.462(3) 0.2310(13) 0.4044(11) 0.093(8) Uiso 1 2 d S . P . .
O55 O 0.5543(13) 0.4457(13) 0.4324(11) 0.097(8) Uiso 1 2 d S . P . .
OB1 O 0.554(5) 0.446(5) 0.638(4) 0.050 Uiso 0.154(11) 2 d S U P . .
Ag1 Ag 0.0000 0.0000 0.5796(8) 0.085(5) Uiso 0.354(15) 6 d S . . . .
Ag2 Ag 0.6667 0.3333 0.3797(13) 0.073(13) Uiso 0.18(2) 6 d S . . . .
Ag2B Ag 0.6667 0.3333 0.4235(12) 0.071(12) Uiso 0.172(18) 6 d S . . . .
Ag2C Ag 0.0000 0.0000 0.515(4) 0.07(4) Uiso 0.043(16) 6 d S . . . .
Ag4 Ag 0.4967(10) 0.5033(10) 0.5785(11) 0.068(8) Uiso 0.149(14) 2 d S . . . .
Ag4A Ag 0.5119(12) 0.4881(12) 0.5458(14) 0.110(13) Uiso 0.155(17) 2 d S . . . .
Ag5 Ag 0.3513(18) 0.1757(9) 0.7436(8) 0.028(9) Uiso 0.101(14) 2 d S . . . .
Ag5A Ag 0.292(4) 0.146(2) 0.7538(12) 0.150 Uiso 0.194(15) 2 d S U . . .
Ag6 Ag 0.6667 0.3333 0.631(5) 0.060 Uiso 0.030(8) 6 d S U . . .
loop_
_atom_site_aniso_label
_atom_site_aniso_U_11
_atom_site_aniso_U_22
_atom_site_aniso_U_33
_atom_site_aniso_U_23
_atom_site_aniso_U_13
_atom_site_aniso_U_12
T1 0.091(5) 0.084(5) 0.048(3) 0.010(3) 0.016(3) 0.054(4)
T2 0.053(4) 0.056(3) 0.049(3) 0.004(2) 0.001(3) 0.027(4)
loop_
_atom_type_symbol
_atom_type_description
_atom_type_scat_dispersion_real
_atom_type_scat_dispersion_imag
_atom_type_scat_source
Ag Ag -0.8971 1.1015 'International Tables Vol C Tables 4.2.6.8 and 6.1.1.4'
O O 0.0106 0.0060 'International Tables Vol C Tables 4.2.6.8 and 6.1.1.4'
Si Si 0.0817 0.0704 'International Tables Vol C Tables 4.2.6.8 and 6.1.1.4'
loop_
_geom_angle_atom_site_label_1
_geom_angle_atom_site_label_2
_geom_angle_atom_site_label_3
_geom_angle
_geom_angle_site_symmetry_1
_geom_angle_site_symmetry_3
_geom_angle_publ_flag
O1 T1 O3 113.8(10) . . ?
O1 T1 O2 109.0(13) . . ?
O3 T1 O2 112.8(13) . . ?
O1 T1 O4 107.0(10) . . ?
O3 T1 O4 101.2(11) . . ?
O2 T1 O4 112.8(12) . . ?
O1 T1 Ag5 67.1(8) . 15_554 ?
O3 T1 Ag5 119.3(10) . 15_554 ?
O2 T1 Ag5 44.0(10) . 15_554 ?
O4 T1 Ag5 138.2(9) . 15_554 ?
O11 T11 O33 106.9(13) 8 . ?
O11 T11 O4 111.7(10) 8 . ?
O33 T11 O4 110.4(13) . . ?
O11 T11 O22 113.1(11) 8 . ?
O33 T11 O22 100.1(14) . . ?
O4 T11 O22 113.9(11) . . ?
O11 T11 T11B 68.3(13) 8 . ?
O33 T11 T11B 90.5(16) . . ?
O4 T11 T11B 56.6(14) . . ?
O22 T11 T11B 168.1(15) . . ?
OB1 T11B O4 129(4) . . ?
OB1 T11B T11 162(4) . . ?
O4 T11B T11 55.0(12) . . ?
OB1 T11B O11 114(4) . 8 ?
O4 T11B O11 94.8(18) . 8 ?
T11 T11B O11 49.1(10) . 8 ?
OB1 T11B Ag4 55(4) . . ?
O4 T11B Ag4 75.8(15) . . ?
T11 T11B Ag4 120.2(18) . . ?
O11 T11B Ag4 113.7(19) 8 . ?
OB1 T11B Ag4A 61(4) . . ?
O4 T11B Ag4A 68.6(14) . . ?
T11 T11B Ag4A 120.7(17) . . ?
O11 T11B Ag4A 128.5(19) 8 . ?
Ag4 T11B Ag4A 17.1(7) . . ?
O11 T2 O1 113.3(7) . . ?
O11 T2 O5 120.9(12) . . ?
O1 T2 O5 106.2(12) . . ?
O11 T2 O55 115.7(12) . . ?
O1 T2 O55 99.6(12) . . ?
O5 T2 O55 98.1(11) . . ?
T1 O1 T2 164.0(14) . . ?
T2 O11 T11 165.9(13) . 15_554 ?
T2 O11 T11B 129.1(16) . 15_554 ?
T11 O11 T11B 62.6(13) 15_554 15_554 ?
T1 O2 T1 149.1(19) . 5 ?
T1 O2 Ag5 104.3(9) . 15_554 ?
T1 O2 Ag5 104.3(9) 5 15_554 ?
T1 O2 Ag5A 105.4(10) . 15_554 ?
T1 O2 Ag5A 105.4(10) 5 15_554 ?
Ag5 O2 Ag5A 18.2(9) 15_554 15_554 ?
T11 O22 T11 132.9(17) 5 . ?
T11 O22 Ag1 110.7(8) 5 . ?
T11 O22 Ag1 110.7(8) . . ?
T1 O3 T1 140.3(16) 6 . ?
T1 O3 Ag2C 106.1(10) 6 . ?
T1 O3 Ag2C 106.1(10) . . ?
T1 O3 Ag1 109.8(8) 6 . ?
T1 O3 Ag1 109.8(8) . . ?
Ag2C O3 Ag1 36(2) . . ?
T11 O33 T11 155(2) 6 . ?
T11 O33 Ag5 102.0(10) 6 . ?
T11 O33 Ag5 102.0(10) . . ?
T11 O33 Ag5A 102.3(10) 6 . ?
T11 O33 Ag5A 102.3(10) . . ?
Ag5 O33 Ag5A 17.0(9) . . ?
T11 O4 T1 120.4(8) . . ?
T11 O4 T11B 68.4(15) . . ?
T1 O4 T11B 155(2) . . ?
T11 O4 Ag4 120.1(12) . . ?
T1 O4 Ag4 118.7(10) . . ?
T11B O4 Ag4 62.8(14) . . ?
T2 O5 T2 148(2) . 6 ?
T2 O5 Ag2B 104.2(10) . . ?
T2 O5 Ag2B 104.2(10) 6 . ?
T2 O5 Ag2 106.2(10) . . ?
T2 O5 Ag2 106.2(10) 6 . ?
Ag2B O5 Ag2 25.4(9) . . ?
T2 O55 T2 140.7(17) 4_665 . ?
T2 O55 Ag2B 95.6(10) 4_665 . ?
T2 O55 Ag2B 95.6(10) . . ?
T11B OB1 T11B 154(7) 4_665 . ?
T11B OB1 Ag4 78(4) 4_665 . ?
T11B OB1 Ag4 78(4) . . ?
T11B OB1 Ag4A 81(4) 4_665 . ?
T11B OB1 Ag4A 81(4) . . ?
Ag4 OB1 Ag4A 18.9(14) . . ?
T11B OB1 Ag6 101(4) 4_665 . ?
T11B OB1 Ag6 101(4) . . ?
Ag4 OB1 Ag6 128(6) . . ?
Ag4A OB1 Ag6 109(5) . . ?
Ag2C Ag1 O22 123.4(7) . 3 ?
Ag2C Ag1 O22 123.4(7) . . ?
O22 Ag1 O22 92.5(9) 3 . ?
Ag2C Ag1 O22 123.4(7) . 2 ?
O22 Ag1 O22 92.5(9) 3 2 ?
O22 Ag1 O22 92.5(9) . 2 ?
Ag2C Ag1 O3 61.6(6) . 3 ?
O22 Ag1 O3 84.0(4) 3 3 ?
O22 Ag1 O3 175.0(11) . 3 ?
O22 Ag1 O3 84.0(4) 2 3 ?
Ag2C Ag1 O3 61.6(6) . 2 ?
O22 Ag1 O3 175.0(11) 3 2 ?
O22 Ag1 O3 84.0(4) . 2 ?
O22 Ag1 O3 84.0(4) 2 2 ?
O3 Ag1 O3 99.2(8) 3 2 ?
Ag2C Ag1 O3 61.6(6) . . ?
O22 Ag1 O3 84.0(4) 3 . ?
O22 Ag1 O3 84.0(4) . . ?
O22 Ag1 O3 175.0(11) 2 . ?
O3 Ag1 O3 99.2(8) 3 . ?
O3 Ag1 O3 99.2(8) 2 . ?
Ag2B Ag2 O5 75.7(10) . 3_665 ?
Ag2B Ag2 O5 75.7(10) . . ?
O5 Ag2 O5 114.1(7) 3_665 . ?
Ag2B Ag2 O5 75.7(9) . 2_655 ?
O5 Ag2 O5 114.1(8) 3_665 2_655 ?
O5 Ag2 O5 114.1(7) . 2_655 ?
Ag2 Ag2B O5 78.9(10) . 3_665 ?
Ag2 Ag2B O5 78.9(10) . . ?
O5 Ag2B O5 116.4(6) 3_665 . ?
Ag2 Ag2B O5 78.9(10) . 2_655 ?
O5 Ag2B O5 116.4(6) 3_665 2_655 ?
O5 Ag2B O5 116.4(6) . 2_655 ?
Ag2 Ag2B O55 94.8(9) . 3_665 ?
O5 Ag2B O55 61.78(18) 3_665 3_665 ?
O5 Ag2B O55 173.7(17) . 3_665 ?
O5 Ag2B O55 61.78(18) 2_655 3_665 ?
Ag2 Ag2B O55 94.8(9) . 2_655 ?
O5 Ag2B O55 173.7(17) 3_665 2_655 ?
O5 Ag2B O55 61.78(18) . 2_655 ?
O5 Ag2B O55 61.78(18) 2_655 2_655 ?
O55 Ag2B O55 119.3(3) 3_665 2_655 ?
Ag2 Ag2B O55 94.8(9) . . ?
O5 Ag2B O55 61.78(18) 3_665 . ?
O5 Ag2B O55 61.78(18) . . ?
O5 Ag2B O55 173.7(17) 2_655 . ?
O55 Ag2B O55 119.3(3) 3_665 . ?
O55 Ag2B O55 119.3(3) 2_655 . ?
Ag1 Ag2C O3 83(3) . 3 ?
Ag1 Ag2C O3 83(3) . 2 ?
O3 Ag2C O3 118.4(11) 3 2 ?
Ag1 Ag2C O3 83(3) . . ?
O3 Ag2C O3 118.4(11) 3 . ?
O3 Ag2C O3 118.4(11) 2 . ?
Ag4A Ag4 OB1 114(4) . . ?
Ag4A Ag4 T11B 110.1(19) . 4_665 ?
OB1 Ag4 T11B 46.6(11) . 4_665 ?
Ag4A Ag4 T11B 110.1(19) . . ?
OB1 Ag4 T11B 46.6(11) . . ?
T11B Ag4 T11B 93(2) 4_665 . ?
Ag4A Ag4 O4 88.6(8) . . ?
OB1 Ag4 O4 87.3(7) . . ?
T11B Ag4 O4 133.8(14) 4_665 . ?
T11B Ag4 O4 41.4(10) . . ?
Ag4A Ag4 O4 88.6(8) . 4_665 ?
OB1 Ag4 O4 87.3(7) . 4_665 ?
T11B Ag4 O4 41.4(10) 4_665 4_665 ?
T11B Ag4 O4 133.8(14) . 4_665 ?
O4 Ag4 O4 172.2(13) . 4_665 ?
Ag4 Ag4A OB1 47(3) . . ?
Ag4 Ag4A T11B 52.7(16) . 4_665 ?
OB1 Ag4A T11B 38.3(10) . 4_665 ?
Ag4 Ag4A T11B 52.7(16) . . ?
OB1 Ag4A T11B 38.3(10) . . ?
T11B Ag4A T11B 75.5(18) 4_665 . ?
Ag5A Ag5 O2 84(3) . 8 ?
Ag5A Ag5 O33 82(3) . . ?
O2 Ag5 O33 166.5(16) 8 . ?
Ag5A Ag5 T1 88(2) . 10 ?
O2 Ag5 T1 31.7(2) 8 10 ?
O33 Ag5 T1 147.1(4) . 10 ?
Ag5A Ag5 T1 88(2) . 8 ?
O2 Ag5 T1 31.7(2) 8 8 ?
O33 Ag5 T1 147.1(4) . 8 ?
T1 Ag5 T1 63.0(4) 10 8 ?
Ag5 Ag5A O2 77(3) . 8 ?
Ag5 Ag5A O33 81(3) . . ?
O2 Ag5A O33 158(3) 8 . ?
OB1 Ag6 OB1 119.5(9) . 3_665 ?
OB1 Ag6 OB1 119.5(9) . 2_655 ?
OB1 Ag6 OB1 119.5(9) 3_665 2_655 ?
loop_
_geom_bond_atom_site_label_1
_geom_bond_atom_site_label_2
_geom_bond_distance
_geom_bond_site_symmetry_2
_geom_bond_publ_flag
T1 O1 1.61(2) . ?
T1 O3 1.650(11) . ?
T1 O2 1.680(11) . ?
T1 O4 1.68(2) . ?
T1 Ag5 3.097(15) 15_554 ?
T11 O11 1.61(2) 8 ?
T11 O33 1.611(10) . ?
T11 O4 1.67(2) . ?
T11 O22 1.718(13) . ?
T11 T11B 1.89(4) . ?
T11B OB1 1.69(4) . ?
T11B O4 1.70(4) . ?
T11B O11 1.98(4) 8 ?
T11B Ag4 2.28(4) . ?
T11B Ag4A 2.69(5) . ?
T2 O11 1.59(2) . ?
T2 O1 1.62(2) . ?
T2 O5 1.639(10) . ?
T2 O55 1.675(12) . ?
O11 T11 1.61(2) 15_554 ?
O11 T11B 1.98(4) 15_554 ?
O2 T1 1.680(11) 5 ?
O2 Ag5 2.22(3) 15_554 ?
O2 Ag5A 2.26(4) 15_554 ?
O22 T11 1.718(13) 5 ?
O22 Ag1 2.45(3) . ?
O3 T1 1.650(11) 6 ?
O3 Ag2C 2.29(3) . ?
O3 Ag1 2.58(2) . ?
O33 T11 1.611(10) 6 ?
O33 Ag5 2.41(3) . ?
O33 Ag5A 2.41(4) . ?
O4 Ag4 2.489(12) . ?
O5 T2 1.639(10) 6 ?
O5 Ag2B 2.34(3) . ?
O5 Ag2 2.37(3) . ?
O55 T2 1.675(12) 4_665 ?
O55 Ag2B 2.53(3) . ?
OB1 T11B 1.69(4) 4_665 ?
OB1 Ag4 1.91(10) . ?
OB1 Ag4A 2.38(10) . ?
OB1 Ag6 2.53(10) . ?
Ag1 Ag2C 1.52(10) . ?
Ag1 O22 2.45(3) 3 ?
Ag1 O22 2.45(3) 2 ?
Ag1 O3 2.58(2) 3 ?
Ag1 O3 2.58(2) 2 ?
Ag2 Ag2B 1.04(3) . ?
Ag2 O5 2.37(3) 3_665 ?
Ag2 O5 2.37(3) 2_655 ?
Ag2B O5 2.34(3) 3_665 ?
Ag2B O5 2.34(3) 2_655 ?
Ag2B O55 2.53(3) 3_665 ?
Ag2B O55 2.53(3) 2_655 ?
Ag2C O3 2.29(3) 3 ?
Ag2C O3 2.29(3) 2 ?
Ag4 Ag4A 0.85(3) . ?
Ag4 T11B 2.28(4) 4_665 ?
Ag4 O4 2.489(13) 4_665 ?
Ag4A T11B 2.69(5) 4_665 ?
Ag5 Ag5A 0.71(4) . ?
Ag5 O2 2.22(3) 8 ?
Ag5 T1 3.097(15) 10 ?
Ag5 T1 3.097(15) 8 ?
Ag5A O2 2.26(4) 8 ?
Ag6 OB1 2.53(11) 3_665 ?
Ag6 OB1 2.53(11) 2_655 ?
