#------------------------------------------------------------------------------
#$Date: 2021-01-04 05:06:15 +0200 (Mon, 04 Jan 2021) $
#$Revision: 260415 $
#$URL: file:///home/coder/svn-repositories/cod/cif/4/51/82/4518280.cif $
#------------------------------------------------------------------------------
#
# This file is available in the Crystallography Open Database (COD),
# http://www.crystallography.net/
#
# All data on this site have been placed in the public domain by the
# contributors.
#
data_4518280
loop_
_publ_author_name
'Cametti, Georgia'
'Scheinost, Andreas C.'
'Churakov, Sergey V.'
_publ_section_title
;
 Structural Evolution of Ag-LEV Zeolite upon Heating: An In Situ
 Single-Crystal X-ray Diffraction (SC-XRD) and X-ray Absorption
 Spectroscopy (XAS) Study.
;
_journal_issue                   49
_journal_name_full               'ACS omega'
_journal_page_first              31774
_journal_page_last               31783
_journal_paper_doi               10.1021/acsomega.0c04455
_journal_volume                  5
_journal_year                    2020
_chemical_formula_sum            'Ag7.75 O108 Si54'
_chemical_formula_weight         4080.85
_chemical_name_common            Ag-levyne
_space_group_crystal_system      trigonal
_space_group_IT_number           160
_space_group_name_Hall           'R 3 -2"'
_space_group_name_H-M_alt        'R 3 m :H'
_atom_sites_solution_primary     dual
_atom_sites_solution_secondary   difmap
_audit_creation_method           SHELXL-2014
_cell_angle_alpha                90.00(3)
_cell_angle_beta                 90.00(3)
_cell_angle_gamma                120.00(3)
_cell_formula_units_Z            1
_cell_length_a                   12.912(3)
_cell_length_b                   12.912(3)
_cell_length_c                   23.670(5)
_cell_measurement_reflns_used    1896
_cell_measurement_temperature    296(2)
_cell_measurement_theta_max      19.98
_cell_measurement_theta_min      2.5
_cell_volume                     3417.6(17)
_computing_structure_refinement  'SHELXL-2014 (Sheldrick, 2014)'
_diffrn_ambient_temperature      296(2)
_diffrn_measured_fraction_theta_full 0.541
_diffrn_measured_fraction_theta_max 1.000
_diffrn_measurement_device_type  'APEX II'
_diffrn_radiation_type           MoK\a
_diffrn_radiation_wavelength     0.71073
_diffrn_reflns_av_R_equivalents  0.0751
_diffrn_reflns_av_unetI/netI     0.0485
_diffrn_reflns_Laue_measured_fraction_full 0.541
_diffrn_reflns_Laue_measured_fraction_max 1.000
_diffrn_reflns_limit_h_max       11
_diffrn_reflns_limit_h_min       -12
_diffrn_reflns_limit_k_max       12
_diffrn_reflns_limit_k_min       -10
_diffrn_reflns_limit_l_max       22
_diffrn_reflns_limit_l_min       -21
_diffrn_reflns_number            6941
_diffrn_reflns_point_group_measured_fraction_full 0.529
_diffrn_reflns_point_group_measured_fraction_max 0.980
_diffrn_reflns_theta_full        25.242
_diffrn_reflns_theta_max         20.081
_diffrn_reflns_theta_min         2.014
_diffrn_source                   'fine-focus sealed tube'
_exptl_absorpt_coefficient_mu    1.672
_exptl_absorpt_correction_T_max  0.7444
_exptl_absorpt_correction_T_min  0.5209
_exptl_absorpt_correction_type   multi-scan
_exptl_crystal_colour            gray
_exptl_crystal_density_diffrn    1.983
_exptl_crystal_description       fragment
_exptl_crystal_F_000             1984
_exptl_crystal_size_max          0.180
_exptl_crystal_size_mid          0.150
_exptl_crystal_size_min          0.100
_refine_diff_density_max         0.728
_refine_diff_density_min         -0.629
_refine_diff_density_rms         0.139
_refine_ls_abs_structure_details
;
 Flack x determined using 280 quotients [(I+)-(I-)]/[(I+)+(I-)]
 (Parsons, Flack and Wagner, Acta Cryst. B69 (2013) 249-259).
;
_refine_ls_abs_structure_Flack   0.59(8)
_refine_ls_extinction_method     none
_refine_ls_goodness_of_fit_ref   1.127
_refine_ls_hydrogen_treatment    undef
_refine_ls_matrix_type           full
_refine_ls_number_parameters     90
_refine_ls_number_reflns         833
_refine_ls_number_restraints     1
_refine_ls_restrained_S_all      1.126
_refine_ls_R_factor_all          0.1102
_refine_ls_R_factor_gt           0.0874
_refine_ls_shift/su_max          0.002
_refine_ls_shift/su_mean         0.000
_refine_ls_structure_factor_coef Fsqd
_refine_ls_weighting_details
'w=1/[\s^2^(Fo^2^)+(0.1325P)^2^+76.8011P] where P=(Fo^2^+2Fc^2^)/3'
_refine_ls_weighting_scheme      calc
_refine_ls_wR_factor_gt          0.2285
_refine_ls_wR_factor_ref         0.2522
_reflns_Friedel_coverage         0.947
_reflns_Friedel_fraction_full    0.516
_reflns_Friedel_fraction_max     0.960
_reflns_number_gt                654
_reflns_number_total             833
_reflns_threshold_expression     'I > 2\s(I)'
_cod_data_source_file            ao0c04455_si_009.cif
_cod_data_source_block           shelx
_cod_depositor_comments
'Adding full bibliography for 4518279--4518286.cif.'
_cod_original_cell_volume        3417.4(17)
_cod_database_code               4518280
_shelx_space_group_comment
;
The symmetry employed for this shelxl refinement is uniquely defined
by the following loop, which should always be used as a source of
symmetry information in preference to the above space-group names.
They are only intended as comments.
;
_shelxl_version_number           2014-1
_shelx_res_file
;
TITL levAg300_rm_b.res in R3m
REM Old TITL levAg300_rm.hkl

REM SHELXT solution in R3m
REM R1 0.250,  Rweak 0.010,  Alpha 0.075,  Orientation as input
REM Flack x = -9.990 ( 9.990 ) from Parsons' quotients
REM Formula found by SHELXT:  C53

CELL  0.71073  12.9116  12.9116  23.6703   90.000   90.000  120.000
ZERR    1.000   0.0030   0.0030   0.0050    0.030    0.030    0.030
LATT -3
SYMM -Y, X-Y, Z
SYMM -X+Y, -X, Z
SYMM -Y, -X, Z
SYMM -X+Y, Y, Z
SYMM X, X-Y, Z
SFAC AG O SI
UNIT 7.75 108 54
TEMP 23.000
L.S. 10
BOND $H
LIST 6
TWIN -1 0 0 0 -1 0 0 0 1
FMAP 2
EADP T11 T11B
PLAN 20
acta
rem EXTI    0.001428
WGHT    0.132500   76.801102
BASF   0.09014
FVAR       0.18903   0.74987
T1    3    0.247635    0.244909    0.516828    11.00000    0.07085    0.06968 =
         0.05154    0.01009    0.01316    0.04575
T11   3    0.243218    0.243502    0.639430    21.00000    0.04687
T11B  3    0.408431    0.332154    0.632064   -21.00000    0.04687
T2    3    0.420645    0.332314    0.409644    11.00000    0.04244    0.04419 =
         0.03764    0.00250   -0.00074    0.02099
O1    2    0.344379    0.306788    0.468627    11.00000    0.07600
O11   2    0.359500    0.359391    0.358334    11.00000    0.09436
O2    2    0.126733    0.253466    0.505108    10.50000    0.08248
O22   2    0.093692    0.187384    0.638214    20.50000    0.05948
O3    2    0.201224    0.100612    0.528857    10.50000    0.06831
O33   2    0.263557    0.131778    0.653316    20.50000    0.07678
O4    2    0.314206    0.306832    0.578624    11.00000    0.07105
O5    2    0.457202    0.228601    0.405590    10.50000    0.08372
O55   2    0.555772    0.444228    0.430702    10.50000    0.09502
rem extraframework
AG1   1    0.000000    0.000000    0.581304     0.05526    0.07746
AG2   1    0.666667    0.333333    0.380085     0.01736    0.02064
AG2A  1    0.666667    0.333333    0.421966     0.04343   10.10000
AG2C  1    0.000000    0.000000    0.512242     0.01066    0.04386
AG4   1    0.498889    0.501111    0.574323     0.06861    0.05731
AG4A  1    0.511215    0.488785    0.539600     0.07669    0.10940
AG5A  1    0.349496    0.174748    0.744825     0.04086    0.00680
AG5B  1    0.290695    0.145347    0.754564     0.11022   10.15000
AG6   1    0.666667    0.333333    0.623545     0.01029   10.06000
OB1   2    0.555095    0.444905    0.636903   -20.50000   10.05000
OB2   2    0.452208    0.226104    0.638857   -20.50000   10.05000
HKLF 4

REM  levAg300_rm_b.res in R3m
REM R1 =  0.0874 for     654 Fo > 4sig(Fo)  and  0.1102 for all     833 data
REM     90 parameters refined using      1 restraints

END

WGHT      0.1280     87.0429

REM Highest difference peak  0.728,  deepest hole -0.629,  1-sigma level  0.139
Q1    1   0.6667  0.3333  0.4550  10.16667  0.05    0.73
Q2    1   0.1570  0.3139  0.6350  10.50000  0.05    0.66
Q3    1   0.0000  0.0000  0.5521  10.16667  0.05    0.66
Q4    1   0.3333  0.6667  0.5555  10.16667  0.05    0.59
Q5    1   0.0000  0.0000  0.6053  10.16667  0.05    0.58
Q6    1   0.0000  0.0000  0.8253  10.16667  0.05    0.57
Q7    1   0.1538  0.3076  0.4861  10.50000  0.05    0.55
Q8    1   0.6667  0.3333  0.3538  10.16667  0.05    0.53
Q9    1   0.6667  0.3333  0.5155  10.16667  0.05    0.53
Q10   1   0.4971  0.2485  0.5206  10.50000  0.05    0.47
Q11   1   0.5985  0.4015  0.3175  10.50000  0.05    0.47
Q12   1   0.5746  0.4254  0.7353  10.50000  0.05    0.44
Q13   1   0.6284  0.2567  0.5077  10.50000  0.05    0.43
Q14   1   0.3069  0.1534  0.5239  10.50000  0.05    0.42
Q15   1   0.2861  0.2806  0.3866  11.00000  0.05    0.41
Q16   1   0.0000  0.0000  0.4783  10.16667  0.05    0.40
Q17   1   0.5722  0.4278  0.3449  10.50000  0.05    0.39
Q18   1   0.3239  0.5265  0.5338  11.00000  0.05    0.39
Q19   1   0.5238  0.4762  0.4479  10.50000  0.05    0.39
Q20   1   0.3692  0.5178  0.6085  11.00000  0.05    0.39
;
_shelx_res_checksum              92100
_shelx_hkl_file
;
  -2   1   0 3749.72  264.77
  -2   1   0 4009.20  264.97
  -2   1   0 3886.01  273.47
   2  -1   0 3742.53  264.87
   2  -1   0 3720.83  264.77
  -1   2   0 3820.02  272.77
   3   0   0 3579.74  235.08
  -3   3   0 3507.25  243.48
  -3   3   0 2907.61  234.68
  -3   3   0 3366.46  234.78
  -3   0   0 3541.65  235.38
   3  -3   0 3442.86  235.18
   3  -3   0 3322.27  235.08
  -3   0   0 3407.66  235.38
  -4   2   0  201.98   17.30
   2   2   0  178.68   16.30
  -4   2   0  183.28   17.60
  -4   2   0  147.39   16.00
  -2   4   0  149.69   15.80
   4  -2   0  186.48   17.50
   4  -2   0  169.58   16.50
   1   4   0  350.96   28.50
   1   4   0  297.47   22.50
   4  -5   0  295.17   23.60
   4  -5   0  293.47   23.70
  -5   1   0  259.97   25.10
  -5   1   0  286.77   25.30
  -5   1   0  258.27   24.30
  -5   1   0  254.97   25.10
   5  -1   0  243.68   23.90
  -4   5   0  342.07   26.40
   5  -1   0  269.57   24.80
   4   1   0  263.37   24.10
  -5   4   0  261.97   23.80
  -5   4   0  310.77   26.80
   4   1   0  259.07   25.90
  -5   4   0  286.97   23.70
   5  -4   0  300.17   25.30
   5  -4   0  273.47   24.70
  -4  -1   0  267.17   25.40
  -4  -1   0  321.87   24.80
  -4  -1   0  285.27   23.50
   3   3   0 1940.91  150.38
   3   3   0 2147.69  148.19
  -6   3   0 2078.59  144.09
  -6   3   0 1986.80  149.59
  -6   3   0 2123.69  144.29
   3   3   0 1870.21  140.29
  -3  -3   0 1850.21  141.39
   6  -3   0 2065.99  144.39
  -3   6   0 2046.40  148.29
   6  -3   0 2160.58  144.49
   6   0   0  228.28   26.90
   6   0   0  285.07   24.10
   6   0   0  260.97   23.20
  -6   6   0  288.37   28.10
  -6   6   0  283.67   22.50
  -6   0   0  292.67   25.70
   6  -6   0  309.67   25.30
  -6   0   0  253.17   25.60
  -6   0   0  276.87   24.50
   0   6   0  224.08   28.90
   6  -6   0  260.97   25.10
   2   5   0  785.92   63.99
   5  -7   0  826.32   58.89
  -7   2   0  815.42   60.59
   2   5   0  784.82   58.29
  -7   2   0  769.22   62.49
   5  -7   0  776.92   58.19
  -7   2   0  833.62   60.19
   2   5   0  804.82   60.29
  -7   2   0  742.23   59.49
  -2  -5   0  736.53   59.69
   7  -2   0  826.42   60.59
  -5   7   0  822.62   63.09
   7  -2   0  764.42   59.69
  -7   5   0  893.41   61.69
   5   2   0  798.42   60.69
  -7   5   0  829.72   61.09
  -7   5   0  821.02   65.69
   5   2   0  817.62   65.79
   7  -5   0  823.62   62.19
   7  -5   0  911.71   62.59
  -5  -2   0  774.02   60.49
  -5  -2   0  782.82   61.39
  -5  -2   0  814.72   62.09
  -2   7   0  776.02   61.99
   1   7   0  288.27   27.30
  -8   1   0  335.17   32.50
  -8   1   0  347.27   32.30
   7  -8   0  370.36   30.70
  -8   1   0  325.87   30.40
   1   7   0  333.07   34.50
   7  -8   0  319.37   30.50
   1   7   0  319.27   28.90
  -7   8   0  350.26   34.10
   8  -1   0  299.17   29.00
  -1  -7   0  320.87   31.30
   8  -1   0  337.27   29.80
  -8   4   0 6162.38  416.56
  -8   4   0 5741.23  431.06
  -8   4   0 5863.21  416.06
   4   4   0 6280.37  429.66
  -8   4   0 6293.47  406.46
   4   4   0 5711.63  432.36
   4   4   0 5767.22  405.26
  -4  -4   0 6196.78  407.46
  -4   8   0 5788.02  470.15
  -4   8   0 5892.51  429.36
   8  -4   0 5873.31  416.36
   8  -4   0 5969.80  416.76
   7   1   0  278.27   32.70
   1  -8   0  357.46   30.20
  -7  -1   0  290.27   31.80
  -1   8   0  339.97   28.80
  -7  -1   0  296.27   32.00
  -1   8   0  335.47   27.50
  -7  -1   0  320.67   29.50
   8  -7   0  336.47   31.40
   8  -7   0  363.86   32.50
   6  -9   0   70.49   14.40
   6  -9   0   86.69   15.10
  -9   3   0  129.59   20.10
   3   6   0   84.59   18.10
   3   6   0   75.79   16.30
  -9   3   0   91.39   18.50
  -9   3   0   72.29   18.10
  -9   3   0   72.39   16.40
   3   6   0  133.49   17.10
   9  -3   0   76.69   15.60
   9  -3   0  102.49   19.50
  -6   9   0   87.49   19.20
  -3  -6   0   80.39   17.90
  -9   6   0   65.49   18.60
  -9   6   0   61.89   15.00
   6   3   0  103.69   19.50
  -9   6   0  126.69   17.60
  -9   6   0  118.69   17.90
  -6  -3   0   71.79   14.30
   9  -6   0  105.09   20.10
  -3   9   0  102.89   16.40
   9  -6   0   77.59   17.30
  -6  -3   0   74.09   17.80
  -6  -3   0   79.29   16.80
  -3   9   0  108.69   14.80
  -9   9   0  901.01   78.49
   0  -9   0  927.51   71.49
   9   0   0 1001.50   77.59
   0   9   0  907.01   72.09
   0   9   0  887.51   68.59
  -9   0   0  986.60   74.29
   9  -9   0  913.51   72.89
  -9   0   0  921.41   73.69
 -10   2   0   10.20   15.80
 -10   2   0   16.20   17.80
 -10   2   0   37.20   15.60
   2   8   0  -16.60   17.10
  -8  10   0    8.40   17.20
  -2  -8   0   22.20   16.80
 -10   5   0   52.19   16.90
   5   5   0   15.10   14.90
 -10   5   0    3.40   16.80
 -10   5   0   32.80   15.60
  -5  -5   0   29.40   16.00
  -5  10   0   18.60   13.70
  10  -5   0    4.00   17.40
  -5  10   0   37.20   12.20
 -10   8   0   35.10   20.00
   8   2   0   23.80   17.60
  10  -8   0   -7.60   15.00
  -2  10   0    2.90   12.60
  -8  -2   0    2.00   16.20
  -2  10   0  -18.80    9.40
  10  -8   0    8.20   18.60
   1  10   0   20.10   12.50
 -11   1   0   57.39   20.00
  -1 -10   0   13.30   17.60
  11  -1   0   28.60   18.30
 -10  11   0   11.30   20.40
 -11   4   0   -3.20   16.90
 -11   4   0   20.70   16.90
   4   7   0   41.40   17.70
  -7  11   0   17.40   16.30
  -7  11   0   35.60   15.40
  -4  -7   0   20.80   17.00
 -11   7   0   39.40   19.70
 -11   7   0   22.60   16.70
   7   4   0   29.20   18.40
  -7  -4   0    4.30   16.80
  -4  11   0   28.30   14.60
  11  -7   0   27.50   20.50
  -4  11   0   29.30   10.90
  10   1   0   10.60   18.20
 -11  10   0   15.40   20.70
  -1  11   0   33.20   14.00
 -10  -1   0   25.90   18.90
   6   6   0    3.40   16.60
 -12   6   0   13.40   18.20
  -6  12   0    5.60   15.10
  -6  -6   0    9.50   18.20
  -6  12   0   10.20   11.70
   1  -1  -1  347.37   25.30
  -1   0  -1  367.16   25.40
  -1   0  -1  347.37   25.40
   0   1  -1  363.56   28.80
   0   1  -1  347.27   26.20
   0  -1   1  350.06   28.80
  -1   1   1  377.36   26.50
   1   0   1  366.36   25.30
   3  -2  -1  101.59   11.00
  -1   3  -1   94.19   10.60
   3  -2  -1  107.09   11.10
  -1   3  -1  109.59    9.70
  -3   2   1  106.79   11.30
  -3   2   1  105.59   10.90
  -3   2   1   91.59   10.50
  -2   2  -1  251.87   20.20
  -2   2  -1  240.88   19.00
   2   0  -1  226.08   19.00
  -2   2  -1  238.08   18.80
   2   0  -1  236.08   19.20
  -2   0   1  229.98   19.00
   2  -2   1  238.08   18.90
  -2   0   1  235.48   19.30
   2  -2   1  230.38   19.00
  -2   5  -1   20.30    5.50
  -2   5  -1   17.80    6.80
   5  -3  -1   37.20    9.50
   5  -3  -1    6.20    7.70
  -3  -2  -1    9.60    8.80
  -5   3   1   20.30    8.10
   3   2   1    8.70    6.40
  -5   3   1   35.90    9.90
   3   2   1   16.80    7.10
  -5   3   1   20.90    8.00
   3   2   1   27.10    9.80
  -3   1  -1   98.49   11.00
  -3   1  -1   99.99   10.60
  -3   1  -1   98.29   11.10
   3  -1   1   98.29   10.60
  -1  -2   1   98.79   10.10
   3  -1   1  109.99   11.50
  -2   3   1  102.99   10.30
   4  -1  -1   59.39   10.20
  -3   4  -1   59.99    9.70
   4  -1  -1   59.09    9.00
   3  -4   1   68.99    8.60
  -4   1   1   44.10    8.80
  -4   1   1   60.09   10.00
  -4   1   1   73.49   10.90
   3  -4   1   58.49    7.80
   7  -4  -1   51.19   13.70
  -3   7  -1   45.70    9.10
  -3   7  -1   61.39   11.20
  -4  -3  -1   62.79   14.90
   7  -4  -1   38.70   12.00
  -7   4   1   50.59   11.80
  -7   4   1   36.40   11.70
   4   3   1   47.60   10.70
   4   3   1   46.70   13.30
  -7   4   1   53.39   14.00
   4   3   1   39.60   11.30
  -7   4   1   26.30   12.40
  -4   0  -1  293.27   26.00
   0   4  -1  333.37   24.40
   0   4  -1  372.96   27.50
   4  -4  -1  243.48   25.50
   4  -4  -1  289.57   25.70
  -4   0  -1  298.27   26.70
  -4   4   1  271.57   28.20
  -4   4   1  345.17   24.50
   4   0   1  317.17   25.50
  -4   4   1  282.67   24.30
   4   0   1  303.07   25.10
  -4   3  -1   79.69    9.70
  -4   3  -1   76.39   11.60
  -4   3  -1   59.89    9.20
  -3  -1   1   61.29    8.50
  -3  -1   1   64.29    9.60
   4  -3   1   77.19   10.60
   4  -3   1   74.79   10.20
   6  -2  -1   62.79   13.40
   6  -2  -1   67.19   12.70
  -4   6  -1   79.69   13.10
  -2  -4  -1   57.89   13.70
  -6   2   1   76.49   13.80
  -6   2   1   53.39   12.90
  -6   2   1   68.99   13.60
   4  -6   1   76.79   10.70
   2   4   1   54.29   11.10
   2   4   1   73.69   14.20
   4  -6   1   68.89    9.80
   2   4   1   75.29   10.10
  -6   2   1   65.29   12.00
   9  -5  -1   34.00   17.00
  -4   9  -1   42.10   11.90
   9  -5  -1   34.40   14.70
  -4   9  -1   27.90   13.30
  -5  -4  -1   10.30   15.40
  -9   5   1   43.80   14.80
   5   4   1   55.99   17.30
  -9   5   1   42.80   17.90
  -9   5   1   40.10   14.00
   5   4   1   28.80   14.00
  -9   5   1   43.80   15.40
   6  -5  -1   46.40   11.20
  -5  -1  -1   43.80   11.10
   6  -5  -1   50.89   12.60
  -5  -1  -1   50.99    9.90
  -1   6  -1   44.80    8.50
  -1   6  -1   55.49    9.20
  -5  -1  -1   41.60   13.10
  -6   5   1   40.30   12.90
  -6   5   1   57.79    9.90
   5   1   1   43.50   11.60
   5   1   1   43.40   12.60
  -5   2  -1   34.00    9.70
  -5   2  -1   19.60    8.70
   2   3  -1   32.20    7.70
  -5   2  -1   20.10    8.10
   2   3  -1   33.00    9.60
  -3   5   1   35.70    8.00
   5  -2   1   13.80    9.10
   5  -2   1   29.30    8.30
   5   0  -1  105.19   11.80
  -5   5  -1   86.29   10.70
   5   0  -1   57.09   10.40
   5   0  -1  113.09   14.80
  -5   5  -1   81.39   10.80
  -5   5  -1   83.69   14.40
   5  -5   1   94.39   12.70
  -5   0   1   90.89   14.00
  -5   0   1  104.09   13.80
  -5   0   1   95.29   12.20
   0   5   1   91.09   15.10
   5  -5   1   87.69   12.30
  -5   8  -1    5.70    9.20
  -3  -5  -1  -10.50   12.60
   8  -3  -1   -2.40   14.20
  -5   8  -1   12.40   12.90
   8  -3  -1  -16.10   10.80
  -8   3   1    5.60   13.30
  -8   3   1   11.80   12.50
   5  -8   1    7.90    8.90
   3   5   1   -2.20   10.40
  -8   3   1  -37.40   11.00
   3   5   1    7.90   12.00
   3   5   1   23.20   10.80
  -8   3   1  -16.10   12.90
   5  -8   1   11.90    9.90
  -6  -5  -1  -14.40   15.60
  11  -6  -1  -10.90   19.90
  -5  11  -1   18.70   13.20
  -5  11  -1    4.20   13.70
 -11   6   1   14.70   16.60
 -11   6   1   21.90   18.90
   6   5   1   22.90   16.70
  -2   8  -1   22.50   10.50
  -6  -2  -1   37.20   12.80
   8  -6  -1   18.30   12.10
   8  -6  -1    9.60   13.80
  -2   8  -1   28.00    9.30
  -6  -2  -1   15.90    9.40
  -6  -2  -1   44.40   14.00
  -8   6   1   25.50   10.10
  -8   6   1   29.70   11.30
  -8   6   1   26.70   10.30
   6   2   1   30.30   14.70
   6   2   1   34.20   12.00
  -8   6   1   18.90   14.40
  -6   1  -1   47.30   10.90
  -6   1  -1   44.50   12.00
   1   5  -1   55.49   10.10
   1   5  -1   46.90    8.20
  -6   1  -1   37.70   10.60
   5  -6  -1   38.80    9.70
  -6   1  -1   33.90   12.00
   5  -6  -1   47.80    9.40
   1   5  -1   73.69   15.10
   6  -1   1   28.00   10.10
  -5   6   1   55.79   12.80
  -1  -5   1   38.50   11.50
   6  -1   1   47.30   10.30
  -6   4  -1   69.09   12.00
  -6   4  -1   82.39   14.90
   4   2  -1   90.29   14.60
  -6   4  -1   70.59   12.00
  -4  -2   1   73.69   10.80
   6  -4   1   79.19   13.10
  -4  -2   1   84.09   12.50
   6  -4   1   83.39   13.70
  -2   6   1   68.49    9.70
  -2   6   1   94.09   11.10
  -4  -2   1   76.79   13.80
   7  -1  -1   26.70   10.00
   7  -1  -1   29.20   12.00
  -1  -6  -1   13.00   11.70
  -6   7  -1   31.60   13.30
  -7   1   1   33.60   12.00
   6  -7   1   40.40   11.50
  -7   1   1   26.40   11.10
  -7   1   1   22.30   13.10
   1   6   1   29.80   14.50
   6  -7   1   32.10   11.00
   1   6   1   22.80    9.40
  -7   1   1   50.99   13.10
  -6  10  -1   25.00   14.80
  10  -4  -1   28.40   17.70
  -6  10  -1   10.50   13.10
  -4  -6  -1   13.50   16.40
 -10   4   1  -15.30   14.90
 -10   4   1    1.40   14.70
   4   6   1  -11.70   13.40
 -10   4   1   -7.30   15.20
   4   6   1    4.20   13.70
  -7  -3  -1   33.60   16.80
  10  -7  -1    9.30   18.90
  -3  10  -1   -1.10   13.30
  -3  10  -1   14.20   11.40
  10  -7  -1   27.90   16.40
 -10   7   1   14.20   17.90
 -10   7   1    1.60   14.10
   7   3   1   17.20   15.20
  -7   0  -1   65.99   15.20
  -7   0  -1   49.10   12.60
   0   7  -1   53.49   10.20
   0   7  -1   54.59   11.20
   7  -7  -1   76.39   13.70
   7  -7  -1   53.49   14.10
   0   7  -1   45.40    9.80
   0   7  -1   53.89   11.10
  -7   0  -1   44.00   14.00
   7   0   1   50.09   14.00
  -7   7   1   43.70   15.70
   0  -7   1   60.69   13.40
  -7   3  -1   52.79   11.30
  -7   3  -1   48.10   12.60
   3   4  -1   61.99   13.70
   3   4  -1   49.80   12.40
  -7   3  -1   42.30   13.40
  -7   3  -1   39.00   12.50
  -4   7   1   38.10   12.00
   7  -3   1   50.49   11.60
  -3  -4   1   53.79   13.00
   7  -3   1   58.99   13.80
  -7   6  -1   -6.00    8.10
  -7   6  -1   10.20    8.50
  -7   6  -1   20.30   13.60
   6   1  -1   27.90   11.90
  -6  -1   1   13.30    9.30
   7  -6   1    9.00   11.90
  -6  -1   1   21.80   12.10
   7  -6   1   20.60   10.70
  -6  -1   1   42.10   12.70
   9  -2  -1    7.20   14.80
  -7   9  -1   -5.60   14.60
  -2  -7  -1    7.40   15.60
  -9   2   1   42.60   16.20
   2   7   1   13.80   10.10
   2   7   1   -5.40   11.90
  -9   2   1   16.80   16.50
   7  -9   1   18.50   13.10
   7  -9   1    2.40   12.30
  -9   2   1   19.00   13.50
   2   7   1    5.80   16.20
  -5  -7  -1  -14.80   17.30
  -7  12  -1   -5.30   14.10
  -7  12  -1   17.80   17.50
 -12   5   1    8.20   18.30
   5   7   1    8.40   16.10
  -4  12  -1    8.40   15.80
  -8  -4  -1   19.40   21.50
 -12   8   1   16.20   22.70
   8   4   1   24.30   19.50
  -1   9  -1  -17.60   11.00
  -1   9  -1  -10.30   10.60
   9  -8  -1  -17.50   14.60
  -8  -1  -1   -7.10   15.50
   9  -8  -1   -0.50   17.30
   8   1   1  -12.20   15.30
  -9   8   1  -19.20   16.60
   1  -9   1    6.80   12.80
   2   6  -1   28.40   15.50
   6  -8  -1   47.30   11.30
  -8   2  -1   40.10   14.00
   2   6  -1   24.20   10.60
  -8   2  -1   39.60   11.60
  -8   2  -1   28.00   14.10
   6  -8  -1   45.70   11.70
  -8   2  -1   19.50   13.70
   8  -2   1   11.70   12.80
  -6   8   1   18.20   13.20
   8  -2   1   34.20   11.60
  -2  -6   1   21.20   12.60
  -8   5  -1   14.30   13.10
  -8   5  -1   11.50   11.20
  -8   5  -1   18.30   10.70
   5   3  -1   -9.70   12.30
  -8   5  -1   22.00   11.00
  -5  -3   1    5.00   12.30
   8  -5   1   10.60   11.70
  -3   8   1    8.80    9.80
  -5  -3   1   17.80    9.50
   8  -5   1   28.80   14.30
  -5  -3   1    6.90   11.90
  -3   8   1   -5.00    7.40
   8   0  -1  152.08   21.70
  -8   8  -1   80.59   21.60
   0  -8  -1   69.59   19.20
  -8   0   1  104.69   20.90
   8  -8   1  103.09   19.10
  -8   0   1  134.09   22.60
   0   8   1  117.09   16.50
  -8   0   1   89.39   17.80
   8  -8   1  114.69   20.00
  -8  11  -1    0.10   16.80
  -3  -8  -1   -9.20   16.70
  -8  11  -1   12.30   16.00
 -11   3   1    3.80   17.00
   3   8   1   -7.90   13.60
   3   8   1  -12.30   15.50
 -11   3   1   -9.50   16.60
  11  -9  -1   13.60   18.30
  -2  11  -1   15.80   11.30
  -9  -2  -1    3.40   17.60
  -2  11  -1   -3.90   12.70
   9   2   1    5.70   17.90
 -11   9   1   14.10   19.80
   8  -9  -1    4.80   14.00
  -9   1  -1    6.40   16.80
   1   8  -1   -5.40    9.50
  -9   1  -1    0.80   13.40
   1   8  -1   14.10   16.50
  -9   1  -1   -5.80   15.30
  -1  -8   1   -3.80   13.70
   9  -1   1   19.00   16.70
  -8   9   1   14.80   17.10
  -9   4  -1    7.70   14.50
  -9   4  -1   28.90   14.90
   4   5  -1   25.70   14.80
  -9   4  -1   18.30   15.60
  -9   4  -1   27.70   13.90
  -4  -5   1   18.70   15.10
   9  -4   1   15.70   15.80
  -5   9   1   38.40   13.80
   9  -4   1   34.90   13.60
  -9   7  -1    4.60   12.40
   2  -9  -1   13.40   12.70
   7   2  -1   18.20   14.80
  -9   7  -1  -13.90   10.90
  -9   7  -1    3.70   15.70
  -2   9   1    1.10    9.40
  -7  -2   1    5.90   15.50
   9  -7   1    4.50   16.10
  -7  -2   1   -2.00   14.10
  -7  -2   1    9.20   12.20
   9  -7   1    4.40   13.80
  -2   9   1    5.90    9.00
  10  -1  -1    6.30   15.70
  -9  10  -1    4.70   19.20
  -1  -9  -1   -9.20   16.80
   1   9   1   13.90   13.90
 -10   1   1    3.30   15.90
 -10   1   1    1.50   19.00
 -10   0  -1   30.60   17.40
   0  10  -1   14.80   12.50
  10   0   1   -8.40   16.50
 -10  10   1   19.80   19.80
 -10   3  -1   -6.40   17.10
   3   7  -1   26.80   17.50
 -10   3  -1   25.40   16.30
 -10   3  -1   -3.40   14.00
  -3  -7   1   38.30   16.50
  -7  10   1   12.70   14.80
 -10   6  -1   31.20   17.80
 -10   6  -1   -1.80   14.50
 -10   6  -1  -29.40   13.50
   6   4  -1   22.60   15.80
  -4  10   1   17.10   12.80
  10  -6   1  -13.70   14.50
  10  -6   1   22.20   18.30
  -4  10   1   -3.50    9.60
  -6  -4   1   -7.60   14.20
 -10   9  -1  -11.70   17.60
   9   1  -1   14.80   16.20
  10  -9   1   12.00   16.40
  -9  -1   1   15.20   16.20
 -11   2  -1   10.60   15.90
   2   9  -1    6.80   11.30
   2   9  -1   -9.40   18.40
 -11   2  -1  -15.90   19.30
  11  -2   1    4.60   16.20
  -2  -9   1   20.00   17.00
  -9  11   1   14.50   19.80
   5   6  -1   26.90   16.00
 -11   5  -1   18.40   17.20
 -11   5  -1   43.90   18.00
  -5  -6   1  -12.00   16.00
  -6  11   1   -3.50   13.10
  -6  11   1    3.30   14.80
 -11   8  -1   27.50   20.60
   8   3  -1   -9.00   15.20
  -3  11   1   -6.10   11.30
  -3  11   1    9.20    9.90
  -8  -3   1    0.50   16.20
  11  -8   1    1.00   20.30
 -12   4  -1   -5.60   18.10
   4   8  -1   46.70   20.30
  -8  12   1   16.90   19.00
  -8  12   1   24.00   16.70
  -4  -8   1   19.50   19.70
 -12   7  -1   -7.60   17.00
   7   5  -1   20.50   17.90
  -5  12   1   20.20   15.90
  -7  -5   1   -8.40   16.90
  -5  12   1    7.20   11.20
  -1   1  -2 4028.60  287.57
  -1   1  -2 4185.48  296.97
   1   0  -2 4429.06  287.77
  -1   1  -2 4021.30  287.47
  -1   1  -2 3929.41  326.17
   1  -1   2 4076.19  287.67
  -1   0   2 4451.75  296.87
  -1   0   2 4266.17  287.67
   1  -1   2 3978.40  326.17
   1  -1   2 4178.38  287.47
   2  -2  -2  166.08   12.90
   0   2  -2  158.28   14.90
  -2   0  -2  136.19   12.90
   0   2  -2  164.18   13.60
  -2   0  -2  150.18   13.10
   0  -2   2  153.38   14.60
  -2   2   2  177.68   14.00
   0  -2   2  171.38   12.80
  -2   3  -2 1448.26  122.89
  -2   3  -2 1557.04  112.69
  -2   3  -2 1483.65  107.99
   3  -1  -2 1622.74  108.89
  -2   3  -2 1537.15  107.89
   3  -1  -2 1667.13  109.19
   2  -3   2 1392.86  107.99
  -3   1   2 1630.54  108.89
  -3   1   2 1577.34  109.09
  -3   1   2 1657.43  112.79
   2  -3   2 1465.25  108.29
   4  -3  -2  701.93   50.59
  -1   4  -2  663.23   51.39
  -1   4  -2  682.03   56.29
   4  -3  -2  673.63   50.39
   1  -4   2  711.73   55.99
  -4   3   2  755.42   52.99
  -4   3   2  671.43   50.09
  -4   3   2  654.63   49.90
   2   1  -2 1393.36  102.59
  -3   2  -2 1570.54  107.39
  -3   2  -2 1439.16  103.19
  -3   2  -2 1449.85  103.49
   2   1  -2 1545.05  102.69
   3  -2   2 1451.55  103.29
   3  -2   2 1352.06  103.29
  -2  -1   2 1550.24  102.99
  -2  -1   2 1453.75  103.19
   5  -2  -2  154.58   17.50
   5  -2  -2  161.68   17.10
  -3   5  -2  165.48   17.60
  -3   5  -2  176.28   17.30
  -5   2   2  143.99   18.20
   3  -5   2  172.98   15.20
  -5   2   2  152.98   17.40
   2   3   2  147.99   18.80
   3  -5   2  177.08   14.40
  -5   2   2  135.79   16.00
  -2   6  -2  672.33   53.19
  -4  -2  -2  681.33   53.09
   6  -4  -2  696.13   52.69
   6  -4  -2  733.13   52.69
  -2   6  -2  687.83   57.49
  -6   4   2  689.93   51.99
   4   2   2  661.13   50.99
  -6   4   2  679.43   55.19
   4   2   2  708.73   55.79
  -6   4   2  672.63   51.79
  -4   1  -2  704.13   53.59
  -4   1  -2  672.33   51.49
  -4   1  -2  714.83   51.79
   4  -1   2  704.33   51.59
   4  -1   2  680.53   51.39
  -3   4   2  738.13   52.99
   4   0  -2 9653.03  664.23
   4   0  -2 9552.54  664.43
  -4   4  -2 9981.50  686.53
  -4   4  -2 9760.62  664.13
  -4   4  -2 9473.55  663.83
  -4   0   2 9359.56  664.63
  -4   0   2 9459.55  664.43
  -4   0   2 9277.37  685.63
   4  -4   2 9396.36  664.13
   4  -4   2 9999.00  664.63
  -3  -4  -2  710.23   54.79
  -4   7  -2  754.82   59.99
   7  -3  -2  711.43   54.89
   7  -3  -2  675.43   54.29
  -4   7  -2  686.23   56.49
   3   4   2  743.83   54.29
   3   4   2  670.73   52.29
   4  -7   2  727.93   52.59
   4  -7   2  676.23   51.59
  -7   3   2  650.03   56.59
  -7   3   2  701.93   54.49
  -7   3   2  729.03   54.29
  -7   3   2  691.13   54.39
   3   4   2  730.83   57.79
  -5  -3  -2  185.18   24.30
  -3   8  -2  165.48   21.50
   8  -5  -2  197.38   22.70
  -3   8  -2  212.78   21.50
   8  -5  -2  207.78   23.90
  -8   5   2  187.88   22.20
  -8   5   2  198.58   21.00
   5   3   2  153.98   20.40
  -8   5   2  186.28   24.90
  -8   5   2  198.08   21.50
   5   3   2  163.08   23.70
  -5   0  -2  204.78   19.30
   0   5  -2  200.78   20.80
   0   5  -2  218.88   18.80
  -5   0  -2  194.98   21.30
   5  -5  -2  243.38   19.90
  -5   0  -2  176.88   19.90
   5  -5  -2  213.18   19.40
   0   5  -2  200.78   18.80
  -5   5   2  262.67   22.60
   5   0   2  211.88   19.80
   3   2  -2  158.88   19.00
  -5   3  -2  194.88   18.70
  -5   3  -2  186.78   17.30
  -5   3  -2  203.58   17.40
   5  -3   2  190.88   17.70
   5  -3   2  172.58   17.10
  -3  -2   2  147.89   17.40
  -3  -2   2  127.09   15.10
  -3  -2   2  140.99   16.00
  -1  -5  -2  169.78   17.90
  -5   6  -2  117.39   17.30
   6  -1  -2  125.49   16.60
   6  -1  -2  120.49   15.00
  -6   1   2  118.59   15.60
   1   5   2  161.18   15.60
   5  -6   2  101.39   14.30
   1   5   2  142.99   19.10
  -6   1   2  143.39   17.60
  -6   1   2  103.69   16.20
  -6   1   2  115.89   16.70
   5  -6   2   91.39   14.80
   9  -4  -2  337.77   32.70
  -4  -5  -2  393.26   36.20
   9  -4  -2  312.87   34.50
  -5   9  -2  348.97   33.80
  -5   9  -2  358.96   35.10
  -9   4   2  347.77   33.80
   5  -9   2  342.77   30.60
   4   5   2  415.16   32.50
   5  -9   2  334.57   28.90
   4   5   2  293.47   34.70
  -9   4   2  361.66   32.70
  -9   4   2  308.57   34.80
  -9   4   2  329.87   33.80
  -4  10  -2   17.00   12.30
  -6  -4  -2   25.40   17.10
  -4  10  -2    2.40   13.50
  10  -6  -2   19.40   15.20
  10  -6  -2   -2.90   17.80
 -10   6   2   22.20   18.00
 -10   6   2   32.80   15.40
   6   4   2   18.80   15.10
   6   4   2   17.10   13.90
   7  -6  -2   45.90   13.40
  -1   7  -2   50.19   10.30
  -6  -1  -2   28.50   10.40
   7  -6  -2   30.00   11.70
  -1   7  -2   38.50   10.30
  -6  -1  -2   57.19   15.00
  -6  -1  -2   33.70   11.90
   6   1   2   46.10   14.00
  -7   6   2   38.20   13.70
   6   1   2   36.60   12.50
  -7   6   2   41.40    9.00
   2   4  -2  738.53   55.19
  -6   2  -2  693.53   51.49
  -6   2  -2  740.03   52.19
  -6   2  -2  665.53   53.89
  -6   2  -2  675.43   51.69
   2   4  -2  641.74   52.29
  -4   6   2  640.34   52.69
  -2  -4   2  659.53   50.89
   6  -2   2  691.13   51.39
  -2  -4   2  586.54   55.39
   6  -2   2  777.52   50.99
  -6   5  -2  100.19   14.50
  -6   5  -2  121.19   18.90
  -6   5  -2  121.79   15.30
   5   1  -2  141.59   18.10
  -5  -1   2  150.88   15.40
  -5  -1   2  152.68   18.20
  -5  -1   2  149.29   17.40
   6  -5   2  159.58   17.30
   6  -5   2  106.09   15.70
  -6   8  -2   74.89   14.60
   8  -2  -2   50.79   15.60
  -2  -6  -2   61.59   16.50
   8  -2  -2   67.89   13.70
  -6   8  -2   43.00   15.50
  -8   2   2   80.99   16.10
   2   6   2   75.99   13.20
   6  -8   2   50.79   13.10
  -8   2   2   60.49   16.40
   6  -8   2   71.69   13.60
  -8   2   2   55.59   15.30
  -8   2   2   65.69   14.10
   2   6   2   59.99   16.20
  -6  11  -2   55.69   19.00
  -5  -6  -2   93.49   21.90
  -6  11  -2   66.99   17.30
   5   6   2   87.79   18.70
 -11   5   2  104.49   21.40
   5   6   2   60.19   19.00
  -5  12  -2   81.09   20.20
  -5  12  -2   76.59   17.90
  -7  -5  -2   68.59   22.20
   7   5   2   71.79   22.30
 -12   7   2   92.29   22.50
 -12   7   2   75.19   25.20
   9  -7  -2  129.19   20.10
  -2   9  -2   89.39   16.10
   9  -7  -2  124.29   21.20
  -7  -2  -2   94.49   19.00
  -7  -2  -2   92.39   16.00
  -2   9  -2   46.60   16.40
  -7  -2  -2  109.19   20.70
  -9   7   2  111.79   22.60
   7   2   2  136.99   19.70
   7   2   2  102.39   20.70
  -9   7   2  122.79   18.00
   1   6  -2   29.50    9.10
   6  -7  -2   43.60   11.60
   1   6  -2   29.60   14.80
  -7   1  -2   29.20   11.60
  -7   1  -2   72.79   14.20
  -7   1  -2   55.89   14.30
  -7   1  -2   47.40   12.40
   6  -7  -2   38.40   10.70
   1   6  -2    9.00    8.00
  -6   7   2   59.19   15.20
   7  -1   2   88.69   14.10
   7  -1   2   41.00   11.10
  -1  -6   2   46.20   12.20
   7  -1   2   34.80    9.60
  -7   4  -2  738.73   53.89
  -7   4  -2  687.83   57.79
  -7   4  -2  730.73   54.59
   4   3  -2  732.73   58.39
  -7   4  -2  698.03   54.59
  -4  -3   2  724.63   54.89
   7  -4   2  734.93   54.99
  -4  -3   2  701.73   53.09
  -4  -3   2  758.52   54.29
   7  -4   2  731.63   55.19
  -3   7   2  644.74   54.69
   0  -7  -2  162.48   19.40
   7   0  -2  144.79   17.50
   7   0  -2  158.58   16.80
  -7   7  -2  109.99   14.90
  -7   7  -2  131.69   21.20
  -7   7  -2   90.39   14.90
   7   0  -2  194.78   21.90
   0   7   2  189.98   17.40
  -7   0   2  132.89   18.30
  -7   0   2  170.48   20.80
   7  -7   2  134.59   18.50
   7  -7   2  101.29   18.20
  -7   0   2  189.18   18.70
  -7   0   2  136.79   20.10
  -7  10  -2   -6.60   14.40
  -3  -7  -2   21.90   18.00
  -7  10  -2   11.80   16.50
 -10   3   2   21.70   17.30
   3   7   2    5.50   13.80
 -10   3   2   18.20   17.60
   3   7   2   12.50   16.80
 -10   3   2  -13.00   16.00
  -3  11  -2   28.30   11.90
  -8  -3  -2   45.60   19.30
  -3  11  -2   20.00   15.70
   8   3   2   17.30   16.30
 -11   8   2   18.30   19.40
  -8   0  -2 1790.52  122.39
  -8   0  -2 1668.73  121.89
   8  -8  -2 1812.62  122.19
   0   8  -2 1530.65  123.39
   8  -8  -2 1592.04  121.39
   0   8  -2 1623.64  124.39
  -8   0  -2 1721.33  122.39
   8   0   2 1758.32  128.59
  -8   8   2 1566.64  127.79
   0  -8   2 1702.83  118.99
  -8   3  -2  166.38   22.20
   3   5  -2  122.49   20.50
   3   5  -2   99.09   19.80
  -8   3  -2  223.18   22.20
  -8   3  -2  197.38   20.40
  -8   3  -2  171.18   21.00
   8  -3   2  215.98   20.40
  -5   8   2  130.99   21.00
  -3  -5   2  164.78   20.60
   8  -3   2  169.68   21.20
   6   2  -2   63.89   15.10
  -8   6  -2   75.79   13.30
  -8   6  -2  114.09   19.00
  -8   6  -2   59.49   13.30
  -6  -2   2   43.90   14.90
   8  -6   2   86.89   16.90
  -6  -2   2   58.29   12.20
  -6  -2   2   39.40   14.40
   8  -6   2   42.20   15.10
   9  -1  -2  185.68   26.90
  -8   9  -2  265.97   28.50
  -1  -8  -2  213.98   26.40
  -8   9  -2  214.68   30.70
  -9   1   2  214.78   25.40
   8  -9   2  166.88   24.30
  -9   1   2  179.38   26.60
  -9   1   2  186.98   26.50
   1   8   2  250.57   30.50
   1   8   2  221.08   22.50
  -8  12  -2  599.24   54.39
  -8  12  -2  503.15   54.79
  -4  -8  -2  544.85   52.59
   4   8   2  666.23   50.59
   4   8   2  488.75   54.09
 -12   4   2  603.24   54.09
  -1  10  -2   34.70   12.10
  -9  -1  -2   33.00   17.40
  -1  10  -2    9.70   13.00
   9   1   2   20.80   18.10
 -10   9   2   32.40   19.10
   2   7  -2   84.09   20.10
  -9   2  -2  114.69   20.20
   7  -9  -2  115.39   17.20
  -9   2  -2   74.99   17.20
  -9   2  -2   93.49   19.70
  -2  -7   2   86.89   18.50
  -7   9   2  117.79   21.80
  -9   5  -2  302.77   31.70
   5   4  -2  339.57   35.10
  -9   5  -2  375.76   32.80
  -9   5  -2  347.17   35.30
  -9   5  -2  327.67   32.10
  -4   9   2  354.66   31.60
   9  -5   2  317.77   32.10
  -5  -4   2  343.37   30.00
  -5  -4   2  363.86   33.60
   9  -5   2  332.77   33.60
  -9   8  -2  201.58   30.60
   1  -9  -2  148.29   23.30
   8   1  -2  248.78   28.80
  -1   9   2  190.88   21.20
   9  -8   2  195.28   26.30
  -8  -1   2  190.88   26.60
  -8  -1   2  219.58   27.50
   9  -8   2  191.58   26.00
  -2  -9  -2   34.90   20.20
  11  -2  -2   29.10   18.30
  -9  11  -2   58.09   19.30
  -9  11  -2   34.40   20.40
 -11   2   2   47.30   20.00
   2   9   2   26.20   19.60
   2   9   2   51.69   17.60
 -10   1  -2   -6.60   15.30
   1   9  -2   15.30   12.30
  10  -1   2   45.40   18.50
  -9  10   2   33.00   18.80
  -1  -9   2   10.70   16.10
 -10   4  -2   -0.20   14.60
   4   6  -2   14.90   15.40
 -10   4  -2   45.80   16.90
 -10   4  -2   23.80   16.20
  -6  10   2   15.60   13.70
  -4  -6   2   32.00   16.10
   7   3  -2   22.70   17.30
 -10   7  -2    4.80   18.50
 -10   7  -2   19.30   15.10
  -3  10   2    2.60   12.00
  10  -7   2   10.90   19.00
  10  -7   2   30.50   17.60
  -7  -3   2   -8.70   16.00
 -10  10  -2   43.60   18.40
   0 -10  -2   31.90   17.90
 -10  10  -2   30.70   21.80
  10   0  -2   45.30   19.60
 -10   0   2   -3.00   17.00
   0  10   2   38.20   14.90
 -11   3  -2    7.10   16.40
   3   8  -2   17.50   18.50
  -8  11   2   41.10   18.20
  -3  -8   2   27.50   17.40
   6   5  -2   56.79   19.30
 -11   6  -2   83.19   20.30
  -6  -5   2   94.29   21.40
  -5  11   2   81.09   15.60
  -5  11   2   81.99   19.60
   9   2  -2   73.39   20.00
 -11   9  -2   49.60   23.30
  -9  -2   2   71.69   20.40
 -12   5  -2  110.19   23.00
   5   7  -2  100.59   23.50
  -7  12   2  120.29   24.40
  -5  -7   2   95.39   23.10
  -7  12   2  119.59   20.60
 -12   8  -2  455.45   49.60
   8   4  -2  522.05   48.50
  -4  12   2  400.66   42.70
  -8  -4   2  560.24   47.50
   0   0  -3  379.26   26.10
   0   0  -3  360.76   26.30
   0   0   3  344.27   26.20
   0   0   3  374.46   27.20
  -1   2  -3   40.70    6.10
  -1   2  -3   47.30    6.60
   2  -1  -3   39.50    6.30
  -1   2  -3   44.20    5.60
  -1   2  -3   46.40    6.70
   1  -2   3   53.49    6.60
  -2   1   3   53.59    6.60
   1  -2   3   45.20    5.60
   1   1   3   35.00    5.30
  -2   1   3   49.20    6.80
   1  -2   3   52.49    6.80
   1   1  -3   32.80    5.30
  -2   1  -3   41.70    6.30
   1   1  -3   40.30    5.90
  -2   1  -3   40.40    5.80
  -2   1  -3   43.50    6.10
  -2   1  -3   34.20    5.80
   1   1  -3   45.10    5.80
   2  -1   3   45.40    6.00
  -1  -1   3   48.40    6.10
   2  -1   3   28.80    5.60
   2  -1   3   36.40    6.20
  -2   4  -3  122.39   13.60
   4  -2  -3  115.89   13.80
  -2   4  -3  110.69   13.60
   4  -2  -3  106.79   12.80
   2  -4   3  117.69   13.20
   2  -4   3  107.89   11.80
   2   2   3   90.59   10.50
  -4   2   3  116.49   14.40
  -4   2   3  123.89   12.60
  -4   2   3  119.89   13.30
   2  -4   3  113.49   11.00
  -3   0  -3   24.00    6.80
  -3   0  -3   23.80    5.90
  -3   0  -3   25.40    6.30
   0   3  -3   31.60    6.80
   3  -3  -3   38.60    6.50
   0   3  -3   33.80    6.50
   0  -3   3   28.90    5.70
   0  -3   3   36.00    6.10
  -3   3   3   28.60    7.40
   3   0  -3  115.99   11.80
  -3   3  -3  115.59   13.40
  -3   3  -3   93.19   12.30
  -3   3  -3  101.19   11.00
   3   0  -3  118.79   12.80
  -3   3  -3   74.79   11.10
  -3   0   3  117.69   12.90
   3  -3   3  116.19   12.10
   3  -3   3  102.49   11.40
  -3   0   3  108.99   12.40
  -3   0   3  104.59   11.40
  -3   6  -3   -4.60    7.40
   6  -3  -3    1.60   11.50
  -3  -3  -3  -27.50    9.90
  -3   6  -3   -5.10    8.40
   6  -3  -3   -0.80    8.90
   3  -6   3   -5.80    7.50
   3   3   3   -1.10    7.90
  -6   3   3    8.30    8.60
  -6   3   3   -8.50    9.80
   3   3   3    1.10   10.90
  -6   3   3   -8.10    9.90
   3  -6   3    4.80    6.50
  -6   3   3  -15.80   10.20
   3   3   3    5.60    7.20
  -1   5  -3  103.79   13.50
  -4  -1  -3  102.69   16.00
  -4  -1  -3   78.89   11.70
   5  -4  -3  109.79   14.00
   5  -4  -3  114.39   13.60
  -1   5  -3   91.79   12.70
  -5   4   3   87.69   12.00
   4   1   3   94.79   15.00
   4   1   3   99.69   13.60
   1  -5   3  115.59   13.70
  -5   4   3   94.09   14.80
  -4   2  -3   98.59   13.60
  -4   2  -3  126.39   13.50
  -4   2  -3  119.59   13.30
   4  -2   3  115.69   13.30
   4  -2   3  127.09   13.50
  -2  -2   3  101.49   11.70
  -2  -2   3  121.09   12.30
  -4   5  -3   41.80    9.70
  -4   5  -3   36.90    7.80
   5  -1  -3   46.70   10.10
  -4   5  -3   27.50    7.80
  -4   5  -3   27.60   10.70
   5  -1  -3   29.80   11.00
  -5   1   3   42.50   10.60
   4  -5   3   37.00    9.10
  -5   1   3   47.20   10.70
  -5   1   3   16.30   11.20
  -5   1   3   40.80   11.70
   1   4   3   24.40   11.30
   4  -5   3   36.00    9.90
   8  -4  -3  -17.80   11.50
  -4   8  -3    4.40   11.40
  -4  -4  -3  -15.10   12.80
  -4   8  -3   10.30    9.30
   8  -4  -3  -15.60   14.60
  -8   4   3  -18.60   12.00
   4   4   3   14.90   13.00
  -8   4   3  -15.30   13.00
  -8   4   3    8.20   12.10
   4   4   3   -4.20   10.70
   4   4   3   21.40   10.20
   4  -8   3   11.60    9.30
   4  -8   3   20.00    8.60
  -8   4   3  -12.30   11.20
  -5  -2  -3   10.80   11.70
   7  -5  -3   33.10   12.70
   7  -5  -3   18.90   10.10
  -2   7  -3   17.60    8.80
  -2   7  -3   23.50    9.40
  -7   5   3   27.80    9.60
   5   2   3   28.70   12.80
  -7   5   3   22.80    9.00
  -7   5   3   32.40   12.90
  -7   5   3    6.80   10.20
   5   2   3   28.00   10.10
   4  -5  -3   95.19   11.00
  -5   1  -3  108.79   15.80
  -5   1  -3  123.49   14.40
  -5   1  -3  106.09   13.70
   1   4  -3  107.09   16.50
   1   4  -3   87.19   12.30
  -1  -4   3   92.59   11.70
   5  -1   3  108.29   13.70
   5  -1   3   95.79   12.60
  -4   5   3  102.89   14.50
   4   1  -3   20.30    8.10
  -5   4  -3   27.30   11.70
   4   1  -3   36.40   11.40
  -5   4  -3   28.20    9.90
   4   1  -3   27.90    8.00
  -5   4  -3   20.50    8.80
   5  -4   3   45.60   11.50
  -4  -1   3   41.90   11.10
   5  -4   3   24.60   10.60
  -4  -1   3   30.20   11.00
  -4  -1   3   21.60    8.90
   7  -2  -3    9.70   12.50
  -5   7  -3   13.50    9.30
   7  -2  -3   13.20    9.80
  -5   7  -3   10.10   12.20
  -2  -5  -3    1.90   10.90
  -7   2   3   -0.40   10.60
  -7   2   3   10.60   11.70
   5  -7   3   14.40    9.10
  -7   2   3   28.80   12.60
   2   5   3   18.50    9.70
   2   5   3   21.80   11.30
   5  -7   3   13.60    9.70
  -7   2   3   -1.50   10.20
  -5  10  -3    1.90   12.30
  10  -5  -3   17.70   18.70
  -5  10  -3   28.60   15.40
  -5  -5  -3   -7.00   15.90
 -10   5   3   16.60   14.40
 -10   5   3   -7.50   15.40
   5   5   3   -0.90   12.60
   5   5   3  -23.80   13.00
 -10   5   3   -2.30   15.40
   9  -6  -3   16.10   16.50
  -3   9  -3    1.60   10.70
  -6  -3  -3   10.90   15.70
  -3   9  -3   -3.50   11.70
  -6  -3  -3   -5.40   12.00
   9  -6  -3   -1.00   13.20
  -6  -3  -3    3.80    9.90
   6   3   3   17.90   14.20
  -9   6   3    6.20   11.30
  -9   6   3    4.50   12.70
  -9   6   3    8.60   15.40
   6   3   3  -10.40   12.10
   0   6  -3  117.49   14.00
  -6   0  -3   98.09   14.00
   0   6  -3  103.69   14.60
  -6   0  -3  122.59   17.60
   6  -6  -3  110.99   14.90
  -6   0  -3  113.99   15.80
   0   6  -3  111.79   15.20
   6  -6  -3  114.39   14.70
   6   0   3  123.49   15.50
  -6   6   3   95.59   16.90
  -6   3  -3   13.40   10.10
  -6   3  -3   -1.20    8.50
   3   3  -3   -2.50   10.30
  -6   3  -3   24.10   10.50
  -3  -3   3    9.70    8.30
  -3   6   3   -0.30    7.40
  -3  -3   3    0.50    7.60
   6  -3   3    2.00    9.40
   6  -3   3   17.40   10.30
  -3  -3   3   12.70    9.40
   6   0  -3   70.99   13.90
   6   0  -3   76.89   12.80
  -6   6  -3   63.09   14.80
  -6   6  -3   75.99   13.80
  -6   6  -3   58.09   10.40
   6   0  -3   40.60   11.00
   6  -6   3   78.79   13.40
  -6   0   3   77.39   14.80
   6  -6   3   66.89   13.40
  -6   0   3   53.49   12.20
  -6   0   3   79.99   13.00
   0   6   3   84.99   12.00
   0   6   3   71.79   16.10
  -6   0   3   81.89   15.10
   9  -3  -3   27.30   13.10
  -6   9  -3   35.30   16.60
   9  -3  -3   -0.30   15.90
  -3  -6  -3    7.30   15.00
  -6   9  -3   22.10   12.70
   6  -9   3   -2.10   12.00
   3   6   3    4.50   13.60
   6  -9   3   20.20   13.00
  -9   3   3    9.00   14.70
  -9   3   3   14.50   15.50
   3   6   3   15.10   10.60
   3   6   3   16.10   11.70
  -9   3   3   14.10   13.60
  -9   3   3    5.90   13.80
  -6  12  -3    9.20   13.00
  -6  -6  -3   10.50   19.50
  -6  12  -3   25.30   18.50
 -12   6   3  -13.50   17.80
   6   6   3  -15.10   17.00
   6   6   3   27.90   16.00
  -4  11  -3    5.70   11.20
  11  -7  -3  -11.50   20.70
  -7  -4  -3   -5.70   16.50
  -4  11  -3    5.80   14.60
   7   4   3    2.10   15.70
 -11   7   3   -0.10   15.70
   7   4   3    3.80   15.10
 -11   7   3   17.40   19.40
  -7  -1  -3   -4.80   11.20
   8  -7  -3   -1.80   12.50
  -1   8  -3  -14.20    9.80
   8  -7  -3    3.10   15.50
  -7  -1  -3  -35.60   14.70
  -1   8  -3    1.80   10.80
  -1   8  -3   -7.80    9.80
  -7  -1  -3  -10.20   12.70
   7   1   3   17.20   15.00
  -8   7   3    5.40   12.10
   7   1   3   -9.70   14.60
  -8   7   3    2.90   14.50
  -7   2  -3    7.80   11.30
   2   5  -3   37.60   13.50
   2   5  -3    6.10    7.10
  -7   2  -3   26.70   12.10
   5  -7  -3   16.10    7.30
  -7   2  -3   19.20   11.70
  -7   2  -3   22.60   10.00
   7  -2   3   31.10   11.20
  -5   7   3   29.30   11.20
   7  -2   3   31.00   11.50
   7  -2   3   22.80    9.40
  -2  -5   3    8.60   10.60
  -7   5  -3   26.40    9.70
  -7   5  -3   20.70   12.90
  -7   5  -3   23.40   10.10
   5   2  -3    9.40   11.70
   7  -5   3   20.50   11.30
  -5  -2   3   12.90    9.00
  -5  -2   3   11.30   11.50
  -5  -2   3    1.60   10.10
   7  -5   3   26.10   12.50
  -7   8  -3   25.60   14.00
   8  -1  -3   29.70   15.20
   8  -1  -3   22.20   14.80
  -1  -7  -3   17.50   14.50
   8  -1  -3   13.60   12.10
  -7   8  -3   -2.80   15.60
  -8   1   3    3.20   13.50
  -8   1   3   27.60   17.50
   1   7   3   32.80   17.10
  -8   1   3   36.20   14.20
   7  -8   3   13.10   13.90
  -8   1   3   32.50   15.70
   1   7   3   19.20   11.70
   7  -8   3    5.10   14.70
  -7  11  -3   34.30   15.40
  -4  -7  -3   18.90   17.90
  -7  11  -3   17.40   17.70
 -11   4   3   12.10   17.00
 -11   4   3    3.70   16.80
   4   7   3   14.70   14.80
   4   7   3    4.10   15.50
  -8  -2  -3   22.30   16.90
  -2  10  -3   -1.80   12.90
  -2  10  -3   10.10   10.70
  10  -8  -3   -3.90   16.00
 -10   8   3    1.50   13.30
   8   2   3   32.80   15.40
   8   2   3  -13.10   15.70
 -10   8   3   17.70   18.90
  -8   1  -3   16.90   14.40
   1   7  -3   26.40   12.70
   1   7  -3   -9.70    9.50
   7  -8  -3   20.90   14.10
  -8   1  -3   -8.60   13.50
  -8   1  -3   47.70   14.40
   1   7  -3  -15.30   16.10
   7  -8  -3   27.50   12.70
  -1  -7   3    2.20   12.80
  -7   8   3   23.70   15.70
   8  -1   3   -9.00   13.00
   8  -1   3   27.10   12.20
  -8   4  -3    8.20   12.50
  -8   4  -3  -28.30   12.50
   4   4  -3   15.10   12.50
  -8   4  -3   -5.40   10.60
  -8   4  -3   12.50   11.20
  -4  -4   3    2.30   11.50
  -4   8   3   22.50   10.60
   8  -4   3    9.90   10.70
  -4  -4   3    0.50   11.20
  -4  -4   3   12.80    9.40
   8  -4   3    9.00   13.80
  -8   7  -3    7.60   11.80
  -8   7  -3   15.30   11.60
  -8   7  -3    7.30   17.20
   7   1  -3   26.00   15.00
  -7  -1   3   47.20   17.60
  -7  -1   3   22.80   13.40
   8  -7   3  -14.70   14.40
  -1   8   3   25.10   11.80
   8  -7   3   16.90   15.10
  -7  -1   3   34.20   15.50
  -8  10  -3    5.40   14.90
  -2  -8  -3   45.90   18.30
  -8  10  -3  -12.30   16.20
  10  -2  -3   19.20   17.50
 -10   2   3   -9.60   17.60
 -10   2   3   -7.80   16.40
   2   8   3   13.50   16.20
 -10   2   3    3.40   15.20
   2   8   3   12.80   13.10
   0   9  -3  -13.20   12.90
  -9   0  -3  -26.60   16.20
  -9   9   3   11.20   19.00
   0  -9   3    2.60   14.30
   9   0   3  -19.80   14.50
  -9   3  -3   -5.20   15.00
   6  -9  -3   16.40   10.30
   3   6  -3   17.20   15.20
  -9   3  -3   22.30   14.40
  -9   3  -3  -10.40   12.60
  -6   9   3   10.50   12.70
   9  -3   3   -5.00   14.50
  -3  -6   3   11.30   13.60
  -3  -6   3    6.00   11.40
  -9   6  -3   16.00   13.40
  -9   6  -3  -14.90   14.90
  -9   6  -3   22.60   12.90
   6   3  -3   17.90   15.10
  -9   6  -3   12.20   11.90
  -6  -3   3   21.30   15.60
  -6  -3   3   16.60   13.40
   9  -6   3    8.50   15.40
  -6  -3   3   -0.10   11.30
   9  -6   3   19.10   14.40
  -9   9  -3    6.40   21.00
  -9   9  -3   53.19   18.10
   0  -9  -3    4.30   16.00
   9   0  -3   -7.20   17.10
  -9   0   3    6.00   16.50
  -9   0   3   26.40   20.70
   0   9   3   23.20   13.30
   9  -9   3   43.10   18.40
 -10  -1  -3   31.00   19.40
  -1  11  -3   -4.50   13.70
 -11  10   3    3.40   19.60
  10   1   3   -3.60   18.00
 -10   2  -3   -6.00   18.10
 -10   2  -3    8.70   16.90
   2   8  -3    6.30   18.00
   2   8  -3   27.70   12.10
  -2  -8   3   -4.80   14.70
  -8  10   3   23.40   17.60
 -10   5  -3   14.40   17.10
 -10   5  -3   -9.20   13.40
 -10   5  -3    7.50   14.20
   5   5  -3   19.60   14.50
  -5  10   3   16.60   12.70
  10  -5   3    2.90   17.90
  -5  -5   3    4.20   14.90
 -10   8  -3  -13.20   17.80
   8   2  -3   17.90   15.40
  10  -8   3    4.10   16.80
  10  -8   3   21.40   19.50
  -8  -2   3   -0.70   15.80
 -10  11  -3   -0.30   17.80
 -10  11  -3  -14.60   20.30
  11  -1  -3   19.50   18.10
  -1 -10  -3    4.80   19.20
   1  10   3    0.90   14.80
 -11   1   3   19.80   18.50
   1  10  -3    1.50   13.90
 -11   1  -3  -15.20   17.20
  11  -1   3   -4.90   16.60
 -10  11   3    1.40   19.50
 -11   4  -3   23.30   16.70
   4   7  -3    0.10   15.60
 -11   4  -3   -9.70   15.20
  -7  11   3    3.20   14.80
  -4  -7   3   11.20   17.00
 -11   7  -3   24.40   19.60
 -11   7  -3   28.50   17.00
   7   4  -3   29.10   18.30
  -7  -4   3   13.80   16.20
  11  -7   3   30.40   20.70
  -4  11   3   17.30   12.50
 -11  10  -3   -2.00   17.90
 -11  10  -3   -9.10   19.80
  10   1  -3   11.90   18.00
 -10  -1   3   -7.60   16.90
 -12   6  -3   34.30   19.30
   6   6  -3    6.60   16.00
  -6  12   3  -16.60   14.60
  -6  -6   3   -6.60   17.00
  -6  12   3    6.70   11.70
   0   1  -4 1254.57   83.89
   1  -1  -4 1118.39   80.49
   1  -1  -4 1040.60   80.29
  -1   0  -4 1146.09   80.49
   0   1  -4 1217.38   81.19
  -1   0  -4 1161.38   80.59
   0   1  -4 1102.49   91.79
   0   1  -4 1158.58   80.79
  -1   0  -4 1042.20   91.39
  -1   1   4 1115.49   83.49
   0  -1   4 1211.28   83.59
   0  -1   4 1199.38   80.79
   0  -1   4 1104.29   91.79
   1   0   4 1237.48   83.39
   0  -1   4 1213.58   81.19
   1   0   4 1100.59   91.59
  -1   3  -4  404.86   28.90
  -1   3  -4  378.26   31.10
   3  -2  -4  332.37   27.80
  -1   3  -4  358.86   26.70
  -2  -1  -4  289.77   29.50
   2   1   4  333.87   27.80
  -3   2   4  349.67   29.10
   1  -3   4  357.76   30.80
  -3   2   4  359.06   27.40
   1  -3   4  395.46   27.00
   1  -3   4  442.36   27.90
   2   1   4  309.87   30.00
  -2   2  -4  733.93   52.29
   2   0  -4  678.43   51.49
  -2   2  -4  691.23   56.59
   2   0  -4  650.33   49.90
  -2   2  -4  699.53   50.09
   2   0  -4  669.63   50.39
  -2   2  -4  697.93   49.70
   2  -2   4  697.33   50.19
  -2   0   4  636.14   50.19
  -2   0   4  703.03   51.79
   2  -2   4  725.43   49.99
   2  -2   4  707.83   56.69
  -2   5  -4   13.70    8.50
  -2   5  -4   12.80    8.90
   5  -3  -4   55.09   10.40
   5  -3  -4   27.20   11.20
   2  -5   4    9.30    7.60
   2  -5   4    6.30    8.10
   2  -5   4   -1.50    7.00
   3   2   4    5.90   10.40
  -5   3   4   19.10   11.20
   3   2   4    4.40    9.00
   3   2   4    6.70    7.50
  -5   3   4   26.60    9.90
  -3   1  -4  422.66   27.40
  -3   1  -4  337.27   30.30
  -3   1  -4  403.06   27.50
   1   2  -4  329.67   27.70
   1   2  -4  298.57   26.00
   1   2  -4  346.37   26.40
  -1  -2   4  346.57   27.10
  -2   3   4  337.87   27.30
   3  -1   4  364.06   26.90
  -1  -2   4  287.87   30.00
   3  -1   4  401.16   27.20
  -3   4  -4  216.18   20.10
  -3   4  -4  234.68   19.90
  -3   4  -4  296.07   23.20
   4  -1  -4  270.67   22.40
  -3   4  -4  216.18   23.20
   4  -1  -4  230.28   20.90
  -4   1   4  251.57   22.00
   3  -4   4  232.78   23.40
   3  -4   4  245.78   20.40
   3  -4   4  233.78   21.10
  -4   1   4  238.08   21.00
  -4   1   4  264.57   22.20
  -3   7  -4  450.55   44.40
  -4  -3  -4  487.15   42.40
   7  -4  -4  506.55   41.90
   7  -4  -4  525.75   41.20
  -3   7  -4  486.15   42.60
   4   3   4  506.45   41.20
   4   3   4  457.55   39.70
  -7   4   4  564.64   40.50
  -7   4   4  574.24   44.20
   3  -7   4  533.15   39.40
  -7   4   4  502.35   41.10
   3  -7   4  465.45   38.20
  -7   4   4  532.65   40.70
   4   3   4  494.85   43.20
  -4   0  -4 2724.73  186.48
  -4   0  -4 2763.42  186.68
   0   4  -4 2537.15  211.48
   4  -4  -4 2644.34  186.28
   4  -4  -4 2671.83  186.28
  -4   0  -4 2557.64  211.38
   0   4  -4 2707.93  192.98
   0  -4   4 2837.32  186.38
   0  -4   4 2439.26  210.88
  -4   4   4 2816.62  193.58
   4   0   4 2630.14  182.68
  -4   3  -4  252.97   22.80
  -4   3  -4  260.57   20.20
   3   1  -4  191.78   19.70
  -4   3  -4  240.38   21.80
   3   1  -4  190.48   19.80
  -4   3  -4  252.47   20.80
   4  -3   4  249.88   20.90
  -3  -1   4  210.88   19.90
  -3  -1   4  196.78   20.40
   4  -3   4  278.07   21.20
  -3  -1   4  210.68   21.60
  -4   6  -4  373.16   33.30
   6  -2  -4  360.16   30.20
   6  -2  -4  344.27   31.20
  -4   6  -4  385.76   32.40
   2   4   4  353.56   29.60
   2   4   4  315.97   32.00
  -6   2   4  345.47   31.80
  -6   2   4  339.67   30.90
   4  -6   4  336.27   28.40
   4  -6   4  343.77   29.50
  -6   2   4  364.16   29.90
  -6   2   4  364.86   31.20
   9  -5  -4   22.20   14.20
  -5  -4  -4   34.90   16.90
   9  -5  -4   42.50   18.10
  -4   9  -4   17.80   14.10
  -4   9  -4   23.10   12.50
  -9   5   4   17.50   16.20
   4  -9   4   22.60   10.20
   4  -9   4   17.20   11.60
   5   4   4   21.30   12.60
  -9   5   4   15.30   14.20
  -9   5   4   -1.20   12.00
   5   4   4   45.50   16.20
  -5  -1  -4   89.79   12.80
  -1   6  -4   77.29   13.50
  -1   6  -4   84.19   13.70
  -5  -1  -4  114.29   13.20
   6  -5  -4   95.49   13.70
  -5  -1  -4  120.09   14.10
  -5  -1  -4  124.49   17.50
   6  -5  -4  102.59   14.60
   5   1   4   94.19   15.60
   5   1   4  110.39   14.30
  -6   5   4   86.69   15.90
  -5   2  -4   27.30   10.30
  -5   2  -4    5.20    9.40
  -5   2  -4    5.10    9.00
  -5   2  -4   14.30    8.50
   2   3  -4    7.90   10.30
  -2  -3   4   24.50    8.90
  -2  -3   4   22.10    8.10
  -3   5   4   14.00    7.50
   5  -2   4   -0.50    9.30
   5  -2   4    6.70    8.80
  -5   5  -4  708.73   52.49
  -5   5  -4  749.82   56.39
   5   0  -4  642.34   52.59
  -5   5  -4  711.83   59.49
   5   0  -4  645.74   54.99
   5   0  -4  666.63   52.39
  -5   5  -4  712.63   51.59
   0   5   4  623.24   50.89
   5  -5   4  700.63   52.89
  -5   0   4  687.03   54.29
  -5   0   4  703.93   52.59
   0   5   4  726.43   56.09
  -5   0   4  728.03   53.59
  -5   0   4  719.43   53.59
   5  -5   4  731.03   52.59
  -5   8  -4  200.98   21.10
  -3  -5  -4  123.99   20.80
   8  -3  -4  149.69   22.20
   8  -3  -4  116.19   19.50
  -5   8  -4  152.58   21.60
  -8   3   4  130.29   20.30
  -8   3   4  162.98   20.10
  -8   3   4  142.69   21.10
   3   5   4  134.29   16.20
   3   5   4  107.19   19.60
   3   5   4  120.59   18.00
  -8   3   4  133.99   21.50
   5  -8   4  147.39   17.90
   5  -8   4  143.49   17.00
  -5  11  -4   34.00   15.20
  -6  -5  -4   23.40   19.00
  -5  11  -4   14.70   16.10
  11  -6  -4   20.70   22.00
   6   5   4   25.70   15.30
 -11   6   4    4.60   15.40
 -11   6   4   -4.10   17.50
   6   5   4   13.60   16.90
  -6  -2  -4  173.18   19.10
   8  -6  -4  140.19   19.60
   8  -6  -4  136.89   21.70
  -6  -2  -4  132.59   18.20
  -6  -2  -4  127.49   16.90
  -2   8  -4  158.88   19.70
  -2   8  -4  122.99   19.10
  -6  -2  -4  174.38   23.40
  -8   6   4  154.48   24.00
   6   2   4  160.58   22.30
   2  -8   4  155.98   17.20
  -8   6   4  137.29   17.20
   6   2   4  147.89   19.40
  -8   6   4  162.68   20.30
   1   5  -4  122.49   14.30
   5  -6  -4   84.89   11.80
  -6   1  -4  107.49   14.60
   5  -6  -4   87.19   12.40
   1   5  -4  162.18   19.00
  -6   1  -4  104.99   14.10
  -6   1  -4  117.19   16.50
   6  -1   4   74.79   11.90
  -5   6   4   68.69   14.60
  -1  -5   4   94.59   14.20
   6  -1   4   97.09   13.80
   6  -1   4   99.89   13.50
  -1  -5   4   99.99   12.30
  -6   4  -4  371.26   30.80
  -6   4  -4  379.26   35.00
  -6   4  -4  396.96   34.80
   4   2  -4  353.06   33.50
  -6   4  -4  387.66   31.50
   6  -4   4  376.06   31.70
  -4  -2   4  321.27   31.50
   6  -4   4  386.96   31.70
  -4  -2   4  351.56   30.30
  -4  -2   4  386.16   32.20
   7  -1  -4  251.37   21.30
   7  -1  -4  184.48   22.50
   7  -1  -4  213.98   23.60
  -6   7  -4  186.58   23.40
  -6   7  -4  189.68   18.20
  -6   7  -4  192.38   24.40
   1   6   4  179.28   24.00
   6  -7   4  147.79   20.20
  -7   1   4  189.18   23.50
  -7   1   4  161.18   23.20
   6  -7   4  179.48   21.30
   1   6   4  189.98   20.10
  -7   1   4  227.88   23.10
  -7   1   4  220.18   21.50
  10  -4  -4   46.80   20.00
  -6  10  -4   67.39   21.80
  -4  -6  -4   70.89   20.80
  -6  10  -4   62.29   17.00
 -10   4   4   24.30   17.70
   4   6   4   44.00   15.50
 -10   4   4   78.49   17.90
 -10   4   4   54.19   18.90
   4   6   4   70.89   18.50
  -3  10  -4   38.80   15.30
  10  -7  -4   41.20   17.70
  -7  -3  -4   40.80   20.40
  10  -7  -4   18.80   19.50
  -3  10  -4   -2.50   14.70
   7   3   4   27.70   16.20
 -10   7   4   29.60   20.80
 -10   7   4   33.90   16.50
   7   3   4   36.70   18.50
  -7   0  -4   77.99   15.50
   0   7  -4   79.19   14.00
   7  -7  -4   61.19   13.80
   7  -7  -4   69.69   14.80
  -7   0  -4   70.69   17.60
   0   7  -4   43.90   10.50
  -7   0  -4   78.49   13.70
   0   7  -4   58.39   12.90
   7   0   4   84.59   18.00
  -7   7   4   68.39   17.30
   0  -7   4   61.69   13.50
   7   0   4   68.79   14.70
  -7   7   4   45.50   12.70
  -7   3  -4  491.15   40.30
   3   4  -4  545.25   43.10
  -7   3  -4  445.86   41.60
  -7   3  -4  476.95   39.90
  -7   3  -4  486.75   40.10
   7  -3   4  485.05   39.10
   7  -3   4  483.15   39.60
  -3  -4   4  509.85   40.30
  -4   7   4  462.05   39.80
  -3  -4   4  522.85   39.40
   7  -3   4  501.95   40.30
  -3  -4   4  496.75   38.50
  -7   6  -4  155.38   18.60
  -7   6  -4  156.08   19.20
  -7   6  -4  153.58   21.50
   6   1  -4  192.78   18.00
   6   1  -4  172.38   22.10
  -7   6  -4  203.78   24.80
   6   1  -4  182.18   18.80
   7  -6   4  161.28   20.50
  -6  -1   4  176.98   22.00
  -1   7   4  185.38   18.10
  -6  -1   4  169.98   22.30
  -6  -1   4  175.48   19.50
   7  -6   4  179.18   21.40
   9  -2  -4   68.29   18.30
   9  -2  -4   42.90   18.10
  -2  -7  -4   51.69   17.30
  -7   9  -4   61.79   19.00
  -7   9  -4   67.09   16.60
  -9   2   4   73.89   19.40
  -9   2   4   56.39   16.00
   2   7   4   70.89   18.80
   7  -9   4   75.89   15.80
   7  -9   4   42.20   16.00
   2   7   4   27.20   13.70
  -9   2   4   43.50   17.60
  -7  12  -4   60.29   18.40
  -5  -7  -4   72.29   24.70
  -7  12  -4   64.99   21.80
   5   7   4   54.79   19.90
 -12   5   4   67.79   21.90
   5   7   4   35.80   19.40
  -4  12  -4  247.18   35.30
   8   4   4  366.16   38.80
 -12   8   4  272.77   39.40
  -8  -1  -4  137.99   25.00
   9  -8  -4  103.49   20.10
  -1   9  -4  105.69   18.40
  -1   9  -4  133.69   20.60
   8   1   4  113.49   21.60
  -9   8   4  108.69   18.50
  -9   8   4   97.29   22.50
   8   1   4  153.58   24.70
   2   6  -4  159.78   19.20
   6  -8  -4  139.79   16.40
   6  -8  -4  124.59   16.50
   2   6  -4  167.28   23.50
  -8   2  -4  164.28   22.80
  -8   2  -4  170.38   21.10
  -8   2  -4  143.39   19.10
   8  -2   4  164.88   21.50
  -6   8   4  172.28   22.20
   8  -2   4   80.19   16.10
  -2  -6   4  140.09   19.60
  -2  -6   4  120.19   16.60
   8  -2   4  111.69   16.60
  -8   5  -4  162.48   23.10
   5   3  -4  149.29   21.70
  -8   5  -4  162.88   19.40
  -8   5  -4  120.79   17.90
  -8   5  -4  137.49   19.00
   8  -5   4  166.78   21.10
  -5  -3   4  117.69   17.30
  -5  -3   4  141.79   19.70
  -5  -3   4  128.49   20.10
   8  -5   4  185.28   20.50
  -8   8  -4 1312.87  109.69
   8   0  -4 1469.75  109.29
  -8   0   4 1397.96  103.79
  -8   0   4 1431.26  104.69
   8  -8   4 1476.05  104.29
   8  -8   4 1334.57  103.29
  -8   0   4 1428.16  103.59
   0   8   4 1322.57   99.99
  -3  -8  -4   62.69   20.80
  -8  11  -4   46.20   17.00
  -8  11  -4   35.70   20.40
   3   8   4   42.40   19.30
   3   8   4   58.69   16.50
 -11   3   4   59.59   19.00
 -11   3   4   43.90   19.80
  -9  -2  -4   19.00   19.70
  -2  11  -4   47.80   16.30
  -2  11  -4   35.50   14.10
 -11   9   4   71.29   22.90
   9   2   4   19.00   16.30
   9   2   4   30.40   20.10
   1   8  -4  137.79   20.20
  -9   1  -4  112.99   22.10
  -9   1  -4  105.59   20.40
  -1  -8   4  118.99   19.70
  -8   9   4   61.99   19.90
   9  -1   4  126.39   20.30
  -9   4  -4    4.30   14.00
  -9   4  -4   33.70   14.60
  -9   4  -4   16.80   14.00
  -9   4  -4   34.40   16.20
   4   5  -4   45.70   15.30
  -4  -5   4   18.80   13.50
   9  -4   4   -6.40   16.20
  -5   9   4    9.90   11.50
  -4  -5   4   42.50   12.20
  -4  -5   4   -9.80   14.40
  -9   7  -4   50.29   15.70
   7   2  -4   50.79   16.90
  -9   7  -4   36.50   20.10
  -9   7  -4   56.59   17.40
   9  -7   4   59.29   18.50
  -7  -2   4   52.09   18.40
  -7  -2   4   45.30   15.80
  -7  -2   4   27.90   15.80
  -2   9   4   38.40   12.50
   9  -7   4   54.39   16.90
  -1  -9  -4   12.00   17.20
  10  -1  -4    8.60   15.80
  -9  10  -4    0.00   16.20
  -9  10  -4   16.60   19.60
   1   9   4   -2.70   12.00
   1   9   4  -21.50   17.30
 -10   1   4   -1.60   16.70
 -10   1   4  -19.30   19.30
 -10   0  -4  100.69   23.30
   0  10  -4  115.49   21.50
  10   0   4   81.39   22.50
 -10  10   4  147.19   26.00
   3   7  -4   42.40   13.50
 -10   3  -4   -3.00   17.80
 -10   3  -4   65.99   18.10
 -10   3  -4   22.00   17.40
   3   7  -4   67.29   20.70
  -7  10   4   48.80   18.10
  -3  -7   4   23.90   17.30
 -10   6  -4   78.09   17.80
   6   4  -4   43.40   18.50
 -10   6  -4   55.89   16.70
 -10   6  -4   72.09   20.90
  -4  10   4   45.40   13.90
  10  -6   4   72.69   21.00
  -6  -4   4   33.20   17.90
 -10   9  -4    1.80   20.10
   9   1  -4   32.60   18.30
 -10   9  -4   -1.40   15.70
   1 -10  -4   11.00   15.80
  10  -9   4    7.20   16.50
  -1  10   4   11.00   12.40
  -9  -1   4   -3.60   16.70
 -11   2  -4   36.90   19.70
   2   9  -4   43.40   15.30
  -9  11   4   15.20   18.50
  -2  -9   4   33.00   18.00
 -11   5  -4    7.40   15.90
   5   6  -4   13.60   16.10
 -11   5  -4   36.70   16.50
  -5  -6   4   -6.60   15.60
  -6  11   4   14.90   14.10
 -11   8  -4   32.40   17.70
 -11   8  -4   31.00   22.00
   8   3  -4   70.99   20.40
  11  -8   4   53.89   21.60
  -8  -3   4   38.40   18.70
 -12   4  -4  276.37   34.20
   4   8  -4  300.27   31.10
  -8  12   4  204.38   34.40
   7   5  -4   38.30   19.90
  -5  12   4   29.30   12.30
  -7  -5   4   76.89   21.60
  -5  12   4   27.70   16.10
  -1   1  -5 1648.24  112.19
  -1   1  -5 1655.93  116.09
  -1   1  -5 1640.34  111.89
   1   0  -5 1559.84  112.19
  -1   1  -5 1450.95  126.79
   1   0  -5 1587.64  115.69
  -1   0   5 1688.63  115.89
  -1   0   5 1540.85  112.19
  -1   0   5 1458.65  111.59
   1  -1   5 1531.35  126.99
   1  -1   5 1765.22  115.89
   1  -1   5 1644.24  111.89
   1  -1   5 1616.04  112.19
   0   1   5 1579.04  115.19
   0   2  -5  725.83   48.80
   2  -2  -5  619.34   46.20
  -2   0  -5  569.14   46.10
   0   2  -5  712.73   53.19
  -2   0  -5  631.74   52.39
  -2   0  -5  595.64   46.00
   2  -2  -5  590.04   45.60
   0   2  -5  649.24   46.80
   2   0   5  650.73   52.69
   0  -2   5  646.64   52.79
   0  -2   5  675.63   48.20
   0  -2   5  643.84   46.50
  -2   2   5  666.13   48.30
   0  -2   5  628.84   46.90
  -2   3  -5  999.50   71.79
  -2   3  -5  955.20   68.39
  -2   3  -5  930.51   77.99
   3  -1  -5  932.81   69.29
  -2   3  -5 1007.70   68.99
   3  -1  -5  918.41   68.69
   2  -3   5  954.70   68.99
   2  -3   5  955.70   68.39
   2  -3   5  930.51   77.89
  -3   1   5 1016.40   71.79
  -3   1   5  924.21   68.89
   4  -3  -5  369.36   30.10
   4  -3  -5  362.76   29.30
  -1   4  -5  374.56   28.40
  -1   4  -5  364.26   30.80
  -3  -1  -5  362.76   32.00
  -1   4  -5  377.46   33.60
   1  -4   5  351.06   33.00
   1  -4   5  364.96   28.80
   3   1   5  382.36   29.50
  -4   3   5  427.36   32.00
   1  -4   5  380.76   29.60
  -4   3   5  380.96   29.00
   2   1  -5 1006.50   70.09
  -3   2  -5  972.60   72.89
  -3   2  -5  963.50   70.19
   2   1  -5  987.30   72.29
  -3   2  -5  937.31   69.69
   2   1  -5 1004.10   69.79
  -3   2  -5  858.81   78.89
   3  -2   5  925.31   70.19
   3  -2   5 1001.40   70.09
   3  -2   5  994.90   79.49
  -2  -1   5 1007.60   70.49
  -2  -1   5 1023.00   72.39
  -3   5  -5  109.29   11.30
   5  -2  -5   90.19   14.30
  -3   5  -5  107.49   14.10
   5  -2  -5   75.39   12.60
  -3   5  -5   92.89   13.90
  -3   5  -5   76.49   10.80
   2   3   5  100.29   13.00
  -5   2   5  112.19   14.90
   3  -5   5   85.89   12.80
   3  -5   5   90.79   11.40
  -5   2   5   95.09   14.20
   2   3   5   89.79   14.60
   3  -5   5   85.19   12.40
  -5   2   5   96.69   14.40
  -2   6  -5   67.39   12.40
  -2   6  -5   71.29   13.00
   6  -4  -5   66.19   13.90
   6  -4  -5   69.59   12.10
  -6   4   5   61.99   13.20
   2  -6   5   62.99   11.00
  -6   4   5   66.89   14.20
  -6   4   5   61.99   11.30
   4   2   5   59.49   12.20
   2  -6   5   64.49    9.90
   4   2   5   73.89   12.30
   4   2   5   81.59   14.50
   1   3  -5  379.86   28.10
  -4   1  -5  376.06   29.60
   1   3  -5  427.86   30.80
  -4   1  -5  350.66   29.40
  -4   1  -5  384.06   32.90
  -1  -3   5  389.56   29.50
  -3   4   5  377.86   30.10
   4  -1   5  350.46   28.90
   4  -1   5  312.27   28.50
  -1  -3   5  354.26   32.60
  -4   4  -5  806.32   63.39
   4   0  -5  876.71   60.99
  -4   4  -5  883.21   60.39
   4   0  -5  848.42   60.09
  -4   4  -5  686.83   67.29
  -4   4  -5  813.02   59.29
   4  -4   5  867.01   60.49
   4  -4   5  787.82   59.59
  -4   0   5  755.22   61.89
  -4   0   5  859.01   60.19
  -4   0   5  829.42   60.99
  -4   0   5  706.53   59.89
   7  -3  -5  316.37   28.40
  -4   7  -5  285.07   28.60
   7  -3  -5  290.87   26.50
  -4   7  -5  258.17   28.40
   3   4   5  271.67   28.80
  -7   3   5  281.57   27.40
  -7   3   5  266.67   27.90
   3   4   5  259.27   23.70
   4  -7   5  263.97   24.00
   4  -7   5  288.07   25.90
   3   4   5  246.78   25.60
  -7   3   5  329.77   27.30
  -7   3   5  319.97   26.30
  -3   8  -5   40.80   14.10
   8  -5  -5   82.89   15.40
  -3   8  -5   32.90   12.40
   8  -5  -5   73.89   17.90
  -5  -3  -5   54.39   15.90
  -8   5   5   64.39   17.00
  -8   5   5   56.89   14.90
   5   3   5   70.69   14.10
   5   3   5   42.70   13.30
   3  -8   5   52.69   10.60
   3  -8   5   50.99   12.30
  -8   5   5   46.70   13.10
   5   3   5   31.50   15.20
   0   5  -5  169.98   20.00
   5  -5  -5  163.58   16.50
  -5   0  -5  170.18   20.70
   5  -5  -5  182.78   18.10
  -5   0  -5  167.08   18.00
  -5   0  -5  160.18   19.30
  -5   0  -5  152.48   17.90
   0   5  -5  171.98   18.10
   5   0   5  183.48   19.10
   0  -5   5  160.18   16.70
  -5   5   5  185.88   20.90
   0  -5   5  158.08   18.40
   3   2  -5   78.49   10.90
  -5   3  -5   77.79   12.80
   3   2  -5  110.89   14.80
  -5   3  -5   77.69   11.90
   3   2  -5   92.69   10.90
  -5   3  -5   81.69   14.10
  -5   3  -5   80.79   13.00
  -3  -2   5   84.19   13.50
   5  -3   5   94.29   13.70
  -3  -2   5   93.49   12.20
  -3  -2   5  101.99   13.70
   5  -3   5   94.69   13.30
   6  -1  -5   97.39   13.80
  -5   6  -5   46.30    9.80
  -5   6  -5   77.89   15.60
  -5   6  -5   93.29   11.60
   6  -1  -5   74.29   13.80
   6  -1  -5   91.09   15.60
  -5   6  -5   63.79   12.80
   1   5   5   86.19   13.00
  -6   1   5   80.49   15.30
   5  -6   5   89.69   13.30
  -6   1   5   82.79   15.30
  -6   1   5  111.89   14.00
   1   5   5  100.39   15.20
   5  -6   5   90.99   13.80
  -6   1   5   85.19   14.80
   9  -4  -5  194.38   23.10
  -5   9  -5  193.48   23.70
  -4  -5  -5  204.08   26.00
  -5   9  -5  177.58   25.40
   9  -4  -5  140.79   23.90
   4   5   5  204.18   24.90
  -9   4   5  217.48   22.00
   5  -9   5  153.98   19.70
  -9   4   5  191.18   24.80
   4   5   5   98.09   18.80
   5  -9   5  138.59   20.80
  -9   4   5  157.48   22.00
   4   5   5  180.28   22.00
  -9   4   5  168.48   25.10
  -6  -4  -5   28.00   19.40
  10  -6  -5   -2.50   19.60
  -4  10  -5   19.60   16.40
  -4  10  -5   23.10   15.20
  10  -6  -5   33.20   17.60
   6   4   5   17.50   14.30
 -10   6   5   18.60   17.10
   6   4   5   27.90   18.10
 -10   6   5   14.50   19.20
  -6  -1  -5  422.06   35.20
   7  -6  -5  360.16   32.00
  -6  -1  -5  379.66   31.70
  -1   7  -5  359.86   33.20
  -6  -1  -5  378.46   31.90
  -1   7  -5  367.96   35.60
  -6  -1  -5  388.46   35.10
   7  -6  -5  334.87   32.50
   6   1   5  362.56   35.30
  -7   6   5  413.56   36.00
   1  -7   5  316.47   30.40
   6   1   5  382.06   32.10
  -7   6   5  371.56   32.60
   2   4  -5   93.69   15.60
  -6   2  -5   63.39   12.40
  -6   2  -5   72.39   13.20
   2   4  -5   73.19   12.00
  -6   2  -5   76.19   13.90
  -6   2  -5   65.89   11.80
  -6   2  -5   45.20   11.60
   6  -2   5   42.70   10.50
  -4   6   5   51.29   11.70
  -2  -4   5   68.19   12.00
  -2  -4   5   80.79   11.00
   6  -2   5   50.89   11.30
   6  -2   5   66.99   12.50
  -2  -4   5   72.49   13.40
  -6   5  -5   74.79   12.20
   5   1  -5   82.99   14.40
  -6   5  -5   68.49   13.00
  -6   5  -5   67.49   13.60
   5   1  -5   86.19   12.10
  -6   5  -5   46.30   14.00
  -5  -1   5   76.29   12.60
  -5  -1   5   77.79   14.80
  -5  -1   5   70.99   12.40
   6  -5   5   80.59   14.20
   6  -5   5   67.89   14.40
  -5  -1   5   88.49   15.50
  -1   6   5  102.49   12.70
   8  -2  -5  100.39   20.40
  -6   8  -5  132.89   20.00
  -6   8  -5  123.99   23.50
   8  -2  -5  123.49   19.00
  -8   2   5  133.39   21.40
   6  -8   5  109.19   19.00
   6  -8   5  118.19   18.50
  -8   2   5  139.09   19.20
   2   6   5  145.89   19.80
   2   6   5  144.59   21.40
  -8   2   5  102.99   19.90
  -8   2   5  179.38   22.90
  -5  -6  -5   55.29   20.60
  -6  11  -5   57.29   17.70
  -6  11  -5   35.40   17.90
   5   6   5   46.10   15.40
 -11   5   5   33.10   18.60
 -11   5   5   33.20   19.10
   5   6   5   32.70   17.70
  -5  12  -5   73.59   21.50
  -7  -5  -5   91.49   26.00
 -12   7   5   55.69   24.20
   7   5   5   85.49   21.30
   7   5   5   60.19   21.60
 -12   7   5   39.10   20.50
   9  -7  -5    2.50   13.80
   9  -7  -5   25.40   17.30
  -2   9  -5   23.50   13.00
  -7  -2  -5   38.40   17.90
  -2   9  -5    9.30   14.10
  -9   7   5   15.40   13.80
   7   2   5   45.20   17.30
   7   2   5   -2.40   12.40
  -9   7   5   24.50   17.50
  -7   1  -5  379.96   34.50
  -7   1  -5  335.37   32.30
   6  -7  -5  349.07   30.80
   6  -7  -5  396.96   31.70
  -7   1  -5  388.66   33.10
  -7   1  -5  394.46   35.70
   1   6  -5  362.36   33.10
   1   6  -5  386.06   36.80
  -1  -6   5  384.76   31.30
  -6   7   5  360.46   34.30
  -1  -6   5  375.56   32.60
   7  -1   5  382.56   32.30
  -7   4  -5  296.57   26.10
  -7   4  -5  273.97   26.20
  -7   4  -5  257.17   25.60
  -7   4  -5  278.17   28.80
   4   3  -5  271.77   27.90
  -7   4  -5  281.87   28.80
   7  -4   5  266.37   25.80
  -4  -3   5  287.27   25.10
  -4  -3   5  269.37   26.80
   7  -4   5  311.67   27.20
  -4  -3   5  225.38   26.20
   7  -4   5  268.77   24.70
   7   0  -5   56.39   14.30
  -7   7  -5   42.30   16.70
  -7   7  -5   50.19   12.30
   7   0  -5   76.39   13.70
  -7   7  -5   58.49   15.30
  -7   7  -5   48.30   12.10
   7   0  -5  106.89   17.40
  -7   0   5   71.19   17.10
  -7   0   5   52.79   13.60
   0   7   5   64.89   17.00
   0   7   5   62.49   13.40
  -7   0   5   75.49   14.80
  -7   0   5   79.19   18.10
   7  -7   5   49.50   15.20
  -3  -7  -5  361.26   37.40
  -7  10  -5  341.37   39.20
  -7  10  -5  388.56   38.50
 -10   3   5  366.66   37.50
   3   7   5  357.76   33.90
 -10   3   5  353.76   34.40
   3   7   5  295.67   36.50
  11  -8  -5   29.90   18.70
  -3  11  -5    3.90   12.80
  -8  -3  -5   58.79   21.50
  -3  11  -5   32.10   16.70
   8   3   5   -3.80   15.40
 -11   8   5   25.20   20.70
 -11   8   5   14.80   16.50
   8   3   5   20.60   19.40
   8  -8  -5  728.83   56.19
  -8   0  -5  772.32   56.39
   8  -8  -5  693.03   55.29
   0   8  -5  711.23   57.19
   0  -8   5  612.44   54.09
  -8   8   5  706.83   59.49
   8   0   5  716.73   59.99
   8   0   5  634.14   54.99
  -8   8   5  624.04   53.39
  -8   3  -5   36.60   14.50
  -8   3  -5   47.90   13.10
   3   5  -5   43.90   12.30
   3   5  -5   66.19   16.50
  -8   3  -5   38.90   14.00
  -8   3  -5   65.69   16.30
  -8   3  -5   52.89   13.80
  -5   8   5   40.20   13.20
  -3  -5   5   43.90   14.40
  -3  -5   5   38.10   13.00
   8  -3   5   49.60   14.50
   8  -3   5   53.49   15.40
  -3  -5   5   51.99   11.70
   8  -3   5   53.99   12.80
  -8   6  -5  124.29   20.60
  -8   6  -5  148.49   24.20
   6   2  -5  182.48   22.70
  -8   6  -5  110.79   18.70
  -8   6  -5  119.99   17.60
  -6  -2   5  134.39   21.50
  -6  -2   5  129.19   18.20
  -6  -2   5  127.29   21.20
   8  -6   5  134.89   21.30
  -2   8   5  120.69   16.80
   8  -6   5   77.09   18.60
  -8   9  -5  309.47   34.60
  -8   9  -5  238.38   35.50
   9  -1  -5  341.47   34.60
  -1  -8  -5  296.77   31.90
  -9   1   5  339.57   34.90
  -9   1   5  339.17   34.70
   1   8   5  315.37   30.00
   8  -9   5  275.37   31.60
   1   8   5  207.78   33.30
  -9   1   5  323.77   31.70
  -9  -1  -5   -4.50   17.70
  -1  10  -5   -4.30   12.20
  -1  10  -5   -3.40   12.60
 -10   9   5    2.90   17.20
   9   1   5  -12.30   16.40
   9   1   5   10.80   15.10
  -9   2  -5   32.40   16.50
   2   7  -5   40.00   18.50
  -9   2  -5   27.40   14.40
  -9   2  -5   43.70   17.70
   2   7  -5   10.80   12.50
  -2  -7   5   14.90   15.00
  -7   9   5   26.00   14.90
   9  -2   5   14.00   14.20
  -9   5  -5  173.38   23.20
  -9   5  -5  190.28   24.80
   5   4  -5  181.48   25.20
  -9   5  -5  214.78   23.50
  -9   5  -5  177.98   26.40
  -9   5  -5  148.69   21.80
   9  -5   5  161.08   22.30
  -5  -4   5  191.98   24.80
   9  -5   5  154.38   24.10
  -4   9   5  196.68   18.80
  -5  -4   5  195.58   24.10
  -5  -4   5  158.68   20.50
  -9   8  -5  341.87   35.80
   8   1  -5  312.97   33.30
  -9   8  -5  243.98   36.60
   9  -8   5  224.18   30.60
  -8  -1   5  260.47   32.60
  -8  -1   5  274.17   33.70
  -1   9   5  283.57   27.80
   9  -8   5  298.07   32.20
  11  -2  -5   32.30   17.70
  -9  11  -5    8.70   19.00
  -2  -9  -5    4.40   18.40
  -9  11  -5   29.60   17.40
   2   9   5   23.30   15.30
   2   9   5   24.20   20.40
 -11   2   5    6.50   17.60
 -10   1  -5   11.20   17.10
   1   9  -5   15.30   13.10
  10  -1   5   -2.90   15.60
  10  -1   5   -1.70   17.30
  -1  -9   5  -10.40   15.30
  -9  10   5  -11.40   15.60
   4   6  -5    8.10   13.30
 -10   4  -5   35.40   17.30
   4   6  -5   -1.60   16.90
 -10   4  -5   24.20   16.50
 -10   4  -5    0.10   16.30
  -4  -6   5   14.40   16.80
  -6  10   5    7.30   14.20
   7   3  -5  329.97   38.20
 -10   7  -5  350.36   39.10
 -10   7  -5  374.46   38.70
  -7  -3   5  371.46   38.00
  10  -7   5  322.27   35.90
 -10  10  -5   35.90   18.90
   0 -10  -5   36.20   18.00
 -10  10  -5   49.40   23.70
  10   0  -5   65.69   20.90
   0  10   5   43.90   15.10
 -10   0   5   25.00   18.90
 -11   3  -5    7.90   17.60
   3   8  -5   29.20   19.50
   3   8  -5   33.30   14.10
 -11   3  -5    2.00   18.40
  -3  -8   5  -11.00   17.10
  -8  11   5   12.90   17.30
   6   5  -5   50.59   17.00
 -11   6  -5   55.69   18.40
  -6  -5   5   72.39   19.80
  -5  11   5   18.10   13.00
   9   2  -5   43.40   19.60
 -11   9  -5   45.00   20.30
 -11   9  -5   36.30   25.00
  -9  -2   5   45.60   19.90
 -12   5  -5   61.49   20.60
   5   7  -5   91.19   23.70
   5   7  -5   74.79   17.80
  -7  12   5   50.19   18.00
  -5  -7   5   61.59   21.60
   0   0  -6  278.77   21.90
   0   0  -6  273.47   21.00
   0   0   6  265.87   21.50
   0   0   6  269.27   22.20
   2  -1  -6   50.09    8.80
  -1   2  -6   77.89    9.80
  -1   2  -6   49.40    8.30
  -1   2  -6   73.19    8.70
  -1   2  -6   66.39    9.20
   1  -2   6   69.19    9.20
  -2   1   6   46.40    8.20
   1  -2   6   71.29    8.30
   1   1   6   23.80    6.00
   1   1   6   26.20    6.70
   1  -2   6   48.20    8.60
   1  -2   6   54.29    8.10
  -2   1   6   37.40    6.60
  -2   1   6   46.60    8.10
   1   1   6   19.90    6.20
  -2   1  -6   54.99    8.20
   1   1  -6   34.20    7.10
  -2   1  -6   51.89    8.50
  -2   1  -6   42.40    7.90
   1   1  -6   24.20    7.60
  -2   1  -6   46.00    7.40
  -1   2   6   53.79    7.40
   2  -1   6   42.60    7.80
  -1  -1   6   32.80    8.30
  -1  -1   6   26.30    7.00
   2  -1   6   51.49    8.50
  -1   2   6   49.30    7.20
   2  -1   6   45.90    7.60
  -1  -1   6   32.30    7.10
  -2   4  -6  564.34   40.80
  -2   4  -6  569.14   41.30
  -2   4  -6  550.94   43.80
   4  -2  -6  557.74   42.40
  -2   4  -6  593.54   47.30
   4  -2  -6  521.65   41.40
  -4   2   6  518.65   41.90
   2   2   6  542.95   41.20
   2   2   6  524.45   45.20
   2   2   6  572.74   41.70
   2  -4   6  524.25   46.80
  -4   2   6  541.95   43.70
   2   2   6  496.65   40.80
   2  -4   6  561.74   41.80
  -4   2   6  556.44   41.90
   2  -4   6  532.35   40.70
  -3   0  -6    8.00    7.30
   0   3  -6   24.00    7.50
  -3   0  -6   22.70    7.30
   0   3  -6   22.50    6.80
   3  -3  -6   17.10    7.10
  -3   0  -6   23.20    7.10
   0   3  -6   29.40    8.50
  -3   3   6   26.40    8.40
   0  -3   6   30.50    7.20
   0  -3   6   42.30    8.90
   0  -3   6   43.40    7.50
   0  -3   6   23.80    7.30
   3   0   6   17.80    7.40
   3   0  -6   42.90    8.80
  -3   3  -6   40.70    9.10
   3   0  -6   70.09   11.10
  -3   3  -6   41.00    8.30
  -3   3  -6   45.60    9.00
   3   0  -6   64.39    9.50
  -3   3  -6   33.70    9.10
   3  -3   6   28.70    8.30
   3  -3   6   45.10    8.90
   3  -3   6   27.50    9.20
  -3   0   6   50.99   10.60
  -3   0   6   71.09   10.30
  -3   6  -6   54.09   12.90
   6  -3  -6   56.69   11.50
   6  -3  -6   49.80   13.00
  -3   6  -6   40.80   11.20
   3   3   6   33.90   11.40
  -6   3   6   64.89   13.60
   3  -6   6   43.60   10.70
  -6   3   6   33.60   11.20
   3   3   6   35.20    9.00
  -6   3   6   49.20   12.30
   3  -6   6   43.10    9.00
   3   3   6   24.80   10.00
   5  -4  -6   14.50   10.60
  -1   5  -6   28.90   10.60
   5  -4  -6   17.50    8.40
  -4  -1  -6   16.20    7.90
  -1   5  -6   25.50   10.10
  -5   4   6   24.20   11.20
   1  -5   6   36.60    9.30
  -5   4   6   -4.00   10.00
   4   1   6   16.90    9.20
   1  -5   6   39.90   10.20
   4   1   6   13.20   10.40
   1  -5   6   31.10    8.60
   2   2  -6  579.64   44.00
  -4   2  -6  560.94   42.10
  -4   2  -6  552.34   47.80
   2   2  -6  556.84   41.80
   2   2  -6  564.24   41.80
  -4   2  -6  562.14   44.50
  -4   2  -6  523.75   42.60
  -2  -2   6  572.74   42.80
   4  -2   6  550.64   48.00
   4  -2   6  533.65   42.30
  -2  -2   6  543.25   43.20
  -2   4   6  523.75   41.90
   4  -2   6  601.54   42.40
  -4   5  -6   38.00   11.90
  -4   5  -6   19.10    9.20
  -4   5  -6   36.30    8.90
   5  -1  -6   10.90    9.20
  -4   5  -6   22.40   10.00
   5  -1  -6  -14.50   10.10
  -5   1   6    8.70    9.20
   4  -5   6   27.30    9.80
   1   4   6   30.00   10.90
   4  -5   6   35.40   10.60
   1   4   6   27.30    9.90
  -5   1   6   13.50   10.90
  -5   1   6   23.90   11.30
   4  -5   6   44.30   10.10
   8  -4  -6   91.99   17.70
  -4   8  -6  115.79   20.30
  -4   8  -6  155.78   20.00
   8  -4  -6   98.39   20.40
   4   4   6  119.19   18.30
   4   4   6   88.89   15.30
   4  -8   6  105.99   16.70
  -8   4   6  120.89   19.30
   4   4   6  111.29   19.70
   4  -8   6  102.49   15.00
  -8   4   6  122.59   19.00
  -8   4   6  153.88   21.50
  -2   7  -6    3.80   10.90
   7  -5  -6   34.60   10.90
  -2   7  -6   24.80   11.40
  -5  -2  -6   36.90   13.90
   7  -5  -6   25.10   13.30
  -7   5   6   16.60    9.70
   5   2   6   31.00   13.60
   5   2   6   16.70   10.90
  -7   5   6   22.30   13.10
  -7   5   6   16.70   11.90
   5   2   6    3.40    8.00
   2  -7   6   24.70    8.80
   2  -7   6   14.60   10.10
  -5   1  -6   34.90    9.20
   1   4  -6   14.60   10.80
  -5   1  -6   39.50   10.80
   1   4  -6    4.40    9.10
  -5   1  -6   50.79   10.50
  -4   5   6   11.90    9.20
   5  -1   6   33.50    9.40
  -1  -4   6   10.60    7.60
  -1  -4   6   19.80    9.10
   5  -1   6    4.20    9.00
   4   1  -6   38.90   10.00
  -5   4  -6   27.60    9.40
  -5   4  -6   24.70    9.90
   4   1  -6   19.70   10.60
   4   1  -6   41.60   10.50
  -5   4  -6   20.10   10.90
  -5   4  -6    7.30    9.70
  -4  -1   6   12.70   11.20
  -1   5   6   36.00   10.20
  -4  -1   6   59.79   12.60
   5  -4   6   21.50   10.90
   5  -4   6   33.20   11.20
  -4  -1   6   35.70    9.60
   7  -2  -6   -2.70   10.00
  -5   7  -6   16.80   10.60
  -5   7  -6    9.30   12.00
  -5   7  -6    8.50    8.20
   7  -2  -6    9.60   13.50
  -7   2   6    0.30   10.20
   5  -7   6    4.50   10.60
  -7   2   6   -3.00   11.80
  -7   2   6  -15.10   11.30
   5  -7   6    5.60   10.00
  -7   2   6    6.10   12.00
   2   5   6   19.20   11.40
   2   5   6   -8.50    9.00
  -5  10  -6    3.50   15.10
  -5  -5  -6    9.60   18.90
  -5  10  -6  -10.30   16.50
  10  -5  -6   -1.90   19.50
   5   5   6   -6.30   13.00
 -10   5   6   10.10   16.90
   5   5   6  -12.80   16.30
 -10   5   6   11.70   18.00
   9  -6  -6   42.00   18.50
  -6  -3  -6    3.00   15.50
  -3   9  -6   -7.70   12.60
   9  -6  -6   21.20   14.20
  -3   9  -6  -15.70   12.70
   6   3   6   25.40   13.90
   6   3   6   19.40   15.70
  -9   6   6   21.00   14.60
  -9   6   6   -1.50   15.80
   0   6  -6  328.97   31.20
  -6   0  -6  308.07   27.80
  -6   0  -6  294.47   30.30
   6  -6  -6  292.47   28.00
  -6   0  -6  310.57   30.50
   0   6  -6  304.97   29.00
  -6   0  -6  282.27   27.60
   6  -6  -6  317.17   27.00
   0  -6   6  306.77   27.40
   6   0   6  330.77   28.50
  -6   6   6  328.27   30.90
  -6   6   6  330.37   28.80
  -6   3  -6   47.90   10.90
   3   3  -6   35.70   11.20
  -6   3  -6   43.40   10.50
   3   3  -6   17.90    9.20
  -6   3  -6   37.00   11.80
  -6   3  -6   34.50   10.80
  -6   3  -6   47.30   11.30
  -3   6   6   37.70    8.40
  -3  -3   6   14.30   10.80
  -3  -3   6   38.80   12.00
   6  -3   6   36.80   11.40
   6  -3   6   37.30   10.30
   6  -3   6   28.40    9.30
   6   0  -6  429.26   40.80
   6   0  -6  470.45   39.90
  -6   6  -6  474.95   38.00
   6   0  -6  501.15   39.00
  -6   6  -6  517.15   43.10
  -6   6  -6  524.25   39.50
  -6   6  -6  516.25   44.60
  -6   0   6  458.45   40.40
  -6   0   6  456.15   39.20
   0   6   6  470.95   38.20
  -6   0   6  464.85   40.80
  -6   0   6  426.46   40.30
   6  -6   6  515.55   40.10
   6  -6   6  527.05   39.90
   0   6   6  439.86   41.80
  -6   9  -6   -3.40   16.10
  -3  -6  -6   20.30   15.50
  -6   9  -6  -12.70   12.80
   9  -3  -6   10.20   17.40
   3   6   6   27.60   14.60
  -9   3   6   17.10   13.90
   3   6   6   -4.00   11.70
  -9   3   6   23.90   15.80
   6  -9   6   -4.90   13.30
   6  -9   6   -9.70   12.50
  -9   3   6    3.00   15.40
  -6  12  -6   60.89   19.00
 -12   6   6   62.49   21.20
  -4  11  -6    4.60   15.80
  -4  11  -6   17.20   15.10
  -7  -4  -6    6.80   19.10
   7   4   6    6.10   16.20
   7   4   6    4.60   14.30
 -11   7   6    7.90   16.80
 -11   7   6    9.20   19.60
   8  -7  -6  -18.00   15.30
   8  -7  -6  -11.00   12.80
  -7  -1  -6    2.60   16.50
  -7  -1  -6    7.00   11.20
  -1   8  -6   10.90   13.60
  -7  -1  -6   12.40   10.30
  -7  -1  -6   14.20   12.80
  -1   8  -6   23.30   12.90
  -8   7   6    2.70   15.50
   1  -8   6   16.90   12.30
   7   1   6   21.00   15.10
  -8   7   6   10.40   12.50
   7   1   6    8.60   12.10
  -7   2  -6   15.50   10.70
   2   5  -6   25.40   13.70
  -7   2  -6   17.50   11.70
  -7   2  -6   28.70   12.30
   2   5  -6   35.60   11.50
  -7   2  -6    7.40   12.10
  -7   2  -6   31.30   10.60
  -2  -5   6   44.30   12.80
  -5   7   6   24.30   10.50
  -5   7   6    4.20   10.60
   7  -2   6   34.90   11.00
   7  -2   6   19.40    9.90
   7  -2   6    8.90   10.00
  -2  -5   6   23.20   11.60
  -7   5  -6   25.40   11.40
  -7   5  -6   -6.40    9.70
  -7   5  -6    8.40   13.40
   5   2  -6   -3.20   11.60
   5   2  -6   21.40    9.20
   5   2  -6   -0.80    8.40
  -7   5  -6   13.70   10.10
  -5  -2   6   -4.40   12.60
  -5  -2   6    5.40   10.20
  -5  -2   6   -0.70   12.00
   7  -5   6   17.60   13.20
  -2   7   6    2.90    9.20
   7  -5   6    8.90   10.80
   8  -1  -6   21.10   15.40
  -7   8  -6   14.60   16.00
  -7   8  -6  -19.20    9.90
  -7   8  -6    6.60   12.60
  -7   8  -6   -7.70   11.00
   8  -1  -6  -24.00   12.60
   1   7   6   12.60   16.50
  -8   1   6   10.60   16.90
   1   7   6   12.70   11.90
   7  -8   6   -4.60   12.60
   7  -8   6   -0.10   14.10
  -8   1   6    5.10   12.90
  -8   1   6   23.50   15.50
  -8   1   6   25.00   13.80
  -7  11  -6   14.50   16.20
  -4  -7  -6   31.70   18.20
  -7  11  -6   29.40   18.90
   4   7   6   29.40   14.80
   4   7   6    4.40   15.80
 -11   4   6   40.80   18.70
  -8  -2  -6   25.10   18.60
  -2  10  -6   35.50   14.90
  -2  10  -6   48.40   17.00
   8   2   6   38.20   16.20
   8   2   6   52.59   19.70
 -10   8   6   54.69   17.10
 -10   8   6   61.29   21.40
  -8   1  -6    9.50   14.30
  -8   1  -6   -8.70   14.90
   1   7  -6   -4.00   11.00
   7  -8  -6   35.50   13.90
  -8   1  -6   25.40   13.20
   7  -8  -6    1.30   11.50
  -7   8   6   16.90   14.00
   8  -1   6   12.60   12.20
  -7   8   6  -13.30   12.00
  -1  -7   6    3.30   11.90
  -1  -7   6   18.00   13.40
  -8   4  -6   71.19   16.00
  -8   4  -6  121.39   19.30
  -8   4  -6   98.09   19.50
  -8   4  -6  106.29   18.40
   4   4  -6   73.49   17.10
  -8   4  -6   99.49   17.10
  -4   8   6   91.59   14.60
  -4   8   6   91.99   14.90
  -4  -4   6  110.09   16.10
  -4  -4   6  118.99   19.00
   8  -4   6  145.69   17.50
   8  -4   6  116.59   19.30
   8  -4   6  104.39   16.80
  -4  -4   6   83.59   17.90
  -8   7  -6   17.90   17.20
  -8   7  -6   19.00   13.60
   7   1  -6    7.70   14.20
  -8   7  -6   17.00   12.90
   7   1  -6   -2.70   12.70
   7   1  -6  -23.70   11.10
  -7  -1   6  -24.30   12.40
   8  -7   6   14.60   14.20
  -7  -1   6    6.30   16.60
   8  -7   6   40.90   16.70
  -7  -1   6    5.90   14.20
  -1   8   6  -13.90   10.80
  -8  10  -6   82.49   20.50
  10  -2  -6   90.49   19.90
  -8  10  -6   71.39   21.20
  -2  -8  -6   70.39   20.40
   2   8   6   65.49   20.40
 -10   2   6   55.89   19.90
   2   8   6   81.19   17.40
 -10   2   6   35.30   18.30
  -9   0  -6  -16.00   17.40
   0   9  -6    3.50   13.00
   9   0   6  -11.40   16.10
  -9   9   6  -22.80   15.50
   9   0   6    3.90   15.10
  -9   3  -6   48.70   16.90
   3   6  -6    0.40   11.10
  -9   3  -6    6.00   14.40
  -9   3  -6  -12.40   13.10
   3   6  -6   13.10   16.00
  -6   9   6    1.00   12.80
  -6   9   6   29.30   11.50
   9  -3   6    8.40   14.10
  -3  -6   6    6.80   15.10
  -9   6  -6   33.70   18.60
   6   3  -6   -9.50   14.70
  -9   6  -6   10.80   14.00
  -9   6  -6   21.00   12.80
  -9   6  -6   15.30   13.90
  -3   9   6    9.80   10.30
   9  -6   6   23.30   16.10
  -6  -3   6   16.40   15.30
  -6  -3   6    1.00   12.90
  -6  -3   6   11.80   16.70
   9  -6   6   -1.90   13.10
  -9   9  -6   18.10   17.20
   9   0  -6    8.50   15.90
  -9   9  -6  -35.40   16.50
  -9   0   6    2.40   16.20
  -9   0   6   28.80   21.10
   9  -9   6    4.70   17.20
   0   9   6   16.20   13.80
   2   8  -6   32.20   14.80
 -10   2  -6   58.19   19.30
 -10   2  -6   46.50   20.00
  -2  -8   6   55.29   19.20
  10  -2   6   71.89   18.50
  -8  10   6   64.89   18.80
 -10   5  -6   10.30   15.40
   5   5  -6   11.00   15.30
 -10   5  -6   20.40   16.30
  -5  10   6   -1.70   12.10
  -5  -5   6   11.60   17.30
 -10   8  -6   65.99   19.80
   8   2  -6   30.70   18.50
 -10   8  -6   48.10   22.60
  -2  10   6   67.19   14.60
  -8  -2   6   95.79   22.40
  10  -8   6   55.89   21.00
   4   7  -6  -13.70   12.50
   4   7  -6  -17.10   16.80
 -11   4  -6   31.60   18.00
  -4  -7   6    9.60   17.50
  -7  11   6  -10.70   14.70
   7   4  -6  -12.40   15.60
  -7  -4   6   21.60   18.70
  -6  12   6   10.40   15.30
   0   1  -7 1667.53  121.39
  -1   0  -7 1538.75  132.29
   1  -1  -7 1679.23  117.09
  -1   0  -7 1642.74  117.09
  -1   0  -7 1609.54  116.59
   0   1  -7 1689.03  117.59
   1  -1  -7 1578.74  116.49
   0   1  -7 1717.63  117.19
  -1   1   7 1764.12  121.39
   0  -1   7 1616.64  116.89
   0  -1   7 1690.93  117.69
   0  -1   7 1777.42  121.29
   1   0   7 1641.94  120.79
   1   0   7 1636.54  116.19
   0  -1   7 1728.33  133.19
  -1   3  -7  848.82   62.19
  -1   3  -7  914.61   70.89
  -1   3  -7  882.21   61.79
   3  -2  -7  842.62   62.29
  -2  -1  -7  800.12   68.79
  -1   3  -7  928.71   65.19
  -3   2   7  808.32   60.69
   1  -3   7  828.12   64.09
   2   1   7  851.31   69.49
  -3   2   7  883.81   64.69
   2   1   7  809.82   63.19
   1  -3   7  846.52   70.49
  -3   2   7  830.62   61.49
   1  -3   7  815.22   61.69
   1  -3   7  847.32   62.79
   2   1   7  932.31   61.89
  -2   2  -7  667.73   51.79
  -2   2  -7  730.23   54.89
  -2   2  -7  729.63   59.29
  -2   2  -7  636.74   52.29
   2   0  -7  739.53   54.29
   2   0  -7  680.73   52.69
   2  -2   7  715.13   52.09
  -2   0   7  703.03   51.79
  -2   0   7  765.02   54.49
   2  -2   7  742.83   59.39
   0   2   7  738.73   53.29
  -2   0   7  737.23   52.89
   2  -2   7  652.43   52.39
   0   2   7  677.83   52.89
   5  -3  -7   91.39   13.70
   5  -3  -7   89.99   15.50
   5  -3  -7  108.79   13.90
  -2   5  -7   92.29   15.10
  -2   5  -7   99.69   12.80
  -2   5  -7   97.19   15.40
   3   2   7   95.89   14.70
   3   2   7   62.19   12.60
   2  -5   7  107.99   14.60
  -5   3   7   90.29   15.40
   2  -5   7   95.19   14.40
  -5   3   7  127.29   16.90
   3   2   7   68.89   14.10
   2  -5   7  110.89   12.90
  -5   3   7   85.19   13.70
   3   2   7   68.19   12.10
  -3   1  -7  789.32   60.59
   1   2  -7  933.31   63.29
  -3   1  -7  834.72   68.49
  -3   1  -7  805.12   60.29
   1   2  -7  839.92   60.79
  -1  -2   7  926.11   69.19
   3  -1   7  761.52   59.99
   3  -1   7  774.52   68.49
  -1  -2   7  870.01   62.49
  -2   3   7  756.52   61.89
  -1  -2   7  839.62   61.19
  -1  -2   7  832.82   60.49
  -2   3   7  854.41   62.19
  -3   4  -7  108.39   15.60
   4  -1  -7  109.79   13.80
   4  -1  -7   88.19   14.60
  -3   4  -7  113.49   14.20
  -3   4  -7  110.99   15.70
  -3   4  -7  120.79   13.80
   4  -1  -7   93.29   13.90
  -4   1   7  117.59   15.30
   3  -4   7  140.39   14.30
  -4   1   7  123.29   16.20
   1   3   7   87.19   13.90
  -4   1   7   82.69   14.50
   3  -4   7  113.99   15.00
   3  -4   7  120.29   15.20
   7  -4  -7   26.20   14.60
  -3   7  -7   -3.60   11.30
   7  -4  -7   21.00   11.30
  -3   7  -7   16.70   11.00
   4   3   7   12.20   10.00
  -7   4   7   11.70   12.70
   4   3   7   20.60   10.70
   4   3   7   10.40   12.10
  -7   4   7   33.40   11.90
  -7   4   7   14.40   12.60
   3  -7   7   17.20   11.10
   3  -7   7    4.10    8.90
   0   4  -7 1543.85  112.89
  -4   0  -7 1409.96  108.09
  -4   0  -7 1453.65  122.59
   4  -4  -7 1566.74  108.19
   0   4  -7 1588.34  123.39
   0   4  -7 1646.64  108.19
  -4   0  -7 1447.76  108.09
   0  -4   7 1475.95  122.69
  -4   4   7 1480.15  112.79
   0  -4   7 1650.03  109.39
  -4   4   7 1544.75  107.39
   4   0   7 1470.55  123.09
   4   0   7 1448.16  106.59
   0  -4   7 1568.64  108.19
  -4   3  -7   84.59   13.80
  -4   3  -7  132.19   14.00
  -4   3  -7  102.89   15.20
   3   1  -7  124.69   14.90
   3   1  -7  107.09   14.10
  -4   3  -7  104.09   15.10
   3   1  -7  132.69   14.60
   4  -3   7   89.99   13.90
   4  -3   7  121.39   14.50
   4  -3   7  107.49   15.50
  -3  -1   7  115.79   14.30
  -3  -1   7   98.29   14.80
  -1   4   7   95.29   14.40
  -3  -1   7  109.19   15.40
  -4   6  -7  113.79   19.10
   6  -2  -7  154.18   20.10
  -4   6  -7  150.48   15.90
   6  -2  -7  138.09   17.90
  -4   6  -7  172.98   20.30
   2   4   7  169.18   18.80
   4  -6   7  142.09   16.80
  -6   2   7  154.68   19.10
   4  -6   7  139.99   18.20
  -6   2   7  148.19   20.10
  -6   2   7  134.79   19.30
   2   4   7  115.59   17.90
  -4   9  -7  510.25   46.40
  -5  -4  -7  520.85   45.70
   9  -5  -7  425.86   43.90
   9  -5  -7  503.55   42.50
  -4   9  -7  491.05   45.70
  -9   5   7  464.85   43.30
   5   4   7  500.05   42.10
   5   4   7  479.45   45.50
  -9   5   7  469.95   46.10
   6  -5  -7  268.07   25.80
   6  -5  -7  258.77   24.10
  -5  -1  -7  239.48   23.40
  -1   6  -7  291.17   26.10
  -5  -1  -7  206.88   23.20
  -1   6  -7  311.87   28.50
  -5  -1  -7  248.28   26.00
   5   1   7  257.57   24.90
  -6   5   7  282.77   27.00
   5   1   7  228.98   26.40
  -6   5   7  257.77   25.30
   1  -6   7  283.07   23.40
   1  -6   7  277.37   24.60
  -5   2  -7   86.79   15.20
  -5   2  -7   94.09   14.80
  -5   2  -7   93.19   14.00
   2   3  -7  105.09   12.90
   2   3  -7   84.19   13.90
  -5   2  -7   96.79   13.40
   2   3  -7   97.49   15.80
   2   3  -7   90.29   12.30
  -2  -3   7   85.59   14.10
  -2  -3   7   84.69   14.50
   5  -2   7   92.49   13.70
   5  -2   7   96.69   13.40
  -3   5   7   91.39   14.20
   5  -2   7   72.39   12.60
  -3   5   7   80.39   12.80
  -2  -3   7   70.79   13.60
  -5   5  -7  599.44   50.19
   5   0  -7  578.94   46.50
  -5   5  -7  646.74   53.09
  -5   5  -7  606.64   45.90
   5   0  -7  598.44   48.80
   5   0  -7  602.14   47.40
  -5   5  -7  607.74   47.10
   0   5   7  624.04   46.20
   5  -5   7  632.94   46.80
   5  -5   7  582.04   47.30
  -5   0   7  569.74   47.70
  -5   0   7  602.74   48.10
   0   5   7  546.65   49.00
  -5   0   7  600.84   48.80
  -5   8  -7  341.47   35.30
   8  -3  -7  354.26   32.10
  -5   8  -7  405.06   35.90
   8  -3  -7  336.97   34.00
  -8   3   7  326.87   34.20
   3   5   7  309.07   30.70
   5  -8   7  315.07   30.40
   3   5   7  333.87   34.20
  -8   3   7  335.97   33.70
   5  -8   7  316.67   31.40
  -8   3   7  295.77   32.20
  -6  -5  -7   38.10   22.00
  -5  11  -7   28.50   19.10
  11  -6  -7   38.30   22.30
  -5  11  -7   16.60   16.40
   6   5   7   51.29   19.40
   6   5   7   20.20   15.40
 -11   6   7   23.90   17.80
 -11   6   7    6.40   19.00
  -2   8  -7  150.88   21.10
  -6  -2  -7  168.58   24.60
  -2   8  -7  134.39   21.60
   8  -6  -7  127.59   21.60
  -6  -2  -7  119.79   17.00
   8  -6  -7  129.19   19.40
  -6  -2  -7  125.39   17.20
   2  -8   7  116.69   18.40
   6   2   7  166.38   23.60
   6   2   7  167.98   21.20
  -8   6   7  122.69   20.30
   2  -8   7  143.99   16.90
  -8   6   7  193.98   25.70
  -6   1  -7  274.87   28.60
   5  -6  -7  296.77   24.50
  -6   1  -7  287.97   26.40
   1   5  -7  280.87   27.30
  -6   1  -7  261.27   26.40
  -5   6   7  310.97   26.70
  -5   6   7  288.77   27.80
  -1  -5   7  263.87   26.10
  -1  -5   7  262.77   25.90
   6  -1   7  304.97   26.40
  -6   4  -7  122.89   18.00
   4   2  -7  171.88   19.10
  -6   4  -7  123.49   17.30
  -6   4  -7   96.49   15.60
  -6   4  -7  132.49   19.50
   4   2  -7  150.88   18.40
   4   2  -7  132.19   15.60
  -4  -2   7  128.79   18.40
  -2   6   7  146.09   16.40
   6  -4   7  112.29   17.20
  -4  -2   7  119.79   16.00
  -4  -2   7  167.38   19.20
   6  -4   7  120.09   17.40
  -6   7  -7  405.96   39.10
   7  -1  -7  458.05   42.90
   7  -1  -7  514.35   42.60
  -6   7  -7  491.75   39.20
  -6   7  -7  541.85   46.40
   7  -1  -7  485.35   40.70
  -6   7  -7  562.74   46.00
  -7   1   7  465.15   42.10
   1   6   7  567.34   40.40
  -7   1   7  456.65   42.10
  -7   1   7  485.65   43.00
   1   6   7  444.56   43.10
   6  -7   7  490.35   40.70
   6  -7   7  503.55   41.40
  -4  -6  -7  250.77   33.30
  -6  10  -7  225.28   33.40
  10  -4  -7  245.08   32.50
  -6  10  -7  245.68   31.30
   4   6   7  214.58   30.70
 -10   4   7  306.37   32.50
 -10   4   7  351.96   33.10
   4   6   7  273.27   28.40
  -3  10  -7  238.18   33.10
  -3  10  -7  307.57   32.20
  10  -7  -7  288.97   31.20
  -7  -3  -7  269.27   34.80
 -10   7   7  222.88   34.80
 -10   7   7  257.57   30.70
   7   3   7  263.47   34.20
   7   3   7  299.67   30.00
  -7   0  -7   31.90   14.00
   7  -7  -7   49.80   15.50
   0   7  -7   43.20   14.40
  -7   0  -7   35.50   12.70
  -7   0  -7   42.00   18.60
  -7   0  -7   44.80   14.40
   7  -7  -7   78.79   14.30
   7   0   7   32.00   14.60
  -7   7   7   59.69   17.80
   0  -7   7   65.39   14.30
   0  -7   7   64.69   15.00
   3   4  -7   12.50   12.30
  -7   3  -7    1.50    9.50
  -7   3  -7   13.00   11.40
  -7   3  -7    7.40   11.00
  -7   3  -7   11.60   12.20
   3   4  -7    2.00   10.10
  -7   3  -7    8.50   12.80
   7  -3   7    1.90   10.40
  -4   7   7   -3.20    9.60
  -4   7   7   12.30    9.30
  -3  -4   7   21.10   12.40
   7  -3   7   19.20    9.90
  -3  -4   7    5.70   12.30
   7  -3   7   38.50   12.90
  -7   6  -7  460.15   41.90
  -7   6  -7  511.55   41.00
   6   1  -7  458.65   41.10
   6   1  -7  549.74   44.40
  -7   6  -7  560.44   47.60
   6   1  -7  494.85   41.20
  -7   6  -7  502.05   45.80
  -6  -1   7  572.14   44.80
  -6  -1   7  535.25   41.60
   7  -6   7  460.45   42.10
  -1   7   7  474.15   40.20
  -6  -1   7  499.35   42.60
   7  -6   7  462.55   42.50
  -6  -1   7  541.95   44.40
  -7   9  -7  359.46   37.80
  -7   9  -7  336.87   38.50
   9  -2  -7  358.66   36.10
   9  -2  -7  350.26   36.10
   2   7   7  311.27   33.20
   2   7   7  323.47   37.20
   7  -9   7  333.17   34.20
  -9   2   7  410.56   38.40
  -1   9  -7  171.98   26.80
  -8  -1  -7  170.08   28.70
  -1   9  -7  247.48   28.20
   8   1   7  186.18   28.70
  -9   8   7  232.98   31.50
  -9   8   7  147.49   24.50
   8   1   7  208.98   26.20
  -8   2  -7  117.49   19.40
   2   6  -7  201.98   25.20
  -8   2  -7  121.59   19.60
  -8   2  -7  137.99   22.70
  -8   2  -7  154.48   21.00
   2   6  -7  153.88   21.30
  -6   8   7  118.19   21.00
  -2  -6   7  108.19   19.10
  -2  -6   7  138.49   20.70
   8  -2   7  175.68   20.40
   8  -2   7  113.89   18.00
  -6   8   7  155.68   19.10
   5   3  -7  334.57   34.20
  -8   5  -7  382.26   36.40
  -8   5  -7  327.37   35.60
  -8   5  -7  297.87   31.30
  -8   5  -7  318.77   32.10
  -8   5  -7  359.36   31.80
  -3   8   7  327.87   29.80
  -5  -3   7  339.37   30.90
   8  -5   7  328.17   32.20
  -5  -3   7  335.37   34.50
  -5  -3   7  361.06   33.50
   8  -5   7  309.97   29.30
   8  -5   7  353.16   33.30
  -8   8  -7 2152.28  160.08
  -8   8  -7 1874.51  148.89
   8   0  -7 1909.51  147.19
  -8   0   7 1885.41  140.89
  -8   0   7 1915.61  142.49
   0   8   7 1904.91  136.99
   8  -8   7 1918.21  141.19
  11  -3  -7   -3.00   16.60
  -8  11  -7   72.39   23.70
  -8  11  -7   13.60   16.80
  -3  -8  -7   15.60   19.10
   3   8   7   22.20   15.30
   3   8   7   20.70   18.50
 -11   3   7   28.00   18.90
  -2  11  -7   18.00   18.10
  -9  -2  -7   37.80   22.40
   9   2   7   36.00   20.00
   9   2   7   58.09   19.30
 -11   9   7   62.29   23.20
  -9   1  -7  194.88   28.70
   1   8  -7  156.08   24.60
  -8   9   7  146.99   22.40
  -8   9   7  160.58   26.60
  -1  -8   7  146.49   22.90
   9  -1   7  217.98   24.80
  -9   4  -7  468.95   42.00
   4   5  -7  504.85   43.50
  -9   4  -7  514.75   47.30
  -9   4  -7  508.35   42.70
   4   5  -7  470.25   45.40
  -9   4  -7  481.65   42.80
   9  -4   7  552.94   41.90
  -5   9   7  405.16   38.50
  -4  -5   7  476.85   43.70
  -5   9   7  444.66   41.90
  -4  -5   7  485.75   43.30
  -9   7  -7  379.76   40.50
   7   2  -7  405.56   37.90
  -9   7  -7  375.16   38.60
   9  -7   7  301.97   34.30
  -7  -2   7  351.66   38.10
  -7  -2   7  359.86   36.80
   9  -7   7  326.37   35.70
  -2   9   7  332.47   31.50
  10  -1  -7    9.20   16.70
  -9  10  -7    0.90   16.50
  -9  10  -7   15.50   19.90
   1   9   7   11.90   14.30
   1   9   7   42.60   19.60
 -10   1   7   10.20   17.90
 -10   0  -7   67.19   23.70
   0  10  -7   28.00   16.30
  10   0   7    4.20   18.60
 -10  10   7   21.10   19.90
  10   0   7   17.20   18.70
   3   7  -7  231.68   30.20
   3   7  -7  245.78   33.20
 -10   3  -7  290.17   33.30
 -10   3  -7  179.28   27.80
  -3  -7   7  250.57   30.30
  -7  10   7  298.17   30.20
 -10   6  -7  231.28   29.10
   6   4  -7  310.57   31.60
 -10   6  -7  269.97   28.10
  -6  -4   7  238.98   31.90
  -4  10   7  235.88   25.00
 -10   9  -7   23.20   17.90
   9   1  -7   -6.50   15.90
 -10   9  -7  -32.70   20.20
  -9  -1   7   27.20   19.20
  -1  10   7   15.50   13.50
   2   9  -7   36.30   17.20
 -11   2  -7   33.60   19.70
  11  -2   7   49.40   19.00
  -9  11   7   20.30   17.60
  -2  -9   7   51.39   18.80
 -11   5  -7   14.00   16.50
 -11   5  -7   25.50   17.50
   5   6  -7    4.60   17.10
   5   6  -7   27.60   15.30
  -5  -6   7   37.50   19.00
  -6  11   7   12.10   14.70
   8   3  -7   35.10   19.40
  -8  -3   7   25.10   18.20
  -1   1  -8  226.68   18.70
   1   0  -8  134.49   15.60
  -1   1  -8  198.98   17.10
   0  -1  -8  111.69   15.40
  -1   1  -8  204.38   16.30
   0  -1  -8  150.28   14.60
  -1   1  -8  218.28   17.80
   1   0  -8  157.38   16.40
   1   0  -8  145.89   16.80
  -1   0   8  166.18   17.10
  -1   0   8  147.89   16.80
   1  -1   8  230.48   17.40
   1  -1   8  196.68   17.10
   0   1   8  143.49   16.40
  -1   0   8  135.99   15.00
   1  -1   8  219.68   16.60
   1  -1   8  199.68   19.00
  -2   0  -8  724.93   57.39
   0   2  -8  837.02   60.59
   2  -2  -8  805.02   57.69
  -2   0  -8  736.43   64.69
   0   2  -8  803.82   58.29
  -2   0  -8  740.83   56.89
   2  -2  -8  698.13   56.49
  -2   2   8  781.32   59.89
   0  -2   8  829.72   57.69
   0  -2   8  794.02   58.49
   0  -2   8  815.32   59.89
  -2   2   8  767.32   57.79
   2   0   8  805.82   65.49
   2   0   8  837.82   59.89
   0  -2   8  847.42   66.09
  -2   3  -8  200.08   21.00
   3  -1  -8  143.59   18.60
  -2   3  -8  190.38   17.60
  -2   3  -8  184.18   19.00
   3  -1  -8  158.88   18.60
  -2   3  -8  171.68   17.60
  -3   1   8  139.49   16.60
   2  -3   8  202.68   19.10
  -3   1   8  146.99   17.90
  -3   1   8  131.39   18.80
   1   2   8  178.08   18.60
   2  -3   8  216.08   21.00
   1   2   8  168.68   16.20
  -3   1   8  144.19   18.20
   1   2   8  182.38   18.30
   2  -3   8  222.78   17.70
   1   2   8  160.88   17.10
  -1   4  -8    8.90    8.10
  -1   4  -8   12.80    7.80
   4  -3  -8   19.10    9.30
  -1   4  -8   -0.40    8.90
  -3  -1  -8   15.20    6.60
   3   1   8   32.60    9.30
   1  -4   8    0.80    9.10
   1  -4   8    2.40    7.50
  -4   3   8   -2.00    8.90
  -4   3   8   15.40    5.60
   3   1   8    8.00    7.00
  -4   3   8    0.10    9.70
   1  -4   8    4.50    7.80
   2   1  -8  176.88   18.70
  -3   2  -8  205.28   18.00
  -3   2  -8  164.38   19.10
  -3   2  -8  165.18   18.00
  -3   2  -8  197.08   21.20
   2   1  -8  188.28   18.60
   3  -2   8  186.88   18.00
  -2  -1   8  196.48   19.90
  -2  -1   8  177.58   19.90
   3  -2   8  169.88   18.40
  -2  -1   8  192.68   18.90
  -1   3   8  123.49   16.40
   3  -2   8  214.68   21.80
  -1   3   8  156.48   18.40
  -3   5  -8    4.10    8.10
  -3   5  -8    2.60    8.90
  -3   5  -8    8.50    7.70
   5  -2  -8   -1.50   11.20
   5  -2  -8   15.10    8.00
  -3   5  -8   12.40    9.40
   5  -2  -8    3.90    8.50
   2   3   8   -1.40    6.30
   2   3   8    5.20    9.40
   3  -5   8   15.50    9.20
  -5   2   8    9.20    9.70
  -5   2   8    9.20   10.30
  -5   2   8   -5.50    9.20
   3  -5   8   -3.50    7.70
   2   3   8   16.60    9.10
   3  -5   8   -1.50    7.80
  -2   6  -8  309.77   28.40
  -2   6  -8  310.17   24.70
   6  -4  -8  251.77   25.90
   6  -4  -8  310.17   28.40
  -2   6  -8  304.47   30.10
   4   2   8  277.37   27.90
   2  -6   8  306.07   25.40
  -6   4   8  282.47   28.90
  -6   4   8  258.07   25.40
   4   2   8  277.87   28.20
  -6   4   8  314.57   28.50
   2  -6   8  297.37   26.80
   4   2   8  273.97   26.70
  -4   1  -8   13.80    8.60
  -4   1  -8    8.60    8.00
  -4   1  -8   12.80    8.00
   1   3  -8   25.10    8.50
   1   3  -8   26.30    8.30
  -3   4   8    2.90    4.20
   4  -1   8   11.60    7.30
  -3   4   8    1.30    9.10
  -1  -3   8    8.90    6.70
  -1  -3   8   23.30    8.50
  -3   4   8   -5.30    7.40
  -1  -3   8   24.00    9.80
   4  -1   8    0.70    8.30
   4  -1   8   14.20    7.90
  -1  -3   8    6.90    8.90
  -4   4  -8  190.58   20.70
  -4   4  -8  157.08   18.70
  -4   4  -8  155.18   20.30
   4   0  -8  133.19   18.60
   4   0  -8  142.49   19.10
   4   0  -8  184.88   18.30
  -4   4  -8  197.68   17.90
   4  -4   8  189.28   21.40
  -4   0   8  150.68   19.30
   0   4   8  133.69   18.00
   4  -4   8  151.28   18.70
   4  -4   8  185.18   18.30
  -4   0   8  147.49   19.10
  -4   0   8  131.99   19.50
   7  -3  -8   -0.30   14.70
  -4   7  -8    5.10    8.60
  -4   7  -8   17.50   12.10
  -4   7  -8   10.70   13.10
   7  -3  -8   26.30   12.20
   3   4   8    5.40   12.80
  -7   3   8   23.80   14.10
   4  -7   8    9.80   11.30
   4  -7   8    5.00   10.10
  -7   3   8    4.80   12.60
   3   4   8   20.50   11.10
  -7   3   8    3.60   12.60
  -3   8  -8   -0.90   12.90
  -3   8  -8   20.20   13.90
   8  -5  -8   26.60   13.70
   8  -5  -8   27.20   16.80
  -8   5   8   19.60   12.40
   3  -8   8   29.40   14.00
  -8   5   8   29.80   14.80
   5   3   8   29.40   14.00
   5   3   8   11.30   15.20
  -8   5   8   52.19   17.70
   3  -8   8    0.80   10.60
  -5   0  -8    2.20    7.30
   5  -5  -8    6.30   10.10
   0   5  -8   18.40   10.00
  -5   0  -8   -6.10    8.80
  -5   0  -8   -1.70    9.70
   0  -5   8    6.60    9.60
   0  -5   8   10.70    8.30
   0  -5   8    8.50   10.00
  -5   5   8   13.70   11.00
  -5   5   8   18.50   10.80
   5   0   8   14.30    9.70
  -5   3  -8   -3.80    8.50
   3   2  -8   16.50    8.50
   3   2  -8   16.40    9.50
  -5   3  -8   -5.70    8.20
   3   2  -8    2.00    8.40
  -5   3  -8    5.30    7.90
  -5   3  -8    4.50    8.00
   3   2  -8    8.00    8.40
   5  -3   8    9.00    9.40
  -3  -2   8    7.30    7.20
   5  -3   8    3.20    8.20
  -3  -2   8   21.50   10.90
  -3  -2   8   10.40    9.60
   5  -3   8   19.20    9.30
   5  -3   8    0.80    7.60
  -2   5   8    2.00    8.30
  -5   6  -8   64.39   11.60
   6  -1  -8   39.10   12.40
  -5   6  -8   55.09   13.60
   6  -1  -8   43.70   14.70
   6  -1  -8   47.20   12.40
  -5   6  -8   57.59   14.90
  -5   6  -8   39.40   11.10
   5  -6   8   28.60   11.60
  -6   1   8   57.99   14.70
  -6   1   8   36.30   12.90
   5  -6   8   56.89   13.70
   1   5   8   36.70   12.10
   1   5   8   34.50   11.40
  -6   1   8   23.80   12.00
   9  -4  -8   70.39   20.30
  -5   9  -8   33.50   15.70
  -5   9  -8   43.00   17.70
   9  -4  -8   24.80   14.80
   5  -9   8   39.20   15.10
   4   5   8   24.00   16.20
  -9   4   8   20.80   16.50
  -9   4   8   37.80   18.40
   4   5   8   59.29   16.10
   4   5   8   33.00   12.60
  10  -6  -8   91.99   20.00
  -4  10  -8   76.39   20.70
  -4  10  -8   70.09   18.80
  -6  -4  -8   86.89   23.30
   6   4   8   63.29   20.90
 -10   6   8   65.69   22.10
 -10   6   8   35.40   18.10
   6   4   8   83.89   18.90
  -6  -1  -8   29.30   12.10
   7  -6  -8   35.90   15.30
   7  -6  -8   42.00   13.00
  -6  -1  -8   15.00   12.20
  -1   7  -8   19.70   12.90
  -6  -1  -8   47.90   11.40
  -1   7  -8   29.20   15.10
  -7   6   8   18.00   13.80
   6   1   8   17.70   13.70
   6   1   8   56.99   16.40
   1  -7   8   25.70   11.70
   1  -7   8   21.50   13.30
  -7   6   8   37.40   15.90
  -6   2  -8  261.17   27.30
  -6   2  -8  309.87   27.20
  -6   2  -8  272.27   26.10
  -6   2  -8  302.37   29.20
   2   4  -8  304.27   28.50
   2   4  -8  324.57   27.90
  -2  -4   8  285.27   27.00
  -2  -4   8  267.57   26.60
   6  -2   8  306.07   26.00
   6  -2   8  221.48   24.70
  -4   6   8  285.07   26.80
  -4   6   8  295.37   26.60
   6  -2   8  268.17   25.20
   5   1  -8   34.00   11.30
   5   1  -8   31.00   11.10
  -6   5  -8   47.00   12.50
   5   1  -8   33.00   12.20
   5   1  -8   41.30   12.90
  -6   5  -8   48.00   14.80
  -6   5  -8   35.30   10.90
  -6   5  -8   46.20   12.50
   6  -5   8   46.30   13.20
  -5  -1   8   14.50   12.70
  -5  -1   8   33.30   13.90
   6  -5   8   59.89   14.10
  -1   6   8   38.20   11.40
  -5  -1   8   27.60   10.20
   8  -2  -8  200.38   23.40
  -6   8  -8  184.38   24.60
  -6   8  -8  139.09   19.20
   8  -2  -8  195.78   24.70
  -6   8  -8  130.89   19.40
  -6   8  -8  160.18   26.30
   8  -2  -8  198.58   23.40
   6  -8   8  168.28   22.90
  -8   2   8  215.18   26.00
   6  -8   8  157.68   21.20
   2   6   8  152.88   23.00
   2   6   8  190.18   22.10
  -8   2   8  157.48   23.70
  -8   2   8  223.48   25.30
  -6  11  -8    3.20   16.30
  -6  11  -8   12.70   17.90
  -5  -6  -8    3.00   19.00
   5   6   8   -4.40   16.10
 -11   5   8    3.40   17.40
 -11   5   8   -2.10   18.40
   5   6   8   -4.00   14.30
  -2   9  -8    4.10   16.50
  -2   9  -8   54.19   18.70
  -7  -2  -8    4.30   18.50
   9  -7  -8   48.50   17.60
  -9   7   8   38.20   20.60
   7   2   8   42.80   19.50
   7   2   8   30.50   16.00
  -9   7   8    3.60   16.20
   1   6  -8   39.70   12.70
   6  -7  -8   24.10   12.90
  -7   1  -8   22.60   13.80
  -7   1  -8   17.60   11.50
  -7   1  -8   10.80   12.00
  -7   1  -8   39.00   16.20
   7  -1   8   36.20   13.40
  -6   7   8   40.20   15.40
  -6   7   8   20.60   13.30
  -1  -6   8   45.70   14.20
  -1  -6   8   55.59   14.10
   4   3  -8   38.00   12.50
   4   3  -8   31.90    9.60
  -7   4  -8    2.40   10.90
  -7   4  -8   -5.40   11.50
   4   3  -8   25.20   12.10
  -7   4  -8    2.40   13.60
  -7   4  -8    5.60   11.30
  -7   4  -8   24.10   12.10
   4   3  -8   26.60    9.70
   7  -4   8    9.00    9.60
  -4  -3   8   12.60   13.60
   7  -4   8   13.80   12.80
   7  -4   8   14.50   11.80
  -4  -3   8   33.10   13.80
  -3   7   8   19.80   11.00
  -7   7  -8   22.40   11.20
   7   0  -8   12.00   11.90
  -7   7  -8   15.80   12.00
   7   0  -8    7.90   14.00
  -7   7  -8   21.10   15.20
   7   0  -8   -8.90   13.00
  -7   7  -8   26.60   14.10
  -7   0   8   -2.20   14.10
   7  -7   8   24.70   14.30
   0   7   8   19.30   12.10
  -7   0   8   18.50   17.40
  -7   0   8    7.60   12.70
   7  -7   8    0.80   13.50
   0   7   8    0.20   15.30
  -7  10  -8   25.00   17.40
  10  -3  -8    8.40   15.70
  -7  10  -8   47.90   19.30
   3   7   8   58.09   17.70
   3   7   8   16.70   16.40
 -10   3   8   32.40   17.50
  -3  11  -8  -20.70   14.30
  -8  -3  -8   21.60   20.50
  -3  11  -8    3.20   17.20
 -11   8   8   18.00   20.20
   8   3   8    7.00   18.50
   8   3   8   11.00   15.50
 -11   8   8   -8.00   16.40
  -8   0  -8   20.60   20.00
   0   8  -8   50.39   16.20
  -8   8   8   41.80   16.70
   8   0   8   42.10   18.90
   0  -8   8   36.50   14.30
   8   0   8   38.40   16.40
  -8   8   8   38.40   19.00
  -8   3  -8   11.90   13.30
  -8   3  -8   10.40   12.40
  -8   3  -8   -0.10   13.10
  -8   3  -8   20.50   15.20
   3   5  -8   23.40   13.20
   3   5  -8    3.40   15.10
  -3  -5   8  -10.40   14.10
   8  -3   8   14.90   12.00
   8  -3   8    6.90   12.20
   8  -3   8  -10.10   11.50
  -5   8   8   15.30   13.00
  -3  -5   8   10.40   14.80
  -5   8   8   19.00   12.30
  -8   6  -8  124.19   19.30
  -8   6  -8  184.68   24.10
   6   2  -8  174.28   23.90
  -8   6  -8  198.08   27.50
  -8   6  -8  182.78   21.00
  -8   6  -8  163.98   22.20
   8  -6   8  182.98   23.70
   8  -6   8  163.78   18.80
  -6  -2   8  152.08   24.80
  -2   8   8  131.89   19.50
   8  -6   8  179.28   22.50
  -6  -2   8  157.48   24.10
   9  -1  -8   39.00   17.30
  -8   9  -8    7.90   15.90
  -8   9  -8   15.90   18.60
   8  -9   8   31.90   17.50
   1   8   8   15.70   17.00
  -9   1   8    7.10   17.00
   1   8   8   15.40   13.70
  -1  10  -8   -7.10   15.40
  -9  -1  -8   -6.40   19.80
   9   1   8  -13.00   13.90
 -10   9   8  -19.00   16.70
   9   1   8    0.90   17.40
 -10   9   8    9.80   16.00
  -9   2  -8   43.40   18.20
  -9   2  -8   16.50   19.90
   2   7  -8   15.40   15.30
  -2  -7   8   27.50   16.70
   9  -2   8   48.50   16.60
  -7   9   8    6.80   14.60
  -7   9   8   -1.10   15.40
  -9   5  -8   30.10   15.10
   5   4  -8   41.60   15.80
  -9   5  -8   34.30   16.40
   5   4  -8   25.10   14.60
  -9   5  -8   40.20   14.90
  -9   5  -8   28.80   14.90
   9  -5   8   19.70   16.80
  -5  -4   8    8.10   16.90
  -4   9   8   34.70   12.40
  -5  -4   8   14.80   17.70
   9  -5   8   29.00   13.80
  -9   8  -8  -11.30   18.90
   8   1  -8   20.90   17.10
  -9   8  -8   15.60   16.00
  -1   9   8   10.50   12.30
  -8  -1   8   20.30   21.50
   9  -8   8   21.80   18.70
  -8  -1   8  -10.40   16.80
 -10   1  -8   25.00   19.30
   1   9  -8   -1.00   14.80
  -9  10   8   -2.20   16.80
  10  -1   8   17.00   19.30
  10  -1   8   33.00   17.70
 -10   4  -8   60.79   18.80
 -10   4  -8   67.59   18.40
   4   6  -8  103.49   22.70
   4   6  -8   74.99   18.00
 -10   4  -8   79.69   21.40
  -4  -6   8   97.79   22.10
  10  -4   8   69.09   19.00
  -6  10   8   41.10   16.40
   7   3  -8   24.50   17.00
 -10   7  -8   14.70   21.20
 -10   7  -8   41.40   17.10
  -7  -3   8   11.70   17.30
  -3  10   8   42.70   14.10
 -10  10  -8   53.79   25.60
 -10  10  -8   51.49   20.30
  10   0  -8   85.09   20.50
 -10   0   8   45.20   20.70
   0  10   8   75.59   18.60
 -11   3  -8   -9.50   19.00
   3   8  -8   20.20   16.60
   3   8  -8  -25.70   18.70
  -8  11   8    4.30   15.10
  -3  -8   8   15.40   17.20
  11  -3   8    5.20   16.50
   6   5  -8   -1.70   15.50
 -11   6  -8    0.10   15.80
   6   5  -8   19.90   15.30
  -6  -5   8   20.40   17.40
  -5  11   8   14.70   12.80
   0   0  -9 6550.84  454.35
   0   0  -9 6432.26  453.65
   0   0   9 6582.94  453.75
   0   0   9 6950.00  468.95
   0   0   9 6168.48  515.15
  -1   2  -9   42.90   10.60
  -1  -1  -9   21.10    6.30
  -1  -1  -9   11.70    7.30
   2  -1  -9   21.70    9.50
  -1   2  -9   38.10    9.80
  -1   2  -9   51.99    9.60
  -1   2  -9   39.00    9.70
   1   1   9   15.70    9.30
  -2   1   9   24.50   10.30
  -2   1   9   45.10    9.50
   1  -2   9   39.30    9.40
   1  -2   9   43.20   10.00
  -2   1   9   34.10    9.10
   1   1   9   11.90    8.20
   1  -2   9   37.20    8.20
   1   1   9   13.10    7.10
   1  -2   9   24.40    8.00
   1   1  -9   24.90    7.90
  -2   1  -9   19.30    7.50
  -2   1  -9   24.00    8.50
   1   1  -9   30.10    9.60
  -2   1  -9   34.20    9.40
  -2   1  -9   19.20    8.50
  -1   2   9   26.90    8.50
  -1  -1   9   25.70    9.30
  -1   2   9   19.60    9.60
   2  -1   9   20.10    8.80
   2  -1   9   12.50    5.50
   2  -1   9   19.70    8.10
  -1  -1   9   27.80    9.70
   2  -1   9   27.80    8.40
  -1  -1   9   21.60    7.40
  -1  -1   9   18.90    7.70
  -1  -1   9   29.80    9.90
  -2   4  -9  136.19   17.60
   4  -2  -9   83.39   13.80
   4  -2  -9  103.59   15.90
  -2   4  -9  118.59   16.40
  -2   4  -9  153.08   14.80
  -2   4  -9  132.29   15.10
  -4   2   9   97.89   15.40
  -4   2   9  102.89   14.40
   2   2   9   97.29   14.70
  -4   2   9   59.59   15.00
   2  -4   9  106.49   13.40
   2  -4   9  101.09   15.40
   2  -4   9  131.59   16.30
   2   2   9   76.19   12.50
  -4   2   9   88.19   12.30
   2   2   9   47.20   11.20
   2   2   9   94.19   13.10
   0   3  -9  575.04   41.10
   3  -3  -9  495.25   38.80
   0   3  -9  545.15   42.70
  -3   0  -9  515.05   40.20
  -3   0  -9  506.85   45.10
  -3   0  -9  560.94   39.70
   3  -3  -9  543.65   40.50
   3   0   9  504.25   45.80
  -3   3   9  407.76   41.60
  -3   3   9  464.35   41.00
   3   0   9  492.15   40.60
   0  -3   9  552.04   46.50
   0  -3   9  541.85   40.10
   0  -3   9  556.54   41.80
   0  -3   9  569.14   41.70
   3   0  -9 2352.26  169.48
   3   0  -9 2252.37  164.08
  -3   3  -9 2365.36  163.18
  -3   3  -9 2317.67  185.38
  -3   3  -9 2269.67  163.78
  -3   3  -9 2341.87  169.88
  -3   0   9 2312.47  162.98
  -3   0   9 2304.97  169.18
  -3   0   9 2412.56  161.08
   3  -3   9 2257.67  163.88
  -3   0   9 2318.87  163.98
   3  -3   9 2388.56  163.38
   0   3   9 2240.88  167.48
   0   3   9 2331.07  160.48
   0   3   9 2218.78  167.28
   3  -3   9 2364.96  185.68
  -3   6  -9  690.93   49.80
  -3   6  -9  651.33   52.29
   6  -3  -9  535.05   47.00
   6  -3  -9  582.54   47.00
   6  -3  -9  538.05   45.50
   3  -6   9  608.64   46.50
  -6   3   9  556.44   46.80
   3   3   9  522.05   47.50
  -6   3   9  567.54   45.60
   3   3   9  501.15   49.00
  -6   3   9  632.04   49.60
   3  -6   9  637.54   45.00
   3   3   9  589.34   46.00
   3   3   9  529.35   46.30
  -4  -1  -9  632.24   57.29
  -1   5  -9  708.03   55.59
  -4  -1  -9  636.14   50.79
  -1   5  -9  752.02   60.39
   5  -4  -9  706.33   52.99
   4   1   9  653.13   55.19
   1  -5   9  723.03   53.39
  -5   4   9  711.63   55.89
   1  -5   9  666.33   51.59
  -5   4   9  679.23   53.19
   4   1   9  686.63   52.59
   4   1   9  714.33   58.89
   2   2  -9  117.19   15.10
  -4   2  -9  120.99   16.10
   2   2  -9   82.39   14.80
  -4   2  -9  137.79   16.80
  -4   2  -9  109.59   14.80
  -4   2  -9   98.39   13.60
   4  -2   9   99.59   14.20
   4  -2   9   96.89   14.00
  -2  -2   9  101.19   15.80
  -2   4   9   55.19   13.60
   4  -2   9   99.29   15.50
   4  -2   9  112.09   14.00
  -2  -2   9  108.09   16.30
  -2  -2   9  109.39   14.40
  -4   5  -9 1171.28   93.29
   5  -1  -9 1099.19   82.89
   5  -1  -9 1038.50   84.79
   5  -1  -9 1085.69   81.89
  -4   5  -9 1119.49   82.09
  -4   5  -9 1109.89   81.19
  -4   5  -9 1095.89   85.99
   1   4   9 1176.68   81.29
   4  -5   9 1128.79   82.49
   4  -5   9 1143.79   92.99
   4  -5   9 1111.79   81.79
  -5   1   9 1093.69   82.49
  -5   1   9 1111.49   82.19
  -5   1   9 1117.19   85.39
   8  -4  -9 2942.61  214.18
   8  -4  -9 3032.00  215.28
  -4   8  -9 3117.79  242.48
  -4   8  -9 3046.50  223.28
   4  -8   9 2999.70  212.78
   4  -8   9 3138.19  214.38
  -8   4   9 3016.90  211.18
   4   4   9 3016.60  222.98
  -8   4   9 3042.10  223.28
   4   4   9 2849.61  209.68
   4   4   9 2922.51  219.58
  -2   7  -9  117.69   20.60
   7  -5  -9  120.39   17.30
   7  -5  -9  126.29   20.40
  -2   7  -9  106.99   19.90
  -7   5   9  140.69   20.60
   5   2   9  154.98   21.80
  -7   5   9   97.19   20.80
   2  -7   9  134.79   19.40
   5   2   9   51.39   16.50
   5   2   9  124.99   19.10
   2  -7   9  138.79   16.90
   1   4  -9  757.72   51.59
  -5   1  -9  671.03   58.69
  -5   1  -9  699.23   52.49
   1   4  -9  699.93   54.99
  -5   1  -9  659.63   51.89
  -1  -4   9  629.84   52.79
  -1  -4   9  741.23   53.19
  -4   5   9  659.23   54.29
  -1  -4   9  642.54   51.79
  -4   5   9  647.84   52.49
   5  -1   9  694.43   52.09
  -5   4  -9 1148.79   85.39
   4   1  -9 1225.08   89.39
   4   1  -9 1232.88   88.99
   4   1  -9 1238.58   86.39
  -5   4  -9 1143.79   86.29
  -5   4  -9 1181.38   97.39
  -5   4  -9 1100.19   89.89
   4   1  -9 1242.98   85.89
   5  -4   9 1097.09   86.09
   5  -4   9 1154.38   97.49
  -4  -1   9 1178.98   86.69
  -4  -1   9 1177.08   88.69
  -1   5   9 1086.49   84.19
  -4  -1   9 1159.58   85.49
   5  -4   9 1188.08   85.99
  -5   7  -9  333.97   36.30
  -5   7  -9  376.76   31.30
   7  -2  -9  353.66   33.90
   7  -2  -9  369.36   33.20
  -5   7  -9  450.05   38.30
   7  -2  -9  370.26   35.20
  -7   2   9  344.17   34.70
   5  -7   9  375.06   32.70
   2   5   9  408.26   34.20
  -7   2   9  362.96   34.80
   2   5   9  335.17   34.10
   5  -7   9  295.37   33.00
  -7   2   9  349.47   35.30
  -5  10  -9   -5.10   16.50
  10  -5  -9   35.30   21.40
  -5  10  -9   15.50   16.50
  -5  -5  -9    7.10   18.10
 -10   5   9   -6.50   18.00
 -10   5   9   55.89   18.80
   5   5   9   21.60   15.40
   5   5   9   18.00   16.50
  -3   9  -9  360.46   37.60
   9  -6  -9  361.46   35.10
   6   3   9  355.56   35.20
  -9   6   9  328.47   38.00
   6   3   9  305.57   37.00
  -9   6   9  380.46   36.10
  -6   0  -9 1198.68   95.19
   0   6  -9 1292.47   99.99
  -6   0  -9 1337.37  107.79
   6  -6  -9 1223.68   95.39
  -6   0  -9 1242.08   95.69
  -6   6   9 1400.06   95.59
   0  -6   9 1295.67   96.59
   0  -6   9 1356.36   93.89
   0  -6   9 1317.47   94.89
  -6   6   9 1415.76  101.39
   6   0   9 1347.17   95.09
   3   3  -9  567.34   47.70
  -6   3  -9  517.75   45.90
  -6   3  -9  614.34   51.69
  -6   3  -9  550.44   48.70
   3   3  -9  608.34   48.50
   3   3  -9  623.44   44.90
  -6   3  -9  611.54   45.30
  -3  -3   9  467.35   45.50
  -3   6   9  551.44   45.90
   6  -3   9  585.74   44.20
   6  -3   9  584.24   45.50
   6  -3   9  519.65   45.40
  -3   6   9  562.94   45.40
  -3   6   9  616.64   45.70
  -3  -3   9  599.94   46.40
  -3  -3   9  628.74   47.40
  -6   6  -9  740.43   68.69
   6   0  -9  802.02   63.79
  -6   6  -9  812.32   61.29
  -6   6  -9  756.52   64.99
   6   0  -9  754.22   60.69
  -6   6  -9  805.02   59.99
   6   0  -9  809.12   61.99
   6   0  -9  856.71   63.69
  -6   0   9  808.72   62.29
   6  -6   9  813.72   61.39
   0   6   9  746.63   59.99
  -6   0   9  803.02   62.69
   6  -6   9  811.42   61.79
  -6   0   9  750.02   63.29
   0   6   9  792.22   63.99
  -6   9  -9  446.06   44.60
   9  -3  -9  430.76   40.50
  -6   9  -9  475.65   44.30
   9  -3  -9  426.16   42.00
   3   6   9  389.46   40.90
   6  -9   9  463.85   40.60
  -9   3   9  396.76   42.50
  -9   3   9  402.16   41.10
   3   6   9  406.86   38.30
  -4  11  -9   23.00   17.10
  -7  -4  -9   27.70   21.70
  -4  11  -9   29.70   18.40
 -11   7   9   42.90   21.70
   7   4   9   45.50   17.90
 -11   7   9   61.49   20.20
   7   4   9   12.50   19.00
  -1   8  -9  171.68   26.10
   8  -7  -9  207.58   24.00
  -7  -1  -9  175.88   28.20
  -1   8  -9  172.88   26.10
  -8   7   9  193.18   24.80
   7   1   9  172.98   24.00
  -8   7   9  209.38   29.30
   7   1   9  200.18   27.60
  -7   2  -9  148.29   19.10
  -7   2  -9  104.39   17.70
   2   5  -9  126.29   21.00
  -7   2  -9  110.99   17.80
   2   5  -9  103.69   18.80
  -5   7   9   73.89   17.40
  -2  -5   9  152.08   19.70
  -5   7   9  131.49   20.20
  -2  -5   9  124.79   19.20
   7  -2   9  121.69   18.50
   7  -2   9  116.89   16.60
  -7   5  -9  326.47   37.30
  -7   5  -9  388.96   34.20
  -7   5  -9  370.36   34.90
   5   2  -9  403.56   34.20
   5   2  -9  422.96   36.40
  -7   5  -9  399.76   38.90
   5   2  -9  367.46   33.70
   5   2  -9  397.56   36.10
  -5  -2   9  444.16   36.80
  -5  -2   9  495.65   38.30
  -5  -2   9  416.76   35.10
   7  -5   9  338.27   34.80
   7  -5   9  362.26   35.10
  -2   7   9  330.87   32.70
   7  -5   9  346.37   31.60
  -7   8  -9  172.38   27.00
  -7   8  -9  244.48   31.40
   8  -1  -9  246.28   29.00
   8  -1  -9  220.68   27.40
  -8   1   9  207.08   27.90
  -8   1   9  238.28   29.50
   1   7   9  241.78   29.10
  -8   1   9  248.68   28.70
   1   7   9  244.48   26.50
   7  -8   9  185.08   25.00
  11  -4  -9   14.80   17.40
  -7  11  -9   30.50   19.30
  -4  -7  -9   12.10   20.00
  -7  11  -9   40.80   17.80
   4   7   9   43.20   17.40
   4   7   9   21.80   16.80
 -11   4   9   36.20   19.20
  -8  -2  -9  245.18   32.40
  -2  10  -9  164.58   26.90
  -2  10  -9  157.88   27.50
 -10   8   9  168.58   30.00
   8   2   9  200.18   30.00
 -10   8   9  123.99   23.40
   8   2   9  160.08   24.60
  -8   1  -9  187.68   23.60
  -8   1  -9  170.58   26.90
   1   7  -9  150.58   24.00
  -7   8   9  157.48   23.50
   8  -1   9  168.58   23.10
  -7   8   9  199.38   27.40
  -1  -7   9  194.58   22.60
  -8   4  -9 3021.00  214.68
  -8   4  -9 3224.08  220.38
  -8   4  -9 3090.79  248.28
  -8   4  -9 3041.90  218.88
   4   4  -9 3142.89  227.68
   4   4  -9 3038.90  228.28
   8  -4   9 3187.28  219.48
   8  -4   9 3113.69  213.08
  -4  -4   9 3030.10  215.58
  -4   8   9 3017.50  224.38
  -4   8   9 2918.81  213.38
  -4  -4   9 3242.68  220.78
  -8   7  -9  250.37   29.40
  -8   7  -9  185.18   29.80
  -8   7  -9  261.87   26.90
   7   1  -9  262.97   29.00
  -1   8   9  136.99   24.70
   8  -7   9  240.88   28.00
  -7  -1   9  210.08   30.60
  -7  -1   9  227.28   28.70
  -8  10  -9   66.29   20.00
  10  -2  -9   84.39   20.70
  -8  10  -9   14.20   19.40
   2   8   9  110.29   19.50
 -10   2   9   58.19   20.10
   2   8   9   82.89   20.20
   0   9  -9  325.97   37.20
  -9   0  -9  436.56   41.90
  -9   9   9  283.27   36.10
   9   0   9  451.85   42.00
   9   0   9  496.05   38.60
  -9   9   9  301.27   41.10
   3   6  -9  388.26   38.10
  -9   3  -9  280.17   35.60
  -9   3  -9  340.77   34.80
   3   6  -9  404.96   36.30
  -6   9   9  293.67   33.80
   9  -3   9  350.56   32.70
  -3  -6   9  344.77   35.10
  -6   9   9  308.87   32.10
  -9   6  -9  378.86   37.30
   6   3  -9  489.05   42.40
  -9   6  -9  368.26   44.20
  -9   6  -9  422.76   39.60
   6   3  -9  438.66   40.80
  -9   6  -9  410.76   43.90
  -6  -3   9  468.75   43.80
   9  -6   9  470.45   36.40
   9  -6   9  415.86   40.90
  -3   9   9  357.26   36.50
  -6  -3   9  449.76   42.50
  -9   9  -9  100.99   26.40
   9   0  -9  188.88   25.40
  -9   0   9  159.38   26.00
   0   9   9  166.38   22.10
   2   8  -9  148.59   25.00
 -10   2  -9  159.58   28.00
  -2  -8   9  114.19   23.10
  -8  10   9  143.19   26.90
  10  -2   9  230.18   25.10
 -10   5  -9   21.20   17.80
   5   5  -9   20.70   15.60
   5   5  -9   20.20   17.30
 -10   5  -9   29.50   16.70
  -5  10   9   17.30   12.90
  -5  10   9   14.90   12.70
  10  -5   9    6.20   14.80
  -5  -5   9    7.60   17.50
 -10   8  -9   64.49   20.10
   8   2  -9   75.09   20.30
 -10   8  -9   26.40   23.00
  -2  10   9  105.09   17.60
  -8  -2   9   57.49   20.40
   4   7  -9   57.79   21.80
   4   7  -9   58.69   18.40
 -11   4  -9   63.19   22.70
  -7  11   9   42.60   16.60
  -4  -7   9   23.00   19.50
  11  -4   9   73.29   19.70
   7   4  -9   45.30   17.20
   7   4  -9   56.99   18.90
  -7  -4   9   33.30   20.40
   1  -1 -10   79.99   10.40
  -1   0 -10   59.39   11.10
   0   1 -10   73.59   11.00
  -1   0 -10   38.00    9.10
   1  -1 -10   68.09   12.00
   0   1 -10   61.49   11.90
   0   1 -10   61.19   10.90
  -1   1  10   77.99   11.80
   0  -1  10   65.89   12.10
   1   0  10   53.29   10.50
   0  -1  10   53.89    9.50
   0  -1  10   63.09   11.50
   0  -1  10   45.30   10.20
   1   0  10   45.90   11.00
   0  -1  10   56.39   11.90
  -1   1  10   79.49   13.10
  -2  -1 -10   35.10    7.90
  -1   3 -10   30.60   11.30
  -1   3 -10   38.10   10.20
  -1   3 -10   46.20   11.10
   3  -2 -10   19.00   10.70
  -2  -1 -10   14.60    8.50
  -1   3 -10   33.00   10.20
   2   1  10   30.40    8.40
   1  -3  10   13.90    9.00
   2   1  10   17.90    9.50
  -3   2  10   31.20   10.60
   2   1  10   44.10   11.40
  -3   2  10   27.40    7.10
   1  -3  10   23.50   10.90
   1  -3  10   46.60   10.30
   1  -3  10   12.40    9.50
  -3   2  10   32.50    9.40
  -3   2  10   27.50   11.90
   2   0 -10  493.45   40.40
   2   0 -10  520.15   39.90
  -2   2 -10  518.05   39.50
  -2   2 -10  520.85   44.30
  -2   2 -10  480.05   38.40
  -2   2 -10  492.85   41.10
   0   2  10  485.95   39.30
  -2   0  10  521.35   38.30
  -2   0  10  530.85   39.70
   2  -2  10  472.15   39.20
   0   2  10  438.76   39.50
   2  -2  10  496.05   44.50
   2  -2  10  488.85   38.60
   2  -2  10  502.45   40.50
  -2   0  10  523.55   40.90
  -2   0  10  511.85   39.70
   5  -3 -10   27.60   10.70
  -2   5 -10   28.30   10.00
  -2   5 -10   38.70   13.10
  -2   5 -10   28.80   11.60
   5  -3 -10   23.10   12.70
   2  -5  10   34.70   10.80
   3   2  10   21.90   11.30
   3   2  10   11.50   10.90
  -5   3  10   29.90   12.50
   2  -5  10   25.90    9.40
   3   2  10   27.90    8.60
  -5   3  10   21.50   10.30
   3   2  10   19.10   10.50
   3   2  10   15.20    8.90
  -5   3  10   42.40    8.60
   2  -5  10   29.80   12.50
  -5   3  10   26.60   11.30
   1   2 -10   40.60   10.70
  -3   1 -10   31.80   10.00
  -3   1 -10   17.80    9.70
   1   2 -10   33.10    9.70
  -3   1 -10   21.60    8.50
   2  -3 -10   13.80    6.50
   2  -3 -10   27.30    9.30
   3  -1  10   20.50    8.70
  -1  -2  10   36.20    9.60
   3  -1  10   26.40    9.00
  -1  -2  10   42.40   11.10
  -1  -2  10   34.50   10.00
   3  -1  10   22.20   10.00
  -2   3  10   23.10    9.70
  -1  -2  10   26.70   11.10
   3  -1  10   38.30   10.80
  -1  -2  10   33.60   11.90
  -2   3  10   21.60   10.80
   4  -1 -10   -3.40   10.80
   4  -1 -10   17.10    8.90
  -3   4 -10    8.80    8.80
  -3   4 -10    8.40    9.30
  -3   4 -10    4.70    9.00
  -3   4 -10   -1.80    8.30
   1   3  10   -1.80    6.20
  -4   1  10   11.70    9.40
   1   3  10    6.70    7.40
   3  -4  10   -4.00    8.30
   3  -4  10  -11.90    7.80
  -4   1  10    1.10    7.70
   1   3  10   17.40    7.20
   3  -4  10   14.90   10.40
   1   3  10   15.00    9.90
  -4   1  10    8.20   10.70
  -4   1  10    3.40   10.00
  -3   7 -10   33.60   11.40
  -3   7 -10   21.40   15.10
   7  -4 -10   33.50   14.10
  -3   7 -10   33.30   15.70
   7  -4 -10  -25.20   16.90
  -7   4  10   23.70   15.00
   3  -7  10   55.79   15.90
   3  -7  10   24.20   12.10
  -7   4  10   34.80   13.90
  -7   4  10   26.20   16.40
   4   3  10   14.10   13.40
   4   3  10   16.20   14.70
   4   3  10   32.50   13.80
  -4   0 -10  322.87   32.10
  -4   0 -10  325.87   29.50
  -4   0 -10  285.57   28.40
   0   4 -10  386.46   29.80
   4  -4 -10  367.06   29.90
   0   4 -10  346.77   31.20
   0  -4  10  369.66   33.40
   0  -4  10  338.77   30.30
   0  -4  10  430.16   31.40
  -4   4  10  324.37   30.80
   0  -4  10  356.46   29.00
   0  -4  10  317.87   29.20
  -4   4  10  330.67   31.70
   4   0  10  358.76   30.80
   4   0  10  337.67   33.60
  -4   3 -10   -2.70    8.50
  -4   3 -10    9.10    8.40
  -4   3 -10   17.80   10.20
   3   1 -10   10.00    9.00
   3   1 -10   12.10   10.40
  -4   3 -10   13.80    9.20
   4  -3  10   15.60    9.10
  -3  -1  10   16.20   11.30
  -1   4  10   -5.10    6.90
  -3  -1  10   10.00    8.80
  -1   4  10    6.30    9.20
  -3  -1  10   16.30   10.50
  -1   4  10    3.10    7.00
   4  -3  10   -5.30    7.70
   4  -3  10    6.40    9.20
   4  -3  10   17.30    9.80
   6  -2 -10  171.88   20.10
   6  -2 -10  191.18   21.90
   6  -2 -10  137.19   21.20
  -4   6 -10  197.28   21.30
  -4   6 -10  169.58   19.00
  -4   6 -10  155.18   22.40
   6  -2 -10  147.19   22.80
  -4   6 -10  188.78   23.20
   4  -6  10  177.08   20.40
   2   4  10  186.48   21.80
  -6   2  10  187.88   23.10
   2   4  10  184.18   21.60
  -6   2  10  174.28   23.00
   2   4  10  160.48   17.70
  -6   2  10  198.58   23.80
   4  -6  10  194.88   22.40
  -4   9 -10    4.50   16.20
   9  -5 -10  -12.40   14.40
   9  -5 -10  -27.20   18.80
  -4   9 -10    2.00   16.60
  -9   5  10  -25.50   17.10
   5   4  10   -6.10   14.40
   5   4  10   -6.20   16.40
  -9   5  10    0.50   16.00
  -5  -1 -10    7.30    9.80
  -5  -1 -10   -8.10    9.30
  -1   6 -10   12.30   13.50
  -5  -1 -10    0.20    8.00
  -1   6 -10   17.70   12.40
  -1   6 -10   12.00    9.30
   6  -5 -10   -0.50   13.50
  -6   5  10  -18.30   11.30
   5   1  10    5.80   12.30
   1  -6  10   16.10   12.70
   1  -6  10   20.30   10.30
   5   1  10   -5.30   10.70
  -6   5  10   -4.30   12.90
   1  -6  10    1.50    9.50
   2   3 -10   29.40   11.10
  -5   2 -10   19.60    9.30
   2   3 -10   33.60    9.90
  -5   2 -10   25.80    9.70
   2   3 -10   36.10   11.00
   2   3 -10   35.70   10.40
  -5   2 -10   19.80   10.30
  -5   2 -10   16.00   10.70
  -2  -3  10   27.60   11.50
  -3   5  10   20.80   10.30
  -2  -3  10   19.80    8.90
   5  -2  10   20.70   11.40
  -2  -3  10   43.80   13.90
  -2  -3  10   28.50   10.80
   5  -2  10   17.10    9.20
   5  -2  10   29.70   11.20
  -3   5  10   33.40    9.50
   5  -2  10   19.90    9.60
  -3   5  10   30.60   11.80
   5   0 -10   24.50   11.20
   5   0 -10   17.50   12.70
  -5   5 -10   41.20   12.50
   5   0 -10   -6.10   10.90
   5   0 -10   26.20   11.40
  -5   5 -10   20.40   13.40
  -5   5 -10   35.40   10.60
  -5   5 -10   31.00   11.50
   0   5  10   24.30   10.80
   5  -5  10   19.50   11.80
  -5   0  10   32.20   13.70
   5  -5  10   27.50   11.90
  -5   0  10   28.10   12.70
   5  -5  10   21.10   11.40
  -5   0  10   12.50   10.70
   8  -3 -10    5.90   17.50
   8  -3 -10    6.60   13.60
  -5   8 -10   -0.50   14.10
   8  -3 -10   25.30   13.60
  -5   8 -10    2.80   15.10
   3   5  10   16.40   13.00
   5  -8  10   -2.00   13.80
  -8   3  10   -6.70   15.00
   3   5  10   -2.40   13.50
  -8   3  10    2.00   15.60
   5  -8  10   26.20   13.50
  -5  11 -10   -6.60   17.20
  -6  -5 -10    3.20   19.90
  -5  11 -10    1.40   17.60
 -11   6  10   10.60   17.90
   6   5  10    6.90   16.10
 -11   6  10  -12.00   19.70
   6   5  10   -2.70   18.40
   8  -6 -10   80.99   17.20
  -2   8 -10   78.79   18.90
  -2   8 -10   65.79   18.50
   6   2  10   93.49   20.10
   2  -8  10   43.30   16.90
   6   2  10   49.00   16.80
  -8   6  10   70.99   18.10
  -8   6  10   35.40   18.10
  -6   1 -10    0.00    9.80
  -6   1 -10   15.40   11.40
   1   5 -10    2.90    8.60
  -6   1 -10    4.80   11.20
   5  -6 -10   -6.10   10.90
   1   5 -10    4.30    9.00
   1   5 -10    8.10   11.60
  -5   6  10   10.30   12.20
  -1  -5  10   -5.20   11.00
  -5   6  10   15.20   11.90
   6  -1  10   -4.30   11.20
  -1  -5  10   11.80   10.50
  -1  -5  10  -14.30   11.80
  -6   4 -10  180.28   21.20
   4   2 -10  191.38   21.90
   4   2 -10  225.68   21.50
   4   2 -10  208.78   23.80
  -6   4 -10  182.88   24.00
  -6   4 -10  161.68   23.40
  -6   4 -10  178.18   22.10
   4   2 -10  195.98   22.10
   6  -4  10  179.78   22.30
  -2   6  10  167.38   21.30
  -4  -2  10  208.08   24.40
  -4  -2  10  217.48   24.00
   6  -4  10  174.58   19.70
   6  -4  10  187.78   21.90
  -4  -2  10  181.68   21.70
   7  -1 -10    6.80   15.60
  -6   7 -10   24.50   13.90
   7  -1 -10    7.40   12.20
   7  -1 -10   18.30   13.40
  -6   7 -10   39.80   13.50
  -6   7 -10   26.90   16.20
   7  -1 -10   28.50   13.50
   1   6  10   21.10   13.00
  -7   1  10    7.00   16.00
   6  -7  10   19.60   13.90
   6  -7  10    6.20   12.40
  -7   1  10   11.60   13.80
  -7   1  10    3.70   13.30
   1   6  10   21.50   14.90
  10  -4 -10   -8.40   19.80
  -6  10 -10   35.20   18.20
  -6  10 -10   33.30   17.50
  10  -4 -10    2.60   15.30
   4   6  10   24.50   15.60
 -10   4  10   11.30   18.60
 -10   4  10   31.10   18.40
   4   6  10   33.30   16.10
  -3  10 -10   34.90   18.50
  -7  -3 -10    6.00   19.30
  -3  10 -10   36.90   19.10
 -10   7  10   13.50   19.20
 -10   7  10   35.90   17.60
   7   3  10   44.80   17.30
   7   3  10   17.30   18.00
   0   7 -10   -1.00   12.80
   7   0  10    2.80   13.60
  -7   7  10   14.10   16.10
  -7   7  10   27.00   15.00
   0  -7  10    1.20   12.30
   0  -7  10   13.20   14.60
   3   4 -10   28.80   14.00
  -7   3 -10   28.10   13.00
   3   4 -10   47.50   15.50
  -7   3 -10   21.40   13.80
   3   4 -10   14.70   10.90
  -7   3 -10   25.80   13.90
   3   4 -10   12.40   10.90
   7  -3  10   25.30   13.00
   7  -3  10   40.60   13.50
  -4   7  10   14.70   13.40
   7  -3  10   47.90   13.70
  -3  -4  10   36.30   14.00
  -3  -4  10   30.90   16.80
  -4   7  10   10.30   13.50
   6   1 -10   11.70   13.40
  -7   6 -10    7.40   13.20
   6   1 -10   52.59   14.90
  -7   6 -10   32.30   16.80
  -7   6 -10   43.30   14.70
  -7   6 -10   19.70   11.70
   6   1 -10   13.60   13.50
  -6  -1  10   33.40   16.80
   7  -6  10   10.10   14.90
   7  -6  10   -1.50   13.70
   7  -6  10   20.80   10.70
  -6  -1  10   19.20   12.10
  -1   7  10   20.30   12.30
  -6  -1  10   19.30   14.20
  -7   9 -10   13.60   17.70
  -7   9 -10    7.20   16.20
   9  -2 -10   -1.20   16.20
   2   7  10   -3.10   13.40
  -9   2  10    0.70   16.50
   2   7  10   25.80   16.80
   7  -9  10    1.80   15.90
  -8  -1 -10    7.00   20.10
  -1   9 -10   11.40   15.70
  -9   8  10  -12.00   14.90
  -9   8  10   -3.20   17.30
   8   1  10   -5.30   16.80
   8   1  10   -8.00   14.20
   2   6 -10   42.90   15.90
  -8   2 -10   25.90   15.00
  -8   2 -10   25.00   15.50
  -8   2 -10   51.69   18.70
  -2  -6  10   45.70   15.90
   8  -2  10   54.09   15.60
  -6   8  10   55.39   17.40
  -2  -6  10   37.90   17.70
  -6   8  10   38.40   15.20
   5   3 -10   10.40   13.50
  -8   5 -10    4.30   13.90
  -8   5 -10   12.20   13.20
  -8   5 -10   26.00   14.90
  -8   5 -10   24.00   14.60
   5   3 -10   -8.30   12.70
  -8   5 -10   16.00   17.60
  -5  -3  10   17.50   14.90
   8  -5  10   11.50   15.50
  -3   8  10    1.30   11.90
  -5  -3  10    5.90   17.00
   8  -5  10   10.90   11.40
   8   0 -10  102.79   20.80
  -8   8 -10   98.49   24.30
  -8   8 -10  111.29   21.30
   8   0 -10  104.49   20.30
  -8   0  10   75.79   21.00
   8  -8  10  103.59   20.70
   0   8  10  106.69   18.50
  -9   1 -10  -24.30   18.00
   1   8 -10   -5.60   13.70
  -1  -8  10   -3.90   14.40
  -8   9  10    5.80   15.70
  -8   9  10   16.40   17.40
   9  -1  10    1.50   13.90
   4   5 -10    7.80   16.60
  -9   4 -10   -1.00   15.10
  -9   4 -10   12.20   15.50
  -9   4 -10  -19.80   15.50
   4   5 -10    3.50   14.70
  -5   9  10  -15.60   13.50
  -5   9  10   -5.80   12.30
   9  -4  10   -2.50   13.10
  -4  -5  10  -14.60   14.40
  -9   7 -10   36.80   20.80
   7   2 -10   -8.20   13.60
   7   2 -10    3.40   15.70
  -9   7 -10   29.20   16.10
   9  -7  10   -3.00   18.20
  -7  -2  10   19.70   20.20
  -7  -2  10   -0.80   15.80
  -2   9  10    8.80   12.70
  -9  10 -10    3.30   17.90
  10  -1 -10    0.90   17.20
  -9  10 -10   22.10   21.90
 -10   1  10    4.30   17.40
   1   9  10    5.60   14.10
   1   9  10   -0.60   17.90
   3   7 -10   27.80   16.40
 -10   3 -10   65.19   21.90
  -7  10  10   40.30   16.70
  -7  10  10   33.90   15.30
  -3  -7  10    6.30   16.40
  10  -3  10   37.10   16.40
   6   4 -10   36.60   16.60
 -10   6 -10   28.70   16.80
 -10   6 -10   23.30   16.70
   6   4 -10   12.80   15.10
  -6  -4  10   31.70   17.70
  -4  10  10   14.00   13.20
  10  -6  10   25.60   14.40
 -10   9 -10  -21.90   20.90
   9   1 -10    0.60   17.70
  -1  10  10  -14.30   12.70
  -9  -1  10  -16.70   15.80
 -11   5 -10  -15.70   18.10
   5   6 -10   -3.10   14.70
   5   6 -10   -4.20   17.10
  -6  11  10   18.50   14.30
  11  -5  10    4.50   16.80
  -5  -6  10   -4.00   17.50
  -1   1 -11   65.99   11.00
   0  -1 -11   90.99   12.50
   1   0 -11   54.79   11.10
   1   0 -11   87.09   12.00
   1   0 -11   70.89   12.60
  -1   1 -11   62.09   11.80
   0  -1 -11   79.49   10.40
  -1   1 -11   87.39   13.10
  -1   0  11   52.59   12.60
   1  -1  11   58.69   11.70
  -1   0  11   70.59   12.20
   1  -1  11   74.99   12.10
   1  -1  11   73.79   13.00
   0   1  11   58.09   12.50
  -1   0  11   67.29   12.00
   1  -1  11   84.19   12.70
   0   1  11   61.59   11.70
   0   1  11   79.69   13.20
   1  -1  11   67.79   10.70
  -1   0  11   64.29   10.30
  -2   0 -11  105.39   13.60
   2  -2 -11  125.19   13.60
   0   2 -11  156.88   16.30
   0   2 -11   91.59   14.80
   2  -2 -11   89.29   14.50
   0   2 -11  131.29   16.00
  -2   0 -11  105.49   15.00
  -2   0 -11   96.49   14.60
   0  -2  11  107.89   14.70
   0  -2  11  112.49   16.00
   0  -2  11   93.99   15.50
   0  -2  11  115.19   13.80
   0  -2  11  108.39   14.90
  -2   2  11  116.79   15.70
  -2   2  11  110.89   16.30
   2   0  11  111.29   14.60
   2   0  11   99.59   15.40
   2   0  11   93.99   15.60
  -2   3 -11  503.65   39.70
  -2   3 -11  522.35   41.50
   3  -1 -11  487.75   40.20
  -2   3 -11  539.15   39.40
  -2   3 -11  504.95   44.60
   3  -1 -11  430.26   40.00
   2  -3  11  470.55   39.50
   1   2  11  450.15   42.80
  -3   1  11  528.65   40.40
  -3   1  11  491.45   39.30
   1   2  11  415.36   39.20
   2  -3  11  492.75   38.80
  -3   1  11  566.64   41.90
   1   2  11  498.35   39.70
   2  -3  11  532.65   38.80
  -3   1  11  470.45   37.70
   2  -3  11  530.35   45.10
   2  -3  11  496.85   40.60
  -3  -1 -11   16.50    9.30
  -3  -1 -11   12.40    7.80
  -1   4 -11   16.50    9.90
  -1   4 -11   13.60    9.60
  -3  -1 -11   11.30    7.80
  -1   4 -11   -7.70   10.90
   4  -3 -11   22.10   11.30
   3   1  11    4.60    8.20
   3   1  11    7.60    8.10
   1  -4  11   19.50    9.30
   1  -4  11   22.80   10.00
   1  -4  11   30.00    9.80
   1  -4  11    4.50   10.10
  -4   3  11    2.00   10.40
   1  -4  11   18.50    9.00
  -4   3  11   22.50   11.90
   3   1  11    7.40   10.50
   2   1 -11  454.75   38.60
  -3   2 -11  501.75   42.90
  -3   2 -11  497.85   37.50
  -3   2 -11  471.75   40.10
  -3   2 -11  436.36   38.10
   2   1 -11  452.55   39.30
   3  -2  11  418.36   37.50
   3  -2  11  561.44   38.30
  -2  -1  11  495.05   39.50
   3  -2  11  536.85   44.10
  -2  -1  11  475.75   38.70
  -1   3  11  471.35   38.30
  -2  -1  11  454.85   37.10
   3  -2  11  484.05   37.60
  -1   3  11  431.26   38.40
  -2  -1  11  464.95   38.90
   5  -2 -11  124.39   17.40
   5  -2 -11  137.89   19.70
  -3   5 -11  116.19   18.60
  -3   5 -11  128.69   15.70
  -3   5 -11  124.89   18.50
  -3   5 -11  123.29   16.70
   2   3  11  125.39   15.10
  -5   2  11   99.49   16.70
   3  -5  11  106.59   17.20
   2   3  11   73.59   13.90
   3  -5  11  116.79   17.80
   2   3  11   94.79   16.80
  -5   2  11  134.89   14.90
   2   3  11   78.69   12.80
   3  -5  11  117.59   15.70
   2   3  11   70.69   14.80
  -5   2  11  102.19   17.50
  -5   2  11  114.79   18.70
  -2   6 -11   83.69   16.60
   6  -4 -11   64.09   17.00
  -2   6 -11   30.40   10.70
  -2   6 -11   93.99   17.40
   2  -6  11   60.49   13.00
  -6   4  11   69.59   18.00
   2  -6  11   53.29   15.50
   4   2  11   83.09   15.90
   4   2  11   30.90   12.20
  -6   4  11   64.89   15.40
   4   2  11   66.19   15.80
   4   2  11   38.60   12.40
  -4   1 -11    3.20    9.20
   3  -4 -11   14.80    6.80
   3  -4 -11    5.60    9.70
  -4   1 -11   27.30    9.40
   1   3 -11   16.40    9.90
  -4   1 -11   16.40    8.70
   1   3 -11   12.30    9.00
  -1  -3  11    3.20    7.80
  -1  -3  11   14.50   11.20
  -3   4  11   25.10   11.20
   4  -1  11   -0.50   10.30
   4  -1  11   -1.20    7.90
  -1  -3  11    5.10    9.00
  -1  -3  11   16.70   10.20
  -1  -3  11   14.30   10.60
  -3   4  11   25.70   11.00
   4   0 -11  599.74   51.09
   4   0 -11  618.04   49.99
  -4   4 -11  659.83   49.60
  -4   4 -11  649.14   55.59
  -4   4 -11  633.84   52.39
  -4   4 -11  646.24   48.40
   4  -4  11  700.63   49.20
   0   4  11  509.95   47.90
   0   4  11  587.64   48.80
  -4   0  11  614.44   49.80
  -4   0  11  647.64   50.39
   4  -4  11  704.33   47.60
   0   4  11  535.25   49.10
   4  -4  11  655.43   49.90
   4  -4  11  696.93   56.49
  -4   0  11  613.54   50.79
  -4   0  11  609.64   48.10
   7  -3 -11    1.60   17.90
   7  -3 -11   35.20   12.70
  -4   7 -11   33.00   15.10
   7  -3 -11   -8.70   14.30
  -4   7 -11   14.50   10.80
  -4   7 -11   16.70   13.80
   3   4  11    3.60    8.10
   3   4  11    9.20   13.70
   3   4  11  -32.80   13.10
  -7   3  11   47.70   15.70
   3   4  11   17.20   11.60
   4  -7  11   22.60   14.30
  -7   3  11   11.60   17.60
   4  -7  11   12.60   12.10
   8  -5 -11  297.77   35.20
  -3   8 -11  378.26   38.50
   8  -5 -11  283.87   32.60
  -3   8 -11  338.37   36.40
   5   3  11  365.96   34.10
   3  -8  11  379.96   34.40
   5   3  11  339.47   36.20
  -8   5  11  370.56   37.30
  -8   5  11  343.47   35.10
  -5   0 -11   99.59   16.60
   0   5 -11   67.89   13.10
   0   5 -11  123.09   18.00
  -5   0 -11  112.29   16.20
  -5   0 -11  118.49   15.60
   5  -5 -11   88.89   17.50
   0  -5  11  100.09   15.30
  -5   5  11  102.59   19.40
   0  -5  11   90.29   15.70
   5   0  11   84.79   16.20
   0  -5  11  120.19   16.00
  -5   5  11  141.39   19.50
   5   0  11  125.39   19.10
   0  -5  11  141.29   18.60
  -5   3 -11   96.79   17.00
  -5   3 -11   80.39   15.30
  -5   3 -11  104.19   16.90
  -5   3 -11  113.69   15.40
   3   2 -11  121.19   16.90
   3   2 -11  118.89   17.20
   3   2 -11  112.49   15.70
   3   2 -11  110.49   15.80
  -3  -2  11  107.19   17.90
  -2   5  11   88.59   15.00
  -2   5  11  142.29   17.20
  -2   5  11   99.29   14.90
   5  -3  11  104.29   17.20
   5  -3  11   79.69   15.00
  -3  -2  11   96.89   15.20
   5  -3  11  102.19   15.50
  -3  -2  11   98.29   17.40
   5  -3  11  117.39   16.10
  -5   6 -11   29.10   14.10
   6  -1 -11   15.00   12.10
  -5   6 -11    0.90   12.00
   6  -1 -11   12.80   15.80
   6  -1 -11   -1.80   12.90
   6  -1 -11   19.90   13.20
  -5   6 -11   11.90   14.70
  -5   6 -11   30.20   12.10
   1   5  11    2.80   12.00
  -6   1  11  -12.20   12.90
   5  -6  11   10.30   12.70
  -6   1  11   21.30   15.80
   5  -6  11   -3.20   13.20
  -6   1  11   10.70   14.50
   1   5  11   14.20   12.60
  -5   9 -11   25.90   17.60
   9  -4 -11    6.10   14.80
  -5   9 -11   16.40   17.80
   9  -4 -11    4.30   20.10
   4   5  11    4.50   13.70
   4   5  11   10.30   16.10
  -9   4  11   24.20   16.80
   5  -9  11   11.90   16.00
  -9   4  11    3.30   17.80
  10  -6 -11   72.19   21.10
  -4  10 -11   95.69   23.50
  -4  10 -11  108.59   22.20
 -10   6  11   82.79   23.80
   6   4  11  103.39   21.50
 -10   6  11   69.69   21.20
   6   4  11   96.89   22.40
  -6  -1 -11  296.87   29.40
   7  -6 -11  294.67   29.00
  -1   7 -11  275.47   35.10
  -1   7 -11  295.47   32.50
   7  -6 -11  296.77   31.50
   1  -7  11  278.47   27.90
   1  -7  11  327.27   29.00
   6   1  11  338.87   34.00
   1  -7  11  288.57   31.70
   6   1  11  335.67   31.80
  -7   6  11  309.77   33.60
  -7   6  11  299.97   31.70
   2   4 -11   41.00   11.60
  -6   2 -11   74.09   15.00
   2   4 -11   79.99   15.60
   2   4 -11   63.19   13.20
  -6   2 -11   52.39   13.50
  -6   2 -11   47.20   13.00
  -4   6  11   55.29   14.70
  -2  -4  11   44.00   11.70
  -2  -4  11   72.29   15.30
   6  -2  11   54.79   13.20
  -4   6  11   69.99   15.10
  -2  -4  11   52.09   17.10
   6  -2  11   95.09   15.10
   5   1 -11   26.10   13.20
  -6   5 -11   26.00   13.90
  -6   5 -11   19.40   12.70
  -6   5 -11   21.40   12.30
   5   1 -11   16.10   14.40
   5   1 -11   35.30   13.90
  -6   5 -11   21.50   15.50
   5   1 -11   16.50   12.40
   6  -5  11   18.60   13.00
   6  -5  11   40.80   14.50
   6  -5  11   34.60   14.70
   6  -5  11    6.50   10.60
  -5  -1  11   20.90   14.80
  -5  -1  11   22.80   12.60
  -1   6  11   12.60   12.90
  -5  -1  11   48.70   16.50
   8  -2 -11   56.39   20.80
  -6   8 -11   59.59   20.20
   8  -2 -11   70.19   16.90
  -6   8 -11   37.70   18.00
   8  -2 -11   69.69   17.90
   6  -8  11   59.59   18.20
   2   6  11   31.70   15.90
  -8   2  11   60.89   17.80
   6  -8  11   63.09   16.20
   2   6  11   46.60   16.30
  -8   2  11   65.99   19.80
  -2   9 -11   58.49   19.60
  -2   9 -11  111.69   23.20
   7   2  11   71.79   21.00
  -9   7  11   74.29   20.10
   7   2  11   85.29   20.40
  -9   7  11   55.39   19.90
   6  -7 -11  302.67   30.90
  -7   1 -11  276.37   31.20
  -7   1 -11  300.87   30.50
   1   6 -11  302.67   32.70
  -6   7  11  321.37   32.50
   7  -1  11  338.37   31.90
  -6   7  11  346.57   33.80
  -1  -6  11  320.07   32.70
  -1  -6  11  301.27   31.00
  -1  -6  11  370.76   30.70
   4   3 -11   29.60   13.70
   4   3 -11   15.80   13.60
  -7   4 -11    3.10   12.50
  -7   4 -11   24.60   12.50
   4   3 -11   31.40   12.10
  -7   4 -11   -0.70   11.80
  -3   7  11   -2.60   11.50
   7  -4  11  -38.80   11.70
   7  -4  11   -1.20   13.60
  -4  -3  11   18.30   13.50
  -4  -3  11   34.40   16.00
  -3   7  11  -38.10   12.00
  -3   7  11   12.90   13.30
  -7   7 -11   40.80   18.30
   7   0 -11   67.89   18.10
   7   0 -11   54.19   18.30
   7   0 -11   81.79   17.80
  -7   7 -11   85.99   18.90
  -7   7 -11   60.59   16.50
   7  -7  11   62.29   17.80
   0   7  11   64.09   17.70
  -7   0  11   27.00   20.10
   7  -7  11   71.99   18.20
  -7   0  11   82.79   19.00
   0   7  11   57.09   16.10
  -7  10 -11   48.40   21.60
  10  -3 -11   33.00   18.70
  -7  10 -11   68.69   19.80
   3   7  11   40.50   17.70
 -10   3  11   53.29   20.50
   3   7  11   78.99   18.80
  -8   0 -11  441.76   44.00
   0   8 -11  401.46   42.00
   0  -8  11  439.06   38.20
  -8   8  11  422.06   40.20
  -8   8  11  393.46   43.20
   8   0  11  468.15   40.90
   8   0  11  435.76   44.40
   3   5 -11  328.57   33.90
  -8   3 -11  321.47   33.30
   3   5 -11  289.37   32.80
  -8   3 -11  365.66   32.50
  -3  -5  11  322.47   32.90
  -5   8  11  284.77   31.60
  -3  -5  11  368.66   35.50
   8  -3  11  314.47   32.00
  -5   8  11  330.87   32.10
   6   2 -11   55.29   17.20
   6   2 -11   39.00   15.80
  -8   6 -11   26.00   18.40
  -8   6 -11   70.29   17.20
  -8   6 -11   38.50   16.20
   8  -6  11   37.60   13.50
  -2   8  11   40.50   15.70
   8  -6  11   53.29   18.50
  -6  -2  11   46.90   20.70
  -6  -2  11   34.20   16.90
  -8   9 -11   19.50   18.90
  -8   9 -11   34.70   18.70
   9  -1 -11   44.60   17.80
   9  -1 -11   50.29   19.60
   1   8  11   65.69   16.10
   1   8  11   49.40   18.20
  -9   1  11   24.10   18.30
  -9   2 -11  106.39   23.30
   2   7 -11   48.70   18.50
  -7   9  11   81.99   19.70
   9  -2  11   70.99   17.80
  -7   9  11   63.59   19.90
  -2  -7  11   71.49   18.00
  -9   5 -11   27.30   16.20
  -9   5 -11    7.00   15.20
   5   4 -11   -5.70   15.30
   5   4 -11   26.20   16.10
   9  -5  11   16.20   13.30
  -5  -4  11    2.70   18.70
  -5  -4  11   -3.50   15.30
  -4   9  11   12.40   13.60
  -9   8 -11   25.30   20.20
  -9   8 -11   28.40   17.80
   8   1 -11   72.99   20.00
   8   1 -11   49.80   18.40
   9  -8  11   13.00   19.10
  -8  -1  11   24.70   18.20
  -1   9  11   41.30   15.70
 -10   4 -11   91.79   22.40
   4   6 -11   76.39   21.20
   4   6 -11   92.79   20.60
  10  -4  11   91.69   18.40
  -4  -6  11   62.59   19.50
  -6  10  11   66.29   18.40
  -6  10  11   86.39   19.00
   7   3 -11   76.29   21.50
   7   3 -11   63.99   18.80
  -7  -3  11  105.39   22.40
  -3  10  11   73.69   17.00
   0   0 -12 1269.47   92.19
   0   0 -12 1227.48   92.89
   0   0  12 1287.07   91.39
   0   0  12 1284.87   91.69
   0   0  12 1441.16  105.89
   0   0  12 1212.58   91.89
   0   0  12 1261.37   96.29
  -1  -1 -12   58.29   10.90
  -1   2 -12   28.00   10.40
  -1  -1 -12   49.00    8.60
  -1   2 -12   37.50   10.10
   2  -1 -12   27.70   11.20
   2  -1 -12   31.20   10.00
  -1   2 -12   34.40   10.60
   1  -2  12   26.10    9.60
   1  -2  12   36.20   11.30
  -2   1  12   11.10    9.60
   1  -2  12   37.10    9.80
   1  -2  12   29.90   10.40
   1   1  12   44.50   10.90
   1   1  12   70.09   12.40
   1  -2  12   30.10   10.10
  -2   1  12   37.90    8.00
  -2   1  12   36.90   11.50
  -2   1  12   36.90   10.30
   1   1  12   41.20    9.80
  -2   1 -12   27.10    9.30
   1  -2 -12   23.10    9.70
  -2   1 -12   17.40   10.30
  -2   1 -12   39.90   10.70
   1   1 -12   62.69   12.30
   1  -2 -12   33.50    7.80
   1   1 -12   40.80   10.60
  -1  -1  12   48.30    9.50
   2  -1  12   29.60   10.60
   2  -1  12   40.70   10.80
  -1   2  12   28.20    9.70
   2  -1  12   45.20   10.20
  -1  -1  12   25.70   11.30
   2  -1  12   26.20   10.50
  -1  -1  12   59.79   12.70
  -1   2  12   27.00   10.90
  -1  -1  12   43.80   11.60
   2  -1  12   32.70    8.90
  -1  -1  12   48.40   11.10
  -2   4 -12   82.89   14.20
   4  -2 -12   74.09   13.80
  -2   4 -12  113.59   17.90
  -2   4 -12  100.69   14.90
   4  -2 -12   95.19   16.60
  -2   4 -12  107.19   16.60
  -4   2  12   73.29   15.60
  -4   2  12   84.99   14.30
   2   2  12   78.59   13.80
   2   2  12   62.79   14.70
   2  -4  12  103.49   14.20
   2   2  12   39.10   11.40
   2  -4  12  118.69   14.30
   2  -4  12   98.69   15.90
  -4   2  12   89.79   16.60
   2   2  12   92.29   13.20
   2  -4  12  100.89   16.40
  -4   2  12   74.59   10.90
   3  -3 -12  112.19   14.10
  -3   0 -12  108.79   16.10
  -3   0 -12  102.39   13.90
   3  -3 -12   95.89   15.60
   0   3 -12  126.09   16.80
   0   3 -12  130.49   17.50
  -3   0 -12   90.09   15.30
   0  -3  12  114.79   17.60
   3   0  12  136.59   17.50
  -3   3  12  104.39   17.20
   0  -3  12  118.29   15.90
   0  -3  12  117.59   15.90
   0  -3  12  147.19   18.60
   0  -3  12  154.48   16.00
   3   0  12  101.49   15.70
   3   0  12  104.59   16.80
  -3   3  12   92.09   16.20
   3   0 -12   72.99   14.10
  -3   3 -12   97.29   15.90
   3   0 -12   80.09   15.60
  -3   3 -12  107.29   15.40
  -3   3 -12  101.29   13.70
  -3   3 -12  118.89   17.00
  -3   0  12   73.09   14.80
   0   3  12   76.59   13.40
   0   3  12   52.99   13.10
   3  -3  12  119.09   14.80
  -3   0  12   74.79   12.50
   0   3  12   89.29   15.10
  -3   0  12   72.69   15.10
  -3   0  12   89.59   14.80
   0   3  12   69.49   13.30
   3  -3  12   90.79   15.00
   3  -3  12  109.39   14.30
   3  -3  12  102.39   16.20
   6  -3 -12   -5.00   16.10
  -3   6 -12   12.60   15.00
  -3   6 -12    9.20   11.50
   6  -3 -12   -3.60   11.80
  -3   6 -12   22.70   14.50
  -6   3  12   -1.40   14.20
   3   3  12   11.70   12.20
  -6   3  12  -13.20   13.70
   3   3  12   24.00   10.20
  -6   3  12   -7.90    6.90
  -6   3  12   11.60   13.20
   3   3  12   14.80   13.30
   3  -6  12   11.90   14.80
   3  -6  12   14.90   12.00
   3  -6  12   -2.30   10.70
   3   3  12   -0.10   12.80
   3   3  12   22.70   11.20
   5  -4 -12   90.49   17.50
  -1   5 -12   84.89   14.80
  -1   5 -12   76.99   16.00
  -1   5 -12   97.99   18.00
  -4  -1 -12   65.39   12.50
  -4  -1 -12   69.29   12.60
  -4  -1 -12   74.79   14.30
   1  -5  12   73.29   13.60
   1  -5  12   64.49   16.50
  -5   4  12   96.49   17.90
   4   1  12   71.39   14.60
   1  -5  12   91.59   14.20
   4   1  12   91.79   17.00
  -5   4  12   79.79   17.30
   4   1  12   91.39   16.20
  -4   2 -12  112.69   16.20
   2   2 -12   81.09   14.90
  -4   2 -12   66.09   14.10
   2   2 -12   88.19   14.50
  -4   2 -12   76.99   13.40
  -4   2 -12   91.79   15.40
  -2  -2  12   90.49   16.00
   4  -2  12   99.39   15.30
  -2  -2  12   73.89   16.30
  -2   4  12   57.69   13.00
  -2  -2  12   93.09   13.90
  -2   4  12   75.19   15.60
   4  -2  12   74.49   13.60
   4  -2  12   87.99   15.90
  -2  -2  12   84.89   14.60
  -2  -2  12   93.89   15.90
  -2   4  12   80.49   13.80
  -4   5 -12   47.50   12.60
   5  -1 -12   22.30   11.70
   5  -1 -12   32.70   15.30
  -4   5 -12   53.49   14.50
   5  -1 -12   31.80   12.40
  -4   5 -12   20.30   12.10
  -4   5 -12   53.99   14.50
   4  -5  12   34.30   11.60
  -5   1  12   21.70   12.70
  -5   1  12   29.00   14.50
   1   4  12   28.50    9.50
  -5   1  12   19.90   11.10
   1   4  12   21.50   11.20
   1   4  12   44.20   12.90
  -5   1  12   22.10   13.70
   1   4  12   23.50    9.30
   4  -5  12   32.60   12.80
   4  -5  12   73.59   14.10
   4  -5  12   18.00   13.20
  -4   8 -12  311.57   32.90
   8  -4 -12  223.18   31.90
   8  -4 -12  255.17   29.50
  -4   8 -12  349.57   35.10
   8  -4 -12  277.87   31.10
   4   4  12  219.48   29.50
  -8   4  12  261.27   34.50
   4   4  12  239.88   31.50
   4  -8  12  296.87   29.00
  -8   4  12  303.17   33.80
   4  -8  12  314.97   31.70
   7  -5 -12  100.69   20.50
  -2   7 -12  111.99   21.60
  -2   7 -12  125.59   20.90
   7  -5 -12   95.49   17.10
   2  -7  12   78.59   14.50
  -7   5  12  107.29   20.40
   5   2  12   58.29   16.20
   5   2  12   81.19   19.00
  -7   5  12  100.49   21.90
   2  -7  12   58.89   15.10
   2  -7  12   70.79   17.70
  -5   1 -12   59.49   13.80
   1   4 -12   86.49   16.10
   4  -5 -12   76.99   11.50
   4  -5 -12   73.19   15.10
  -5   1 -12   63.29   14.60
  -5   1 -12   65.09   14.90
   1   4 -12  102.99   15.30
  -4   5  12  113.89   18.10
  -1  -4  12   58.79   13.00
  -1  -4  12   88.09   14.80
   5  -1  12  110.09   16.80
  -1  -4  12   93.99   17.90
  -4   5  12   98.99   17.10
  -1  -4  12   72.29   15.90
  -5   4 -12   29.60   14.20
  -5   4 -12   26.20   11.80
   4   1 -12   30.00   13.70
   4   1 -12   51.39   13.70
  -5   4 -12   14.60   11.90
   4   1 -12   49.50   12.70
   4   1 -12   25.30   11.50
  -5   4 -12   55.79   13.50
   5  -4  12   34.90   13.70
  -4  -1  12   30.40   14.00
  -4  -1  12   46.20   12.60
  -1   5  12   33.80   13.30
  -1   5  12    1.80   10.60
  -1   5  12   25.30    9.70
  -4  -1  12   30.80   12.60
  -4  -1  12   42.90   14.70
   5  -4  12   26.80   12.10
   5  -4  12   23.20   12.50
   5  -4  12   24.60   13.40
  -5   7 -12   44.30   16.80
   7  -2 -12   22.40   14.70
   7  -2 -12   21.70   17.70
   7  -2 -12   62.09   14.60
  -5   7 -12   31.10   14.00
  -5   7 -12   61.39   16.50
  -7   2  12   17.50   15.60
   5  -7  12   60.99   16.80
   2   5  12    9.50   13.00
   2   5  12   42.00   14.50
   5  -7  12   45.40   14.90
  -7   2  12   36.60   17.20
  -5  10 -12    6.80   17.50
  -5  10 -12   21.90   17.90
 -10   5  12   10.80   19.50
 -10   5  12   -1.70   16.60
   5   5  12   -1.20   14.90
   5   5  12   15.30   17.30
  -3   9 -12    1.90   15.70
  -3   9 -12    2.20   17.80
   6   3  12   15.30   16.70
   6   3  12   -1.60   13.60
  -9   6  12   -1.00   14.70
  -9   6  12   12.70   18.40
   6  -6 -12   -2.60   14.70
  -6   0 -12   -6.50   12.30
   0   6 -12   13.40   13.50
  -6   0 -12    4.30   13.50
  -6   6  12    1.90   15.10
   0  -6  12    8.60   12.40
   0  -6  12    9.80   12.00
   6   0  12  -14.80   11.90
  -6   6  12   -3.80   15.20
   0  -6  12   16.50   15.30
   3   3 -12    5.80   12.60
  -6   3 -12    9.40   12.50
   3   3 -12   21.00   11.90
  -6   3 -12   13.10   12.40
  -6   3 -12    5.90   12.30
   3   3 -12   17.30   13.20
   3   3 -12   21.30   12.60
   6  -3  12    0.50   12.70
  -3  -3  12   10.20   10.90
  -3   6  12    4.80   12.00
  -3  -3  12    0.60   12.30
  -3   6  12   -9.50   12.30
  -3  -3  12    1.10   14.90
  -3   6  12   26.00   12.90
   6  -3  12    9.20   12.20
  -3  -3  12   23.50   14.70
   6  -3  12    5.30   11.30
   6  -3  12    5.80   12.00
   6   0 -12   25.50   14.00
  -6   6 -12   50.89   16.50
   6   0 -12   43.70   15.10
  -6   6 -12   18.10   15.40
   6   0 -12   34.40   14.00
   6   0 -12   42.80   16.40
  -6   6 -12   28.30   14.00
   6  -6  12   44.90   11.70
  -6   0  12   33.10   13.90
   0   6  12   29.50   13.90
  -6   0  12   65.69   19.00
   6  -6  12   30.00   14.40
  -6   0  12   41.10   16.60
   0   6  12   44.70   15.40
   6  -6  12   27.90   15.20
   9  -3 -12   15.70   16.10
  -6   9 -12   12.70   16.30
  -6   9 -12   14.90   17.70
   9  -3 -12    0.30   20.10
   6  -9  12   17.20   16.10
  -9   3  12   28.30   17.80
   3   6  12   14.60   14.70
   3   6  12   36.20   14.90
  -9   3  12    0.70   15.90
  -1   8 -12    9.80   16.00
   7   1  12    1.90   16.30
  -8   7  12   -4.90   15.50
  -8   7  12  -12.70   16.60
   7   1  12   17.60   15.90
  -7   2 -12   57.49   16.30
  -7   2 -12   71.19   17.70
   2   5 -12   97.89   19.50
  -2  -5  12   83.19   20.10
  -5   7  12   76.69   18.20
   7  -2  12   91.79   17.50
  -2  -5  12   86.69   18.20
  -2  -5  12   97.89   16.70
  -5   7  12   66.59   17.40
  -7   5 -12   60.99   16.90
  -7   5 -12   22.30   16.70
  -7   5 -12   40.70   13.40
   5   2 -12   21.50   14.80
  -7   5 -12   28.00   15.20
   5   2 -12   33.70   13.50
   5   2 -12   43.60   15.50
  -5  -2  12   35.30   17.40
   7  -5  12   30.30   16.00
  -2   7  12   22.40   13.40
  -5  -2  12   47.10   16.40
   7  -5  12   42.40   12.50
   8  -1 -12   47.60   19.10
  -7   8 -12   19.60   16.50
   8  -1 -12   46.50   16.60
  -7   8 -12    7.90   18.00
   1   7  12   23.30   16.60
   7  -8  12   27.50   16.40
  -8   1  12   48.90   18.60
   1   7  12    5.70   14.10
  -2  10 -12    0.30   17.60
 -10   8  12  -17.20   16.80
   1   7 -12   10.60   14.00
  -7   8  12   -2.70   15.20
  -7   8  12   -2.10   15.40
  -1  -7  12    0.40   14.40
   8  -1  12   36.60   17.70
   4   4 -12  276.57   31.10
   4   4 -12  246.98   32.30
  -8   4 -12  279.77   30.90
  -8   4 -12  275.57   30.20
  -4  -4  12  346.27   33.20
   8  -4  12  288.37   28.90
  -4   8  12  261.47   30.20
  -4   8  12  259.47   28.70
  -4  -4  12  256.87   33.10
   7   1 -12   25.40   16.50
   7   1 -12   36.00   16.50
  -8   7 -12   38.40   19.80
  -8   7 -12   41.70   17.70
  -1   8  12   24.40   15.40
  -7  -1  12   54.39   18.90
   8  -7  12   14.10   18.70
  -8  10 -12    7.90   18.50
  -9   0 -12   86.59   25.40
   0   9 -12   49.90   19.50
  -9   9  12   35.40   18.90
   9   0  12   49.80   19.90
   9   0  12   37.40   18.70
  -9   9  12   41.00   20.50
  -9   3 -12  -28.90   15.40
  -9   3 -12   -8.80   16.70
   3   6 -12    6.50   14.30
  -6   9  12    0.60   13.90
  -3  -6  12    2.40   14.90
  -6   9  12   -2.40   14.20
   9  -3  12    9.90   14.30
  -9   6 -12   27.80   17.20
  -9   6 -12   34.40   16.60
   6   3 -12   30.10   16.40
   6   3 -12   23.00   15.60
  -3   9  12   25.30   14.30
  -6  -3  12   10.90   16.50
  -6  -3  12   14.00   19.20
   9   0 -12   20.00   17.90
  -9   9 -12   15.60   18.90
  -9   9 -12   13.60   22.80
   9   0 -12   34.10   18.80
   0   9  12   26.20   15.10
  -9   0  12   21.10   19.00
  -8  10  12   -8.40   16.60
 -10   5 -12   11.80   18.20
   5   5 -12   -9.50   14.50
   5   5 -12    8.30   17.70
  -5  10  12  -12.80   13.50
  10  -5  12   15.50   14.00
  -5  10  12    6.60   14.30
  -5  -5  12   -4.40   15.50
  -1   0 -13   56.59   10.30
   0   1 -13   53.19   12.00
  -1   0 -13   56.69   12.50
   1  -1 -13   59.19   13.30
   0   1 -13   79.49   12.40
   0   1 -13   74.49   13.30
   1  -1 -13   68.49   11.30
   0  -1  13   41.80   10.90
   0  -1  13   60.99   10.90
  -1   1  13   54.29   12.40
   0  -1  13   51.19   13.10
   0  -1  13   60.99   13.00
   1   0  13   54.29   11.80
   1   0  13   30.80   11.40
   0  -1  13   65.89   12.40
   1   0  13   22.20   10.00
  -1   1  13   58.29   12.60
  -1   3 -13  184.48   21.50
  -1   3 -13  196.78   20.90
  -2  -1 -13  185.28   20.40
  -2  -1 -13  187.58   18.20
   3  -2 -13  202.08   21.80
  -1   3 -13  189.28   21.30
   1  -3  13  198.78   19.90
   2   1  13  160.78   19.30
   1  -3  13  198.58   21.00
  -3   2  13  226.08   22.50
  -3   2  13  211.88   23.90
   1  -3  13  219.18   22.40
   2   1  13  172.58   22.60
   1  -3  13  169.88   20.40
   1  -3  13  164.58   22.70
   2   1  13  203.78   21.50
  -2   2 -13   57.09   13.20
   0  -2 -13   69.49   10.40
   2   0 -13   50.99   11.90
  -2   2 -13   42.70   12.20
   0  -2 -13   62.99   12.40
  -2   2 -13   92.79   13.30
   2   0 -13   84.99   14.70
  -2   2 -13   54.39   13.30
  -2   0  13   72.29   13.80
   0   2  13   68.09   12.50
   0   2  13   63.89   13.10
  -2   0  13   65.29   14.00
   2  -2  13   30.40   11.80
   2  -2  13   89.69   14.10
  -2   0  13   64.89   10.60
   2  -2  13   72.29   13.10
   0   2  13   66.59   13.40
   2  -2  13   42.70   12.70
  -2   0  13   57.79   13.10
   2  -2  13   57.99   11.60
  -2   5 -13  140.59   22.20
  -2   5 -13  153.68   20.10
  -2   5 -13  181.88   24.90
   5  -3 -13  147.59   21.70
   3   2  13  148.89   21.30
   3   2  13  140.19   19.30
   2  -5  13  171.98   18.40
   2  -5  13  147.99   19.10
  -5   3  13  129.09   15.30
  -5   3  13  141.09   22.10
  -5   3  13  152.88   21.80
   2  -5  13  142.79   21.50
   3   2  13  106.59   17.80
   3   2  13  145.19   19.80
   1   2 -13  204.18   21.80
  -3   1 -13  163.58   22.10
   1   2 -13  181.98   21.40
  -3   1 -13  193.18   19.80
  -3   1 -13  207.28   22.20
   2  -3 -13  210.58   21.70
   2  -3 -13  194.58   18.30
   3  -1  13  217.88   21.60
  -2   3  13  193.18   22.70
  -1  -2  13  221.08   23.40
  -1  -2  13  218.28   20.90
  -1  -2  13  164.68   22.80
   3  -1  13  178.58   18.20
  -1  -2  13  174.58   21.60
  -1  -2  13  202.88   19.80
  -2   3  13  193.08   21.30
   3  -1  13  185.88   23.90
   3  -1  13  185.98   21.40
  -3   4 -13   -0.70   12.60
  -3   4 -13   40.40   12.30
  -3   4 -13   37.90   12.10
   4  -1 -13   32.00   11.30
  -3   4 -13   18.20   13.20
   4  -1 -13   21.90   13.80
  -4   1  13   44.80   13.50
   3  -4  13   26.10   13.20
   3  -4  13   31.00   11.90
   3  -4  13   14.50   10.00
   1   3  13   27.70   13.00
  -4   1  13   26.90   10.00
  -4   1  13    8.10   12.40
   1   3  13   34.80   10.50
   1   3  13   30.70   12.30
   1   3  13   28.30   10.10
   3  -4  13   16.60   11.80
  -4   1  13   43.50   12.80
  -3   7 -13   58.29   17.90
  -3   7 -13   60.99   18.40
   7  -4 -13   21.50   14.40
   7  -4 -13   48.80   19.50
   3  -7  13   23.60   16.00
  -7   4  13   34.60   16.50
  -7   4  13   10.00   16.50
   4   3  13    7.20   15.10
   3  -7  13   47.50   13.70
   4   3  13   31.30   15.80
  -4   0 -13  295.67   32.60
   0   4 -13  335.97   32.20
   4  -4 -13  318.97   31.30
  -4   0 -13  338.57   28.70
  -4   0 -13  333.77   30.80
   0   4 -13  400.86   31.50
  -4   4  13  331.87   32.50
   0  -4  13  333.97   31.00
   4   0  13  290.07   30.70
  -4   4  13  304.57   32.00
   0  -4  13  292.77   29.60
   0  -4  13  374.76   32.80
   4   0  13  335.37   34.50
   0  -4  13  361.46   30.00
  -4   3 -13   19.00   11.60
   3   1 -13   54.69   14.10
  -4   3 -13   21.00   10.60
  -4   3 -13   21.40   13.00
   3   1 -13   24.30   11.80
  -4   3 -13   12.70   11.40
  -1   4  13   17.60   11.50
  -3  -1  13   29.40   11.80
   4  -3  13   23.10   13.00
  -3  -1  13   21.60   13.50
  -3  -1  13   37.80   14.10
   4  -3  13   31.60   11.60
  -1   4  13   26.30   12.40
  -1   4  13   40.00   11.10
   4  -3  13   31.50   11.00
   4  -3  13   23.00   11.70
  -3  -1  13   22.10   10.90
  -4   6 -13   36.90   15.20
  -4   6 -13   16.40   12.50
   6  -2 -13  -12.30   13.20
   6  -2 -13   11.50   17.70
  -4   6 -13   14.50   14.00
   2   4  13  -15.20   12.90
  -6   2  13   14.40   14.10
   2   4  13   21.90    9.30
  -6   2  13   26.10   11.20
   4  -6  13   16.30   10.90
   4  -6  13   19.80   12.60
   2   4  13   24.20   12.70
   4  -6  13   31.00   15.00
   2   4  13   20.70   10.70
  -6   2  13    8.40   14.30
   2   4  13   32.10   12.40
  -4   9 -13   -9.10   17.60
   9  -5 -13  -19.60   16.50
  -4   9 -13   -4.00   16.00
  -9   5  13  -16.50   17.20
   5   4  13   -4.60   13.80
   5   4  13    9.70   16.10
  -9   5  13  -23.70   15.80
   6  -5 -13   63.39   18.50
  -5  -1 -13   60.69   15.00
  -1   6 -13   48.20   15.80
   5   1  13   42.60   16.10
  -6   5  13   22.50   17.40
   1  -6  13   57.99   14.10
   1  -6  13   63.59   17.90
  -6   5  13   18.80   15.70
   1  -6  13   43.30   12.80
   5   1  13   35.10   15.70
  -5   2 -13  160.18   21.70
   2   3 -13  151.48   20.70
  -5   2 -13  148.69   20.40
   2   3 -13  180.88   22.40
  -5   2 -13  152.68   19.60
   5  -2  13  193.88   21.90
  -2  -3  13  168.78   22.70
   5  -2  13  130.59   17.80
  -3   5  13  201.78   23.30
  -3   5  13  129.79   20.60
  -2  -3  13  169.18   19.90
   5  -2  13  162.38   18.70
  -2  -3  13  150.08   19.70
  -2  -3  13  152.98   21.50
   5  -2  13  134.09   21.70
   5   0 -13    1.80   11.40
   5   0 -13   29.70   13.40
  -5   5 -13   33.30   12.20
  -5   5 -13    8.60   13.20
  -5   5 -13    2.60   13.80
   5   0 -13    9.40   10.60
   5   0 -13   12.30   14.60
  -5   5 -13    4.80   12.80
   5  -5  13    6.20   13.00
   5  -5  13   18.90   11.40
  -5   0  13  -20.80   13.30
  -5   0  13   16.90   12.50
   0   5  13   20.80    9.70
   5  -5  13    2.90   11.70
   0   5  13   15.50   11.70
  -5   0  13   14.00   15.40
   5  -5  13   15.90   14.00
   0   5  13   13.20   12.40
  -5   0  13   11.70   11.20
  -5   8 -13   20.60   17.00
   8  -3 -13   27.10   19.90
  -5   8 -13   16.80   16.80
  -8   3  13    8.20   16.20
   5  -8  13   24.60   14.50
   3   5  13    1.80   14.10
   3   5  13   23.80   14.90
  -8   3  13   31.00   17.70
   5  -8  13   30.40   17.20
  -2   8 -13   43.60   20.20
  -2   8 -13   36.90   17.90
   6   2  13   26.20   16.60
  -8   6  13    2.90   16.70
  -8   6  13   29.40   19.40
   6   2  13   20.30   18.10
   2  -8  13   21.90   17.00
   1   5 -13   49.70   15.40
  -6   1 -13   52.59   15.20
  -6   1 -13   61.79   14.90
   5  -6 -13   38.50   16.30
  -1  -5  13   46.00   16.00
   6  -1  13   30.60   14.70
  -5   6  13   71.59   17.80
  -5   6  13   69.69   17.50
  -1  -5  13   40.60   17.00
  -1  -5  13   79.79   15.10
  -6   4 -13    7.90   13.40
   4   2 -13    7.60   12.50
   4   2 -13    4.90   13.30
  -6   4 -13   19.20   12.20
  -6   4 -13   31.40   12.70
   4   2 -13   41.70   13.50
  -2   6  13    6.00   12.20
  -4  -2  13   10.20   12.60
  -2   6  13   33.30   14.30
   6  -4  13   -7.60   12.60
  -4  -2  13   15.40   15.40
   6  -4  13   30.90   12.60
  -4  -2  13   38.50   15.60
   6  -4  13   12.70   13.50
  -4  -2  13   10.30   11.40
  -2   6  13   19.40   11.30
   7  -1 -13   58.59   18.60
  -6   7 -13   42.60   19.50
   7  -1 -13   43.00   16.40
   7  -1 -13   65.69   21.10
  -6   7 -13   64.09   19.10
   1   6  13   47.30   16.20
  -7   1  13   39.60   18.60
   6  -7  13   30.40   16.10
   1   6  13   49.60   16.80
  -7   1  13   49.70   18.20
  -6  10 -13   -0.50   18.00
  -6  10 -13   30.70   19.20
   4   6  13   -3.20   16.30
   4   6  13    1.90   15.10
 -10   4  13    9.80   17.40
 -10   4  13   14.70   18.80
 -10   7  13   31.20   21.20
   0   7 -13    1.60   14.30
   7   0  13   45.70   17.80
  -7   7  13   19.30   18.40
   0  -7  13   33.00   17.50
   0  -7  13   21.40   14.50
  -7   7  13   12.20   16.40
  -7   3 -13   29.90   16.00
   3   4 -13   41.10   15.70
  -7   3 -13   29.00   13.90
  -4   7  13   11.30   15.20
  -3  -4  13   32.60   15.40
  -3  -4  13   60.79   14.90
  -3  -4  13   34.20   17.90
   7  -3  13   14.60   13.80
  -4   7  13   38.60   15.40
  -7   6 -13   34.60   17.00
  -7   6 -13   72.19   17.70
   6   1 -13   53.39   15.60
   6   1 -13   57.29   18.40
  -7   6 -13   45.20   19.80
   7  -6  13   40.90   18.40
  -6  -1  13   57.39   19.50
  -1   7  13   37.60   16.50
   9  -2 -13   41.20   17.70
  -7   9 -13   22.90   20.10
  -7   9 -13   32.20   19.00
  -9   2  13   71.49   21.20
   2   7  13   49.40   16.80
   2   7  13   45.20   18.50
  -1   9 -13   27.20   18.60
  -9   8  13   18.40   19.00
   8   1  13    7.30   17.50
  -9   8  13  -20.00   18.30
   8   1  13   18.90   17.50
   2   6 -13    9.60   15.30
  -6   8  13   25.30   17.00
  -2  -6  13   21.60   18.80
   8  -2  13   -3.70   14.60
  -2  -6  13    4.30   15.40
  -6   8  13   16.70   16.50
  -8   5 -13   42.00   16.30
   5   3 -13    7.80   15.40
   5   3 -13   15.50   15.70
  -3   8  13   26.50   11.80
   8  -5  13    9.80   13.30
  -5  -3  13    7.80   18.70
  -3   8  13    3.80   14.10
  -5  -3  13   10.10   16.20
   8   0 -13  123.29   21.80
  -8   8 -13   85.09   23.10
  -8   8 -13   86.79   21.60
   8   0 -13  154.08   25.30
   0   8  13  108.49   20.10
   8  -8  13  116.59   22.30
  -8   0  13   89.19   22.90
   1   8 -13  -16.80   14.10
  -9   1 -13   24.90   20.70
  -8   9  13  -14.10   15.40
  -8   9  13    1.00   17.10
   9  -1  13   16.30   16.30
  -1  -8  13  -18.20   14.60
  -9   4 -13   -3.00   14.50
   4   5 -13  -10.40   15.80
   4   5 -13   -8.90   14.00
  -5   9  13   14.60   14.10
  -5   9  13    4.00   14.10
   9  -4  13    1.90   14.70
  -4  -5  13   18.50   16.60
   7   2 -13   -0.70   16.40
   7   2 -13   56.99   17.80
  -7  -2  13   30.70   18.50
  -2   9  13   54.99   16.30
   6   4 -13   18.50   17.20
   6   4 -13    1.10   16.20
  -4  10  13    4.20   14.90
  -6  -4  13   39.80   18.50
   1   0 -14  369.46   32.20
   0  -1 -14  377.06   29.80
  -1   1 -14  313.97   32.10
  -1   1 -14  334.77   30.50
  -1   1 -14  360.06   32.00
   0  -1 -14  319.67   31.00
   1   0 -14  338.97   30.50
   1   0 -14  361.06   32.10
   0   1  14  417.56   36.20
   1  -1  14  327.07   32.00
  -1   0  14  352.16   31.20
  -1   0  14  373.06   36.00
   1  -1  14  355.36   31.50
   0   1  14  388.66   32.70
   1  -1  14  321.27   31.20
   0   1  14  365.86   32.40
   1  -1  14  420.36   37.00
  -1   0  14  352.66   32.10
  -1   0  14  376.96   32.80
   2  -2 -14   54.49   14.40
  -2   0 -14   57.99   14.30
   2  -2 -14   73.59   12.30
   0   2 -14   64.19   13.70
   0   2 -14  103.49   15.50
  -2   0 -14   72.79   12.50
   0   2 -14   65.49   14.40
   0  -2  14   64.19   14.80
   0  -2  14   75.09   13.70
   2   0  14   41.40   12.30
   0  -2  14   68.89   12.50
   2   0  14   60.39   13.20
   2   0  14   55.99   13.90
   0  -2  14   68.49   14.20
   0  -2  14   54.39   14.20
  -2   2  14   70.09   14.80
  -2   2  14   66.79   14.00
  -2   3 -14  544.25   48.30
   3  -1 -14  555.24   44.10
  -2   3 -14  498.25   42.20
  -1  -2 -14  465.35   39.80
   3  -1 -14  483.25   43.40
  -2   3 -14  492.65   44.50
  -1  -2 -14  474.55   41.30
  -2   3 -14  556.44   43.40
   2  -3  14  513.95   41.70
   2  -3  14  611.24   49.80
  -3   1  14  557.84   44.80
  -3   1  14  579.74   42.60
   2  -3  14  572.44   44.70
   2  -3  14  580.94   42.50
   1   2  14  459.05   42.50
  -3   1  14  592.64   44.30
   2  -3  14  458.45   43.00
   1   2  14  536.15   47.30
   1   2  14  442.46   42.20
   4  -3 -14  235.68   26.60
  -3  -1 -14  218.48   25.50
  -1   4 -14  279.67   27.50
  -1   4 -14  290.77   26.80
  -3  -1 -14  183.48   22.40
   1  -4  14  286.37   26.90
   3   1  14  182.88   24.80
   3   1  14  244.68   27.30
   1  -4  14  332.07   31.60
  -4   3  14  242.88   27.10
   1  -4  14  289.67   25.40
   3   1  14  197.88   24.70
   1  -4  14  269.07   24.60
   3   1  14  218.68   28.10
  -4   3  14  296.17   28.60
   1  -4  14  283.87   27.80
   1  -3 -14  496.75   40.60
   2   1 -14  469.55   42.90
  -3   2 -14  520.45   42.70
  -3   2 -14  568.54   47.40
  -3   2 -14  449.66   43.70
   2   1 -14  491.85   42.40
  -3   2 -14  532.05   41.30
   1  -3 -14  451.05   38.70
  -2  -1  14  529.95   40.80
   3  -2  14  507.25   43.60
  -1   3  14  512.05   42.60
   3  -2  14  487.55   41.60
  -2  -1  14  511.15   43.30
   3  -2  14  575.44   42.40
  -2  -1  14  555.74   48.20
  -1   3  14  424.96   41.90
   3  -2  14  620.34   49.40
  -2  -1  14  554.24   43.30
  -2  -1  14  496.05   42.60
  -3   5 -14  128.39   18.40
   5  -2 -14  141.49   22.00
  -3   5 -14  122.59   20.40
  -3   5 -14  135.49   17.90
  -3   5 -14  131.59   21.70
   3  -5  14  115.99   16.60
   2   3  14   73.69   15.80
   3  -5  14  132.19   17.90
  -5   2  14  131.79   21.30
   2   3  14  107.29   18.50
  -5   2  14  121.29   18.40
   2   3  14   72.49   15.60
   3  -5  14  120.59   19.60
  -5   2  14   85.09   13.70
   2   3  14   96.29   15.30
  -5   2  14   72.99   18.30
   6  -4 -14    9.10   17.20
  -2   6 -14   33.50   17.40
  -2   6 -14   14.00   14.90
  -4  -2 -14   18.10   12.60
   2  -6  14    6.60   12.30
  -6   4  14   26.90   15.60
   4   2  14   -8.60   13.30
  -6   4  14    9.50   16.30
   2  -6  14   23.70   12.60
   2  -6  14    7.60   15.70
   4   2  14   18.40   12.70
   3  -4 -14  268.77   23.90
   3  -4 -14  260.87   26.60
  -4   1 -14  254.77   29.30
   1   3 -14  250.97   26.60
  -4   1 -14  294.37   27.80
  -4   1 -14  285.77   26.20
   1   3 -14  246.88   27.60
  -1  -3  14  225.88   26.00
   4  -1  14  222.88   30.00
  -3   4  14  300.07   28.70
  -1  -3  14  284.77   26.00
   4  -1  14  312.97   28.70
  -1  -3  14  277.87   31.60
  -3   4  14  251.27   27.50
  -1  -3  14  273.07   29.00
  -1  -3  14  250.67   27.00
   4   0 -14 1705.73  136.59
  -4   4 -14 1668.13  137.29
  -4   4 -14 1876.01  149.79
   4   0 -14 1805.52  132.79
  -4   4 -14 1890.61  131.59
  -4   4 -14 1931.41  132.89
   0   4  14 1694.03  129.99
   4  -4  14 1742.83  132.29
   0   4  14 1696.93  146.89
  -4   0  14 1909.11  137.59
   4  -4  14 2026.40  128.99
   4  -4  14 2090.89  150.98
  -4   0  14 1871.71  131.49
  -4   0  14 1871.61  130.99
   4  -4  14 1979.10  131.79
   0   4  14 1610.34  134.49
   0   4  14 1631.94  135.99
  -4   0  14 1836.32  132.49
  -4   7 -14  117.89   23.40
  -4   7 -14  156.28   24.60
   7  -3 -14  116.59   21.30
   7  -3 -14  129.79   24.10
   3   4  14  107.09   16.00
   3   4  14   63.39   18.80
  -7   3  14  150.08   23.50
   3   4  14   97.49   20.90
  -7   3  14  112.79   22.40
   4  -7  14   92.59   21.60
   4  -7  14   94.29   19.00
   8  -5 -14  148.59   23.40
  -3   8 -14  145.39   26.70
  -3   8 -14  214.78   30.20
   5   3  14  164.98   24.90
  -8   5  14  176.28   26.80
   3  -8  14  152.48   25.00
   5   3  14  173.68   24.80
  -8   5  14  156.08   28.40
   0   5 -14  277.87   27.40
  -5   0 -14  203.58   27.60
   0   5 -14  281.37   29.40
   5  -5 -14  211.68   28.30
  -5   0 -14  231.18   27.30
   0  -5  14  278.87   27.80
  -5   5  14  255.57   31.10
   0  -5  14  286.17   26.80
   5   0  14  289.27   28.80
   0  -5  14  340.07   30.70
  -5   5  14  234.18   30.00
  -5   3 -14  103.99   16.80
  -5   3 -14  107.09   18.60
   3   2 -14   82.29   17.80
  -5   3 -14  106.59   19.30
   3   2 -14  140.09   19.80
   5  -3  14  102.69   19.00
   5  -3  14   93.49   17.60
  -3  -2  14  122.09   20.30
   5  -3  14   95.59   16.70
  -3  -2  14   88.59   16.30
  -3  -2  14  121.99   18.60
  -2   5  14  106.69   17.90
   5  -3  14  139.49   18.50
  -2   5  14  128.19   18.30
  -3  -2  14   81.69   18.50
  -5   6 -14   92.99   20.10
  -5   6 -14   97.59   21.20
  -5   6 -14  109.19   18.40
   6  -1 -14   91.79   18.30
   6  -1 -14  109.19   22.20
   5  -6  14  110.59   16.20
   1   5  14   94.79   16.00
  -6   1  14   76.59   19.60
  -6   1  14   96.39   17.00
   1   5  14   76.19   17.60
   1   5  14   93.29   13.80
  -6   1  14   91.79   19.50
   5  -6  14   79.99   17.50
   1   5  14   87.29   16.80
   1   5  14   86.59   14.20
  -5   9 -14   58.39   20.80
  -5   9 -14   19.60   18.80
  -9   4  14   44.10   19.00
   4   5  14   34.80   17.30
   4   5  14   49.40   17.20
  -9   4  14   64.69   21.00
  -1   7 -14  215.28   29.80
  -7   6  14  213.88   28.90
  -7   6  14  209.98   31.10
   6   1  14  193.78   27.80
   6   1  14  272.37   27.40
   1  -7  14  198.28   23.90
   1  -7  14  187.08   28.00
  -6   2 -14   -7.10   13.60
   2   4 -14   36.20   14.60
  -6   2 -14   -3.20   12.10
  -2  -4  14   31.40   13.10
  -2  -4  14   17.60   17.20
  -4   6  14   13.30   13.40
   6  -2  14   28.00   14.20
  -2  -4  14   11.30   14.60
  -4   6  14   10.50   14.90
  -6   5 -14   78.79   18.00
  -6   5 -14   52.89   14.90
  -6   5 -14  105.49   19.60
   5   1 -14   83.49   16.30
   5   1 -14   72.89   18.20
   5   1 -14  106.89   19.30
  -1   6  14   73.99   14.90
  -5  -1  14  104.59   17.10
  -5  -1  14   76.99   17.00
   6  -5  14   34.70   17.50
   6  -5  14   81.99   18.80
  -5  -1  14  119.99   21.00
  -1   6  14   80.79   15.40
   6  -5  14   92.39   16.00
  -1   6  14   93.09   17.80
  -6   8 -14   56.49   18.60
   8  -2 -14   24.20   20.10
  -6   8 -14   15.70   18.00
  -8   2  14   46.50   18.40
   6  -8  14   28.90   15.80
  -8   2  14    7.60   17.10
   2   6  14   22.60   15.40
   2   6  14    9.10   14.70
  -2   9 -14   80.29   24.30
  -9   7  14  105.99   26.70
  -9   7  14   94.79   22.30
   7   2  14  103.29   21.10
   7   2  14  101.99   23.50
   1   6 -14  199.18   27.90
  -1  -6  14  187.78   25.80
  -1  -6  14  176.18   27.90
  -6   7  14  194.28   29.80
   7  -1  14  264.67   28.30
  -6   7  14  228.58   29.00
   4   3 -14  118.09   21.80
  -7   4 -14   84.59   18.70
  -7   4 -14   90.39   20.50
   4   3 -14  105.49   19.50
  -3   7  14   90.79   19.60
  -4  -3  14  129.79   19.70
  -4  -3  14  104.49   21.70
   7  -4  14  112.79   19.20
  -4  -3  14   84.49   21.80
  -3   7  14  113.29   21.20
  -7   7 -14   76.89   20.20
   7   0 -14   94.29   21.60
  -7   7 -14   55.99   20.70
   7   0 -14  121.19   19.30
   7  -7  14   81.19   20.30
  -7   0  14  109.49   22.10
   0   7  14   77.49   18.80
   0   8 -14  810.02   73.69
  -8   8  14  869.21   71.39
   8   0  14  934.21   76.19
  -8   8  14  841.42   75.39
   8   0  14  919.71   70.99
   3   5 -14  140.99   24.20
  -8   3 -14  134.89   21.60
  -3  -5  14  124.29   22.80
  -3  -5  14  147.49   25.70
  -5   8  14  124.49   22.50
  -5   8  14  159.38   23.80
   8  -3  14  192.38   24.00
   6   2 -14   20.60   16.50
   6   2 -14   18.80   14.90
  -8   6 -14    5.90   15.70
  -2   8  14   30.70   15.40
  -6  -2  14   29.70   17.70
   2   7 -14  100.49   22.20
  -7   9  14  114.99   23.50
  -7   9  14   85.79   21.60
  -2  -7  14   83.39   20.90
   9  -2  14  131.49   23.40
   5   4 -14   78.19   19.80
   5   4 -14   74.89   18.90
   9  -5  14   56.29   17.20
  -4   9  14   50.09   15.70
  -4   9  14   15.80   16.00
  -5  -4  14   55.29   19.00
   0   0 -15  236.88   27.30
   0   0 -15  303.77   26.80
   0   0  15  287.97   24.50
   0   0  15  284.27   28.70
   0   0  15  274.27   27.40
   0   0  15  328.07   32.80
   2  -1 -15  -32.30   11.20
  -1  -1 -15   -6.60    7.90
  -1  -1 -15    0.50   11.50
  -1   2 -15    3.20   11.90
  -1   2 -15    9.00   11.30
  -1   2 -15    7.90   11.10
   2  -1 -15    7.60   10.70
  -2   1  15   -7.70   10.80
   1   1  15   14.20    9.70
   1  -2  15   -6.80    9.70
   1  -2  15    2.40   10.20
   1   1  15   -5.80   10.20
  -2   1  15    4.20   11.90
   1  -2  15   -5.20   11.80
  -2   1  15   -5.20    7.40
   1   1  15    1.60   10.50
   1  -2  15   -6.10    9.50
   1  -2  15    8.60   10.70
  -2   1 -15   -0.80    9.90
   1  -2 -15   -8.30   11.10
  -2   1 -15    2.00   12.10
   1   1 -15    8.40    9.60
   1  -2 -15   21.30    9.00
   1   1 -15   16.00   12.50
   2  -1  15  -16.80    9.80
   2  -1  15    6.00   11.30
   2  -1  15    6.50   10.00
  -1  -1  15  -11.40   11.80
  -1  -1  15  -12.30   11.50
   2  -1  15   -1.00   10.10
  -1  -1  15  -13.70    9.60
  -1   2  15    2.50   11.10
  -1  -1  15   -0.70   10.30
  -1   2  15    2.40   12.00
   2  -1  15    6.90   10.50
  -1   2  15   -4.10    9.50
  -1  -1  15    7.70    9.10
  -2   4 -15   52.89   15.40
  -2   4 -15   41.20   14.10
  -2   4 -15   37.80   15.90
  -2   4 -15   27.40   14.60
  -2  -2 -15   20.00   12.60
   4  -2 -15   60.69   17.50
  -2  -2 -15   28.10   10.20
   2  -4  15   37.00   14.00
  -4   2  15   16.50   12.60
   2  -4  15   37.10   15.50
   2   2  15   40.20   12.50
  -4   2  15   68.89   16.20
  -4   2  15   49.70   16.60
   2  -4  15   48.80   13.40
   2   2  15   43.00   13.80
   2  -4  15   64.09   14.20
   2   2  15   25.40   13.10
  -4   2  15   55.49   10.50
   2  -4  15   41.30   15.00
   3  -3 -15  113.69   18.80
  -3   0 -15   84.09   14.70
  -3   0 -15   26.40   15.60
   3  -3 -15   86.59   15.40
   0   3 -15   84.09   17.00
   0   3 -15   82.19   17.10
   3   0  15   60.79   16.90
   0  -3  15   53.39   17.10
  -3   3  15   99.89   18.40
   0  -3  15   76.19   19.10
   3   0  15   90.19   18.10
  -3   3  15   93.79   19.10
   0  -3  15   79.99   16.70
   0  -3  15   81.39   15.50
   0  -3  15   87.99   16.40
   3   0  15   72.59   16.40
  -3   3 -15   25.90   14.40
  -3   3 -15   -9.80   12.90
   3   0 -15   18.00   11.70
  -3   3 -15    2.60   12.70
   0  -3 -15   14.70    9.30
   3   0 -15   13.30   14.20
  -3   3 -15    0.70   14.50
  -3   0  15    4.80   10.10
   0   3  15   21.40   13.00
   0   3  15   31.00   14.50
   3  -3  15   37.80   13.00
   3  -3  15   12.50   12.30
   0   3  15   26.50   12.60
  -3   0  15   -3.90   13.70
  -3   0  15   29.20   14.30
   3  -3  15   19.50   13.90
   3  -3  15    3.20   13.40
  -3   0  15    5.90   13.50
  -3   6 -15   19.00   15.40
   6  -3 -15   -8.60   16.30
  -3   6 -15   32.20   17.60
   3  -6  15    8.20   15.80
   3  -6  15   18.20   12.00
  -6   3  15   -6.00   14.80
   3   3  15   16.10   12.40
   3   3  15    2.30   13.30
  -6   3  15   -5.20   16.20
   3  -6  15    3.60   13.00
   3   3  15    6.00   10.90
  -1   5 -15   34.30   16.80
  -1   5 -15   14.20   13.90
   4   1  15   66.39   16.30
  -5   4  15  -15.30   17.10
   1  -5  15   43.80   17.60
   1  -5  15   54.69   14.60
  -5   4  15   45.40   16.40
   1  -5  15   23.70   14.00
   4   1  15   58.29   15.80
   1  -5  15   47.00   14.20
  -4   2 -15   35.70   13.70
   2  -4 -15   34.90    9.40
  -4   2 -15   42.00   13.00
   2   2 -15   28.20   13.60
   2  -4 -15   57.79   13.70
  -4   2 -15   43.80   14.90
   2   2 -15   62.19   15.70
  -2  -2  15   19.30   14.20
  -2   4  15   18.20   13.00
   4  -2  15   50.49   12.80
  -2  -2  15   42.50   16.10
   4  -2  15   36.30   13.60
  -2  -2  15   26.90   12.90
   4  -2  15   39.20   14.70
  -2  -2  15   31.70   15.00
  -2  -2  15   29.30   11.90
   4  -2  15   35.30   13.20
  -2   4  15   36.30   15.00
   5  -1 -15   20.70   16.70
  -4   5 -15   21.20   14.00
  -4   5 -15   30.50   15.30
  -4   5 -15    2.40   12.50
  -4   5 -15   45.50   16.40
  -5   1  15   49.70   16.20
   4  -5  15   18.30   13.20
  -5   1  15   12.00   11.20
   1   4  15   29.00   14.20
  -5   1  15   32.60   14.60
   1   4  15    6.10   10.30
   1   4  15   32.80   11.70
   4  -5  15   15.60   12.60
  -4   8 -15   56.19   21.40
   8  -4 -15   30.40   17.40
  -4   8 -15   29.90   19.10
  -8   4  15   18.40   17.20
   4   4  15   33.20   15.60
   4   4  15   45.40   17.50
  -8   4  15   54.59   18.70
  -2   7 -15   13.20   18.60
  -2   7 -15    3.00   15.90
   2  -7  15   -8.60   17.30
   5   2  15   20.90   15.70
   5   2  15  -30.90   14.00
   2  -7  15  -14.00   13.30
  -7   5  15   -1.20   16.40
  -7   5  15  -14.00   15.70
   1   4 -15   71.09   17.10
   1   4 -15   52.59   15.50
  -5   1 -15   54.99   14.80
  -1  -4  15   62.69   14.60
  -4   5  15   46.90   16.40
   5  -1  15   79.49   17.00
  -1  -4  15   55.29   18.70
  -4   5  15   48.80   16.10
  -1  -4  15    6.60   15.50
  -1  -4  15   73.49   14.70
  -5   4 -15   13.70   14.40
   4   1 -15   33.90   14.20
   4   1 -15   14.80   14.30
   4   1 -15    5.00   11.20
  -5   4 -15   38.80   13.60
  -5   4 -15    1.50   13.60
  -4  -1  15   14.30   12.20
   5  -4  15   15.50   12.30
   5  -4  15   32.70   14.80
  -1   5  15   12.20   11.10
   5  -4  15   18.00   14.00
  -1   5  15   20.60   14.30
  -4  -1  15   24.80   13.40
  -4  -1  15   17.50   14.60
   7  -2 -15   -1.70   19.10
  -5   7 -15  -15.40   14.30
  -5   7 -15   -3.30   16.70
  -7   2  15   11.70   16.30
  -7   2  15  -15.00   15.50
   2   5  15    2.70    9.40
   2   5  15  -14.30   13.90
   5  -7  15    5.30   14.60
  -3   9 -15    2.30   19.90
  -3   9 -15  -11.50   17.00
  -9   6  15    4.80   19.00
   6   3  15   -8.10   17.40
   6   3  15    3.40   15.40
  -9   6  15    7.40   16.70
   0   6 -15    7.20   14.80
   6   0  15  -22.70   14.70
   0  -6  15   10.60   13.30
  -6   6  15    8.70   16.90
  -6   6  15  -11.90   16.80
   0  -6  15    3.70   13.60
   0  -6  15   -8.40   17.00
  -6   3 -15   -2.60   13.40
   3   3 -15    1.50   13.20
  -6   3 -15   -4.30   12.40
  -3  -3  15   -6.40   14.10
   6  -3  15  -10.70   12.90
  -3   6  15   15.00   14.40
  -3  -3  15   19.00   17.30
  -3  -3  15    5.90   12.70
  -3   6  15    4.70   12.60
  -6   6 -15   13.30   15.60
  -6   6 -15    3.70   14.80
   6   0 -15   18.00   16.20
  -6   0  15   11.00   16.50
  -6   0  15    7.20   14.20
   0   6  15    2.90   10.40
   0   6  15    5.80   13.90
  -6   9 -15  -13.20   18.00
  -6   9 -15  -16.10   17.30
   3   6  15   19.60   15.70
  -9   3  15    8.90   18.30
  -9   3  15  -17.80   16.50
   3   6  15    9.00   15.00
  -1   8 -15   -7.20   15.90
  -8   7  15   -3.70   17.60
  -8   7  15    8.30   18.40
   7   1  15    6.70   16.80
   7   1  15    0.20   17.00
   2   5 -15   -7.10   14.00
  -2  -5  15   -1.10   14.80
  -5   7  15  -10.10   14.40
  -2  -5  15    1.00   14.10
   7  -2  15    5.90   14.20
  -5   7  15    6.40   16.60
  -2  -5  15   -2.10   18.90
   5   2 -15   -4.30   14.00
   5   2 -15   10.70   13.70
  -7   5 -15   -3.10   15.30
  -2   7  15  -18.00   14.00
  -5  -2  15   10.70   16.10
   7  -5  15   -9.00   13.50
  -5  -2  15    8.50   13.70
  -2   7  15   -4.60   10.70
  -7   8 -15   40.70   21.90
   1   7  15   27.30   16.30
  -8   1  15   20.30   17.80
   1   7 -15   -9.40   14.60
  -1  -7  15   14.00   15.60
  -7   8  15   -7.60   17.00
   8  -1  15    4.80   15.90
  -7   8  15    2.70   16.90
   4   4 -15   32.90   16.80
  -8   4 -15   29.40   15.80
   8  -4  15   50.09   15.90
  -4  -4  15   33.50   17.60
  -4   8  15   26.70   16.50
  -4   8  15   19.30   15.10
   7   1 -15   12.80   14.60
  -7  -1  15    8.80   16.80
  -1   8  15   -4.30   15.20
   3   6 -15    3.00   15.20
  -6   9  15   10.40   16.40
  -6   9  15    4.50   15.30
  -3  -6  15    6.80   16.60
   9  -3  15  -12.00   15.60
   6   3 -15  -17.60   15.40
   6   3 -15   -8.50   16.50
  -3   9  15    3.90   14.90
  -6  -3  15  -27.50   16.30
  -3   9  15   -9.10   11.60
   1  -1 -16  391.66   42.20
  -1   0 -16  560.24   44.00
   0   1 -16  596.64   43.00
  -1   0 -16  546.15   41.90
   0   1 -16  554.44   44.30
   1  -1 -16  473.35   41.40
   1   0  16  561.44   43.50
   0  -1  16  513.15   42.90
   1   0  16  595.04   50.09
  -1   1  16  424.56   42.80
   1   0  16  553.64   45.00
   0  -1  16  571.04   44.10
   0  -1  16  630.64   50.39
   0  -1  16  553.74   44.50
  -1   1  16  399.16   47.70
   0  -1  16  408.96   40.00
  -1   1  16  456.05   44.10
  -1   3 -16  194.88   23.00
   3  -2 -16  147.59   22.70
  -2  -1 -16  169.28   21.90
  -2  -1 -16  184.58   20.20
  -1   3 -16  196.98   23.40
  -1   3 -16  177.68   23.70
   1  -3  16  141.89   23.00
   2   1  16  159.98   21.70
   1  -3  16  146.89   22.50
   2   1  16  169.38   22.10
  -3   2  16  173.18   23.40
   1  -3  16  179.78   20.90
  -3   2  16  126.99   22.20
   1  -3  16  177.58   21.60
   1  -3  16  139.59   22.50
   2   1  16  171.28   23.50
   2   0 -16  263.27   29.00
  -2   2 -16  281.57   27.60
   0  -2 -16  280.97   25.40
  -2   2 -16  256.27   28.80
   0  -2 -16  253.37   27.50
   2  -2  16  265.27   28.90
   2  -2  16  264.27   27.70
   2  -2  16  238.28   28.30
  -2   0  16  295.67   29.80
  -2   0  16  306.37   29.00
  -2   0  16  297.37   29.70
   0   2  16  295.97   32.40
   0   2  16  260.07   28.50
   2  -2  16  358.26   35.60
  -2   0  16  236.08   24.50
  -2   0  16  302.07   33.30
   0   2  16  294.67   28.50
   2  -2  16  256.97   26.00
  -2   5 -16  154.58   22.40
  -2   5 -16  164.48   25.00
   2  -5  16  166.78   22.00
   2  -5  16  190.48   22.10
   3   2  16  171.98   23.80
  -5   3  16  228.98   27.40
  -5   3  16  142.29   24.80
   3   2  16  154.78   21.60
   2  -3 -16  160.08   21.80
   1   2 -16  136.89   21.20
   2  -3 -16  115.39   17.80
   1   2 -16  174.48   22.00
  -3   1 -16  176.38   22.60
  -3   1 -16  190.58   20.80
  -1  -2  16  145.79   20.90
  -1  -2  16  165.08   21.50
   3  -1  16  181.08   24.80
  -2   3  16   89.29   20.40
  -1  -2  16  169.68   23.80
  -2   3  16  132.19   21.50
  -1  -2  16  173.08   19.60
   3  -1  16  192.78   22.40
   3  -1  16  211.98   24.20
  -1  -2  16  162.98   22.60
  -3   4 -16   76.89   19.40
  -3   4 -16   77.29   16.80
  -3   4 -16   93.89   19.10
   4  -1 -16   93.69   19.70
  -3   4 -16   92.29   17.90
   3  -4  16   94.59   16.90
   1   3  16   68.59   17.30
  -4   1  16   89.49   18.80
  -4   1  16   74.69   19.30
   1   3  16   63.09   14.60
   3  -4  16  100.59   17.00
   3  -4  16  106.69   19.30
   7  -4 -16  124.59   21.90
  -3   7 -16  170.38   27.30
  -3   7 -16  106.39   23.00
   4   3  16  128.69   22.00
   4   3  16  125.39   21.10
   3  -7  16   93.19   19.40
  -7   4  16  137.19   24.60
  -7   4  16  134.09   25.60
   0   4 -16 2592.34  190.28
   0   4 -16 2527.35  183.18
  -4   4  16 2617.54  190.48
   4   0  16 2512.05  179.78
  -4   4  16 2520.25  181.38
   0  -4  16 2628.64  179.08
   0  -4  16 2292.67  188.58
   0  -4  16 2742.13  182.38
   0  -4  16 2552.74  184.38
   3   1 -16   73.69   17.00
  -4   3 -16   79.99   18.10
   3   1 -16  108.59   19.20
  -4   3 -16   54.99   15.00
  -4   3 -16   72.39   17.60
  -3  -1  16   62.39   17.40
  -1   4  16   69.59   17.60
  -3  -1  16   73.39   14.80
   4  -3  16   96.89   16.80
  -3  -1  16   72.29   16.90
  -1   4  16   86.99   16.30
  -3  -1  16   86.49   18.60
  -4   6 -16    0.80   15.00
   6  -2 -16   -0.90   17.70
  -4   6 -16   -1.70   16.20
   4  -6  16    6.70   13.90
   4  -6  16    1.90   12.60
  -6   2  16    4.60   15.20
   2   4  16   -1.80   13.80
  -6   2  16   21.30   15.10
   2   4  16    3.90   10.70
  -1   6 -16  147.79   25.20
   1  -6  16  141.99   20.80
   5   1  16  158.78   23.70
   1  -6  16  131.59   20.50
   5   1  16  201.18   25.70
   1  -6  16  126.39   24.90
  -6   5  16  133.79   24.80
  -6   5  16  183.78   26.20
  -5   2 -16  150.28   23.30
   2   3 -16  186.08   24.60
   2   3 -16  153.48   22.40
  -5   2 -16  160.48   21.80
  -3   5  16  189.58   24.60
  -2  -3  16  168.08   21.00
  -2  -3  16  125.49   22.00
  -3   5  16  179.88   24.40
  -2  -3  16  142.19   21.40
   5  -2  16  173.88   23.80
   5   0 -16   86.89   19.80
  -5   5 -16   93.79   21.00
  -5   5 -16   42.90   16.60
   0   5  16   50.39   17.70
  -5   0  16   46.90   18.70
  -5   0  16   46.80   18.00
   5  -5  16   60.69   16.40
   0   5  16   69.29   15.20
  -5   8 -16   22.00   18.00
  -5   8 -16   46.90   20.60
   3   5  16    3.20   14.10
  -8   3  16   31.10   18.00
   3   5  16    0.00   10.10
  -8   3  16   19.30   18.60
  -2   8 -16   20.80   19.30
   6   2  16   59.99   20.20
  -8   6  16   49.90   19.60
   6   2  16   80.69   19.10
  -8   6  16   35.20   21.80
   1   5 -16  166.88   26.70
   6  -1  16  177.48   25.70
  -1  -5  16  197.68   25.00
  -5   6  16  197.18   27.60
  -1  -5  16  204.48   23.80
  -5   6  16  150.08   26.80
  -6   4 -16  -14.80   14.20
   4   2 -16    2.40   14.00
  -6   4 -16   11.10   13.00
   6  -4  16   15.00   14.50
  -2   6  16    3.80   14.10
  -4  -2  16    7.30   13.10
  -2   6  16    3.10   12.00
  -4  -2  16   15.90   16.20
   7  -1 -16   20.30   19.30
   1   6  16   19.00   10.90
   1   6  16   38.60   15.90
  -7   1  16   38.60   17.00
  -7   1  16   35.50   18.80
   0   7 -16   19.30   17.60
  -7   7  16  -43.30   17.20
   7   0  16   -1.70   17.60
   0  -7  16   44.00   16.00
   7   0  16   14.00   18.70
  -7   7  16   30.20   19.10
   3   4 -16  117.59   21.90
  -7   3 -16  123.09   20.40
   7  -3  16   98.39   20.50
  -4   7  16  109.19   22.00
  -4   7  16   62.09   19.60
  -3  -4  16  139.89   20.50
  -3  -4  16  109.09   21.80
  -1   7  16   32.00   15.90
  -6  -1  16    0.10   16.50
  -1   7  16   29.80   11.90
   2   6 -16   28.40   18.20
  -6   8  16   33.70   18.50
  -2  -6  16   46.00   17.10
   8  -2  16   38.20   17.50
  -6   8  16   13.80   17.00
   5   3 -16    3.50   16.30
   5   3 -16   15.10   15.90
   8  -5  16   16.50   14.70
  -5  -3  16    6.30   15.30
  -3   8  16  -13.00   14.10
  -3   8  16  -30.70   12.30
  -5  -3  16   21.30   17.70
   0  -1 -17   96.69   18.30
   1   0 -17   98.79   18.40
  -1   1 -17   89.59   17.80
   1   0 -17  147.69   19.30
   0  -1 -17   92.79   16.10
  -1   1 -17  111.19   19.00
   1  -1  17   73.79   16.80
   1  -1  17   89.39   17.60
  -1   0  17  105.99   19.00
   0   1  17  103.49   18.80
  -1   0  17  106.79   19.70
  -1   0  17   88.99   14.10
  -1   0  17  111.89   17.40
   1  -1  17  103.59   18.10
  -1   0  17   99.59   19.80
   1  -1  17  119.49   20.90
   1  -1  17   92.99   15.10
   0   1  17   90.99   17.70
  -2   0 -17   14.60   11.60
   2  -2 -17    3.80   14.80
   2  -2 -17   45.40   13.00
   0   2 -17   43.80   16.30
  -2   0 -17   39.00   14.80
   0   2 -17   31.60   13.10
   0  -2  17   28.40   14.10
   0  -2  17   28.60   13.50
   0  -2  17   15.40   14.40
   2   0  17   24.60   13.90
   0  -2  17    7.30   11.60
  -2   2  17   36.20   14.60
  -2   2  17   32.10   14.20
   2   0  17   38.00   14.40
   3  -1 -17   19.20   14.60
  -2   3 -17    0.90   13.80
  -2   3 -17   -4.40   12.90
  -3   1  17   11.40   15.10
   1   2  17   -4.50   12.50
   2  -3  17    3.40   13.30
   2  -3  17   -2.70   11.40
   2  -3  17   35.10   14.20
   2  -3  17    2.20   12.00
  -3   1  17   14.30   13.40
   1   2  17   14.20   11.40
  -1   4 -17   17.30   15.00
  -1   4 -17   22.20   15.00
  -4   3  17   -1.00   16.70
   3   1  17   45.70   15.30
   1  -4  17   33.00   15.80
   3   1  17   51.49   15.20
   1  -4  17   38.10   14.30
  -4   3  17   11.80   15.10
   1  -4  17   24.00   13.20
   2   1 -17   -7.50   14.30
  -3   2 -17    7.10   14.20
  -3   2 -17   12.10   12.30
  -2  -1  17   27.40   15.50
  -2  -1  17   -7.60   14.00
  -1   3  17    2.70   12.80
  -2  -1  17   -7.00   13.10
   3  -2  17   -0.80   12.10
  -2  -1  17    8.50   11.10
   3  -2  17   -9.80   12.80
  -1   3  17   -0.70   11.40
  -3   5 -17    4.90   15.00
  -3   5 -17    8.20   17.00
  -3   5 -17   -5.80   14.60
   3  -5  17    5.30   14.40
  -5   2  17   -2.70   14.70
  -5   2  17   12.30   16.30
   2   3  17   -7.50   13.40
   3  -5  17    6.60   12.30
   2   3  17   -1.10   11.30
  -2   6 -17  -13.50   13.80
  -6   4  17    3.30   15.90
   4   2  17   19.50   15.00
  -6   4  17   -7.30   15.20
   2  -6  17   -5.40   12.90
   2  -6  17   15.40   14.60
  -4   1 -17    9.80   13.20
   1   3 -17   23.70   15.00
   1   3 -17   27.60   15.30
  -3   4  17   63.59   17.60
  -3   4  17   19.10   14.10
  -1  -3  17   34.50   14.50
  -1  -3  17   11.40   12.40
  -1  -3  17   43.10   16.10
   4  -1  17   35.30   15.40
   4   0 -17   71.79   19.50
  -4   4 -17   77.09   18.10
  -4   4 -17   71.89   17.90
   0   4  17   40.30   17.30
   4  -4  17   73.39   17.20
  -4   0  17   52.09   19.60
  -4   0  17   39.30   16.90
   0   4  17   71.49   15.70
  -4   7 -17   20.60   19.80
  -4   7 -17   33.90   18.30
   4  -7  17   22.80   15.00
   3   4  17    5.40   11.40
  -7   3  17   45.40   18.90
  -7   3  17   47.60   18.80
   3   4  17    5.90   14.40
  -3   8 -17   11.80   18.60
  -3   8 -17   48.10   22.80
   5   3  17   15.30   17.40
   5   3  17   27.70   17.10
  -8   5  17   30.00   18.90
  -8   5  17   12.70   18.00
   0   5 -17  -13.80   13.40
  -5   5  17    3.70   15.50
  -5   5  17   -0.50   15.10
   0  -5  17    5.70   12.30
   0  -5  17   19.90   14.30
   5   0  17   -1.50   14.60
  -5   3 -17  -20.60   13.60
   3   2 -17   10.40   15.60
  -5   3 -17   20.40   13.20
  -2   5  17    6.70   14.90
  -3  -2  17   -5.80   12.50
  -3  -2  17    9.40   12.20
   5  -3  17  -12.20   12.50
  -3  -2  17  -23.90   14.30
  -2   5  17  -11.50   11.90
   6  -1 -17   -7.10   17.10
   5  -6  17   19.30   13.70
   1   5  17   29.30   15.30
  -6   1  17    5.80   15.10
  -6   1  17    6.60   14.00
   1   5  17   15.30   10.70
  -1   7 -17   -0.50   16.80
   6   1  17  -17.70   16.20
   1  -7  17    5.90   14.80
  -7   6  17   17.80   17.80
   6   1  17    7.70   15.70
  -7   6  17   -4.20   15.90
   2   4 -17  -21.30   12.70
  -4   6  17    9.90   13.10
   6  -2  17   -3.40   14.20
  -2  -4  17   -9.60   13.80
  -4   6  17  -10.80   15.00
  -2  -4  17    1.70   13.60
  -6   5 -17   -0.10   15.20
  -5  -1  17   29.90   17.10
  -1   6  17   -4.70   13.20
   6  -5  17   -1.80   14.10
  -1   6  17   -4.70   11.10
  -8   2  17   24.60   17.50
   1   6 -17    1.00   16.10
  -1  -6  17    6.90   14.50
   7  -1  17  -17.20   14.10
  -6   7  17   -9.00   16.90
  -6   7  17   -5.50   15.60
   4   3 -17   25.50   16.50
  -3   7  17   15.30   14.10
  -4  -3  17    6.00   16.70
   7  -4  17   36.60   16.50
  -4  -3  17   24.80   15.70
  -3   7  17   25.70   16.70
   0   7  17   36.20   17.10
   0   7  17   23.00   11.40
  -7   0  17   55.39   19.30
   3   5 -17   14.00   15.90
   8  -3  17   11.70   16.30
  -3  -5  17   41.10   18.30
  -5   8  17   13.20   17.60
  -5   8  17   32.80   16.50
  -2   8  17   16.30   12.80
   0   0 -18 4567.54  326.07
   0   0 -18 4912.01  325.17
   0   0  18 4683.63  336.77
   0   0  18 4325.27  318.67
  -1   2 -18  381.16   36.30
   2  -1 -18  386.36   36.00
  -1   2 -18  367.56   34.70
   2  -1 -18  311.17   34.90
  -2   1  18  359.76   36.10
  -2   1  18  400.66   36.60
   1   1  18  360.26   35.60
   1   1  18  359.06   34.80
   1  -2  18  308.57   34.40
   1  -2  18  427.06   36.80
  -2   1 -18  305.47   36.80
   1   1 -18  420.16   37.00
  -2   1 -18  363.86   34.90
   2  -1  18  336.67   36.10
  -1   2  18  331.47   35.80
  -1  -1  18  411.76   36.00
  -1  -1  18  419.26   37.40
  -1   2  18  357.76   36.20
   2  -1  18  387.06   35.40
  -2   4 -18  154.38   23.50
  -4   2  18  116.69   23.60
   2   2  18  119.19   21.70
   2  -4  18  139.19   22.60
   2  -4  18  139.09   21.10
  -4   2  18  192.48   26.20
   2   2  18  131.29   20.70
   0   3 -18  585.04   49.00
  -3   3  18  570.44   49.90
   3   0  18  539.95   49.60
   0  -3  18  550.64   47.90
  -3   3  18  513.25   48.80
   0  -3  18  585.54   49.50
   3   0  18  558.64   47.80
  -3   3 -18  286.37   30.70
  -3   3 -18  279.77   31.50
   3   0 -18  296.57   33.40
  -3   0  18  298.67   31.30
   0   3  18  304.47   30.90
  -3   0  18  276.77   32.80
   3  -3  18  290.27   29.80
   0   3  18  250.37   31.60
  -6   3  18   14.10   16.40
   3   3  18   10.50   14.70
   3   3  18   -6.10   11.60
  -6   3  18   -7.40   14.80
   3  -6  18   40.50   13.50
  -1   5 -18   34.90   17.40
  -5   4  18   30.30   17.30
   1  -5  18   23.10   14.80
   1  -5  18   26.30   14.70
   4   1  18   28.90   16.30
  -5   4  18   25.20   17.30
   2   2 -18  159.78   23.00
  -4   2 -18  137.59   20.20
  -2   4  18  121.89   21.90
  -2  -2  18  119.89   22.10
   4  -2  18  142.39   21.80
  -2  -2  18  138.39   21.80
  -2   4  18  157.28   23.80
   5  -1 -18   47.30   20.20
  -4   5 -18   50.69   17.80
   1   4  18   50.09   13.90
  -5   1  18   71.19   19.50
  -5   1  18   62.49   19.00
   1   4  18   87.39   19.10
   4  -5  18   33.80   15.90
  -2   7 -18   85.79   24.10
   5   2  18  106.89   22.10
  -7   5  18  153.78   27.20
  -7   5  18  126.89   25.20
   1   4 -18    3.80   15.30
  -4   5  18   -1.40   13.90
  -1  -4  18   23.40   15.00
   5  -1  18   47.70   16.50
  -4   5  18   12.60   16.00
  -1  -4  18   23.80   13.60
   4   1 -18   80.09   19.50
  -5   4 -18   56.99   18.50
  -1   5  18   60.79   18.10
  -4  -1  18   27.80   15.40
  -4  -1  18   58.39   18.60
   5  -4  18   49.70   16.70
  -1   5  18   29.50   13.60
  -7   2  18  123.49   24.60
   2   5  18  128.89   22.80
   2   5  18   90.19   16.80
  -7   2  18  152.38   26.00
   0   6 -18   -0.40   16.20
   6   0  18  -29.20   15.30
  -6   6  18   16.60   17.90
   0  -6  18   12.90   14.90
  -6   6  18  -28.80   15.40
  -6   3 -18   11.90   14.40
  -3  -3  18    7.60   15.00
  -3   6  18    2.50   13.30
  -3   6  18   35.30   17.00
   6  -3  18    2.80   15.40
   0   6  18   13.40   14.90
   0   6  18    5.10   11.70
  -6   0  18  -22.20   15.00
   2   5 -18   86.99   22.70
   7  -2  18  117.09   22.10
  -5   7  18   94.29   23.40
  -2  -5  18  112.59   21.50
  -5   7  18   95.39   22.30
  -2   7  18  134.39   22.10
  -5  -2  18  183.28   27.70
   7  -5  18  192.78   24.40
  -2   7  18  141.79   25.30
   1  -1 -19  -11.10   14.80
   0   1 -19   46.80   18.10
   0   1 -19   24.90   16.50
  -1   0 -19   -1.00   14.50
  -1   1  19   21.00   16.10
   0  -1  19   15.70   15.20
   1   0  19    3.40   14.40
   0  -1  19   27.80   15.40
   1   0  19  -17.60   13.90
  -1   1  19    5.60   14.80
  -1   3 -19    3.20   15.60
   1  -3  19   14.20   15.10
   1  -3  19   12.40   14.40
  -3   2  19   56.99   17.40
   2   1  19   -1.10   13.20
  -3   2  19   21.70   15.80
   2   1  19    3.30   14.10
  -2   2 -19    1.90   13.30
  -2   2 -19  -17.50   14.80
   0   2  19  -10.30   13.50
   0   2  19  -18.00   11.80
   2  -2  19    4.90   12.80
  -2   0  19  -14.20   13.00
  -2   0  19   -5.80   14.90
   2  -2  19    3.40   14.40
   2  -5  19   -2.10   13.60
  -5   3  19   18.90   15.20
   3   2  19    3.60   12.60
  -5   3  19    0.60   14.90
   3   2  19   16.90   14.40
   1   2 -19   36.40   17.20
  -2   3  19   28.50   16.30
   3  -1  19   13.70   14.10
  -1  -2  19   28.60   15.90
   3  -1  19    5.80   13.70
  -1  -2  19   -5.10   13.10
  -2   3  19    4.40   13.90
  -3   4 -19    7.20   15.70
   3  -4  19   -3.60   13.10
  -4   1  19   -5.90   13.50
  -4   1  19   17.20   16.60
   1   3  19  -16.90   12.60
   1   3  19   13.40   12.00
   0  -4  19   63.99   17.50
  -4   4  19   81.39   18.70
  -4   4  19   58.39   19.70
   4   0  19   49.70   16.80
   3   1 -19    3.00   16.60
  -4   3 -19    9.10   14.10
  -3  -1  19   -8.90   14.50
  -3  -1  19  -12.90   13.30
  -1   4  19    0.30   14.40
  -1   4  19    0.80   11.60
   4  -3  19   -2.00   13.10
  -6   2  19    8.50   17.00
   2   4  19   -3.60   10.30
   2   4  19    7.20   15.50
   4  -6  19    6.50   14.30
  -6   2  19   16.90   17.20
  -6   5  19    0.40   16.00
   5   1  19   15.10   15.00
  -6   5  19   31.50   18.70
   1  -6  19    0.30   14.80
  -3   5  19  -24.40   11.50
  -2  -3  19   -5.90   14.70
  -3   5  19   18.40   15.80
   5  -2  19   12.40   13.90
   5   0 -19    2.60   18.70
  -5   5 -19    9.00   17.10
   5  -5  19   13.70   14.60
   0   5  19   -9.50   13.40
   0   5  19   19.70   11.90
  -5   0  19    0.60   17.40
  -5   0  19   -4.80   15.10
  -1  -5  19   11.40   15.10
   6  -1  19    5.90   15.70
  -5   6  19   13.40   17.70
  -5   6  19   16.70   16.80
  -4  -2  19    2.90   16.40
  -2   6  19    6.10   12.60
   6  -4  19    9.90   14.80
  -2   6  19  -17.70   14.30
  -1   1 -20   33.90   15.00
   1   0 -20   28.40   14.90
  -1   0  20    9.50   14.30
   1  -1  20    5.10   13.70
   1  -1  20    1.80   13.50
   0   1  20   22.90   13.50
   0   1  20   31.80   15.40
  -1   0  20   11.70   14.10
   0   2 -20   13.20   17.20
  -2   2  20    3.90   13.10
   2   0  20    6.20   14.10
   2   0  20   -2.70   13.70
   0  -2  20    2.50   13.80
   0  -2  20    7.00   14.40
  -2   2  20    1.90   14.90
  -2   3 -20   19.50   17.40
   2  -3  20   44.00   18.00
   1   2  20   13.30   15.10
  -3   1  20   -2.60   15.30
  -3   1  20   29.00   15.30
   2  -3  20    8.90   14.20
   1   2  20    8.30   12.10
  -4   3  20    7.90   16.70
   3   1  20   -0.10   14.30
   1  -4  20   -5.10   14.60
  -4   3  20    8.40   15.70
   1  -4  20   -2.00   14.10
   3   1  20  -17.40   12.60
   2   1 -20    3.40   17.40
  -3   2 -20   11.10   15.60
  -2  -1  20    6.50   15.60
  -1   3  20   11.30   13.00
   3  -2  20    9.90   14.40
   3  -2  20   23.90   15.30
  -1   3  20    7.40   14.00
  -2  -1  20    9.10   14.30
   3  -5  20   93.89   18.20
  -5   2  20   66.79   21.20
  -5   2  20   83.59   22.90
   2   3  20   54.89   16.60
   2   3  20   69.79   19.60
   4  -1  20   34.80   15.20
  -1  -3  20    5.60   14.10
  -3   4  20   16.00   16.60
  -3   4  20   17.80   14.90
  -1  -3  20   21.30   16.40
  -4   0  20  310.47   35.10
   4  -4  20  385.96   34.80
  -4   0  20  363.76   36.40
   0   4  20  311.77   33.70
   0   4  20  322.87   35.60
   0  -5  20   -3.60   15.50
  -5   5  20   -4.90   16.90
   5   0  20    3.00   15.30
  -5   5  20    0.00   14.90
  -3  -2  20   68.59   20.70
  -2   5  20   91.99   20.10
  -2   5  20   58.99   19.50
   5  -3  20  121.09   21.10
   0   0  21  188.08   27.70
   0   0  21  253.37   29.20
   1   1  21   17.60   16.40
  -2   1  21   31.20   16.60
   1  -2  21   55.69   17.30
   1   1  21   27.50   16.00
  -2   1  21   41.50   17.80
   1  -2  21   46.10   18.00
   2  -1  21   39.40   16.20
  -1  -1  21   28.40   16.10
   2  -1  21   54.69   18.80
  -1  -1  21   42.10   16.70
  -1   2  21   66.59   18.30
  -1   2  21   35.50   16.50
  -4   2  21   15.40   17.40
  -4   2  21   27.00   16.60
   2   2  21    3.00   13.90
   2  -4  21    2.00   13.70
   2  -4  21   21.30   16.40
   2   2  21  -14.60   13.60
   0   3 -21   33.70   19.50
   3   0  21   51.09   18.10
  -3   3  21   33.00   17.90
   3   0  21    8.20   15.70
  -3   3  21   19.50   15.20
   0  -3  21   52.79   17.20
   0  -3  21   21.90   16.50
  -3   0  21   25.10   16.20
  -3   0  21   14.80   17.00
   3  -3  21   19.50   15.20
   0   3  21   22.60   16.00
   0   3  21   10.70   14.00
   4  -2  21   13.20   14.40
  -2   4  21    0.10   15.40
  -2  -2  21    5.90   16.20
  -2  -2  21    8.20   14.60
  -2   4  21   -3.70   13.90
   1   0  22   -4.40   14.30
   1   0  22   17.20   14.80
  -1   1  22  -17.10   13.20
  -1   1  22    7.00   15.60
   0  -1  22   -0.90   15.30
   0  -1  22   16.60   16.70
   2   1  22   31.70   16.50
   1  -3  22   36.60   16.70
   2   1  22    8.60   15.30
  -3   2  22   -2.40   17.10
   1  -3  22    1.50   16.20
  -3   2  22   50.99   19.30
   2  -2  22   64.69   21.30
   0   2  22   56.69   18.60
  -2   0  22   87.99   20.30
  -2   0  22   75.29   19.50
   2  -2  22  107.89   20.50
   0   2  22   75.19   19.70
  -2   3  22   21.10   15.60
  -1  -2  22   14.00   16.00
  -1  -2  22    4.80   15.60
   3  -1  22   22.60   15.80
   3  -1  22    7.70   16.70
  -2   3  22    3.70   16.00
   0   0   0    0.00    0.00

_computing_structure_solution     'SHELXT 2014/5 (Sheldrick, 2014)'
;
_shelx_hkl_checksum              59911
loop_
_space_group_symop_operation_xyz
'x, y, z'
'-y, x-y, z'
'-x+y, -x, z'
'-y, -x, z'
'-x+y, y, z'
'x, x-y, z'
'x+2/3, y+1/3, z+1/3'
'-y+2/3, x-y+1/3, z+1/3'
'-x+y+2/3, -x+1/3, z+1/3'
'-y+2/3, -x+1/3, z+1/3'
'-x+y+2/3, y+1/3, z+1/3'
'x+2/3, x-y+1/3, z+1/3'
'x+1/3, y+2/3, z+2/3'
'-y+1/3, x-y+2/3, z+2/3'
'-x+y+1/3, -x+2/3, z+2/3'
'-y+1/3, -x+2/3, z+2/3'
'-x+y+1/3, y+2/3, z+2/3'
'x+1/3, x-y+2/3, z+2/3'
loop_
_atom_site_label
_atom_site_type_symbol
_atom_site_fract_x
_atom_site_fract_y
_atom_site_fract_z
_atom_site_U_iso_or_equiv
_atom_site_adp_type
_atom_site_occupancy
_atom_site_site_symmetry_order
_atom_site_calc_flag
_atom_site_refinement_flags_posn
_atom_site_refinement_flags_adp
_atom_site_refinement_flags_occupancy
_atom_site_disorder_assembly
_atom_site_disorder_group
T1 Si 0.2476(9) 0.2449(9) 0.5168(3) 0.059(3) Uani 1 1 d . . . . .
T11 Si 0.2432(10) 0.2435(10) 0.6394(4) 0.047(4) Uiso 0.750(11) 1 d . . P . .
T11B Si 0.408(3) 0.332(3) 0.6321(13) 0.047(4) Uiso 0.250(11) 1 d . . P . .
T2 Si 0.4206(7) 0.3323(10) 0.4096(4) 0.042(2) Uani 1 1 d . . . . .
O1 O 0.344(3) 0.307(2) 0.4686(10) 0.076(7) Uiso 1 1 d . . . . .
O11 O 0.359(2) 0.359(2) 0.3583(11) 0.094(8) Uiso 1 1 d . . . . .
O2 O 0.1267(15) 0.253(3) 0.5051(14) 0.082(10) Uiso 1 2 d S . P . .
O22 O 0.0937(17) 0.187(3) 0.6382(15) 0.059(11) Uiso 0.750(11) 2 d S . P . .
O3 O 0.201(3) 0.1006(13) 0.5289(13) 0.068(8) Uiso 1 2 d S . P . .
O33 O 0.264(4) 0.132(2) 0.6533(18) 0.077(13) Uiso 0.750(11) 2 d S . P . .
O4 O 0.3142(19) 0.3068(17) 0.5786(11) 0.071(5) Uiso 1 1 d . . . . .
O5 O 0.457(3) 0.2286(17) 0.4056(14) 0.084(10) Uiso 1 2 d S . P . .
O55 O 0.5558(18) 0.4442(18) 0.4307(14) 0.095(12) Uiso 1 2 d S . P . .
Ag1 Ag 0.0000 0.0000 0.5813(10) 0.077(8) Uiso 0.33(2) 6 d S . . . .
Ag2 Ag 0.6667 0.3333 0.380(2) 0.02(2) Uiso 0.10(2) 6 d S . . . .
Ag2A Ag 0.6667 0.3333 0.4220(16) 0.100 Uiso 0.261(15) 6 d S U . . .
Ag2C Ag 0.0000 0.0000 0.512(3) 0.04(3) Uiso 0.064(18) 6 d S . . . .
Ag4 Ag 0.4989(15) 0.5011(15) 0.5743(16) 0.057(11) Uiso 0.137(17) 2 d S . . . .
Ag4A Ag 0.5112(16) 0.4888(16) 0.540(2) 0.109(17) Uiso 0.15(2) 2 d S . . . .
Ag5A Ag 0.349(3) 0.1747(15) 0.7448(11) 0.007(18) Uiso 0.08(2) 2 d S . . . .
Ag5B Ag 0.291(5) 0.145(3) 0.7546(14) 0.150 Uiso 0.22(2) 2 d S U . . .
Ag6 Ag 0.6667 0.3333 0.624(4) 0.060 Uiso 0.062(11) 6 d S U . . .
OB1 O 0.555(4) 0.445(4) 0.637(4) 0.050 Uiso 0.250(11) 2 d S U P . .
OB2 O 0.452(8) 0.226(4) 0.639(4) 0.050 Uiso 0.250(11) 2 d S U P . .
loop_
_atom_site_aniso_label
_atom_site_aniso_U_11
_atom_site_aniso_U_22
_atom_site_aniso_U_33
_atom_site_aniso_U_23
_atom_site_aniso_U_13
_atom_site_aniso_U_12
T1 0.071(7) 0.070(7) 0.052(6) 0.010(4) 0.013(5) 0.046(5)
T2 0.042(6) 0.044(4) 0.038(4) 0.002(3) -0.001(4) 0.021(5)
loop_
_atom_type_symbol
_atom_type_description
_atom_type_scat_dispersion_real
_atom_type_scat_dispersion_imag
_atom_type_scat_source
Ag Ag -0.8971 1.1015 'International Tables Vol C Tables 4.2.6.8 and 6.1.1.4'
O O 0.0106 0.0060 'International Tables Vol C Tables 4.2.6.8 and 6.1.1.4'
Si Si 0.0817 0.0704 'International Tables Vol C Tables 4.2.6.8 and 6.1.1.4'
loop_
_geom_angle_atom_site_label_1
_geom_angle_atom_site_label_2
_geom_angle_atom_site_label_3
_geom_angle
_geom_angle_site_symmetry_1
_geom_angle_site_symmetry_3
_geom_angle_publ_flag
O1 T1 O2 112.4(16) . . ?
O1 T1 O3 116.0(13) . . ?
O2 T1 O3 106.3(16) . . ?
O1 T1 O4 107.5(12) . . ?
O2 T1 O4 113.1(15) . . ?
O3 T1 O4 101.2(14) . . ?
O1 T1 Ag5A 65.4(10) . 15_554 ?
O2 T1 Ag5A 48.1(12) . 15_554 ?
O3 T1 Ag5A 119.7(14) . 15_554 ?
O4 T1 Ag5A 137.7(12) . 15_554 ?
O11 T11 O33 103.4(19) 8 . ?
O11 T11 O4 110.3(14) 8 . ?
O33 T11 O4 108.3(19) . . ?
O11 T11 O22 112.7(16) 8 . ?
O33 T11 O22 106(2) . . ?
O4 T11 O22 115.0(15) . . ?
O11 T11 T11B 67.1(13) 8 . ?
O33 T11 T11B 85.4(19) . . ?
O4 T11 T11B 56.0(13) . . ?
O22 T11 T11B 167.6(17) . . ?
O4 T11B OB1 127(4) . . ?
O4 T11B OB2 114(3) . . ?
OB1 T11B OB2 90(4) . . ?
O4 T11B T11 56.7(13) . . ?
OB1 T11B T11 163(4) . . ?
OB2 T11B T11 103(3) . . ?
O4 T11B O11 97.2(18) . 8 ?
OB1 T11B O11 114(4) . 8 ?
OB2 T11B O11 115(3) . 8 ?
T11 T11B O11 50.4(11) . 8 ?
O4 T11B Ag4 73.4(14) . . ?
OB1 T11B Ag4 55(3) . . ?
OB2 T11B Ag4 126(4) . . ?
T11 T11B Ag4 121.0(16) . . ?
O11 T11B Ag4 116(2) 8 . ?
O4 T11B Ag4A 65.7(13) . . ?
OB1 T11B Ag4A 61(3) . . ?
OB2 T11B Ag4A 115(4) . . ?
T11 T11B Ag4A 119.9(15) . . ?
O11 T11B Ag4A 129.7(19) 8 . ?
Ag4 T11B Ag4A 16.1(8) . . ?
O11 T2 O5 121.2(17) . . ?
O11 T2 O1 112.4(9) . . ?
O5 T2 O1 106.0(16) . . ?
O11 T2 O55 117.0(16) . . ?
O5 T2 O55 96.9(14) . . ?
O1 T2 O55 100.3(15) . . ?
T1 O1 T2 163.0(16) . . ?
T2 O11 T11 163.2(19) . 15_554 ?
T2 O11 T11B 131(2) . 15_554 ?
T11 O11 T11B 62.5(13) 15_554 15_554 ?
T1 O2 T1 159(2) 5 . ?
T1 O2 Ag5A 100.3(12) 5 15_554 ?
T1 O2 Ag5A 100.3(12) . 15_554 ?
T1 O2 Ag5B 99.9(12) 5 15_554 ?
T1 O2 Ag5B 99.9(12) . 15_554 ?
Ag5A O2 Ag5B 16.8(10) 15_554 15_554 ?
T11 O22 T11 136(3) . 5 ?
T11 O22 Ag1 108.8(13) . . ?
T11 O22 Ag1 108.8(13) 5 . ?
T1 O3 T1 139(2) 6 . ?
T1 O3 Ag2C 106.0(11) 6 . ?
T1 O3 Ag2C 106.0(11) . . ?
T1 O3 Ag1 110.7(10) 6 . ?
T1 O3 Ag1 110.7(10) . . ?
Ag2C O3 Ag1 39(2) . . ?
T11 O33 T11 152(3) 6 . ?
T11 O33 Ag5A 104.0(15) 6 . ?
T11 O33 Ag5A 104.0(15) . . ?
T11 O33 Ag5B 102.6(16) 6 . ?
T11 O33 Ag5B 102.6(16) . . ?
Ag5A O33 Ag5B 16.7(11) . . ?
T11B O4 T11 67.3(15) . . ?
T11B O4 T1 154(2) . . ?
T11 O4 T1 119.2(10) . . ?
T11B O4 Ag4 65.8(14) . . ?
T11 O4 Ag4 123.2(15) . . ?
T1 O4 Ag4 117.0(14) . . ?
T2 O5 T2 150(3) . 6 ?
T2 O5 Ag2A 103.8(13) . . ?
T2 O5 Ag2A 103.8(13) 6 . ?
T2 O5 Ag2 104.9(13) . . ?
T2 O5 Ag2 104.9(13) 6 . ?
Ag2A O5 Ag2 23.9(11) . . ?
T2 O55 T2 141(2) . 4_665 ?
T2 O55 Ag2A 97.4(14) . . ?
T2 O55 Ag2A 97.4(14) 4_665 . ?
Ag2C Ag1 O22 122.7(9) . 3 ?
Ag2C Ag1 O22 122.7(9) . 2 ?
O22 Ag1 O22 93.5(12) 3 2 ?
Ag2C Ag1 O22 122.7(9) . . ?
O22 Ag1 O22 93.5(12) 3 . ?
O22 Ag1 O22 93.5(12) 2 . ?
Ag2C Ag1 O3 61.1(8) . . ?
O22 Ag1 O3 83.9(6) 3 . ?
O22 Ag1 O3 176.2(14) 2 . ?
O22 Ag1 O3 83.9(6) . . ?
Ag2C Ag1 O3 61.1(8) . 3 ?
O22 Ag1 O3 83.9(6) 3 3 ?
O22 Ag1 O3 83.9(6) 2 3 ?
O22 Ag1 O3 176.2(14) . 3 ?
O3 Ag1 O3 98.6(10) . 3 ?
Ag2C Ag1 O3 61.1(8) . 2 ?
O22 Ag1 O3 176.2(14) 3 2 ?
O22 Ag1 O3 83.9(6) 2 2 ?
O22 Ag1 O3 83.9(6) . 2 ?
O3 Ag1 O3 98.6(10) . 2 ?
O3 Ag1 O3 98.6(10) 3 2 ?
Ag2A Ag2 O5 75.5(14) . . ?
Ag2A Ag2 O5 75.5(13) . 2_655 ?
O5 Ag2 O5 114.0(11) . 2_655 ?
Ag2A Ag2 O5 75.5(13) . 3_665 ?
O5 Ag2 O5 114.0(11) . 3_665 ?
O5 Ag2 O5 114.0(11) 2_655 3_665 ?
Ag2 Ag2A O5 80.6(13) . . ?
Ag2 Ag2A O5 80.6(13) . 2_655 ?
O5 Ag2A O5 117.4(7) . 2_655 ?
Ag2 Ag2A O5 80.6(13) . 3_665 ?
O5 Ag2A O5 117.4(7) . 3_665 ?
O5 Ag2A O5 117.4(7) 2_655 3_665 ?
Ag2 Ag2A O55 94.8(12) . 3_665 ?
O5 Ag2A O55 175(2) . 3_665 ?
O5 Ag2A O55 61.4(2) 2_655 3_665 ?
O5 Ag2A O55 61.4(2) 3_665 3_665 ?
Ag2 Ag2A O55 94.8(12) . 2_655 ?
O5 Ag2A O55 61.4(2) . 2_655 ?
O5 Ag2A O55 61.4(2) 2_655 2_655 ?
O5 Ag2A O55 175(2) 3_665 2_655 ?
O55 Ag2A O55 119.3(3) 3_665 2_655 ?
Ag2 Ag2A O55 94.8(12) . . ?
O5 Ag2A O55 61.4(2) . . ?
O5 Ag2A O55 175(2) 2_655 . ?
O5 Ag2A O55 61.4(2) 3_665 . ?
O55 Ag2A O55 119.3(3) 3_665 . ?
O55 Ag2A O55 119.3(3) 2_655 . ?
Ag1 Ag2C O3 80(2) . . ?
Ag1 Ag2C O3 80(2) . 3 ?
O3 Ag2C O3 117.1(11) . 3 ?
Ag1 Ag2C O3 80(2) . 2 ?
O3 Ag2C O3 117.1(11) . 2 ?
O3 Ag2C O3 117.1(11) 3 2 ?
Ag4A Ag4 OB1 121(5) . . ?
Ag4A Ag4 T11B 116(3) . . ?
OB1 Ag4 T11B 46.4(10) . . ?
Ag4A Ag4 T11B 116(3) . 4_665 ?
OB1 Ag4 T11B 46.4(10) . 4_665 ?
T11B Ag4 T11B 91.7(19) . 4_665 ?
Ag4A Ag4 O4 91.5(12) . . ?
OB1 Ag4 O4 86.6(9) . . ?
T11B Ag4 O4 40.8(10) . . ?
T11B Ag4 O4 132.5(16) 4_665 . ?
Ag4A Ag4 O4 91.5(12) . 4_665 ?
OB1 Ag4 O4 86.6(9) . 4_665 ?
T11B Ag4 O4 132.5(16) . 4_665 ?
T11B Ag4 O4 40.8(10) 4_665 4_665 ?
O4 Ag4 O4 173.1(17) . 4_665 ?
Ag4 Ag4A OB1 42(4) . . ?
Ag4 Ag4A T11B 48(2) . . ?
OB1 Ag4A T11B 37.1(9) . . ?
Ag4 Ag4A T11B 48(2) . 4_665 ?
OB1 Ag4A T11B 37.1(9) . 4_665 ?
T11B Ag4A T11B 72.8(17) . 4_665 ?
Ag5B Ag5A O2 88(4) . 8 ?
Ag5B Ag5A O33 85(4) . . ?
O2 Ag5A O33 174(2) 8 . ?
Ag5B Ag5A T1 89(3) . 10 ?
O2 Ag5A T1 31.7(3) 8 10 ?
O33 Ag5A T1 147.8(4) . 10 ?
Ag5B Ag5A T1 89(3) . 8 ?
O2 Ag5A T1 31.7(3) 8 8 ?
O33 Ag5A T1 147.8(4) . 8 ?
T1 Ag5A T1 63.3(6) 10 8 ?
Ag5A Ag5B O2 75(4) . 8 ?
Ag5A Ag5B O33 78(4) . . ?
O2 Ag5B O33 153(3) 8 . ?
OB2 Ag6 OB2 117.8(15) 2_655 . ?
OB2 Ag6 OB2 117.8(15) 2_655 3_665 ?
OB2 Ag6 OB2 117.8(14) . 3_665 ?
OB2 Ag6 OB1 164(5) 2_655 . ?
OB2 Ag6 OB1 59.4(4) . . ?
OB2 Ag6 OB1 59.4(4) 3_665 . ?
OB2 Ag6 OB1 59.4(4) 2_655 3_665 ?
OB2 Ag6 OB1 164(5) . 3_665 ?
OB2 Ag6 OB1 59.4(4) 3_665 3_665 ?
OB1 Ag6 OB1 118.4(13) . 3_665 ?
OB2 Ag6 OB1 59.4(4) 2_655 2_655 ?
OB2 Ag6 OB1 59.4(4) . 2_655 ?
OB2 Ag6 OB1 164(5) 3_665 2_655 ?
OB1 Ag6 OB1 118.4(13) . 2_655 ?
OB1 Ag6 OB1 118.4(13) 3_665 2_655 ?
T11B OB1 T11B 153(6) . 4_665 ?
T11B OB1 Ag4 79(3) . . ?
T11B OB1 Ag4 79(3) 4_665 . ?
T11B OB1 Ag4A 82(3) . . ?
T11B OB1 Ag4A 82(3) 4_665 . ?
Ag4 OB1 Ag4A 17.2(15) . . ?
T11B OB1 Ag6 102(3) . . ?
T11B OB1 Ag6 102(3) 4_665 . ?
Ag4 OB1 Ag6 123(5) . . ?
Ag4A OB1 Ag6 106(4) . . ?
T11B OB2 T11B 145(6) 6 . ?
T11B OB2 Ag6 105(3) 6 . ?
T11B OB2 Ag6 105(3) . . ?
loop_
_geom_bond_atom_site_label_1
_geom_bond_atom_site_label_2
_geom_bond_distance
_geom_bond_site_symmetry_2
_geom_bond_publ_flag
T1 O1 1.58(3) . ?
T1 O2 1.643(12) . ?
T1 O3 1.672(14) . ?
T1 O4 1.68(3) . ?
T1 Ag5A 3.08(2) 15_554 ?
T11 O11 1.61(3) 8 ?
T11 O33 1.624(16) . ?
T11 O4 1.68(3) . ?
T11 O22 1.689(18) . ?
T11 T11B 1.86(3) . ?
T11B O4 1.67(4) . ?
T11B OB1 1.72(4) . ?
T11B OB2 1.73(4) . ?
T11B O11 1.93(4) 8 ?
T11B Ag4 2.33(4) . ?
T11B Ag4A 2.82(5) . ?
T2 O11 1.58(3) . ?
T2 O5 1.630(12) . ?
T2 O1 1.64(3) . ?
T2 O55 1.691(15) . ?
O11 T11 1.61(3) 15_554 ?
O11 T11B 1.93(4) 15_554 ?
O2 T1 1.643(12) 5 ?
O2 Ag5A 2.33(4) 15_554 ?
O2 Ag5B 2.41(5) 15_554 ?
O22 T11 1.689(18) 5 ?
O22 Ag1 2.49(4) . ?
O3 T1 1.672(14) 6 ?
O3 Ag2C 2.28(3) . ?
O3 Ag1 2.57(3) . ?
O33 T11 1.624(16) 6 ?
O33 Ag5A 2.37(5) . ?
O33 Ag5B 2.42(6) . ?
O4 Ag4 2.451(17) . ?
O5 T2 1.630(12) 6 ?
O5 Ag2A 2.37(4) . ?
O5 Ag2 2.42(4) . ?
O55 T2 1.691(15) 4_665 ?
O55 Ag2A 2.49(4) . ?
Ag1 Ag2C 1.63(8) . ?
Ag1 O22 2.49(4) 3 ?
Ag1 O22 2.49(4) 2 ?
Ag1 O3 2.57(3) 3 ?
Ag1 O3 2.57(3) 2 ?
Ag2 Ag2A 0.99(4) . ?
Ag2 O5 2.42(4) 2_655 ?
Ag2 O5 2.42(4) 3_665 ?
Ag2A O5 2.37(4) 2_655 ?
Ag2A O5 2.37(4) 3_665 ?
Ag2A O55 2.49(4) 3_665 ?
Ag2A O55 2.49(4) 2_655 ?
Ag2C O3 2.28(3) 3 ?
Ag2C O3 2.28(3) 2 ?
Ag4 Ag4A 0.87(4) . ?
Ag4 OB1 1.94(10) . ?
Ag4 T11B 2.33(4) 4_665 ?
Ag4 O4 2.451(17) 4_665 ?
Ag4A OB1 2.50(10) . ?
Ag4A T11B 2.82(5) 4_665 ?
Ag5A Ag5B 0.70(4) . ?
Ag5A O2 2.33(4) 8 ?
Ag5A T1 3.08(2) 10 ?
Ag5A T1 3.08(2) 8 ?
Ag5B O2 2.41(5) 8 ?
Ag6 OB2 2.43(10) 2_655 ?
Ag6 OB2 2.43(10) . ?
Ag6 OB2 2.43(10) 3_665 ?
Ag6 OB1 2.52(9) . ?
Ag6 OB1 2.52(9) 3_665 ?
Ag6 OB1 2.52(9) 2_655 ?
OB1 T11B 1.72(4) 4_665 ?
OB2 T11B 1.73(4) 6 ?
