#------------------------------------------------------------------------------
#$Date: 2017-05-25 04:59:28 +0300 (Thu, 25 May 2017) $
#$Revision: 196964 $
#$URL: file:///home/coder/svn-repositories/cod/cif/7/04/31/7043108.cif $
#------------------------------------------------------------------------------
#
# This file is available in the Crystallography Open Database (COD),
# http://www.crystallography.net/
#
# All data on this site have been placed in the public domain by the
# contributors.
#
data_7043108
loop_
_publ_author_name
'Whittle, Thomas A.'
'Brant, William R.'
'Hester, James R.'
'Gu, Qinfen'
'Schmid, Siegbert'
_publ_section_title
;
 Tailoring phase transition temperatures in perovskites via A-site vacancy
 generation
;
_journal_name_full               'Dalton Trans.'
_journal_paper_doi               10.1039/C7DT00352H
_journal_year                    2017
_chemical_formula_sum            'Nb0.4 O3 Sr0.8 Zr0.6'
_chemical_formula_weight         210
_chemical_name_systematic        ' ?'
_space_group_IT_number           140
_symmetry_cell_setting           tetragonal
_symmetry_Int_Tables_number      140
_symmetry_space_group_name_Hall  '-I 4 2c'
_symmetry_space_group_name_H-M   'I 4/m c m'
_cell_angle_alpha                90
_cell_angle_beta                 90
_cell_angle_gamma                90
_cell_formula_units_Z            4
_cell_length_a                   5.72625(6)
_cell_length_b                   5.72625(6)
_cell_length_c                   8.13217(13)
_cell_measurement_temperature    293
_cell_volume                     266.653(6)
_diffrn_ambient_temperature      293
_diffrn_radiation_probe          neutron
_diffrn_radiation_wavelength     1.622
_exptl_absorpt_coefficient_mu    0.002
_exptl_crystal_density_diffrn    5.2306
_exptl_crystal_F_000             379
_pd_instr_location               ' ?'
_pd_meas_2theta_range_max        163.949
_pd_meas_2theta_range_min        2.750
_pd_meas_number_of_points        3226
_pd_proc_2theta_range_max        163.949
_pd_proc_2theta_range_min        14.8
_pd_proc_ls_background_function  '18 Legendre polynoms'
_pd_proc_ls_pref_orient_corr     none
_pd_proc_ls_profile_function     Pseudo-Voigt
_pd_proc_ls_prof_R_factor        0.0490
_pd_proc_ls_prof_wR_expected     0.0203
_pd_proc_ls_prof_wR_factor       0.0684
_refine_ls_goodness_of_fit_all   3.38
_refine_ls_number_constraints    1
_refine_ls_number_parameters     32
_refine_ls_number_restraints     0
_refine_ls_R_factor_all          0.0391
_refine_ls_R_factor_gt           0.0391
_refine_ls_shift/su_max          0.0395
_refine_ls_shift/su_mean         0.0101
_refine_ls_weighting_scheme      sigma
_refine_ls_wR_factor_all         0.0712
_refine_ls_wR_factor_gt          0.0712
_cod_data_source_file            c7dt00352h11.cif
_cod_data_source_block           I
_cod_original_cell_volume        266.654(6)
_cod_original_sg_symbol_Hall     '-I 4;-2c'
_cod_database_code               7043108
loop_
_space_group_symop_id
_space_group_symop_operation_xyz
1 x,y,z
2 -x,-y,z
3 -y,x,z
4 y,-x,z
5 -x,y,-z+1/2
6 x,-y,-z+1/2
7 y,x,-z+1/2
8 -y,-x,-z+1/2
9 -x,-y,-z
10 x,y,-z
11 y,-x,-z
12 -y,x,-z
13 x,-y,z+1/2
14 -x,y,z+1/2
15 -y,-x,z+1/2
16 y,x,z+1/2
17 x+1/2,y+1/2,z+1/2
18 -x+1/2,-y+1/2,z+1/2
19 -y+1/2,x+1/2,z+1/2
20 y+1/2,-x+1/2,z+1/2
21 -x+1/2,y+1/2,-z
22 x+1/2,-y+1/2,-z
23 y+1/2,x+1/2,-z
24 -y+1/2,-x+1/2,-z
25 -x+1/2,-y+1/2,-z+1/2
26 x+1/2,y+1/2,-z+1/2
27 y+1/2,-x+1/2,-z+1/2
28 -y+1/2,x+1/2,-z+1/2
29 x+1/2,-y+1/2,z
30 -x+1/2,y+1/2,z
31 -y+1/2,-x+1/2,z
32 y+1/2,x+1/2,z
loop_
_atom_site_label
_atom_site_type_symbol
_atom_site_fract_x
_atom_site_fract_y
_atom_site_fract_z
_atom_site_adp_type
_atom_site_U_iso_or_equiv
_atom_site_site_symmetry_multiplicity
_atom_site_occupancy
_atom_site_calc_flag
Sr Sr 0 0.5 0.25 Uiso 0.0144(3) 4 0.8 d
Zr Zr 0 0 0 Uiso 0.0056(3) 4 0.6 d
Nb Nb 0 0 0 Uiso 0.0056(3) 4 0.4 d
O1 O 0 0 0.25 Uiso 0.0284(7) 4 1 d
O2 O 0.27953(18) 0.77953(18) 0 Uiso 0.0227(3) 8 1 d
loop_
_atom_type_symbol
_atom_type_scat_length_neutron
_atom_type_scat_source
Sr 7.020 International_Tables_Vol_C
Zr 7.160 International_Tables_Vol_C
Nb 7.054 International_Tables_Vol_C
O 5.803 International_Tables_Vol_C
loop_
_geom_angle_atom_site_label_1
_geom_angle_atom_site_label_2
_geom_angle_atom_site_label_3
_geom_angle_site_symmetry_1
_geom_angle_site_symmetry_3
_geom_angle
Zr O2 Zr 1_565 21_555 166.53(6)
loop_
_geom_bond_atom_site_label_1
_geom_bond_atom_site_label_2
_geom_bond_site_symmetry_2
_geom_bond_distance
O2 Zr 1_565 2.0386(10)
O2 Zr 21_555 2.0386(10)
loop_
_pd_proc_point_id
_pd_proc_2theta_corrected
_pd_proc_intensity_net
_pd_calc_intensity_net
_pd_proc_ls_weight
1 14.6165 484.37 477.70 15.75
2 14.6665 475.02 477.30 15.61
3 14.7165 485.35 476.89 15.80
4 14.7665 446.28 476.45 15.14
5 14.8165 468.38 475.99 15.53
6 14.8665 481.33 475.51 15.73
7 14.9165 463.00 475.02 15.42
8 14.9665 484.92 474.51 15.75
9 15.0165 472.56 473.99 15.57
10 15.0664 483.48 473.45 15.79
11 15.1164 468.96 472.90 15.53
12 15.1665 452.37 472.34 15.32
13 15.2164 483.92 471.77 15.82
14 15.2664 453.08 471.18 15.38
15 15.3164 480.15 470.60 15.86
16 15.3665 489.73 470.00 16.05
17 15.4165 476.32 469.40 15.80
18 15.4665 468.70 468.79 15.68
19 15.5165 472.93 468.18 15.79
20 15.5665 456.55 467.57 15.50
21 15.6165 443.96 466.95 15.26
22 15.6665 473.67 466.33 15.80
23 15.7165 478.15 465.71 15.87
24 15.7665 473.98 465.09 15.79
25 15.8165 461.17 464.48 15.58
26 15.8665 468.08 463.86 15.70
27 15.9165 473.99 463.24 15.80
28 15.9665 478.48 462.63 15.85
29 16.0165 450.00 462.02 15.39
30 16.0665 451.31 461.42 15.42
31 16.1165 471.70 460.82 15.76
32 16.1665 482.29 460.22 15.92
33 16.2165 457.93 459.63 15.49
34 16.2665 456.15 459.04 15.48
35 16.3164 477.64 458.47 16.01
36 16.3664 442.99 457.89 15.37
37 16.4164 434.67 457.33 15.27
38 16.4664 471.02 457.00 15.90
39 16.5164 456.56 456.46 15.72
40 16.5665 431.84 456.31 15.29
41 16.6165 466.49 455.79 15.94
42 16.6665 464.58 455.28 15.89
43 16.7165 437.48 454.78 15.45
44 16.7665 449.75 454.29 15.67
45 16.8165 446.51 453.81 15.57
46 16.8665 454.62 453.34 15.69
47 16.9165 427.50 452.88 15.24
48 16.9665 427.79 452.44 15.27
49 17.0165 467.21 452.00 15.97
50 17.0665 446.75 451.58 15.60
51 17.1165 442.22 451.16 15.50
52 17.1665 464.93 450.76 15.88
53 17.2165 475.40 450.38 16.09
54 17.2665 442.29 450.00 15.52
55 17.3165 448.10 449.64 15.63
56 17.3665 471.20 449.29 16.02
57 17.4165 484.06 448.95 16.22
58 17.4665 446.91 448.62 15.57
59 17.5165 447.47 448.31 15.60
60 17.5664 461.64 448.01 15.51
61 17.6164 457.55 447.72 15.40
62 17.6664 449.35 447.45 15.29
63 17.7164 423.74 447.19 14.84
64 17.7664 488.63 446.94 16.01
65 17.8164 432.83 446.71 15.09
66 17.8665 452.33 446.49 15.41
67 17.9165 439.54 446.28 15.23
68 17.9665 424.32 446.09 14.92
69 18.0165 450.90 445.91 15.46
70 18.0665 470.69 445.74 15.78
71 18.1165 460.16 445.59 15.56
72 18.1665 463.83 445.45 15.62
73 18.2165 443.35 445.32 15.29
74 18.2665 429.90 445.21 15.06
75 18.3165 448.32 445.11 15.40
76 18.3665 461.35 445.02 15.58
77 18.4165 452.38 444.95 15.45
78 18.4665 476.70 444.89 15.83
79 18.5165 420.47 444.84 14.87
80 18.5665 440.33 444.80 15.23
81 18.6165 478.48 444.78 15.90
82 18.6665 442.02 444.78 15.28
83 18.7165 451.48 444.78 15.40
84 18.7665 459.01 444.80 15.54
85 18.8164 439.90 444.83 14.99
86 18.8664 454.80 444.87 15.25
87 18.9164 428.45 444.93 14.82
88 18.9664 441.39 445.00 15.04
89 19.0164 425.89 445.08 14.85
90 19.0664 428.75 445.18 14.89
91 19.1164 463.02 445.29 15.51
92 19.1664 448.62 445.41 15.24
93 19.2165 461.78 445.54 15.48
94 19.2665 447.43 445.69 15.25
95 19.3165 441.73 445.85 15.14
96 19.3665 434.37 446.02 15.00
97 19.4165 428.51 446.21 14.93
98 19.4665 428.16 446.41 14.94
99 19.5165 452.18 446.62 15.33
100 19.5665 425.85 446.85 14.88
101 19.6165 444.75 447.09 15.20
102 19.6664 469.33 447.35 15.60
103 19.7165 441.57 447.62 15.17
104 19.7665 439.71 447.91 15.13
105 19.8165 441.24 448.21 15.14
106 19.8664 415.09 448.54 14.68
107 19.9165 445.22 448.89 15.22
108 19.9665 431.39 449.27 14.93
109 20.0164 463.00 449.68 15.51
110 20.0664 456.06 450.15 15.78
111 20.1164 482.59 450.70 16.25
112 20.1664 479.31 451.35 16.25
113 20.2164 454.64 452.13 15.78
114 20.2664 488.07 453.10 16.46
115 20.3164 450.40 454.33 15.83
116 20.3664 470.70 455.88 16.18
117 20.4164 470.43 457.84 16.20
118 20.4665 473.61 460.33 16.27
119 20.5165 494.71 463.45 16.63
120 20.5665 499.45 467.31 16.72
121 20.6165 459.61 472.03 15.98
122 20.6665 501.59 477.71 16.73
123 20.7165 512.54 484.44 16.96
124 20.7665 462.73 492.30 16.08
125 20.8165 504.55 501.31 16.83
126 20.8665 512.16 511.52 16.91
127 20.9164 506.07 522.90 16.80
128 20.9665 543.27 535.49 17.42
129 21.0164 538.11 549.18 17.36
130 21.0665 546.01 564.04 17.48
131 21.1164 515.41 579.92 16.99
132 21.1664 558.84 596.87 17.73
133 21.2164 597.65 614.86 18.28
134 21.2664 600.38 633.88 18.34
135 21.3164 637.14 653.94 19.03
136 21.3664 652.81 675.08 19.28
137 21.4164 695.52 697.33 19.84
138 21.4664 744.41 720.78 20.59
139 21.5164 747.88 745.50 20.69
140 21.5664 748.75 771.61 20.65
141 21.6164 795.15 799.22 21.30
142 21.6664 836.05 828.49 21.84
143 21.7165 880.63 859.66 22.43
144 21.7665 910.52 892.83 22.84
145 21.8165 916.79 928.30 22.88
146 21.8665 977.34 966.41 23.62
147 21.9165 995.85 1007.53 23.83
148 21.9665 1069.04 1052.14 24.73
149 22.0165 1155.13 1100.84 25.69
150 22.0665 1124.87 1154.37 25.37
151 22.1164 1222.31 1213.51 26.41
152 22.1664 1277.32 1279.59 27.03
153 22.2165 1404.69 1353.93 28.35
154 22.2664 1411.70 1437.49 28.46
155 22.3165 1526.83 1532.40 29.61
156 22.3664 1643.88 1639.29 30.73
157 22.4164 1734.38 1759.74 31.60
158 22.4664 1820.49 1893.91 32.34
159 22.5164 2035.24 2041.03 34.24
160 22.5664 2104.35 2198.88 34.51
161 22.6164 2361.29 2363.46 36.58
162 22.6664 2531.76 2528.70 37.72
163 22.7164 2684.43 2686.66 38.88
164 22.7664 2790.36 2827.77 39.51
165 22.8164 2860.30 2941.63 39.91
166 22.8664 2936.10 3017.94 40.47
167 22.9164 2890.58 3047.77 40.11
168 22.9664 2867.24 3024.82 39.93
169 23.0164 2738.74 2946.55 39.06
170 23.0664 2687.14 2814.90 38.63
171 23.1164 2442.51 2636.40 36.71
172 23.1665 2197.15 2421.06 34.84
173 23.2165 2044.82 2182.74 33.57
174 23.2665 1880.12 1934.86 32.15
175 23.3165 1608.52 1690.47 29.69
176 23.3664 1402.63 1461.02 27.66
177 23.4164 1187.43 1253.75 25.44
178 23.4665 1080.86 1073.88 24.24
179 23.5164 889.04 924.44 21.96
180 23.5665 730.98 803.74 19.91
181 23.6164 671.66 710.36 19.10
182 23.6664 601.48 640.06 18.09
183 23.7164 542.18 588.95 17.11
184 23.7664 556.83 552.91 17.37
185 23.8164 513.27 528.23 17.23
186 23.8664 495.51 511.76 16.97
187 23.9164 471.21 501.00 16.57
188 23.9664 519.34 494.08 17.39
189 24.0164 504.61 489.67 17.24
190 24.0664 489.03 486.84 16.95
191 24.1164 487.72 484.99 17.07
192 24.1664 500.95 483.74 17.22
193 24.2164 484.29 482.85 16.91
194 24.2664 517.70 482.18 17.52
195 24.3164 486.20 481.66 16.92
196 24.3664 510.40 481.24 17.38
197 24.4165 485.41 480.89 16.94
198 24.4665 510.40 480.60 17.40
199 24.5164 501.46 480.35 17.29
200 24.5665 515.82 480.13 17.48
201 24.6164 500.65 479.95 17.25
202 24.6664 493.35 479.79 17.09
203 24.7165 503.87 479.66 17.26
204 24.7664 494.41 479.55 17.12
205 24.8165 488.40 479.46 17.02
206 24.8664 507.42 479.39 17.38
207 24.9164 499.13 479.33 17.26
208 24.9664 517.87 479.28 17.55
209 25.0164 494.93 479.25 17.06
210 25.0664 508.18 479.22 17.01
211 25.1164 505.00 479.20 16.91
212 25.1664 500.10 479.20 16.87
213 25.2164 480.56 479.19 16.54
214 25.2664 466.19 479.20 16.38
215 25.3164 509.16 479.20 17.11
216 25.3664 498.48 479.21 16.92
217 25.4164 490.01 479.23 16.72
218 25.4664 516.50 479.25 17.23
219 25.5164 493.34 479.27 16.87
220 25.5664 484.87 479.29 16.69
221 25.6164 482.74 479.32 16.62
222 25.6665 502.37 479.35 17.03
223 25.7164 472.07 479.37 16.47
224 25.7664 470.33 479.40 16.45
225 25.8165 468.76 479.43 16.39
226 25.8664 482.77 479.46 16.63
227 25.9164 521.24 479.49 17.37
228 25.9665 481.88 479.51 16.63
229 26.0164 501.36 479.54 16.99
230 26.0665 478.27 479.57 16.64
231 26.1164 488.39 479.59 16.81
232 26.1664 475.85 479.62 16.48
233 26.2164 482.40 479.64 16.67
234 26.2664 498.88 479.67 16.94
235 26.3164 489.47 479.69 22.34
236 26.3572 491.40 479.70 15.56
237 26.4072 483.98 479.72 15.49
238 26.4572 520.03 479.74 16.02
239 26.5072 514.61 480.18 15.95
240 26.5572 487.10 480.48 15.56
241 26.6072 478.68 480.50 15.46
242 26.6572 488.11 480.53 15.63
243 26.7072 486.62 480.55 15.59
244 26.7572 475.33 480.57 15.41
245 26.8072 475.81 480.59 15.43
246 26.8572 461.17 480.61 15.16
247 26.9073 493.20 480.62 15.72
248 26.9573 487.94 480.64 15.59
249 27.0072 458.67 480.65 15.17
250 27.0573 519.13 480.67 16.11
251 27.1072 483.09 480.68 15.53
252 27.1572 473.65 480.69 15.41
253 27.2072 481.19 480.69 15.52
254 27.2572 493.38 480.70 15.70
255 27.3073 482.75 480.71 15.54
256 27.3572 493.97 480.71 15.73
257 27.4072 477.55 480.72 15.47
258 27.4572 472.62 480.72 15.36
259 27.5072 484.47 480.72 15.54
260 27.5572 482.81 480.72 16.36
261 27.6072 484.53 480.72 16.28
262 27.6572 510.01 480.72 16.84
263 27.7072 519.44 480.72 16.97
264 27.7572 461.44 480.72 16.05
265 27.8072 522.93 480.72 17.15
266 27.8572 488.06 480.71 16.59
267 27.9072 485.18 480.71 16.52
268 27.9572 482.21 480.71 16.46
269 28.0073 496.39 480.70 16.74
270 28.0572 484.58 480.70 16.50
271 28.1072 490.10 480.70 16.62
272 28.1573 470.13 480.69 16.35
273 28.2072 476.18 480.69 16.42
274 28.2573 483.88 480.69 16.45
275 28.3072 475.57 480.68 16.41
276 28.3573 480.55 480.68 16.46
277 28.4072 480.96 480.68 16.45
278 28.4572 496.67 480.68 16.75
279 28.5073 472.51 480.68 16.26
280 28.5572 484.40 480.68 16.54
281 28.6072 489.33 480.68 16.69
282 28.6572 523.32 480.69 17.18
283 28.7072 501.57 480.69 16.73
284 28.7572 483.62 480.70 16.50
285 28.8103 494.64 480.71 13.58
286 28.8664 466.37 480.72 16.62
287 28.9164 501.27 480.74 17.30
288 28.9663 491.00 480.75 17.08
289 29.0164 469.83 480.77 16.79
290 29.0664 471.53 480.79 16.85
291 29.1164 492.77 480.82 17.26
292 29.1664 500.42 480.84 17.40
293 29.2164 486.45 480.88 17.16
294 29.2664 502.81 480.91 17.46
295 29.3164 507.56 480.95 17.54
296 29.3664 521.91 480.99 17.76
297 29.4164 542.74 481.04 18.15
298 29.4664 475.65 481.09 16.97
299 29.5164 533.69 481.15 17.97
300 29.5665 444.19 481.21 16.40
301 29.6164 492.82 481.11 17.25
302 29.6664 490.57 481.19 17.23
303 29.7164 488.65 480.97 17.21
304 29.7664 473.91 481.07 16.98
305 29.8164 505.91 481.17 17.49
306 29.8664 532.99 481.29 18.01
307 29.9164 480.04 481.41 17.03
308 29.9664 513.26 481.54 17.59
309 30.0164 516.16 481.68 17.65
310 30.0663 469.72 481.84 15.68
311 30.1164 478.46 482.01 15.79
312 30.1664 506.74 482.18 16.33
313 30.2163 490.66 482.38 16.05
314 30.2664 478.00 482.59 15.93
315 30.3164 487.89 482.82 16.11
316 30.3664 459.36 483.07 15.61
317 30.4164 455.23 483.34 15.52
318 30.4664 507.67 483.64 16.43
319 30.5164 481.66 483.97 16.03
320 30.5664 471.14 484.35 15.86
321 30.6164 453.37 484.79 15.49
322 30.6664 449.82 485.32 15.51
323 30.7164 476.32 485.96 15.96
324 30.7664 479.57 486.79 15.98
325 30.8165 480.80 487.87 16.04
326 30.8664 478.44 489.31 15.97
327 30.9164 472.44 491.26 15.87
328 30.9664 483.65 493.89 16.08
329 31.0164 491.15 497.45 16.17
330 31.0664 483.66 502.21 16.04
331 31.1164 508.72 508.49 16.48
332 31.1664 499.32 516.63 16.35
333 31.2164 492.21 527.01 16.20
334 31.2664 523.20 540.00 16.78
335 31.3158 540.75 555.76 16.61
336 31.3657 542.51 574.94 16.58
337 31.4158 590.67 597.80 17.39
338 31.4658 572.50 624.46 17.06
339 31.5158 594.51 655.16 17.51
340 31.5658 674.64 690.09 18.70
341 31.6158 715.14 729.43 19.27
342 31.6658 696.81 773.39 19.03
343 31.7158 753.94 822.26 19.80
344 31.7658 821.44 876.43 20.71
345 31.8158 881.19 936.47 21.46
346 31.8658 983.73 1003.14 22.67
347 31.9158 1078.66 1077.46 23.79
348 31.9658 1106.29 1160.79 24.09
349 32.0158 1218.77 1254.74 25.29
350 32.0658 1277.35 1361.30 25.89
351 32.1158 1444.04 1482.64 27.49
352 32.1658 1546.62 1620.95 28.49
353 32.2158 1681.67 1778.17 29.70
354 32.2658 1825.56 1955.43 30.91
355 32.3158 2008.25 2152.56 32.46
356 32.3658 2249.64 2367.45 34.31
357 32.4158 2534.00 2595.36 36.50
358 32.4658 2789.52 2828.61 38.22
359 32.5158 3004.93 3056.40 39.70
360 32.5605 3242.01 3244.81 42.07
361 32.6105 3297.01 3424.30 42.42
362 32.6606 3390.81 3556.47 42.78
363 32.7105 3481.58 3626.85 43.36
364 32.7605 3448.09 3625.64 42.98
365 32.8106 3385.51 3547.33 42.46
366 32.8606 3170.35 3393.93 41.02
367 32.9106 2987.96 3174.13 39.83
368 32.9606 2728.50 2902.69 37.95
369 33.0106 2428.28 2598.24 35.80
370 33.0606 2168.84 2280.57 33.75
371 33.1106 1932.36 1968.03 31.76
372 33.1606 1683.55 1675.87 29.70
373 33.2106 1378.44 1415.08 26.83
374 33.2606 1181.98 1191.99 24.83
375 33.3106 1002.51 1008.76 22.88
376 33.3606 827.89 863.96 20.78
377 33.4106 704.03 753.68 19.17
378 33.4606 580.02 672.64 17.37
379 33.5106 522.21 615.07 16.50
380 33.5606 544.20 575.44 16.90
381 33.6106 520.28 548.94 16.46
382 33.6606 534.00 531.65 16.71
383 33.7106 498.31 520.57 16.09
384 33.7606 526.71 513.55 16.59
385 33.8052 497.53 509.48 15.81
386 33.8552 492.09 506.45 15.80
387 33.9052 495.45 504.44 15.85
388 33.9552 484.43 503.04 15.63
389 34.0052 495.13 502.02 15.89
390 34.0552 454.81 501.25 15.22
391 34.1052 475.76 500.63 15.62
392 34.1552 469.14 500.14 15.46
393 34.2052 495.19 499.74 15.96
394 34.2552 456.86 499.42 15.32
395 34.3052 476.48 499.16 15.61
396 34.3552 488.15 500.28 15.79
397 34.4053 501.42 500.15 16.03
398 34.4552 459.30 500.08 15.36
399 34.5052 462.60 500.05 15.40
400 34.5553 503.06 500.05 16.08
401 34.6052 483.70 500.10 15.74
402 34.6552 514.67 500.17 16.28
403 34.7052 485.74 500.28 15.77
404 34.7552 489.04 500.41 15.83
405 34.8052 504.04 500.57 16.10
406 34.8552 484.98 500.76 15.76
407 34.9052 503.26 500.97 16.07
408 34.9552 480.95 501.20 15.67
409 35.0052 512.55 501.45 16.23
410 35.0604 543.92 501.75 16.41
411 35.1104 520.20 502.04 16.06
412 35.1604 449.64 502.35 14.91
413 35.2104 492.33 502.67 15.54
414 35.2604 502.42 503.01 15.80
415 35.3104 527.67 503.37 16.22
416 35.3604 506.07 503.74 15.89
417 35.4104 506.44 504.13 15.90
418 35.4604 536.89 504.53 16.41
419 35.5104 568.19 504.95 16.90
420 35.5604 539.29 505.38 16.43
421 35.6104 515.19 505.82 16.03
422 35.6605 549.34 506.27 16.61
423 35.7104 511.41 506.74 15.99
424 35.7604 556.92 507.22 16.70
425 35.8105 526.11 507.72 16.22
426 35.8604 556.74 508.22 16.71
427 35.9104 564.68 508.74 16.80
428 35.9604 554.50 509.28 16.66
429 36.0104 524.84 509.82 16.25
430 36.0604 566.20 510.38 16.87
431 36.1104 533.29 510.95 16.35
432 36.1604 571.02 511.54 16.92
433 36.2104 558.82 512.13 16.77
434 36.2604 543.86 512.74 16.51
435 36.3163 548.82 513.45 16.20
436 36.3663 579.96 514.09 16.72
437 36.4164 561.36 514.74 16.35
438 36.4663 560.79 515.42 16.29
439 36.5163 562.19 516.10 16.40
440 36.5663 543.54 516.81 16.18
441 36.6164 578.54 517.54 16.76
442 36.6664 536.18 518.28 16.09
443 36.7164 565.78 519.05 16.50
444 36.7664 550.19 519.85 16.31
445 36.8164 563.15 520.67 16.49
446 36.8664 560.73 521.54 16.44
447 36.9164 578.08 522.46 16.73
448 36.9664 578.98 523.46 16.75
449 37.0164 574.36 524.57 16.70
450 37.0664 576.23 525.82 16.70
451 37.1164 596.35 527.29 16.97
452 37.1664 560.46 529.05 16.46
453 37.2164 584.67 531.22 16.79
454 37.2664 586.16 533.91 16.83
455 37.3164 614.39 537.30 17.25
456 37.3664 620.98 541.55 17.32
457 37.4164 613.67 546.88 17.24
458 37.4664 595.39 553.49 16.94
459 37.5164 652.93 561.61 17.82
460 37.5663 627.61 571.43 17.72
461 37.6163 645.10 583.22 17.96
462 37.6663 659.95 597.16 18.10
463 37.7163 666.61 613.49 18.18
464 37.7663 694.85 632.45 18.67
465 37.8163 702.67 654.34 18.74
466 37.8663 696.42 679.50 18.72
467 37.9164 776.49 708.46 19.76
468 37.9664 801.38 741.67 20.10
469 38.0164 826.17 779.86 20.44
470 38.0664 868.39 823.77 20.94
471 38.1164 871.11 874.17 20.93
472 38.1664 952.01 931.67 21.93
473 38.2164 1040.01 996.55 22.92
474 38.2664 1077.60 1068.57 23.35
475 38.3164 1116.50 1146.65 23.77
476 38.3664 1259.00 1228.72 25.21
477 38.4164 1298.76 1311.58 25.64
478 38.4664 1356.89 1390.90 26.21
479 38.5164 1490.58 1461.55 27.49
480 38.5664 1484.95 1517.96 27.45
481 38.6163 1511.89 1554.81 27.69
482 38.6664 1490.87 1567.91 27.51
483 38.7164 1517.30 1554.56 27.68
484 38.7664 1433.77 1514.67 26.92
485 38.8163 1334.59 1450.97 26.13
486 38.8663 1223.97 1368.32 24.97
487 38.9163 1217.08 1273.65 24.75
488 38.9663 1093.39 1174.53 23.41
489 39.0163 1065.42 1078.29 23.12
490 39.0663 935.31 991.29 21.66
491 39.1163 872.30 918.57 20.96
492 39.1664 844.17 863.55 20.59
493 39.2164 824.50 828.22 20.40
494 39.2664 789.56 814.10 19.99
495 39.3164 784.50 820.75 19.92
496 39.3664 826.84 848.34 20.46
497 39.4164 920.12 896.21 21.67
498 39.4664 984.00 964.11 22.41
499 39.5164 1059.99 1052.12 23.27
500 39.5664 1236.63 1160.86 25.20
501 39.6164 1323.12 1291.57 26.04
502 39.6664 1524.81 1446.26 28.06
503 39.7164 1730.58 1627.77 29.86
504 39.7664 1922.28 1839.72 31.51
505 39.8164 2186.66 2086.34 33.66
506 39.8663 2487.42 2371.47 35.92
507 39.9164 2836.82 2700.83 38.41
508 39.9663 3154.62 3073.97 40.49
509 40.0164 3599.36 3493.12 43.28
510 40.0663 4025.04 3949.56 44.48
511 40.1163 4701.51 4434.52 48.28
512 40.1663 5329.16 4929.00 51.32
513 40.2163 5701.54 5407.93 53.31
514 40.2663 6215.18 5840.57 55.50
515 40.3163 6325.62 6193.30 55.97
516 40.3663 6606.23 6433.02 57.19
517 40.4163 6498.69 6531.80 56.73
518 40.4664 6365.08 6471.30 55.96
519 40.5164 6032.56 6247.73 54.36
520 40.5663 5660.17 5874.36 52.53
521 40.6164 5254.82 5376.25 50.51
522 40.6664 4538.48 4794.57 46.66
523 40.7164 3861.82 4171.51 42.81
524 40.7664 3345.45 3548.30 39.67
525 40.8164 2794.33 2959.66 36.10
526 40.8663 2309.66 2432.32 32.67
527 40.9163 1886.45 1979.66 29.44
528 40.9664 1517.19 1608.99 26.33
529 41.0164 1189.63 1317.36 23.34
530 41.0664 889.03 1097.09 20.14
531 41.1163 767.99 937.19 18.77
532 41.1664 684.03 824.62 17.72
533 41.2163 625.39 750.71 16.90
534 41.2663 612.96 700.65 16.78
535 41.3246 659.44 664.56 17.64
536 41.3746 636.10 645.92 17.28
537 41.4246 653.14 634.31 17.46
538 41.4746 653.28 627.02 17.46
539 41.5246 614.85 622.33 16.94
540 41.5746 674.10 619.20 17.81
541 41.6246 641.09 617.01 17.39
542 41.6746 626.84 615.39 17.16
543 41.7247 663.01 614.16 17.67
544 41.7747 652.22 613.20 17.56
545 41.8247 664.51 612.45 17.73
546 41.8747 659.98 611.86 17.64
547 41.9247 666.84 611.41 17.79
548 41.9747 658.47 611.08 17.68
549 42.0247 629.00 610.85 17.26
550 42.0747 630.05 610.72 17.27
551 42.1247 632.45 610.67 17.27
552 42.1746 610.12 610.70 16.99
553 42.2247 635.34 610.79 17.26
554 42.2747 621.88 610.95 17.09
555 42.3247 662.18 611.16 17.64
556 42.3746 616.05 611.41 17.00
557 42.4247 633.72 611.72 17.29
558 42.4747 595.55 612.06 16.72
559 42.5247 603.05 612.44 16.84
560 42.5770 613.84 612.88 17.62
561 42.6270 615.32 613.32 17.66
562 42.6771 595.26 613.80 17.30
563 42.7270 566.96 614.31 16.87
564 42.7771 557.95 614.84 16.80
565 42.8271 581.69 615.40 17.25
566 42.8771 559.46 615.98 16.87
567 42.9271 565.13 616.58 16.94
568 42.9771 553.36 617.20 16.82
569 43.0271 553.82 617.84 16.80
570 43.0771 551.77 618.49 16.83
571 43.1271 535.53 619.17 16.51
572 43.1771 584.84 619.86 17.30
573 43.2271 535.44 620.57 16.50
574 43.2771 564.49 621.30 17.00
575 43.3271 571.58 622.04 17.13
576 43.3771 609.02 622.80 17.65
577 43.4271 568.22 623.57 17.03
578 43.4771 603.06 624.36 17.56
579 43.5271 593.80 625.16 17.46
580 43.5771 580.28 625.98 17.19
581 43.6271 605.07 626.82 17.62
582 43.6771 636.22 627.67 18.05
583 43.7271 631.65 628.54 18.00
584 43.7771 636.21 629.42 18.02
585 43.8187 638.06 630.17 18.11
586 43.8687 658.60 631.09 18.46
587 43.9187 674.36 632.03 18.58
588 43.9687 619.09 632.98 17.75
589 44.0187 636.96 633.96 18.10
590 44.0687 641.33 634.96 18.16
591 44.1188 661.43 635.99 18.50
592 44.1688 668.90 637.03 18.58
593 44.2188 626.72 638.11 17.97
594 44.2688 648.10 639.21 18.29
595 44.3188 628.62 640.34 17.99
596 44.3688 632.22 641.50 18.03
597 44.4188 652.84 642.70 18.36
598 44.4688 612.72 643.93 17.77
599 44.5188 652.82 645.20 18.34
600 44.5688 639.25 646.52 18.17
601 44.6188 614.03 647.89 17.79
602 44.6688 630.38 649.30 18.06
603 44.7188 620.72 650.77 17.84
604 44.7688 594.53 652.30 17.51
605 44.8188 608.80 653.90 17.71
606 44.8688 607.85 655.57 17.69
607 44.9188 607.62 657.32 17.71
608 44.9688 610.95 659.16 17.72
609 45.0188 605.05 660.91 17.64
610 45.0597 611.43 662.58 17.96
611 45.1097 613.37 664.73 17.97
612 45.1597 622.96 667.02 18.15
613 45.2097 643.54 669.47 18.39
614 45.2597 606.99 672.10 17.95
615 45.3097 614.52 674.95 18.15
616 45.3597 623.86 678.08 18.24
617 45.4097 618.29 681.58 18.17
618 45.4598 623.14 685.58 18.28
619 45.5098 668.62 690.29 19.00
620 45.5598 669.74 696.02 18.95
621 45.6098 683.77 703.25 19.11
622 45.6598 646.26 712.68 18.55
623 45.7098 671.53 725.44 18.98
624 45.7598 679.11 742.64 19.16
625 45.8098 752.65 766.26 20.19
626 45.8598 764.80 798.74 20.36
627 45.9097 820.95 843.09 21.16
628 45.9598 882.94 903.48 22.02
629 46.0098 1050.51 984.31 24.15
630 46.0598 1129.75 1091.27 25.20
631 46.1097 1305.61 1230.61 27.08
632 46.1598 1469.14 1410.82 28.86
633 46.2098 1738.70 1639.53 31.39
634 46.2598 2004.47 1926.67 34.00
635 46.3032 2478.46 2231.39 55.59
636 46.3466 2467.80 2595.31 39.58
637 46.3966 3079.99 3097.57 44.46
638 46.4466 3563.63 3698.75 47.57
639 46.4966 4342.12 4407.48 52.73
640 46.5466 5096.14 5228.30 56.87
641 46.5967 6165.34 6161.82 62.43
642 46.6467 7033.10 7194.06 66.65
643 46.6967 8300.79 8305.44 72.65
644 46.7467 9457.88 9460.71 77.63
645 46.7967 10728.30 10614.90 82.89
646 46.8467 12016.40 11707.80 88.34
647 46.8967 12831.20 12672.30 91.36
648 46.9467 13869.60 13438.70 95.41
649 46.9967 14558.10 13943.40 97.98
650 47.0467 14437.00 14137.10 97.56
651 47.0967 14268.50 13991.90 96.85
652 47.1467 13599.40 13505.70 94.24
653 47.1967 12903.40 12702.70 91.47
654 47.2467 11922.90 11635.00 87.53
655 47.2967 10591.90 10376.70 81.90
656 47.3467 9392.79 9014.29 76.73
657 47.3967 7973.68 7634.65 70.28
658 47.4467 6446.58 6314.56 62.72
659 47.4967 5008.42 5113.23 54.98
660 47.5532 3835.92 3945.48 46.24
661 47.6032 3065.34 3098.40 41.21
662 47.6532 2406.93 2424.72 36.19
663 47.7032 1803.26 1909.55 31.40
664 47.7532 1395.51 1530.14 27.39
665 47.8032 1126.07 1260.55 24.62
666 47.8532 1032.95 1075.26 23.52
667 47.9032 927.53 951.61 22.10
668 47.9532 901.48 871.05 21.90
669 48.0033 876.46 819.31 21.56
670 48.0532 831.99 786.37 20.99
671 48.1032 828.99 764.99 21.00
672 48.1533 816.97 750.66 20.86
673 48.2033 813.97 740.62 20.81
674 48.2533 824.35 733.13 20.92
675 48.3032 823.50 727.22 20.96
676 48.3533 789.11 722.31 20.48
677 48.4032 797.23 718.13 20.54
678 48.4532 765.12 714.46 20.10
679 48.5033 770.36 711.21 20.19
680 48.5532 739.65 708.31 19.85
681 48.6032 749.58 705.70 19.90
682 48.6532 746.81 703.34 19.85
683 48.7032 730.43 701.22 19.74
684 48.7532 740.16 699.29 19.86
685 48.8076 721.62 697.39 15.97
686 48.8662 716.79 695.55 18.97
687 48.9163 662.03 694.13 18.12
688 48.9662 723.83 692.84 18.92
689 49.0163 676.36 691.66 18.40
690 49.0663 703.08 690.58 18.79
691 49.1163 689.06 689.59 18.63
692 49.1663 679.19 688.68 18.46
693 49.2163 684.02 687.85 18.56
694 49.2663 678.62 687.09 18.52
695 49.3163 681.54 686.39 18.52
696 49.3663 681.06 685.75 18.49
697 49.4163 708.64 685.17 18.94
698 49.4663 688.54 684.63 18.63
699 49.5163 694.63 684.15 18.73
700 49.5663 663.38 683.70 18.32
701 49.6163 668.07 683.30 18.35
702 49.6663 673.63 682.94 18.42
703 49.7163 679.18 682.61 18.48
704 49.7663 693.35 682.32 18.73
705 49.8163 702.75 682.07 18.84
706 49.8663 695.19 681.84 18.72
707 49.9163 694.33 681.66 18.69
708 49.9663 697.53 681.50 18.77
709 50.0163 717.86 681.38 19.01
710 50.0662 710.88 681.30 19.67
711 50.1162 718.39 681.26 19.78
712 50.1663 676.41 681.26 19.13
713 50.2162 705.65 681.34 19.54
714 50.2663 686.55 681.49 19.35
715 50.3163 718.70 681.78 19.79
716 50.3663 763.68 682.23 20.45
717 50.4163 690.86 682.95 19.43
718 50.4663 720.29 684.04 19.85
719 50.5163 760.30 685.66 20.42
720 50.5663 779.21 688.03 20.66
721 50.6163 771.00 691.42 20.50
722 50.6663 775.54 696.19 20.61
723 50.7163 777.50 702.77 20.65
724 50.7663 840.49 711.66 21.45
725 50.8163 841.20 723.48 21.51
726 50.8663 875.23 738.91 21.93
727 50.9163 898.34 758.68 22.22
728 50.9663 899.47 783.57 22.21
729 51.0163 915.25 814.33 22.43
730 51.0663 1012.99 851.54 23.61
731 51.1163 1015.84 895.52 23.64
732 51.1663 1052.63 946.08 24.11
733 51.2163 1076.08 1002.39 24.33
734 51.2663 1089.98 1062.72 24.49
735 51.3163 1183.18 1124.39 36.41
736 51.3588 1270.75 1175.24 27.04
737 51.4088 1248.22 1229.49 26.73
738 51.4588 1305.36 1273.42 27.09
739 51.5088 1251.68 1302.75 26.55
740 51.5588 1235.11 1314.04 26.35
741 51.6088 1254.27 1305.38 26.60
742 51.6588 1233.75 1276.97 26.42
743 51.7088 1201.35 1231.28 26.01
744 51.7588 1103.02 1172.70 24.98
745 51.8088 1097.79 1106.71 24.90
746 51.8588 992.62 1039.01 23.64
747 51.9089 958.08 974.67 23.28
748 51.9589 924.93 918.21 22.82
749 52.0088 891.19 872.72 22.43
750 52.0589 855.41 840.07 22.00
751 52.1088 850.46 821.80 21.93
752 52.1588 844.15 818.60 21.88
753 52.2089 849.94 831.34 21.94
754 52.2588 879.35 860.91 22.37
755 52.3089 929.46 909.02 23.00
756 52.3588 1049.18 977.33 24.46
757 52.4088 1117.99 1068.64 25.25
758 52.4588 1218.54 1185.55 26.34
759 52.5088 1412.85 1330.52 28.35
760 52.5513 1447.18 1477.07 40.75
761 52.6000 1746.81 1671.63 31.62
762 52.6501 2018.58 1899.78 34.01
763 52.7001 2247.75 2151.18 35.78
764 52.7500 2496.67 2417.65 37.74
765 52.8001 2849.82 2689.39 40.27
766 52.8501 3180.68 2949.12 42.49
767 52.9001 3362.58 3180.26 43.77
768 52.9501 3584.35 3365.21 45.24
769 53.0001 3650.95 3486.01 45.65
770 53.0501 3665.65 3530.57 45.80
771 53.1001 3648.15 3491.16 45.62
772 53.1501 3511.02 3370.46 44.65
773 53.2001 3361.85 3175.81 43.71
774 53.2501 3029.90 2922.60 41.43
775 53.3001 2817.71 2629.34 39.90
776 53.3502 2415.37 2321.21 36.92
777 53.4001 2089.11 2018.75 34.18
778 53.4501 1882.79 1736.87 32.45
779 53.5001 1597.78 1487.86 29.81
780 53.5501 1291.81 1278.02 26.76
781 53.6001 1106.97 1108.89 24.79
782 53.6501 953.86 978.20 23.02
783 53.7001 877.18 881.22 22.09
784 53.7501 835.02 811.91 21.55
785 53.8065 753.53 759.22 16.49
786 53.8590 764.29 727.69 20.08
787 53.9090 706.13 708.37 19.19
788 53.9590 722.73 695.96 19.36
789 54.0090 712.95 687.98 19.30
790 54.0590 693.59 682.74 19.10
791 54.1091 682.84 679.14 18.92
792 54.1590 669.52 676.53 18.69
793 54.2090 650.11 674.50 18.49
794 54.2591 682.18 672.84 18.91
795 54.3091 671.78 671.41 18.78
796 54.3591 676.08 670.14 18.83
797 54.4091 674.28 669.00 18.76
798 54.4591 650.65 667.95 18.48
799 54.5091 650.76 666.99 18.48
800 54.5590 611.49 666.10 17.92
801 54.6091 646.46 665.27 18.44
802 54.6591 632.20 664.49 18.16
803 54.7090 614.10 663.77 17.94
804 54.7591 653.03 663.08 18.53
805 54.8090 633.47 662.43 18.23
806 54.8591 636.51 661.82 18.27
807 54.9090 686.49 661.24 18.96
808 54.9591 635.90 660.69 18.26
809 55.0090 634.05 660.16 18.24
810 55.0614 620.51 659.63 14.57
811 55.1177 601.76 659.09 17.32
812 55.1678 631.75 658.63 17.65
813 55.2177 615.37 658.19 17.37
814 55.2677 630.80 657.77 17.72
815 55.3178 613.15 657.36 17.48
816 55.3678 613.39 656.97 17.51
817 55.4178 604.21 656.59 17.36
818 55.4678 625.84 656.23 17.64
819 55.5178 600.23 655.88 17.32
820 55.5678 601.84 655.54 17.34
821 55.6178 607.47 655.22 17.36
822 55.6678 625.59 654.91 17.64
823 55.7178 613.97 654.61 17.48
824 55.7678 613.99 654.32 17.48
825 55.8178 654.13 654.05 18.11
826 55.8678 621.40 653.78 17.58
827 55.9178 629.06 653.54 17.73
828 55.9678 613.09 653.30 17.51
829 56.0178 621.64 653.08 17.60
830 56.0678 596.31 652.87 17.27
831 56.1178 627.63 652.68 17.68
832 56.1678 616.87 652.50 17.56
833 56.2178 613.67 652.34 17.49
834 56.2678 609.28 652.19 17.42
835 56.3252 622.25 652.05 17.79
836 56.3752 625.30 651.95 17.91
837 56.4252 618.91 651.86 17.71
838 56.4752 634.50 651.80 17.90
839 56.5252 624.42 651.77 17.89
840 56.5752 629.06 651.76 17.98
841 56.6252 633.10 651.78 18.05
842 56.6752 640.84 651.83 18.19
843 56.7252 642.03 651.92 18.19
844 56.7753 595.93 652.05 17.54
845 56.8252 608.09 652.22 17.70
846 56.8753 630.07 652.44 17.99
847 56.9253 609.72 652.71 17.76
848 56.9753 614.00 653.04 17.79
849 57.0253 584.39 653.53 17.36
850 57.0753 626.48 654.01 17.97
851 57.1252 645.55 654.58 18.24
852 57.1752 631.95 655.26 18.08
853 57.2253 643.59 656.08 18.20
854 57.2753 653.07 657.08 18.34
855 57.3253 678.57 658.33 18.72
856 57.3752 676.01 659.93 18.65
857 57.4253 658.80 662.09 18.47
858 57.4752 706.85 665.08 19.07
859 57.5252 661.01 669.36 18.45
860 57.5857 650.82 677.32 18.14
861 57.6357 695.90 687.34 18.83
862 57.6857 720.44 702.46 19.02
863 57.7357 751.04 724.78 19.40
864 57.7857 755.03 757.34 19.54
865 57.8357 815.29 804.05 20.34
866 57.8857 920.69 869.71 21.68
867 57.9357 951.07 960.02 22.06
868 57.9857 1157.02 1081.30 24.39
869 58.0358 1276.16 1240.26 25.64
870 58.0858 1494.79 1441.99 27.76
871 58.1358 1851.41 1690.70 30.80
872 58.1858 2091.90 1987.07 32.86
873 58.2358 2569.41 2327.29 36.42
874 58.2858 3001.91 2701.77 39.40
875 58.3358 3502.18 3094.33 42.64
876 58.3858 4058.02 3482.51 45.93
877 58.4357 4528.76 3838.37 48.66
878 58.4858 4769.19 4134.12 49.97
879 58.5358 4874.71 4339.44 50.56
880 58.5858 5032.92 4432.36 51.37
881 58.6357 5016.28 4400.25 51.27
882 58.6857 4809.65 4242.83 50.20
883 58.7357 4622.78 3973.50 49.19
884 58.7857 4148.39 3617.49 46.42
885 58.8267 3514.67 3283.89 46.64
886 58.8767 3114.95 2855.63 44.20
887 58.9267 2597.26 2433.67 39.75
888 58.9767 2209.03 2043.23 36.77
889 59.0267 1821.11 1701.78 33.05
890 59.0767 1498.59 1417.78 30.11
891 59.1268 1283.22 1192.00 28.00
892 59.1768 1058.24 1021.03 25.35
893 59.2268 854.88 896.95 22.71
894 59.2768 782.25 810.27 21.75
895 59.3268 675.93 751.82 20.08
896 59.3768 640.84 713.60 19.52
897 59.4268 683.44 689.14 20.22
898 59.4768 615.42 673.64 19.31
899 59.5268 615.07 663.75 19.17
900 59.5768 614.94 657.24 19.11
901 59.6268 628.30 652.75 19.41
902 59.6768 573.04 649.44 18.50
903 59.7268 628.23 646.83 19.25
904 59.7768 618.10 644.67 19.17
905 59.8268 605.09 642.80 19.00
906 59.8768 589.89 641.15 18.66
907 59.9268 630.13 639.66 19.41
908 59.9767 599.91 638.32 18.82
909 60.0267 619.15 637.09 19.27
910 60.0662 567.61 636.18 18.12
911 60.1162 575.77 635.12 18.28
912 60.1662 596.41 634.14 18.64
913 60.2162 571.18 633.23 18.13
914 60.2662 617.45 632.38 19.06
915 60.3162 604.08 631.59 18.74
916 60.3662 597.87 630.85 18.67
917 60.4162 596.64 630.16 18.71
918 60.4662 588.45 629.51 18.45
919 60.5163 592.89 628.90 18.69
920 60.5662 626.45 628.32 18.97
921 60.6163 612.92 627.78 18.79
922 60.6663 591.28 627.27 18.56
923 60.7163 603.76 626.78 18.81
924 60.7663 649.81 626.32 19.48
925 60.8163 603.64 625.89 18.70
926 60.8662 649.28 625.48 19.38
927 60.9162 608.83 625.10 18.87
928 60.9663 660.24 624.73 19.47
929 61.0162 658.19 624.39 19.57
930 61.0663 668.62 624.07 19.79
931 61.1162 636.04 623.76 19.25
932 61.1662 664.93 623.48 19.75
933 61.2162 665.33 623.22 19.85
934 61.2662 675.91 622.98 19.83
935 61.3162 663.11 622.77 19.44
936 61.3662 629.77 622.58 18.98
937 61.4162 616.21 622.42 18.71
938 61.4662 641.76 622.30 19.21
939 61.5162 648.41 622.22 19.43
940 61.5662 628.69 622.22 19.22
941 61.6162 652.13 622.33 19.58
942 61.6662 644.21 622.61 19.23
943 61.7162 626.20 623.15 19.07
944 61.7663 612.16 624.11 18.83
945 61.8162 625.84 625.70 19.08
946 61.8662 593.57 628.23 18.40
947 61.9163 593.43 632.12 18.59
948 61.9662 642.97 637.90 19.38
949 62.0163 629.93 646.26 19.23
950 62.0663 638.00 657.89 19.22
951 62.1162 636.73 673.52 19.41
952 62.1662 657.18 693.85 19.59
953 62.2163 677.87 719.30 19.85
954 62.2662 677.34 749.62 19.80
955 62.3163 722.53 784.38 20.62
956 62.3662 768.18 821.86 21.10
957 62.4162 826.45 860.09 22.05
958 62.4662 797.31 896.13 21.49
959 62.5162 861.47 926.78 22.37
960 62.5662 817.77 948.81 22.73
961 62.6162 869.72 959.57 23.39
962 62.6662 868.06 957.46 23.21
963 62.7162 836.92 942.41 22.74
964 62.7662 847.61 916.01 23.01
965 62.8162 780.43 881.20 21.96
966 62.8662 792.51 841.59 22.31
967 62.9162 738.57 800.75 21.46
968 62.9662 771.80 761.75 21.94
969 63.0162 711.32 726.82 21.09
970 63.0662 706.80 697.29 21.09
971 63.1162 642.92 673.59 20.13
972 63.1663 657.61 655.45 20.35
973 63.2162 640.55 642.27 20.03
974 63.2663 617.56 633.02 19.62
975 63.3163 604.06 629.54 19.52
976 63.3662 654.62 625.55 20.24
977 63.4162 630.96 623.02 19.83
978 63.4662 644.22 621.44 20.12
979 63.5162 641.52 621.70 20.03
980 63.5663 673.03 621.09 20.51
981 63.6162 584.17 620.70 19.15
982 63.6662 639.74 620.42 20.07
983 63.7162 628.79 620.23 19.82
984 63.7662 627.71 620.09 19.82
985 63.8162 678.25 619.98 19.57
986 63.8662 657.87 619.90 19.29
987 63.9162 638.78 619.84 18.99
988 63.9662 640.29 619.81 18.97
989 64.0162 621.93 619.79 18.79
990 64.0662 658.57 619.79 19.36
991 64.1162 606.84 619.80 18.62
992 64.1662 595.34 619.83 18.41
993 64.2162 620.04 619.87 18.84
994 64.2662 615.05 619.93 18.77
995 64.3162 631.16 620.00 18.99
996 64.3662 624.47 620.08 18.85
997 64.4163 613.48 619.92 18.73
998 64.4662 607.94 620.03 18.66
999 64.5162 604.65 619.54 18.61
1000 64.5663 620.00 619.68 18.84
1001 64.6162 619.96 619.84 18.83
1002 64.6662 577.52 620.00 18.16
1003 64.7162 615.43 620.18 18.74
1004 64.7662 578.21 620.37 18.16
1005 64.8162 613.42 620.57 18.70
1006 64.8662 641.34 620.78 19.17
1007 64.9162 613.22 621.00 18.72
1008 64.9662 636.01 621.24 19.05
1009 65.0249 614.08 621.53 14.89
1010 65.0792 621.98 621.82 18.33
1011 65.1292 624.49 622.09 18.27
1012 65.1792 611.43 622.39 18.20
1013 65.2292 572.32 622.69 17.55
1014 65.2792 627.02 623.01 18.45
1015 65.3292 610.13 623.34 18.16
1016 65.3792 594.16 623.69 17.94
1017 65.4292 580.73 624.06 17.82
1018 65.4793 641.27 624.44 18.72
1019 65.5292 583.86 624.84 17.82
1020 65.5793 607.83 625.26 18.20
1021 65.6293 622.26 625.70 18.34
1022 65.6793 622.20 626.16 18.40
1023 65.7293 625.31 626.64 18.44
1024 65.7792 584.11 627.14 17.80
1025 65.8293 584.61 627.66 17.85
1026 65.8792 587.43 628.21 17.85
1027 65.9292 622.94 628.79 18.37
1028 65.9793 594.41 629.40 17.98
1029 66.0292 576.08 630.03 17.60
1030 66.0793 616.86 630.69 18.31
1031 66.1292 563.97 631.39 17.53
1032 66.1792 613.26 632.12 18.30
1033 66.2292 597.82 632.90 17.97
1034 66.2792 591.21 633.71 17.95
1035 66.3292 591.21 634.57 17.25
1036 66.3792 613.30 635.47 17.52
1037 66.4292 641.68 636.43 17.81
1038 66.4792 600.03 637.44 17.26
1039 66.5292 607.87 638.50 17.43
1040 66.5792 577.19 639.64 17.04
1041 66.6292 594.02 640.84 17.25
1042 66.6792 606.66 642.11 17.43
1043 66.7292 617.82 643.47 17.64
1044 66.7792 610.21 644.92 17.53
1045 66.8292 620.63 646.47 17.65
1046 66.8793 650.57 648.13 18.07
1047 66.9293 641.26 649.90 18.00
1048 66.9792 617.53 651.90 17.68
1049 67.0293 655.34 653.96 18.19
1050 67.0792 645.65 656.17 18.05
1051 67.1292 618.24 658.64 17.62
1052 67.1793 632.35 661.24 17.82
1053 67.2292 640.19 664.40 17.98
1054 67.2793 630.59 667.48 17.80
1055 67.3292 628.41 670.84 17.80
1056 67.3792 640.64 674.53 18.00
1057 67.4292 655.96 678.59 18.17
1058 67.4792 693.61 683.07 18.63
1059 67.5162 641.64 686.70 25.78
1060 67.5697 638.58 692.52 18.27
1061 67.6197 665.75 698.67 18.68
1062 67.6697 661.49 705.72 18.56
1063 67.7197 707.91 714.02 19.15
1064 67.7697 704.85 724.11 19.26
1065 67.8197 685.76 737.03 18.99
1066 67.8697 718.87 754.51 19.50
1067 67.9197 747.57 779.55 19.90
1068 67.9697 787.55 817.07 20.40
1069 68.0198 824.39 875.03 20.91
1070 68.0697 927.38 964.85 22.26
1071 68.1198 1074.86 1104.35 23.96
1072 68.1698 1213.86 1315.96 25.53
1073 68.2198 1496.10 1629.37 28.43
1074 68.2698 1924.99 2078.99 32.35
1075 68.3198 2604.19 2701.74 37.75
1076 68.3698 3345.51 3529.60 42.82
1077 68.4197 4437.71 4582.65 49.49
1078 68.4698 5765.95 5869.06 56.69
1079 68.5198 7343.31 7354.53 64.21
1080 68.5698 9211.13 8979.74 72.46
1081 68.6197 11089.50 10643.40 80.06
1082 68.6697 12568.00 12225.70 85.77
1083 68.7197 13793.70 13579.30 90.37
1084 68.7697 14702.30 14563.80 93.59
1085 68.8352 15268.50 15114.30 97.78
1086 68.8852 14964.30 14906.80 96.62
1087 68.9352 14281.10 14179.90 93.53
1088 68.9852 13038.60 13018.10 89.00
1089 69.0352 11756.50 11545.60 83.51
1090 69.0853 9930.48 9901.01 76.03
1091 69.1353 8397.48 8230.54 69.29
1092 69.1853 6897.46 6649.13 62.41
1093 69.2353 5516.34 5240.65 55.31
1094 69.2853 4368.38 4052.21 49.00
1095 69.3353 3329.58 3098.16 42.54
1096 69.3853 2544.89 2366.61 37.03
1097 69.4353 1909.92 1829.56 32.08
1098 69.4853 1542.76 1451.01 28.77
1099 69.5353 1218.20 1193.74 25.57
1100 69.5853 1070.08 1024.50 24.03
1101 69.6353 936.34 915.91 22.44
1102 69.6853 883.84 847.24 21.81
1103 69.7353 800.41 803.80 20.76
1104 69.7853 808.46 775.74 20.88
1105 69.8353 756.96 756.87 20.17
1106 69.8853 797.63 743.42 20.73
1107 69.9353 757.39 733.23 20.23
1108 69.9853 783.11 725.08 20.50
1109 70.0353 757.32 718.28 20.21
1110 70.0661 778.36 714.60 28.35
1111 70.1067 744.81 710.23 19.82
1112 70.1567 728.95 705.45 19.45
1113 70.2067 762.44 701.26 20.00
1114 70.2567 732.90 697.55 19.60
1115 70.3067 745.48 694.26 19.84
1116 70.3567 747.36 691.35 19.83
1117 70.4067 739.77 688.76 19.71
1118 70.4567 727.62 686.47 19.59
1119 70.5068 741.47 684.43 19.79
1120 70.5567 761.70 682.64 20.05
1121 70.6067 772.41 681.06 20.20
1122 70.6567 739.21 679.67 19.73
1123 70.7067 785.64 678.46 20.39
1124 70.7568 770.61 677.41 20.19
1125 70.8067 769.95 676.52 20.16
1126 70.8568 778.37 675.77 20.30
1127 70.9067 797.37 675.15 20.52
1128 70.9567 774.88 674.67 20.23
1129 71.0067 754.20 674.31 19.94
1130 71.0567 782.31 674.07 20.33
1131 71.1067 790.68 673.96 20.43
1132 71.1567 776.93 673.97 20.26
1133 71.2067 790.58 674.10 20.40
1134 71.2567 734.12 674.37 19.68
1135 71.3048 765.16 674.77 17.67
1136 71.3585 746.23 675.39 21.84
1137 71.4086 751.39 676.18 21.98
1138 71.4585 781.50 677.24 22.36
1139 71.5085 775.11 678.69 22.28
1140 71.5585 791.90 680.73 22.75
1141 71.6086 773.88 683.71 22.41
1142 71.6586 778.05 688.16 22.40
1143 71.7086 787.92 694.93 22.56
1144 71.7586 793.90 705.30 22.76
1145 71.8086 830.87 721.06 23.31
1146 71.8586 877.19 744.61 24.05
1147 71.9086 864.30 778.99 23.73
1148 71.9586 940.03 827.80 24.87
1149 72.0086 995.44 894.91 25.64
1150 72.0586 1051.65 984.11 26.20
1151 72.1086 1160.66 1098.30 27.61
1152 72.1586 1271.23 1238.78 28.77
1153 72.2086 1454.42 1404.30 30.89
1154 72.2586 1569.55 1590.10 32.23
1155 72.3086 1764.40 1787.60 33.99
1156 72.3586 1928.29 1984.28 35.63
1157 72.4086 2100.23 2164.82 37.09
1158 72.4586 2383.15 2312.68 39.47
1159 72.5086 2353.24 2412.26 39.30
1160 72.5585 2346.64 2451.21 39.77
1161 72.6085 2384.95 2423.07 40.14
1162 72.6585 2357.02 2329.08 39.65
1163 72.7085 2167.06 2179.51 37.89
1164 72.7585 2137.25 1991.64 37.68
1165 72.8085 1952.84 1786.08 35.86
1166 72.8586 1717.23 1582.55 33.69
1167 72.9086 1538.05 1398.87 31.91
1168 72.9586 1435.74 1247.80 30.95
1169 73.0086 1302.58 1137.62 29.48
1170 73.0586 1233.25 1073.68 28.57
1171 73.1086 1304.34 1058.67 29.57
1172 73.1586 1222.53 1093.72 28.56
1173 73.2086 1262.54 1178.88 29.20
1174 73.2586 1324.90 1312.86 29.68
1175 73.3086 1587.83 1492.72 32.60
1176 73.3586 1702.53 1710.30 33.49
1177 73.4086 2002.36 1954.41 36.47
1178 73.4586 2189.56 2208.14 38.10
1179 73.5086 2384.22 2449.97 39.90
1180 73.5586 2715.22 2655.97 42.51
1181 73.6086 2733.31 2802.53 42.67
1182 73.6586 2831.30 2870.60 43.49
1183 73.7086 2898.76 2849.87 43.88
1184 73.7586 2808.21 2742.05 43.24
1185 73.8161 2581.65 2528.14 37.94
1186 73.8661 2403.10 2288.76 36.52
1187 73.9162 2179.95 2025.44 34.52
1188 73.9661 1809.62 1763.32 31.29
1189 74.0161 1626.56 1519.82 29.48
1190 74.0661 1464.46 1308.01 27.94
1191 74.1162 1310.81 1133.69 26.47
1192 74.1662 1067.31 998.12 23.85
1193 74.2162 1008.13 897.48 23.21
1194 74.2662 919.33 826.09 22.15
1195 74.3162 847.90 777.49 21.28
1196 74.3662 793.26 745.59 20.57
1197 74.4162 780.12 722.67 20.42
1198 74.4662 736.82 709.99 19.89
1199 74.5162 775.82 702.11 20.37
1200 74.5662 797.60 695.98 20.68
1201 74.6162 794.23 692.77 20.60
1202 74.6662 820.00 690.57 20.95
1203 74.7162 813.42 688.97 20.89
1204 74.7662 820.48 687.75 20.96
1205 74.8162 824.01 686.78 21.00
1206 74.8662 823.56 686.00 21.01
1207 74.9162 795.03 685.36 20.66
1208 74.9662 846.87 684.83 21.28
1209 75.0162 801.23 684.40 20.71
1210 75.0661 834.39 684.06 21.18
1211 75.1161 813.54 683.78 20.89
1212 75.1661 846.42 683.58 21.16
1213 75.2161 812.84 683.42 20.69
1214 75.2661 828.33 683.33 20.99
1215 75.3161 805.35 683.27 20.72
1216 75.3662 760.08 683.26 20.15
1217 75.4162 759.61 683.28 20.14
1218 75.4662 824.19 683.34 20.97
1219 75.5162 724.15 683.43 19.65
1220 75.5662 761.30 683.55 20.10
1221 75.6162 760.35 683.69 20.10
1222 75.6662 712.86 683.86 19.44
1223 75.7162 745.86 684.05 19.90
1224 75.7662 725.36 684.27 19.65
1225 75.8162 710.72 684.50 19.47
1226 75.8662 679.86 684.76 19.07
1227 75.9162 688.04 685.03 19.09
1228 75.9662 676.05 685.33 18.93
1229 76.0162 665.21 685.64 18.83
1230 76.0662 678.17 685.97 18.99
1231 76.1162 677.78 686.31 18.99
1232 76.1662 667.23 686.68 18.86
1233 76.2161 657.14 687.06 18.66
1234 76.2726 690.90 687.52 15.79
1235 76.3259 678.66 687.97 19.18
1236 76.3759 660.82 688.42 18.80
1237 76.4259 668.31 688.89 18.91
1238 76.4759 670.34 689.39 19.01
1239 76.5259 630.96 689.90 18.43
1240 76.5759 652.43 690.45 18.83
1241 76.6259 691.94 691.02 19.35
1242 76.6759 692.11 691.63 19.42
1243 76.7260 682.36 692.27 19.31
1244 76.7759 692.62 692.95 19.47
1245 76.8259 695.23 693.99 19.49
1246 76.8759 720.14 694.76 19.76
1247 76.9259 672.87 695.59 19.13
1248 76.9760 698.36 696.48 19.49
1249 77.0259 679.74 697.44 19.27
1250 77.0760 694.27 698.48 19.39
1251 77.1259 700.89 699.61 19.52
1252 77.1759 680.22 700.86 19.20
1253 77.2259 674.17 702.26 19.16
1254 77.2759 651.76 703.85 18.77
1255 77.3259 673.85 705.75 19.14
1256 77.3759 706.89 708.11 19.62
1257 77.4259 688.06 711.25 19.31
1258 77.4759 673.28 715.70 19.15
1259 77.5259 714.40 722.29 19.71
1260 77.5730 686.16 731.64 18.75
1261 77.6230 708.68 746.67 19.13
1262 77.6730 705.53 769.40 18.87
1263 77.7230 728.03 803.41 19.24
1264 77.7730 772.54 851.15 19.90
1265 77.8231 852.08 916.64 20.93
1266 77.8731 877.19 1002.40 21.22
1267 77.9231 996.46 1110.38 22.61
1268 77.9731 1094.24 1240.57 23.75
1269 78.0231 1180.29 1391.28 24.69
1270 78.0731 1307.67 1559.55 26.00
1271 78.1231 1464.15 1739.10 27.53
1272 78.1731 1553.87 1925.21 28.34
1273 78.2231 1716.19 2111.49 29.88
1274 78.2731 1958.20 2292.11 31.88
1275 78.3231 2033.71 2461.20 32.46
1276 78.3731 2244.00 2610.98 34.18
1277 78.4231 2149.11 2729.94 33.38
1278 78.4731 2295.84 2803.17 34.56
1279 78.5231 2199.34 2815.11 33.79
1280 78.5731 2160.15 2754.78 33.50
1281 78.6231 2015.72 2621.00 32.29
1282 78.6731 1910.96 2424.77 31.34
1283 78.7231 1733.42 2186.28 29.76
1284 78.7604 1604.12 1995.16 38.32
1285 78.8132 1428.11 1725.63 25.86
1286 78.8633 1269.09 1489.10 24.27
1287 78.9133 1148.63 1284.77 22.90
1288 78.9632 985.94 1118.75 21.18
1289 79.0133 933.86 990.66 20.60
1290 79.0633 871.19 897.63 19.90
1291 79.1133 791.22 833.23 19.02
1292 79.1633 782.47 790.17 18.94
1293 79.2133 738.61 763.06 18.38
1294 79.2633 721.57 746.21 18.23
1295 79.3133 714.24 735.97 18.12
1296 79.3633 704.91 729.71 17.97
1297 79.4133 702.97 725.74 17.93
1298 79.4633 702.39 723.10 17.98
1299 79.5133 700.09 721.22 17.93
1300 79.5633 693.85 719.81 17.87
1301 79.6133 669.73 718.69 17.51
1302 79.6633 692.54 717.79 17.82
1303 79.7133 691.74 717.05 17.85
1304 79.7633 673.71 716.46 17.58
1305 79.8133 687.11 715.97 17.76
1306 79.8633 679.35 715.58 17.64
1307 79.9133 666.92 715.28 17.51
1308 79.9633 666.15 715.06 17.44
1309 80.0219 678.98 714.89 14.65
1310 80.0775 687.53 714.81 18.27
1311 80.1276 686.20 714.80 18.07
1312 80.1775 721.19 714.85 18.57
1313 80.2275 696.80 714.94 18.28
1314 80.2776 685.10 715.09 18.18
1315 80.3276 715.67 715.28 18.59
1316 80.3775 740.07 715.52 18.90
1317 80.4276 693.37 715.81 18.37
1318 80.4776 702.69 716.15 18.43
1319 80.5276 713.04 716.53 18.57
1320 80.5776 684.32 716.97 18.21
1321 80.6276 698.73 717.46 18.38
1322 80.6776 713.55 718.01 18.59
1323 80.7276 705.41 718.62 18.47
1324 80.7776 722.53 719.30 18.71
1325 80.8276 697.01 720.07 18.40
1326 80.8776 707.29 720.91 18.48
1327 80.9276 659.56 721.87 17.85
1328 80.9776 700.13 722.94 18.44
1329 81.0276 717.53 724.18 18.67
1330 81.0776 704.68 725.66 18.48
1331 81.1276 692.74 727.50 18.29
1332 81.1776 720.25 729.94 18.70
1333 81.2276 702.40 733.44 18.44
1334 81.2826 725.27 739.44 15.19
1335 81.3408 714.50 750.14 18.65
1336 81.3908 723.21 765.34 18.63
1337 81.4408 744.94 789.17 18.91
1338 81.4908 779.55 825.31 19.43
1339 81.5408 843.41 877.79 20.29
1340 81.5908 865.48 950.22 20.52
1341 81.6408 1022.70 1044.79 22.32
1342 81.6908 1130.13 1160.79 23.48
1343 81.7409 1268.82 1294.01 24.90
1344 81.7908 1366.26 1434.64 25.88
1345 81.8409 1509.51 1570.57 27.19
1346 81.8909 1574.54 1685.10 27.86
1347 81.9409 1651.23 1762.35 28.59
1348 81.9909 1566.15 1789.96 27.79
1349 82.0409 1580.01 1763.56 27.95
1350 82.0909 1566.77 1688.85 27.75
1351 82.1408 1489.70 1579.82 27.04
1352 82.1909 1312.40 1453.55 25.32
1353 82.2409 1230.64 1328.84 24.54
1354 82.2909 1214.24 1221.62 24.37
1355 82.3408 1102.52 1145.37 23.20
1356 82.3908 1064.07 1110.00 22.75
1357 82.4408 1098.29 1123.10 23.08
1358 82.4908 1199.21 1189.47 24.23
1359 82.5534 1296.68 1350.56 24.21
1360 82.6034 1448.56 1539.56 25.64
1361 82.6535 1747.73 1776.03 28.03
1362 82.7034 2022.91 2049.79 30.27
1363 82.7534 2176.79 2342.14 31.28
1364 82.8035 2526.57 2635.88 33.68
1365 82.8535 2748.20 2908.99 35.16
1366 82.9035 3153.40 3143.34 37.80
1367 82.9535 3348.32 3326.67 38.89
1368 83.0035 3557.98 3453.27 40.19
1369 83.0535 3663.29 3519.94 40.76
1370 83.1035 3634.62 3521.47 40.60
1371 83.1535 3603.09 3450.15 40.44
1372 83.2035 3466.99 3300.20 39.66
1373 83.2535 3215.43 3074.81 38.15
1374 83.3035 3001.66 2789.80 36.84
1375 83.3535 2686.60 2470.08 34.76
1376 83.4035 2260.26 2143.22 31.84
1377 83.4535 1934.60 1833.27 29.41
1378 83.5035 1589.82 1558.39 26.64
1379 83.5535 1439.35 1329.16 25.33
1380 83.6035 1214.25 1148.53 23.24
1381 83.6535 1095.84 1014.21 22.05
1382 83.7035 999.53 919.25 21.04
1383 83.7535 869.42 855.25 19.62
1384 83.8192 799.98 804.29 19.09
1385 83.8692 745.10 781.81 18.37
1386 83.9192 751.47 767.57 18.33
1387 83.9692 735.54 758.90 18.14
1388 84.0192 739.56 753.22 18.20
1389 84.0692 771.38 749.27 18.71
1390 84.1192 742.62 746.32 18.31
1391 84.1693 724.84 743.98 18.16
1392 84.2193 734.95 742.05 18.25
1393 84.2693 721.96 740.41 18.11
1394 84.3193 700.77 739.01 17.79
1395 84.3693 689.91 737.79 17.60
1396 84.4193 726.25 736.74 18.14
1397 84.4693 690.03 735.82 17.70
1398 84.5193 699.31 735.03 17.81
1399 84.5693 707.72 734.34 17.91
1400 84.6193 727.12 733.74 18.09
1401 84.6693 682.38 733.23 17.51
1402 84.7193 725.24 732.80 18.12
1403 84.7693 690.77 732.43 17.67
1404 84.8193 676.43 732.14 17.51
1405 84.8692 707.11 731.90 17.82
1406 84.9193 701.61 731.71 17.83
1407 84.9692 700.61 731.58 17.80
1408 85.0192 716.42 731.49 18.05
1409 85.0701 687.89 731.45 18.32
1410 85.1201 727.10 731.46 18.98
1411 85.1702 690.46 731.51 18.27
1412 85.2201 731.40 731.60 18.77
1413 85.2701 710.96 731.73 18.57
1414 85.3202 719.29 731.91 18.69
1415 85.3702 704.56 732.13 18.61
1416 85.4202 732.91 732.39 18.94
1417 85.4702 754.93 732.70 19.16
1418 85.5202 715.31 733.05 18.71
1419 85.5702 741.67 733.45 19.04
1420 85.6202 728.83 733.91 18.76
1421 85.6702 726.87 734.41 18.85
1422 85.7202 751.21 734.97 19.23
1423 85.7702 757.44 735.60 19.21
1424 85.8202 731.78 736.29 18.90
1425 85.8702 728.67 737.05 18.87
1426 85.9202 760.54 737.89 19.30
1427 85.9702 762.50 738.82 19.25
1428 86.0202 713.91 739.84 18.63
1429 86.0702 719.12 740.96 18.79
1430 86.1202 710.11 742.27 18.58
1431 86.1702 715.81 743.64 18.72
1432 86.2202 731.01 745.16 18.86
1433 86.2759 728.90 747.05 16.15
1434 86.3267 721.43 748.98 20.27
1435 86.3767 760.16 751.33 20.76
1436 86.4267 724.92 753.70 20.28
1437 86.4767 747.74 756.35 20.69
1438 86.5267 791.33 759.34 21.28
1439 86.5767 755.56 762.72 20.85
1440 86.6267 749.46 766.57 20.65
1441 86.6767 756.81 770.97 20.81
1442 86.7268 746.50 776.10 20.74
1443 86.7767 780.72 782.17 21.21
1444 86.8268 793.41 789.69 21.30
1445 86.8768 804.05 799.51 21.51
1446 86.9268 849.46 813.36 22.12
1447 86.9768 875.70 834.43 22.44
1448 87.0267 967.21 868.30 23.60
1449 87.0768 925.26 924.65 23.10
1450 87.1267 1024.41 1017.57 24.33
1451 87.1767 1136.70 1168.01 25.67
1452 87.2268 1284.06 1402.52 27.35
1453 87.2767 1559.09 1748.75 30.10
1454 87.3268 1950.37 2235.63 33.63
1455 87.3767 2562.92 2874.66 38.79
1456 87.4267 3473.19 3662.78 45.35
1457 87.4767 4432.95 4563.67 51.47
1458 87.5267 5411.59 5508.72 57.14
1459 87.5554 6224.27 6033.55 79.00
1460 87.5964 6736.94 6708.14 63.33
1461 87.6464 7130.06 7322.32 65.06
1462 87.6964 7263.31 7607.69 65.82
1463 87.7464 7220.13 7508.17 65.43
1464 87.7964 6831.02 7043.78 63.28
1465 87.8464 6202.43 6301.49 60.16
1466 87.8964 5297.79 5399.32 55.39
1467 87.9464 4464.90 4454.95 50.41
1468 87.9964 3643.82 3564.20 45.45
1469 88.0464 2961.39 2792.10 40.72
1470 88.0964 2305.54 2170.38 35.64
1471 88.1464 1983.08 1701.42 33.11
1472 88.1964 1603.02 1369.41 29.78
1473 88.2464 1389.23 1146.62 27.75
1474 88.2965 1205.95 1003.95 25.87
1475 88.3464 1092.36 916.44 24.60
1476 88.3964 991.73 863.53 23.49
1477 88.4464 962.48 830.98 23.12
1478 88.4964 945.16 811.07 22.88
1479 88.5464 884.20 797.89 22.10
1480 88.5964 875.16 788.46 22.05
1481 88.6464 864.44 781.22 21.86
1482 88.6964 863.82 775.33 21.84
1483 88.7464 862.68 770.36 21.81
1484 88.8107 807.85 764.98 19.70
1485 88.8607 824.51 761.39 19.98
1486 88.9108 800.17 758.23 19.40
1487 88.9607 826.77 755.46 19.74
1488 89.0107 789.88 752.99 19.41
1489 89.0607 795.81 750.79 19.46
1490 89.1108 812.69 748.83 19.72
1491 89.1608 837.30 747.08 20.00
1492 89.2108 770.45 745.51 19.21
1493 89.2608 748.36 744.11 18.96
1494 89.3108 776.41 742.85 19.25
1495 89.3608 799.74 741.73 19.53
1496 89.4108 822.93 740.72 19.86
1497 89.4608 791.30 739.82 19.49
1498 89.5108 799.67 739.02 19.58
1499 89.5608 817.50 738.31 19.81
1500 89.6108 821.31 737.68 19.83
1501 89.6608 835.78 737.14 19.98
1502 89.7108 792.45 736.66 19.43
1503 89.7608 813.39 736.27 19.71
1504 89.8108 813.22 735.94 19.73
1505 89.8608 842.04 735.68 20.06
1506 89.9108 807.38 735.49 19.61
1507 89.9608 823.13 735.38 19.78
1508 90.0108 812.61 735.34 19.70
1509 90.0660 771.53 735.38 19.95
1510 90.1160 821.34 735.51 20.67
1511 90.1661 859.76 735.74 20.97
1512 90.2160 846.56 736.08 20.74
1513 90.2660 841.46 736.58 20.78
1514 90.3160 834.99 737.29 20.74
1515 90.3661 900.15 738.33 21.55
1516 90.4161 866.51 739.90 21.15
1517 90.4661 882.51 742.36 21.36
1518 90.5161 858.38 746.29 21.09
1519 90.5661 886.80 752.52 21.44
1520 90.6161 914.21 762.29 21.68
1521 90.6661 916.01 777.19 21.74
1522 90.7161 879.59 799.15 21.34
1523 90.7661 965.44 830.29 22.34
1524 90.8161 975.57 872.69 22.47
1525 90.8661 1003.87 927.97 22.76
1526 90.9161 1086.89 996.78 23.70
1527 90.9661 1178.86 1078.15 24.69
1528 91.0161 1224.91 1168.89 25.21
1529 91.0661 1330.85 1263.44 26.25
1530 91.1161 1465.20 1354.23 27.60
1531 91.1661 1535.00 1432.73 28.27
1532 91.2161 1549.44 1489.76 28.38
1533 91.2661 1545.36 1516.42 28.36
1534 91.3222 1530.13 1502.50 28.91
1535 91.3722 1587.41 1451.01 29.46
1536 91.4222 1449.56 1370.53 27.91
1537 91.4722 1404.00 1273.40 27.45
1538 91.5222 1314.72 1172.80 26.47
1539 91.5722 1165.67 1080.38 24.95
1540 91.6222 1118.26 1005.00 24.41
1541 91.6722 1055.67 952.59 23.73
1542 91.7222 1029.52 926.18 23.44
1543 91.7722 993.80 926.45 23.06
1544 91.8222 965.91 952.08 22.71
1545 91.8722 1026.60 1000.12 23.38
1546 91.9223 1016.34 1066.89 23.35
1547 91.9722 1036.89 1144.36 23.57
1548 92.0222 1052.33 1226.13 23.76
1549 92.0723 1091.19 1303.67 24.18
1550 92.1222 1136.01 1369.35 24.64
1551 92.1722 1102.05 1416.00 24.31
1552 92.2223 1160.17 1442.34 24.93
1553 92.2722 1122.01 1449.24 24.54
1554 92.3223 1155.46 1437.17 24.86
1555 92.3722 1165.31 1407.86 24.99
1556 92.4222 1157.01 1362.47 24.91
1557 92.4722 1081.10 1302.69 24.03
1558 92.5222 1050.59 1231.38 23.73
1559 92.5722 1009.43 1153.23 22.79
1560 92.6222 979.83 1074.03 22.48
1561 92.6722 914.19 999.24 21.43
1562 92.7222 907.49 932.99 21.40
1563 92.7722 897.34 877.66 21.34
1564 92.8222 847.51 831.81 20.74
1565 92.8722 774.79 799.26 19.85
1566 92.9222 806.61 776.19 20.27
1567 92.9722 813.67 760.60 20.39
1568 93.0222 814.29 750.49 20.38
1569 93.0722 805.25 744.13 20.23
1570 93.1222 767.74 740.17 19.75
1571 93.1723 801.43 737.67 20.20
1572 93.2222 773.87 736.06 19.86
1573 93.2722 734.45 734.94 19.36
1574 93.3223 759.76 734.12 19.70
1575 93.3722 776.46 733.49 19.90
1576 93.4222 763.35 732.98 19.73
1577 93.4723 830.42 732.57 20.55
1578 93.5222 788.97 732.24 20.04
1579 93.5722 759.96 731.97 19.70
1580 93.6222 798.32 731.76 20.19
1581 93.6722 767.86 731.59 19.79
1582 93.7222 768.66 731.47 19.77
1583 93.7722 760.35 731.39 19.66
1584 93.8160 755.36 731.35 19.43
1585 93.8660 772.65 731.34 19.66
1586 93.9160 741.62 731.35 19.16
1587 93.9660 752.64 731.40 19.23
1588 94.0160 742.01 731.47 19.20
1589 94.0660 762.89 731.57 19.50
1590 94.1161 722.37 731.70 18.98
1591 94.1660 742.33 731.85 19.26
1592 94.2161 723.66 732.03 19.03
1593 94.2661 783.86 732.23 19.80
1594 94.3161 790.06 732.46 19.90
1595 94.3661 748.56 732.72 19.32
1596 94.4161 752.11 733.00 19.38
1597 94.4661 748.33 733.30 19.37
1598 94.5161 751.09 733.64 19.40
1599 94.5661 758.81 734.01 19.49
1600 94.6161 749.91 734.40 19.35
1601 94.6660 740.05 734.83 19.23
1602 94.7161 760.89 735.29 19.51
1603 94.7661 775.35 735.79 19.71
1604 94.8161 732.07 736.34 19.16
1605 94.8661 720.24 736.92 18.97
1606 94.9161 742.68 737.55 19.26
1607 94.9660 707.95 738.23 18.74
1608 95.0161 751.59 738.97 19.40
1609 95.0603 747.63 739.67 19.54
1610 95.1103 732.97 740.53 19.33
1611 95.1603 765.92 741.46 19.69
1612 95.2103 747.56 742.48 19.40
1613 95.2603 764.71 743.58 19.70
1614 95.3103 744.03 744.79 19.48
1615 95.3604 760.12 746.12 19.68
1616 95.4103 769.75 747.67 19.80
1617 95.4604 725.99 749.28 19.24
1618 95.5104 744.97 751.05 19.50
1619 95.5604 764.17 753.02 19.72
1620 95.6104 779.81 755.54 19.93
1621 95.6604 756.68 758.00 19.67
1622 95.7104 766.30 760.76 19.76
1623 95.7604 781.79 763.89 19.98
1624 95.8104 761.58 767.70 19.74
1625 95.8604 752.64 771.86 19.61
1626 95.9103 758.19 776.73 19.66
1627 95.9604 793.48 782.72 20.11
1628 96.0104 797.49 790.45 20.17
1629 96.0604 864.23 801.07 21.02
1630 96.1104 844.12 816.90 20.76
1631 96.1604 877.13 841.57 21.17
1632 96.2104 912.78 880.95 21.58
1633 96.2604 997.55 943.67 22.61
1634 96.2952 990.53 1006.89 21.80
1635 96.3452 1106.90 1136.99 23.09
1636 96.3952 1305.92 1326.35 24.96
1637 96.4452 1548.37 1588.81 27.30
1638 96.4952 1864.50 1934.04 29.84
1639 96.5452 2230.77 2363.46 32.69
1640 96.5952 2735.42 2867.14 36.40
1641 96.6452 3197.75 3420.26 39.46
1642 96.6952 3771.37 3983.03 42.97
1643 96.7452 4271.59 4505.63 45.90
1644 96.7952 4816.07 4938.15 48.88
1645 96.8452 4961.64 5239.65 49.69
1646 96.8953 5086.21 5378.53 50.32
1647 96.9452 5091.58 5333.03 50.34
1648 96.9952 4787.20 5100.38 48.68
1649 97.0453 4524.48 4702.33 47.28
1650 97.0952 4045.01 4186.52 44.51
1651 97.1452 3514.55 3608.18 41.36
1652 97.1953 2907.29 3025.02 37.44
1653 97.2452 2467.46 2487.91 34.42
1654 97.2953 2089.67 2024.18 31.62
1655 97.3452 1685.43 1651.94 28.32
1656 97.3952 1444.99 1368.59 26.21
1657 97.4452 1305.31 1164.85 24.86
1658 97.4952 1106.31 1025.65 22.89
1659 97.5358 1033.59 948.76 30.29
1660 97.5821 927.88 889.53 20.44
1661 97.6321 875.76 848.93 19.82
1662 97.6821 860.72 823.70 19.48
1663 97.7321 836.25 807.65 19.21
1664 97.7821 797.64 796.94 18.75
1665 97.8321 794.56 789.30 18.77
1666 97.8821 780.72 783.48 18.64
1667 97.9321 801.59 778.80 18.84
1668 97.9821 767.36 774.91 18.49
1669 98.0322 758.75 771.60 18.38
1670 98.0821 769.63 768.75 18.48
1671 98.1322 757.81 766.28 18.33
1672 98.1822 777.20 764.14 18.60
1673 98.2321 771.10 762.27 18.53
1674 98.2822 730.88 760.63 18.03
1675 98.3321 754.46 759.22 18.29
1676 98.3821 759.10 757.98 18.37
1677 98.4322 760.70 756.91 18.38
1678 98.4821 752.35 755.98 18.28
1679 98.5322 739.42 755.19 18.12
1680 98.5821 771.93 754.53 18.54
1681 98.6321 749.40 753.97 18.23
1682 98.6821 754.94 753.53 18.30
1683 98.7321 777.12 753.18 18.55
1684 98.7784 754.93 752.95 25.87
1685 98.8250 788.38 752.79 19.27
1686 98.8750 770.78 752.71 19.02
1687 98.9250 788.78 752.73 19.15
1688 98.9750 792.61 752.84 19.16
1689 99.0250 757.63 753.05 18.80
1690 99.0750 763.56 753.37 18.92
1691 99.1251 781.58 753.79 19.15
1692 99.1751 766.58 754.35 18.94
1693 99.2251 761.75 755.04 18.88
1694 99.2751 780.12 755.90 19.12
1695 99.3251 790.60 756.97 19.25
1696 99.3751 799.88 758.33 19.35
1697 99.4251 740.21 760.11 18.61
1698 99.4751 785.17 762.57 19.18
1699 99.5251 779.97 766.12 19.12
1700 99.5751 789.48 771.46 19.26
1701 99.6251 797.49 779.66 19.36
1702 99.6751 824.23 792.24 19.68
1703 99.7251 806.91 811.23 19.48
1704 99.7751 862.86 839.16 20.12
1705 99.8251 896.86 878.92 20.53
1706 99.8751 894.49 933.57 20.51
1707 99.9251 982.44 1006.01 21.53
1708 99.9751 1030.21 1098.44 21.97
1709 100.0251 1110.18 1211.76 22.85
1710 100.0688 1228.71 1326.93 25.42
1711 100.1188 1307.25 1473.88 26.23
1712 100.1688 1528.15 1631.20 28.17
1713 100.2188 1620.76 1789.80 29.15
1714 100.2688 1738.01 1936.72 30.00
1715 100.3188 1797.22 2055.31 30.53
1716 100.3688 1847.29 2128.94 31.00
1717 100.4188 1823.32 2146.22 30.80
1718 100.4688 1840.38 2103.50 30.94
1719 100.5189 1794.71 2004.50 30.62
1720 100.5688 1591.57 1861.20 28.75
1721 100.6189 1493.95 1689.59 27.81
1722 100.6689 1362.33 1509.64 26.60
1723 100.7189 1245.91 1338.01 25.49
1724 100.7689 1125.66 1186.78 24.19
1725 100.8189 1012.50 1062.34 22.96
1726 100.8689 978.82 966.15 22.55
1727 100.9188 928.26 895.97 21.95
1728 100.9689 857.86 847.10 21.08
1729 101.0188 813.51 814.85 20.52
1730 101.0689 840.62 794.16 20.89
1731 101.1188 790.79 781.28 20.21
1732 101.1688 816.71 773.23 20.56
1733 101.2188 780.60 768.10 20.08
1734 101.2688 763.32 765.46 19.84
1735 101.3143 766.86 763.23 19.60
1736 101.3643 783.02 761.35 19.75
1737 101.4143 746.37 759.85 19.16
1738 101.4643 761.66 758.63 19.34
1739 101.5143 732.87 757.59 19.04
1740 101.5643 723.37 755.97 18.92
1741 101.6143 745.47 755.23 19.29
1742 101.6644 721.45 754.59 18.88
1743 101.7144 754.76 754.05 19.39
1744 101.7644 754.31 752.64 19.35
1745 101.8144 743.57 752.26 19.26
1746 101.8644 736.06 751.51 19.10
1747 101.9144 771.72 752.36 19.57
1748 101.9644 749.66 752.16 19.26
1749 102.0144 745.44 752.01 19.24
1750 102.0644 783.42 751.89 19.76
1751 102.1144 727.26 751.80 18.96
1752 102.1644 757.36 751.74 19.40
1753 102.2144 728.04 751.71 19.01
1754 102.2644 732.49 751.70 19.08
1755 102.3144 748.42 751.71 19.27
1756 102.3644 743.72 751.74 19.22
1757 102.4144 750.74 751.78 19.28
1758 102.4643 760.28 751.85 19.44
1759 102.5144 696.60 751.93 18.60
1760 102.5596 762.17 752.02 20.12
1761 102.6096 755.06 752.12 20.11
1762 102.6596 753.88 752.24 19.89
1763 102.7096 729.97 752.38 19.50
1764 102.7596 726.58 752.52 19.71
1765 102.8096 742.04 752.68 19.75
1766 102.8597 756.93 752.85 20.02
1767 102.9097 771.04 753.03 20.29
1768 102.9597 739.29 753.21 19.81
1769 103.0097 738.72 753.41 19.93
1770 103.0597 735.34 753.62 19.70
1771 103.1097 734.15 753.85 19.73
1772 103.1597 729.62 754.08 19.69
1773 103.2097 726.28 754.32 19.71
1774 103.2597 785.88 754.58 20.51
1775 103.3097 725.60 754.84 19.66
1776 103.3597 713.57 755.12 19.55
1777 103.4097 715.05 755.41 19.54
1778 103.4597 735.53 755.71 19.79
1779 103.5097 703.40 756.02 19.34
1780 103.5597 735.00 756.35 19.89
1781 103.6097 754.67 756.70 20.17
1782 103.6597 759.77 757.05 20.21
1783 103.7096 720.74 757.43 19.52
1784 103.7597 726.56 757.82 19.70
1785 103.8113 688.39 758.25 19.91
1786 103.8613 738.23 758.68 20.72
1787 103.9113 706.55 759.14 20.12
1788 103.9613 698.72 759.62 19.99
1789 104.0113 733.43 760.13 20.58
1790 104.0613 749.48 760.67 20.89
1791 104.1113 735.60 761.23 20.66
1792 104.1613 712.90 761.84 20.34
1793 104.2113 704.96 762.48 20.24
1794 104.2613 740.43 763.16 20.79
1795 104.3113 734.13 763.89 20.62
1796 104.3613 730.68 764.68 20.55
1797 104.4113 742.08 765.52 20.88
1798 104.4613 726.04 766.43 20.56
1799 104.5113 733.09 767.42 20.80
1800 104.5614 705.25 768.49 20.26
1801 104.6113 756.91 769.66 20.99
1802 104.6613 693.46 770.94 20.01
1803 104.7113 733.73 772.35 20.67
1804 104.7613 739.01 773.91 20.78
1805 104.8113 718.32 775.64 20.47
1806 104.8613 717.11 777.48 20.51
1807 104.9113 761.43 779.67 20.98
1808 104.9613 742.98 782.15 20.70
1809 105.0181 729.98 785.43 16.60
1810 105.0738 743.58 789.00 20.14
1811 105.1238 747.25 793.42 20.02
1812 105.1738 778.46 799.31 20.43
1813 105.2238 774.92 807.53 20.45
1814 105.2738 801.70 820.60 20.86
1815 105.3238 786.19 841.64 20.69
1816 105.3738 784.72 875.91 20.62
1817 105.4238 836.42 930.49 21.33
1818 105.4739 965.00 1014.12 22.93
1819 105.5238 1072.89 1134.55 24.18
1820 105.5739 1233.38 1298.37 25.95
1821 105.6239 1507.38 1504.17 28.68
1822 105.6739 1757.48 1742.57 31.05
1823 105.7239 1996.84 1993.20 33.11
1824 105.7738 2127.10 2224.90 34.24
1825 105.8239 2321.18 2402.56 35.79
1826 105.8738 2330.90 2492.95 35.83
1827 105.9238 2325.29 2483.81 35.78
1828 105.9738 2237.04 2388.18 35.08
1829 106.0238 2023.13 2240.71 33.33
1830 106.0739 1887.42 2085.98 32.20
1831 106.1238 1857.49 1969.84 31.95
1832 106.1738 1888.96 1928.02 32.22
1833 106.2238 2018.78 1982.70 33.28
1834 106.2738 2341.25 2135.94 35.93
1835 106.3298 2801.67 2401.30 38.94
1836 106.3798 3216.90 2678.44 41.89
1837 106.4298 3416.28 2936.23 42.99
1838 106.4798 3626.57 3114.27 44.44
1839 106.5298 3508.09 3165.20 43.47
1840 106.5798 3260.23 3072.40 41.75
1841 106.6298 2966.09 2854.43 39.81
1842 106.6798 2632.70 2552.33 37.34
1843 106.7298 2288.21 2214.27 34.78
1844 106.7798 1959.37 1882.45 32.15
1845 106.8298 1683.76 1588.17 29.63
1846 106.8798 1482.21 1348.05 27.87
1847 106.9298 1328.66 1166.18 26.35
1848 106.9798 1136.32 1036.18 24.31
1849 107.0299 1118.07 948.32 24.11
1850 107.0798 994.56 891.86 22.72
1851 107.1298 939.77 856.41 22.10
1852 107.1798 880.71 834.45 21.38
1853 107.2298 889.12 820.64 21.51
1854 107.2798 904.45 811.57 21.70
1855 107.3298 836.35 805.24 20.85
1856 107.3798 826.10 800.50 20.73
1857 107.4298 821.27 796.75 20.65
1858 107.4798 827.72 793.65 20.71
1859 107.5425 828.15 790.43 20.52
1860 107.5925 814.21 788.26 20.35
1861 107.6426 786.82 786.37 19.82
1862 107.6926 794.53 784.72 19.93
1863 107.7425 801.50 783.28 20.06
1864 107.7926 797.00 782.01 20.05
1865 107.8426 809.98 780.89 20.21
1866 107.8925 830.01 779.90 20.47
1867 107.9426 746.06 779.02 19.47
1868 107.9926 793.10 778.24 20.05
1869 108.0426 759.59 777.55 19.62
1870 108.0926 784.89 776.94 19.87
1871 108.1426 785.15 776.41 19.91
1872 108.1926 770.90 775.93 19.78
1873 108.2426 777.88 775.52 19.84
1874 108.2926 788.70 775.16 19.97
1875 108.3426 767.54 774.84 19.72
1876 108.3926 733.68 774.57 19.25
1877 108.4426 761.38 774.34 19.65
1878 108.4926 730.92 774.15 19.22
1879 108.5426 779.88 774.00 19.89
1880 108.5926 760.85 773.88 19.66
1881 108.6426 757.77 773.80 19.56
1882 108.6926 738.17 773.74 19.34
1883 108.7426 752.71 773.72 19.50
1884 108.7957 785.17 773.74 16.51
1885 108.8545 766.19 773.79 20.18
1886 108.9045 779.72 773.88 20.30
1887 108.9545 751.76 773.99 19.89
1888 109.0045 763.35 774.15 20.10
1889 109.0545 764.65 774.33 20.15
1890 109.1046 752.59 774.56 20.02
1891 109.1545 788.05 774.83 20.47
1892 109.2046 733.68 775.14 19.76
1893 109.2546 769.65 775.52 20.27
1894 109.3046 779.35 775.96 20.39
1895 109.3546 770.32 776.49 20.24
1896 109.4046 807.32 777.16 20.74
1897 109.4546 791.46 778.04 20.57
1898 109.5046 780.92 779.28 20.43
1899 109.5546 729.47 781.08 19.68
1900 109.6046 763.53 783.75 20.17
1901 109.6545 809.50 787.66 20.79
1902 109.7046 811.77 793.22 20.79
1903 109.7546 784.77 800.71 20.43
1904 109.8046 763.23 810.21 20.15
1905 109.8546 774.14 821.39 20.30
1906 109.9046 754.94 833.48 20.05
1907 109.9546 828.18 845.20 20.99
1908 110.0045 843.62 855.00 21.18
1909 110.0498 798.15 861.10 20.83
1910 110.0997 833.08 864.25 21.36
1911 110.1498 843.66 864.41 21.35
1912 110.1997 802.00 863.56 20.74
1913 110.2497 865.15 864.54 21.61
1914 110.2998 879.32 870.70 21.84
1915 110.3498 838.55 885.38 21.39
1916 110.3998 924.43 911.41 22.42
1917 110.4498 991.95 949.69 23.26
1918 110.4998 1072.93 1001.78 24.24
1919 110.5498 1174.47 1064.65 25.29
1920 110.5998 1298.98 1133.92 26.54
1921 110.6498 1339.78 1203.52 27.05
1922 110.6998 1384.83 1267.41 27.47
1923 110.7498 1315.96 1322.58 26.76
1924 110.7999 1427.61 1371.46 27.94
1925 110.8498 1349.86 1420.88 27.11
1926 110.8998 1369.75 1480.02 27.35
1927 110.9498 1408.45 1556.66 27.74
1928 110.9998 1444.91 1655.92 28.13
1929 111.0498 1592.24 1779.31 29.55
1930 111.0998 1699.40 1922.54 30.52
1931 111.1498 1864.19 2077.99 31.98
1932 111.1998 2104.26 2227.44 33.93
1933 111.2498 2280.69 2349.63 35.33
1934 111.2977 2296.92 2421.65 49.69
1935 111.3402 2379.00 2434.68 36.69
1936 111.3902 2328.86 2380.30 36.37
1937 111.4402 2163.37 2253.96 34.72
1938 111.4902 2005.60 2072.88 33.49
1939 111.5402 1758.76 1861.57 31.11
1940 111.5902 1541.51 1644.75 29.21
1941 111.6403 1334.51 1442.38 27.20
1942 111.6903 1214.19 1267.91 25.91
1943 111.7402 1137.76 1127.47 25.16
1944 111.7903 1070.40 1020.36 24.41
1945 111.8403 972.40 943.33 23.23
1946 111.8903 942.79 890.23 22.83
1947 111.9403 874.96 854.89 21.97
1948 111.9903 851.68 834.18 21.70
1949 112.0403 835.50 819.40 21.46
1950 112.0903 801.76 809.76 21.00
1951 112.1403 817.70 803.27 21.20
1952 112.1903 782.41 798.69 20.73
1953 112.2403 753.36 795.27 20.35
1954 112.2903 761.80 792.58 20.47
1955 112.3403 764.60 790.37 20.49
1956 112.3903 789.50 788.52 20.85
1957 112.4402 741.95 786.94 20.18
1958 112.4903 739.10 785.57 20.11
1959 112.5328 772.40 784.54 29.54
1960 112.5868 755.77 783.40 20.41
1961 112.6368 753.54 782.48 20.47
1962 112.6868 787.69 781.67 20.75
1963 112.7368 807.84 780.97 20.97
1964 112.7868 766.69 780.34 20.55
1965 112.8368 760.76 779.80 20.52
1966 112.8868 762.58 779.32 20.52
1967 112.9368 727.15 778.90 20.03
1968 112.9868 740.85 778.54 20.23
1969 113.0369 763.83 778.22 20.56
1970 113.0868 785.43 777.96 20.86
1971 113.1368 731.90 777.73 20.09
1972 113.1869 740.16 777.54 20.21
1973 113.2369 762.90 777.39 20.52
1974 113.2869 783.78 777.28 20.83
1975 113.3369 749.91 777.20 20.41
1976 113.3868 745.51 777.15 20.28
1977 113.4368 765.46 777.13 20.57
1978 113.4869 772.19 777.14 20.68
1979 113.5368 804.21 777.18 21.12
1980 113.5869 745.67 777.25 20.25
1981 113.6368 746.97 777.34 20.32
1982 113.6868 764.97 777.47 20.57
1983 113.7368 767.88 777.63 20.61
1984 113.7911 759.54 777.84 16.68
1985 113.8453 733.99 778.09 19.90
1986 113.8953 775.76 778.35 20.37
1987 113.9453 798.12 778.65 20.67
1988 113.9953 758.40 778.99 20.20
1989 114.0453 771.02 779.37 20.40
1990 114.0953 766.09 779.79 20.35
1991 114.1453 767.65 780.27 20.38
1992 114.1953 779.72 780.79 20.57
1993 114.2453 755.64 781.37 20.23
1994 114.2953 807.79 782.01 20.93
1995 114.3453 773.28 782.72 20.46
1996 114.3953 749.73 783.50 20.12
1997 114.4453 759.46 784.37 20.28
1998 114.4954 740.72 785.33 20.03
1999 114.5453 774.88 786.36 20.46
2000 114.5954 737.95 787.55 20.03
2001 114.6453 785.58 788.87 20.61
2002 114.6953 769.06 790.35 20.43
2003 114.7453 783.09 792.01 20.61
2004 114.7953 760.59 793.88 20.29
2005 114.8453 796.59 795.99 20.78
2006 114.8953 772.55 798.41 20.44
2007 114.9453 815.33 801.21 21.03
2008 114.9953 813.26 804.53 20.95
2009 115.0532 785.03 809.36 16.62
2010 115.1094 798.62 815.76 20.43
2011 115.1594 808.35 823.96 20.46
2012 115.2094 842.49 835.98 20.81
2013 115.2594 891.60 854.68 21.46
2014 115.3094 928.17 883.18 21.92
2015 115.3594 952.97 925.35 22.21
2016 115.4094 1139.62 984.97 24.33
2017 115.4595 1320.38 1064.30 26.22
2018 115.5095 1502.55 1163.05 28.02
2019 115.5594 1833.40 1276.96 30.98
2020 115.6095 2087.22 1398.38 33.11
2021 115.6595 2230.99 1514.73 34.33
2022 115.7095 2453.10 1613.85 36.12
2023 115.7595 2469.27 1689.11 36.24
2024 115.8095 2424.09 1744.15 35.92
2025 115.8595 2297.83 1791.82 34.83
2026 115.9094 2323.52 1852.10 35.10
2027 115.9595 2280.46 1946.91 34.69
2028 116.0095 2383.49 2095.69 35.50
2029 116.0595 2708.36 2318.63 37.89
2030 116.1094 3127.19 2627.53 40.78
2031 116.1594 3696.39 3021.97 44.44
2032 116.2094 4379.59 3475.98 48.61
2033 116.2594 5138.55 3937.41 52.89
2034 116.3102 5530.15 4334.16 54.00
2035 116.3602 5711.87 4570.34 54.97
2036 116.4102 5534.06 4597.99 53.80
2037 116.4602 5003.27 4413.53 51.10
2038 116.5102 4363.72 4058.27 47.31
2039 116.5602 3641.73 3596.19 42.94
2040 116.6102 3136.35 3093.08 39.87
2041 116.6602 2672.78 2604.12 36.74
2042 116.7103 2342.08 2166.61 34.37
2043 116.7603 2044.41 1802.56 32.14
2044 116.8102 1692.18 1516.26 29.16
2045 116.8603 1479.56 1300.57 27.17
2046 116.9103 1291.35 1146.08 25.39
2047 116.9603 1159.70 1038.07 24.08
2048 117.0103 1100.76 964.72 23.43
2049 117.0603 951.68 915.72 21.77
2050 117.1103 916.96 883.16 21.34
2051 117.1602 897.83 861.33 21.10
2052 117.2103 821.03 846.23 20.18
2053 117.2602 819.96 835.57 20.18
2054 117.3103 798.82 827.39 19.94
2055 117.3602 829.94 820.96 20.32
2056 117.4102 797.94 815.67 19.91
2057 117.4602 821.50 811.22 20.15
2058 117.5102 779.44 807.40 19.67
2059 117.5479 773.33 804.85 19.61
2060 117.5979 757.63 801.86 19.48
2061 117.6480 737.54 799.22 19.05
2062 117.6979 769.31 796.91 19.40
2063 117.7479 786.18 794.86 19.73
2064 117.7980 771.68 793.05 19.55
2065 117.8480 749.64 791.44 19.30
2066 117.8980 777.73 790.01 19.65
2067 117.9480 758.61 788.74 19.42
2068 117.9980 742.87 787.62 19.22
2069 118.0480 798.51 786.62 19.95
2070 118.0980 764.03 785.74 19.47
2071 118.1480 774.52 784.98 19.61
2072 118.1980 783.34 784.31 19.74
2073 118.2480 759.48 783.73 19.43
2074 118.2980 778.34 783.25 19.68
2075 118.3480 755.25 782.85 19.37
2076 118.3980 808.41 782.53 20.06
2077 118.4480 747.44 782.29 19.27
2078 118.4980 746.17 782.13 19.27
2079 118.5480 779.30 782.04 19.67
2080 118.5980 802.10 782.04 19.97
2081 118.6480 818.11 782.13 20.18
2082 118.6980 798.45 782.30 19.89
2083 118.7480 800.12 782.56 19.94
2084 118.7962 779.67 782.91 21.24
2085 118.8462 756.16 783.38 20.90
2086 118.8962 791.30 783.98 21.42
2087 118.9462 818.93 784.71 21.79
2088 118.9962 793.38 785.60 21.60
2089 119.0462 778.32 786.68 21.23
2090 119.0963 813.63 788.01 21.85
2091 119.1463 823.76 789.68 22.07
2092 119.1963 824.29 791.85 21.93
2093 119.2463 809.50 794.79 21.78
2094 119.2963 805.72 798.93 21.85
2095 119.3463 862.46 804.90 22.50
2096 119.3963 850.91 813.58 22.38
2097 119.4463 859.63 826.07 22.42
2098 119.4963 834.47 843.57 22.12
2099 119.5463 898.63 867.39 22.97
2100 119.5963 899.29 898.71 23.06
2101 119.6463 950.09 938.53 23.70
2102 119.6963 991.30 987.53 24.19
2103 119.7463 1033.20 1046.03 24.70
2104 119.7963 1072.05 1114.52 25.19
2105 119.8463 1124.84 1194.07 25.83
2106 119.8963 1254.95 1286.05 27.22
2107 119.9463 1289.89 1390.58 27.50
2108 119.9963 1385.13 1505.31 28.53
2109 120.0484 1517.05 1630.68 29.27
2110 120.0985 1628.10 1751.23 30.32
2111 120.1485 1804.01 1866.94 31.90
2112 120.1984 2003.14 1968.79 33.56
2113 120.2485 2110.10 2043.06 34.45
2114 120.2985 2147.68 2072.18 34.67
2115 120.3485 2205.77 2044.95 35.34
2116 120.3985 2027.12 1962.69 33.68
2117 120.4485 1916.87 1838.80 32.65
2118 120.4985 1798.24 1691.03 31.98
2119 120.5485 1640.94 1536.94 30.49
2120 120.5985 1480.78 1390.88 28.82
2121 120.6485 1355.25 1262.80 27.64
2122 120.6985 1237.64 1158.34 26.39
2123 120.7485 1172.07 1078.36 25.66
2124 120.7985 1105.85 1027.36 24.89
2125 120.8485 1058.73 1005.38 24.32
2126 120.8985 1096.53 1013.26 24.86
2127 120.9485 1086.78 1052.18 24.60
2128 120.9985 1179.10 1121.90 25.65
2129 121.0485 1317.80 1219.16 27.14
2130 121.0985 1475.65 1336.12 28.70
2131 121.1485 1599.09 1459.27 29.77
2132 121.1985 1718.42 1570.19 30.89
2133 121.2485 1787.35 1649.42 31.78
2134 121.3023 1771.55 1685.09 28.96
2135 121.3523 1761.95 1672.17 28.86
2136 121.4023 1621.11 1625.00 27.51
2137 121.4523 1561.32 1556.84 27.06
2138 121.5023 1444.90 1479.39 25.77
2139 121.5523 1464.33 1400.25 26.03
2140 121.6023 1415.05 1322.69 25.62
2141 121.6523 1305.14 1247.42 24.58
2142 121.7023 1249.79 1175.03 24.10
2143 121.7523 1087.52 1106.80 22.49
2144 121.8023 1085.14 1044.31 22.45
2145 121.8523 1038.03 989.03 21.94
2146 121.9024 957.84 941.70 21.06
2147 121.9523 911.40 902.78 20.54
2148 122.0023 893.29 871.55 20.31
2149 122.0524 876.90 850.89 20.16
2150 122.1023 822.17 832.40 19.53
2151 122.1523 822.12 818.46 19.51
2152 122.2023 808.61 808.09 19.31
2153 122.2523 822.56 800.44 19.44
2154 122.3023 773.54 794.82 18.92
2155 122.3523 775.43 790.70 18.89
2156 122.4023 766.67 787.66 18.84
2157 122.4523 759.50 785.39 18.69
2158 122.5023 799.47 783.66 19.21
2159 122.5569 723.46 782.21 18.50
2160 122.6069 793.00 784.08 19.37
2161 122.6569 775.10 783.29 19.05
2162 122.7069 796.19 782.63 19.26
2163 122.7569 764.19 782.10 18.92
2164 122.8069 787.61 784.31 19.24
2165 122.8570 783.08 784.01 19.20
2166 122.9070 725.84 783.78 18.46
2167 122.9570 772.31 783.63 19.09
2168 123.0070 751.63 783.53 18.84
2169 123.0570 791.50 783.48 19.33
2170 123.1070 775.04 783.49 19.07
2171 123.1570 758.08 783.55 18.90
2172 123.2070 757.12 783.65 18.89
2173 123.2570 764.97 783.79 19.01
2174 123.3070 752.74 783.98 18.86
2175 123.3570 728.45 784.20 18.51
2176 123.4070 744.08 784.47 18.70
2177 123.4570 745.37 784.77 18.73
2178 123.5070 732.78 785.11 18.60
2179 123.5570 729.12 785.49 18.53
2180 123.6070 742.66 785.91 18.72
2181 123.6570 742.72 786.36 18.74
2182 123.7070 739.86 786.86 18.64
2183 123.7570 733.84 787.39 18.57
2184 123.7999 710.21 787.88 17.83
2185 123.8499 752.72 788.50 18.38
2186 123.9000 721.84 789.16 17.85
2187 123.9499 756.38 789.86 18.25
2188 123.9999 737.48 790.61 18.08
2189 124.0500 741.22 791.42 18.14
2190 124.1000 771.77 792.27 18.54
2191 124.1500 745.99 793.10 18.23
2192 124.2000 719.52 794.07 17.90
2193 124.2500 743.87 795.11 18.22
2194 124.3000 756.25 796.22 18.35
2195 124.3500 753.98 797.41 18.32
2196 124.4000 744.23 798.35 18.20
2197 124.4500 741.26 799.71 18.18
2198 124.5000 739.43 801.15 18.15
2199 124.5500 739.80 802.70 18.19
2200 124.6000 752.28 804.35 18.30
2201 124.6500 750.65 805.38 18.28
2202 124.7000 752.93 807.30 18.30
2203 124.7500 768.76 809.36 18.51
2204 124.8000 752.63 811.58 18.32
2205 124.8500 767.87 813.97 18.49
2206 124.9000 776.14 816.56 18.59
2207 124.9500 756.84 819.35 18.32
2208 125.0000 739.60 822.39 18.14
2209 125.0366 789.83 824.78 19.65
2210 125.0865 752.33 828.29 19.16
2211 125.1366 774.25 832.15 19.29
2212 125.1865 777.15 836.36 19.31
2213 125.2366 789.93 841.02 19.58
2214 125.2866 773.28 846.15 19.45
2215 125.3366 752.79 851.84 19.10
2216 125.3866 818.89 858.18 19.93
2217 125.4366 786.12 865.27 19.61
2218 125.4866 820.50 873.25 20.04
2219 125.5366 793.58 882.27 19.64
2220 125.5866 806.95 891.92 19.80
2221 125.6366 830.79 903.79 20.17
2222 125.6866 824.37 917.69 20.09
2223 125.7366 858.13 934.41 20.47
2224 125.7867 816.89 955.45 20.00
2225 125.8366 939.42 983.35 21.44
2226 125.8866 930.93 1023.12 21.27
2227 125.9366 955.19 1083.05 21.58
2228 125.9866 1030.98 1176.04 22.43
2229 126.0366 1163.65 1320.97 23.84
2230 126.0866 1328.45 1540.80 25.44
2231 126.1366 1643.42 1859.68 28.38
2232 126.1866 2159.59 2296.40 32.54
2233 126.2366 2756.86 2855.14 36.85
2234 126.2817 3341.81 3449.00 40.23
2235 126.3317 4097.94 4163.08 44.72
2236 126.3817 4809.34 4859.08 48.40
2237 126.4317 5180.71 5434.85 50.29
2238 126.4817 5310.18 5797.70 50.78
2239 126.5317 5346.03 5907.80 50.86
2240 126.5817 5048.48 5797.53 49.31
2241 126.6317 4608.76 5548.48 47.14
2242 126.6817 4512.11 5261.07 46.52
2243 126.7317 4377.80 5031.93 45.92
2244 126.7817 4381.57 4938.32 45.96
2245 126.8317 4811.37 5027.12 48.21
2246 126.8818 5317.78 5308.86 50.84
2247 126.9317 5918.93 5750.92 53.61
2248 126.9818 6817.30 6286.96 57.93
2249 127.0318 7195.90 6816.60 59.55
2250 127.0817 7916.33 7248.33 62.60
2251 127.1317 8043.93 7518.32 63.11
2252 127.1818 7986.87 7585.60 62.85
2253 127.2317 7616.70 7428.04 61.32
2254 127.2818 6983.35 7050.02 58.51
2255 127.3317 6401.64 6496.53 55.98
2256 127.3817 5587.43 5830.70 52.16
2257 127.4317 4910.68 5121.18 48.84
2258 127.4817 4183.84 4424.64 44.96
2259 127.5319 3746.58 3777.98 55.45
2260 127.5720 3279.08 3315.43 39.45
2261 127.6220 2824.73 2813.84 36.70
2262 127.6720 2446.52 2395.87 33.75
2263 127.7220 2144.04 2055.32 31.62
2264 127.7720 1875.15 1781.48 29.25
2265 127.8220 1605.99 1564.54 26.98
2266 127.8720 1432.82 1394.98 25.50
2267 127.9220 1277.21 1264.05 23.95
2268 127.9720 1165.22 1164.47 22.89
2269 128.0220 1086.00 1089.75 22.07
2270 128.0720 1041.23 1034.28 21.46
2271 128.1220 981.93 993.36 20.88
2272 128.1721 890.15 963.03 19.78
2273 128.2220 916.38 940.43 20.16
2274 128.2721 852.81 923.10 19.40
2275 128.3220 854.94 910.90 19.43
2276 128.3720 891.84 899.96 19.90
2277 128.4220 902.55 890.85 19.97
2278 128.4720 883.93 883.21 19.76
2279 128.5220 805.31 876.51 18.85
2280 128.5720 854.95 870.65 19.43
2281 128.6220 849.06 865.47 19.39
2282 128.6720 832.17 860.88 19.12
2283 128.7220 866.89 856.79 19.55
2284 128.7621 835.39 853.84 28.39
2285 128.8242 853.69 849.75 20.65
2286 128.8742 873.21 846.84 20.90
2287 128.9243 850.21 844.23 20.38
2288 128.9742 888.12 841.91 20.85
2289 129.0242 800.85 839.82 19.85
2290 129.0742 867.47 837.95 20.67
2291 129.1243 856.40 836.29 20.59
2292 129.1743 855.90 834.81 20.55
2293 129.2243 860.72 833.50 20.62
2294 129.2743 843.63 832.35 20.42
2295 129.3243 844.71 831.35 20.43
2296 129.3743 837.49 830.49 20.30
2297 129.4243 842.04 829.76 20.41
2298 129.4743 829.15 829.16 20.24
2299 129.5243 888.03 828.67 20.95
2300 129.5743 846.50 828.31 20.53
2301 129.6243 810.83 828.06 20.00
2302 129.6743 843.62 827.93 20.41
2303 129.7243 847.67 827.91 20.45
2304 129.7743 837.98 828.01 20.38
2305 129.8243 881.66 828.23 20.89
2306 129.8743 835.67 828.58 20.35
2307 129.9243 870.66 829.05 20.78
2308 129.9743 833.72 829.67 20.24
2309 130.0243 852.73 830.44 20.54
2310 130.0798 833.56 831.49 20.79
2311 130.1298 859.02 832.64 21.12
2312 130.1798 836.70 833.99 20.65
2313 130.2298 896.67 835.60 21.40
2314 130.2798 877.81 837.52 21.21
2315 130.3298 865.68 839.84 21.07
2316 130.3798 851.95 842.73 20.96
2317 130.4298 879.18 846.48 21.29
2318 130.4798 940.81 851.60 21.99
2319 130.5298 858.93 858.92 21.06
2320 130.5798 918.15 869.70 21.73
2321 130.6298 943.81 885.68 22.02
2322 130.6799 920.96 909.07 21.77
2323 130.7298 980.88 941.95 22.49
2324 130.7798 1032.58 986.34 23.07
2325 130.8299 1077.92 1043.05 23.58
2326 130.8798 1090.15 1106.66 23.71
2327 130.9298 1178.57 1182.32 24.66
2328 130.9798 1252.77 1259.85 25.40
2329 131.0298 1263.18 1331.48 25.54
2330 131.0798 1292.45 1390.21 25.87
2331 131.1298 1325.45 1433.71 26.17
2332 131.1798 1305.15 1466.27 25.96
2333 131.2298 1368.07 1496.76 26.56
2334 131.2858 1444.10 1540.71 22.45
2335 131.3354 1538.71 1596.61 28.66
2336 131.3855 1626.94 1672.34 29.30
2337 131.4355 1819.95 1764.12 31.07
2338 131.4854 1918.10 1858.78 31.68
2339 131.5355 2043.83 1947.42 32.76
2340 131.5855 2118.47 2008.07 33.40
2341 131.6355 2085.56 2027.47 33.10
2342 131.6855 2129.80 1999.10 33.50
2343 131.7355 2036.73 1934.40 32.77
2344 131.7855 2005.95 1842.03 32.52
2345 131.8355 1875.09 1735.73 31.42
2346 131.8855 1725.89 1628.92 30.09
2347 131.9355 1583.49 1532.91 28.87
2348 131.9856 1537.42 1456.46 28.44
2349 132.0355 1558.85 1406.21 28.67
2350 132.0856 1482.23 1385.70 27.94
2351 132.1355 1617.77 1396.57 29.16
2352 132.1855 1646.73 1437.48 29.42
2353 132.2355 1777.45 1503.69 30.58
2354 132.2855 1868.13 1586.45 31.36
2355 132.3355 1992.80 1672.80 32.42
2356 132.3855 2052.59 1747.05 32.89
2357 132.4355 2117.95 1795.38 33.41
2358 132.4855 2097.62 1812.13 33.24
2359 132.5355 2062.92 1802.25 32.99
2360 132.5568 2150.27 1792.93 49.32
2361 132.6023 1937.10 1770.37 32.44
2362 132.6523 1926.78 1754.17 32.17
2363 132.7023 1865.68 1762.51 31.66
2364 132.7523 1951.48 1807.79 32.22
2365 132.8023 2064.02 1896.23 33.24
2366 132.8523 2173.37 2025.93 34.11
2367 132.9023 2377.30 2185.55 35.71
2368 132.9523 2538.93 2353.75 36.89
2369 133.0024 2664.84 2501.80 37.84
2370 133.0523 2767.74 2599.44 38.53
2371 133.1024 2812.26 2628.33 38.79
2372 133.1524 2743.94 2585.64 38.40
2373 133.2024 2646.01 2482.44 37.67
2374 133.2524 2448.04 2336.28 36.25
2375 133.3024 2186.11 2166.16 34.25
2376 133.3523 2046.69 1989.62 33.08
2377 133.4023 1878.29 1818.83 31.76
2378 133.4524 1767.64 1662.30 30.76
2379 133.5023 1601.50 1524.77 29.34
2380 133.5524 1488.83 1405.99 28.30
2381 133.6023 1377.82 1305.61 27.20
2382 133.6523 1337.15 1220.77 26.83
2383 133.7023 1286.65 1149.43 26.25
2384 133.7523 1202.36 1089.51 25.39
2385 133.8145 1079.05 1028.54 24.29
2386 133.8645 1060.96 988.91 24.09
2387 133.9145 1002.67 956.58 23.16
2388 133.9645 981.20 930.66 22.92
2389 134.0145 959.71 911.10 22.69
2390 134.0645 921.42 895.33 22.23
2391 134.1145 901.47 883.31 21.98
2392 134.1646 862.52 874.23 21.45
2393 134.2146 879.45 867.41 21.67
2394 134.2646 874.89 863.28 21.74
2395 134.3146 906.68 859.34 22.06
2396 134.3646 862.61 856.27 21.49
2397 134.4146 868.63 853.82 21.53
2398 134.4646 874.22 851.81 21.62
2399 134.5146 845.77 850.13 21.33
2400 134.5646 791.81 848.72 20.65
2401 134.6146 864.93 847.50 21.52
2402 134.6646 851.48 846.46 21.39
2403 134.7146 873.73 845.56 21.63
2404 134.7646 865.20 844.78 21.56
2405 134.8146 872.25 844.11 21.66
2406 134.8645 835.33 843.53 21.17
2407 134.9146 878.20 843.03 21.74
2408 134.9646 862.36 842.62 21.51
2409 135.0146 811.84 842.26 20.75
2410 135.0644 842.51 841.97 20.72
2411 135.1144 868.43 841.73 21.06
2412 135.1644 863.59 841.55 20.75
2413 135.2144 837.64 841.41 20.41
2414 135.2644 834.92 841.30 20.47
2415 135.3144 897.30 841.24 21.25
2416 135.3645 846.39 841.21 20.66
2417 135.4145 857.03 841.21 20.76
2418 135.4645 858.42 841.24 20.81
2419 135.5145 861.54 841.30 20.86
2420 135.5645 840.72 841.39 20.60
2421 135.6145 832.86 841.50 20.45
2422 135.6645 830.32 841.17 20.49
2423 135.7145 863.40 841.34 20.89
2424 135.7645 844.48 841.52 20.62
2425 135.8145 836.44 841.72 20.59
2426 135.8645 869.39 841.94 20.89
2427 135.9145 850.83 842.18 20.67
2428 135.9645 863.56 842.38 20.89
2429 136.0145 835.44 842.65 20.49
2430 136.0645 869.66 842.93 20.92
2431 136.1145 894.88 843.23 21.23
2432 136.1645 851.04 843.55 20.76
2433 136.2145 886.35 843.07 21.13
2434 136.2645 830.11 843.43 20.39
2435 136.3071 852.05 843.57 20.37
2436 136.3571 873.95 843.96 20.65
2437 136.4071 860.28 844.36 20.29
2438 136.4571 835.00 844.77 19.93
2439 136.5071 895.19 845.19 20.77
2440 136.5571 885.65 845.63 20.67
2441 136.6071 879.42 846.08 20.60
2442 136.6571 864.05 846.55 20.43
2443 136.7071 809.76 847.03 19.79
2444 136.7571 848.12 847.52 20.28
2445 136.8071 842.49 848.03 20.19
2446 136.8571 899.38 848.55 20.80
2447 136.9072 859.41 849.09 20.39
2448 136.9571 855.05 849.64 20.34
2449 137.0071 841.29 850.22 20.16
2450 137.0572 869.58 850.81 20.53
2451 137.1071 867.79 850.63 20.46
2452 137.1571 860.00 851.28 20.39
2453 137.2071 859.95 851.95 20.38
2454 137.2571 862.26 852.65 20.41
2455 137.3071 881.14 853.37 20.66
2456 137.3571 832.84 854.12 20.06
2457 137.4071 850.50 854.90 20.28
2458 137.4571 846.62 855.71 20.20
2459 137.5147 885.36 856.68 16.79
2460 137.5688 876.76 857.65 20.51
2461 137.6188 869.13 858.59 20.20
2462 137.6688 835.16 859.57 19.84
2463 137.7188 865.30 860.60 20.18
2464 137.7688 854.40 860.20 20.08
2465 137.8188 907.32 861.38 20.75
2466 137.8688 883.11 862.64 20.44
2467 137.9188 864.35 863.86 20.26
2468 137.9688 860.68 865.28 20.20
2469 138.0188 868.36 866.90 20.31
2470 138.0688 879.53 868.53 20.43
2471 138.1188 860.63 870.29 20.17
2472 138.1688 852.50 872.19 20.09
2473 138.2189 873.61 874.25 20.35
2474 138.2688 857.87 876.49 20.17
2475 138.3189 866.76 878.96 20.31
2476 138.3688 849.27 881.66 20.06
2477 138.4188 851.82 884.68 20.10
2478 138.4688 885.25 888.06 20.49
2479 138.5188 844.67 891.91 20.03
2480 138.5688 857.40 896.40 20.15
2481 138.6188 845.15 901.77 19.98
2482 138.6688 890.75 908.43 20.56
2483 138.7188 881.62 917.04 20.41
2484 138.7661 873.26 927.87 17.01
2485 138.8204 957.95 945.13 21.87
2486 138.8704 978.37 967.67 21.95
2487 138.9204 1011.29 999.36 22.32
2488 138.9704 1018.82 1042.97 22.41
2489 139.0204 1111.57 1102.34 23.42
2490 139.0704 1174.69 1179.71 24.13
2491 139.1204 1270.95 1277.94 25.15
2492 139.1704 1439.70 1398.29 26.81
2493 139.2204 1576.91 1539.94 28.10
2494 139.2704 1771.77 1699.64 29.69
2495 139.3205 1929.53 1871.23 30.95
2496 139.3705 2097.72 2044.87 32.33
2497 139.4205 2235.01 2210.74 33.40
2498 139.4704 2415.14 2359.98 34.80
2499 139.5205 2550.64 2488.10 35.77
2500 139.5704 2538.86 2590.23 35.64
2501 139.6204 2572.00 2662.66 35.83
2502 139.6705 2637.29 2699.39 36.35
2503 139.7204 2546.37 2694.97 35.76
2504 139.7705 2461.60 2647.97 35.08
2505 139.8204 2344.50 2562.83 34.35
2506 139.8704 2246.78 2447.57 33.63
2507 139.9204 2101.47 2312.47 32.39
2508 139.9704 1984.48 2167.35 31.60
2509 140.0108 1848.82 2048.67 44.75
2510 140.0570 1740.74 1916.38 36.48
2511 140.1070 1589.66 1781.64 34.79
2512 140.1570 1567.80 1658.53 34.42
2513 140.2070 1442.10 1548.53 32.92
2514 140.2570 1345.03 1451.68 32.16
2515 140.3070 1301.89 1367.20 31.67
2516 140.3571 1233.30 1293.79 30.78
2517 140.4070 1127.68 1230.49 29.20
2518 140.4570 1155.94 1175.63 30.15
2519 140.5071 1057.87 1128.15 28.19
2520 140.5570 1066.05 1087.35 28.77
2521 140.6071 1042.04 1052.17 28.23
2522 140.6571 990.29 1022.15 27.58
2523 140.7070 964.93 996.74 26.79
2524 140.7571 961.92 975.30 27.03
2525 140.8070 891.59 957.57 25.58
2526 140.8570 902.62 943.00 26.23
2527 140.9071 942.12 931.18 26.59
2528 140.9570 906.74 921.78 26.09
2529 141.0071 877.26 914.29 25.63
2530 141.0570 903.54 908.41 26.21
2531 141.1070 905.50 903.77 26.26
2532 141.1570 869.17 900.10 25.44
2533 141.2070 892.41 897.17 25.86
2534 141.2532 910.21 894.97 41.20
2535 141.2977 867.74 893.20 25.59
2536 141.3477 858.80 891.52 25.36
2537 141.3977 901.18 890.09 25.68
2538 141.4477 850.49 888.87 24.96
2539 141.4977 919.46 887.79 26.57
2540 141.5477 919.92 886.85 26.05
2541 141.5977 881.70 886.01 25.64
2542 141.6477 899.24 885.27 25.37
2543 141.6977 849.76 884.60 24.81
2544 141.7477 877.05 884.01 25.41
2545 141.7977 909.21 883.48 26.13
2546 141.8477 865.92 883.00 25.73
2547 141.8978 867.78 882.58 25.29
2548 141.9478 863.67 882.20 25.42
2549 141.9978 853.92 881.86 25.12
2550 142.0478 866.09 881.56 25.29
2551 142.0977 873.63 881.29 25.47
2552 142.1477 850.35 881.05 25.09
2553 142.1978 860.94 880.85 25.09
2554 142.2477 905.92 880.67 26.23
2555 142.2978 859.25 880.51 25.48
2556 142.3477 877.47 880.38 25.24
2557 142.3977 891.85 880.27 25.53
2558 142.4477 868.48 880.18 24.98
2559 142.4977 867.74 880.11 25.75
2560 142.5475 875.35 880.06 21.02
2561 142.5975 888.25 880.03 21.17
2562 142.6476 862.48 880.02 20.69
2563 142.6975 888.52 880.02 21.00
2564 142.7475 861.63 880.04 20.71
2565 142.7975 853.46 880.08 20.65
2566 142.8476 838.50 880.14 20.47
2567 142.8976 868.07 880.22 20.81
2568 142.9476 900.55 880.32 21.20
2569 142.9976 868.00 880.44 20.85
2570 143.0476 894.64 880.58 21.16
2571 143.0976 882.33 880.74 20.97
2572 143.1476 875.75 880.94 20.95
2573 143.1976 873.85 881.16 20.91
2574 143.2476 857.40 881.43 20.71
2575 143.2976 857.43 881.74 20.74
2576 143.3476 841.69 882.12 20.53
2577 143.3976 840.35 882.58 20.51
2578 143.4476 871.43 883.17 20.87
2579 143.4976 867.40 883.94 20.86
2580 143.5476 860.78 884.96 20.77
2581 143.5976 897.46 886.34 21.21
2582 143.6476 910.81 888.21 21.39
2583 143.6976 862.85 890.72 20.77
2584 143.7476 897.63 894.07 21.26
2585 143.8012 894.88 898.81 20.70
2586 143.8512 898.48 904.49 20.79
2587 143.9013 914.35 911.53 20.71
2588 143.9512 924.61 919.92 20.87
2589 144.0012 885.25 929.65 20.42
2590 144.0513 893.60 940.48 20.59
2591 144.1013 912.88 951.99 20.80
2592 144.1513 949.59 963.62 21.21
2593 144.2013 900.56 974.58 20.65
2594 144.2513 919.58 984.05 20.89
2595 144.3013 929.61 991.25 20.98
2596 144.3513 926.72 995.68 20.95
2597 144.4013 905.20 997.20 20.74
2598 144.4513 926.24 996.05 21.02
2599 144.5013 875.09 992.73 20.39
2600 144.5513 910.02 987.84 20.83
2601 144.6013 921.02 982.05 20.92
2602 144.6513 948.59 976.03 21.19
2603 144.7013 925.71 970.43 20.98
2604 144.7513 945.33 965.86 21.21
2605 144.8013 914.30 961.97 20.84
2606 144.8513 946.33 961.31 21.19
2607 144.9013 915.96 963.58 20.85
2608 144.9513 951.45 969.49 21.21
2609 145.0013 970.50 979.85 21.47
2610 145.0634 959.39 1000.11 21.56
2611 145.1134 986.44 1023.29 21.80
2612 145.1634 989.41 1054.00 21.67
2613 145.2134 1096.13 1090.99 22.85
2614 145.2634 1129.97 1134.82 23.17
2615 145.3134 1177.20 1184.67 23.71
2616 145.3634 1279.43 1239.03 24.76
2617 145.4134 1305.55 1295.62 24.97
2618 145.4634 1381.85 1351.39 25.73
2619 145.5134 1407.63 1402.84 25.98
2620 145.5634 1447.76 1458.53 26.33
2621 145.6134 1497.10 1490.69 26.72
2622 145.6635 1548.01 1509.25 27.25
2623 145.7134 1535.37 1513.33 27.16
2624 145.7634 1549.09 1503.67 27.28
2625 145.8135 1545.26 1482.04 27.27
2626 145.8634 1502.89 1451.07 26.87
2627 145.9134 1462.62 1413.35 26.51
2628 145.9634 1456.13 1371.53 26.43
2629 146.0134 1377.13 1327.92 25.76
2630 146.0634 1355.54 1284.44 25.55
2631 146.1134 1268.17 1242.54 24.71
2632 146.1634 1227.94 1203.22 24.33
2633 146.2134 1219.24 1167.03 24.25
2634 146.2634 1175.27 1134.20 23.79
2635 146.2953 1114.41 1115.00 31.77
2636 146.3362 1094.66 1092.32 22.79
2637 146.3862 1043.06 1067.31 22.07
2638 146.4362 1048.94 1045.01 22.19
2639 146.4862 1050.93 1025.09 22.06
2640 146.5362 999.88 1007.26 21.60
2641 146.5863 992.44 991.21 21.51
2642 146.6362 969.74 976.83 21.25
2643 146.6863 923.47 963.82 20.81
2644 146.7363 978.00 952.13 21.32
2645 146.7863 903.32 941.62 20.46
2646 146.8363 907.58 932.22 20.54
2647 146.8863 945.76 923.87 20.94
2648 146.9363 888.64 916.49 20.31
2649 146.9863 918.64 910.03 20.65
2650 147.0363 914.07 904.43 20.65
2651 147.0863 899.62 899.61 20.45
2652 147.1363 861.06 895.49 20.01
2653 147.1863 885.67 892.00 20.26
2654 147.2363 889.93 889.04 20.32
2655 147.2863 868.76 886.53 20.08
2656 147.3363 887.59 884.40 20.34
2657 147.3862 902.57 882.58 20.48
2658 147.4363 907.73 881.00 20.51
2659 147.4863 906.04 879.61 20.51
2660 147.5363 904.20 878.38 20.47
2661 147.5585 869.95 877.87 28.39
2662 147.6019 895.13 876.93 20.06
2663 147.6519 868.05 875.93 19.61
2664 147.7019 937.08 874.99 20.39
2665 147.7519 860.02 874.10 19.51
2666 147.8019 941.47 873.25 20.46
2667 147.8519 873.47 872.42 19.74
2668 147.9019 890.22 871.63 19.88
2669 147.9520 916.01 870.85 20.18
2670 148.0020 889.51 870.09 19.92
2671 148.0520 891.15 869.34 19.91
2672 148.1020 880.02 868.60 19.76
2673 148.1520 914.75 867.88 20.19
2674 148.2020 851.82 867.16 19.46
2675 148.2520 903.21 866.45 20.05
2676 148.3020 895.95 865.75 20.00
2677 148.3520 870.42 865.05 19.68
2678 148.4019 900.14 864.36 19.99
2679 148.4520 888.66 863.67 19.88
2680 148.5020 904.98 862.98 20.08
2681 148.5520 923.79 862.30 20.30
2682 148.6019 899.75 861.62 20.02
2683 148.6520 874.91 860.93 19.74
2684 148.7020 865.76 860.25 19.61
2685 148.7520 920.70 859.57 20.24
2686 148.8018 846.10 858.89 20.12
2687 148.8518 898.78 858.21 20.76
2688 148.9018 869.17 857.53 20.22
2689 148.9518 881.89 856.84 20.36
2690 149.0018 873.36 856.16 20.31
2691 149.0518 895.41 855.47 20.62
2692 149.1018 870.27 854.78 20.35
2693 149.1518 914.02 854.10 20.83
2694 149.2018 893.89 853.41 20.65
2695 149.2518 902.75 852.71 20.81
2696 149.3018 887.20 852.02 20.57
2697 149.3519 896.94 851.32 20.61
2698 149.4019 898.32 850.62 20.69
2699 149.4518 853.71 849.92 20.15
2700 149.5018 887.21 849.22 20.57
2701 149.5519 877.24 848.51 20.49
2702 149.6018 876.05 847.80 20.40
2703 149.6518 852.86 847.09 20.16
2704 149.7019 864.54 846.38 20.30
2705 149.7518 890.20 845.67 20.63
2706 149.8019 825.39 844.95 19.81
2707 149.8518 871.21 844.23 20.36
2708 149.9018 851.16 843.52 20.11
2709 149.9518 865.27 842.79 20.24
2710 150.0018 856.30 842.07 20.19
2711 150.0382 824.91 841.54 19.50
2712 150.0882 856.08 840.82 19.93
2713 150.1383 860.22 840.09 19.80
2714 150.1882 856.25 839.36 19.79
2715 150.2382 811.12 838.63 19.24
2716 150.2883 839.74 837.90 19.64
2717 150.3383 838.48 837.17 19.64
2718 150.3883 830.20 836.44 19.55
2719 150.4383 870.94 835.71 19.96
2720 150.4883 835.07 834.97 19.63
2721 150.5383 843.73 834.24 19.65
2722 150.5883 815.04 833.40 19.29
2723 150.6383 830.31 832.67 19.55
2724 150.6883 839.80 831.94 19.64
2725 150.7383 837.12 831.21 19.63
2726 150.7883 862.86 830.48 20.00
2727 150.8383 822.60 829.75 19.48
2728 150.8883 796.50 829.03 19.12
2729 150.9383 859.97 828.30 19.91
2730 150.9883 835.01 827.58 19.57
2731 151.0383 843.99 826.86 19.70
2732 151.0883 801.25 826.15 19.25
2733 151.1383 810.16 825.43 19.35
2734 151.1883 786.32 824.73 18.97
2735 151.2383 803.94 824.02 19.24
2736 151.2911 796.91 823.28 18.97
2737 151.3411 789.48 822.58 18.81
2738 151.3911 795.94 821.89 18.73
2739 151.4411 798.45 821.21 18.73
2740 151.4911 821.36 820.53 19.07
2741 151.5411 797.09 819.85 18.84
2742 151.5911 819.84 819.19 19.08
2743 151.6411 791.67 818.53 18.75
2744 151.6911 804.22 817.88 18.90
2745 151.7411 850.51 817.23 19.51
2746 151.7911 784.02 816.60 18.69
2747 151.8411 832.21 815.98 19.25
2748 151.8911 791.57 815.36 18.80
2749 151.9411 858.55 814.76 19.57
2750 151.9911 805.36 814.17 18.94
2751 152.0412 804.59 813.59 18.93
2752 152.0911 805.69 812.89 18.95
2753 152.1411 813.45 812.34 18.99
2754 152.1911 794.95 811.81 18.81
2755 152.2411 772.98 810.80 18.57
2756 152.2911 828.43 810.31 19.22
2757 152.3411 832.35 809.83 19.26
2758 152.3911 810.30 809.37 19.01
2759 152.4411 791.84 808.93 18.76
2760 152.4911 819.31 808.51 19.09
2761 152.5452 808.87 808.08 19.51
2762 152.5952 799.53 807.71 19.43
2763 152.6452 808.28 807.36 19.33
2764 152.6952 806.32 807.04 19.27
2765 152.7452 808.79 806.74 19.42
2766 152.7952 802.24 806.47 19.32
2767 152.8452 854.67 806.23 20.01
2768 152.8952 817.99 806.03 19.58
2769 152.9452 829.80 805.86 19.69
2770 152.9953 821.93 805.72 19.59
2771 153.0452 769.44 805.62 18.94
2772 153.0952 788.46 805.56 19.18
2773 153.1453 849.47 805.54 19.92
2774 153.1953 828.53 805.57 19.70
2775 153.2453 822.45 805.64 19.65
2776 153.2953 798.01 805.76 19.33
2777 153.3452 839.31 805.94 19.81
2778 153.3952 789.73 806.17 19.20
2779 153.4453 816.67 806.46 19.55
2780 153.4952 783.36 806.81 19.17
2781 153.5453 819.54 807.23 19.57
2782 153.5952 777.70 807.71 19.06
2783 153.6452 818.80 808.28 19.58
2784 153.6952 869.97 808.92 20.13
2785 153.7452 830.55 809.65 19.68
2786 153.7922 827.27 810.42 19.61
2787 153.8422 859.11 811.33 20.07
2788 153.8923 811.39 812.34 19.34
2789 153.9422 811.26 813.46 19.28
2790 153.9922 812.30 814.71 19.41
2791 154.0423 840.15 816.08 19.69
2792 154.0923 844.63 817.59 19.78
2793 154.1423 828.30 819.26 19.56
2794 154.1923 852.57 821.09 19.87
2795 154.2423 831.10 823.11 19.59
2796 154.2923 826.33 825.34 19.61
2797 154.3423 851.18 827.81 19.86
2798 154.3923 852.99 830.55 19.89
2799 154.4423 846.60 833.61 19.84
2800 154.4923 859.78 837.06 19.99
2801 154.5423 807.10 840.96 19.38
2802 154.5923 843.32 845.41 19.77
2803 154.6423 834.66 850.55 19.74
2804 154.6923 845.90 856.53 19.80
2805 154.7423 870.25 863.54 20.09
2806 154.7923 874.33 871.83 20.16
2807 154.8423 856.41 881.72 19.98
2808 154.8923 899.36 893.56 20.44
2809 154.9423 849.90 907.79 19.82
2810 154.9923 910.94 924.94 20.55
2811 155.0475 905.90 947.98 20.35
2812 155.0975 946.51 973.31 20.85
2813 155.1475 964.24 1003.65 20.83
2814 155.1975 968.46 1039.82 20.83
2815 155.2475 1034.64 1082.71 21.55
2816 155.2975 1096.45 1133.18 22.18
2817 155.3475 1144.99 1192.11 22.72
2818 155.3975 1228.89 1260.31 23.50
2819 155.4475 1331.86 1338.47 24.49
2820 155.4975 1451.71 1427.26 25.58
2821 155.5475 1558.92 1527.00 26.47
2822 155.5975 1720.56 1637.88 27.78
2823 155.6476 1892.01 1759.97 29.16
2824 155.6976 1934.37 1892.36 29.48
2825 155.7475 2171.48 2034.18 31.27
2826 155.7976 2256.78 2185.08 31.92
2827 155.8475 2403.48 2342.36 32.88
2828 155.8975 2504.58 2504.82 33.58
2829 155.9476 2664.36 2670.18 34.67
2830 155.9975 2721.47 2834.78 35.04
2831 156.0475 2832.64 2996.71 35.80
2832 156.0975 3051.08 3152.55 37.16
2833 156.1475 3148.03 3299.47 37.83
2834 156.1975 3219.78 3435.02 38.23
2835 156.2475 3327.23 3557.39 38.88
2836 156.2992 3346.11 3669.07 39.01
2837 156.3492 3440.40 3762.73 39.58
2838 156.3992 3478.07 3843.36 39.61
2839 156.4492 3634.83 3912.72 40.48
2840 156.4992 3680.89 3973.30 40.60
2841 156.5492 3768.82 4027.94 40.98
2842 156.5993 3987.80 4079.75 42.17
2843 156.6493 4091.49 4131.48 42.85
2844 156.6993 4244.83 4186.04 43.53
2845 156.7493 4410.72 4245.79 44.48
2846 156.7993 4458.60 4312.65 44.67
2847 156.8493 4663.04 4387.88 45.75
2848 156.8993 4757.70 4472.08 46.17
2849 156.9493 4840.23 4565.17 46.56
2850 156.9993 4933.93 4666.13 47.02
2851 157.0493 4986.14 4773.26 47.35
2852 157.0993 5100.49 4883.97 47.81
2853 157.1493 5128.05 4995.04 47.94
2854 157.1993 5265.83 5102.62 48.65
2855 157.2493 5247.68 5202.46 48.56
2856 157.2993 5293.65 5290.17 48.80
2857 157.3493 5387.08 5361.47 49.24
2858 157.3993 5440.50 5412.60 49.53
2859 157.4493 5403.15 5440.60 49.39
2860 157.4993 5299.64 5443.44 48.87
2861 157.5402 5326.26 5426.37 52.48
2862 157.5902 5303.42 5381.80 52.40
2863 157.6402 5299.77 5311.96 52.12
2864 157.6902 5092.56 5218.46 51.16
2865 157.7402 5078.59 5103.47 50.90
2866 157.7902 4971.22 4969.65 50.10
2867 157.8402 4874.17 4819.83 49.64
2868 157.8902 4742.46 4657.02 49.15
2869 157.9402 4540.37 4484.18 47.90
2870 157.9903 4397.56 4303.97 47.17
2871 158.0403 4265.94 4119.83 46.45
2872 158.0903 4070.12 3933.96 45.38
2873 158.1403 3817.42 3748.76 44.00
2874 158.1903 3602.22 3566.27 42.76
2875 158.2403 3481.00 3388.06 41.99
2876 158.2903 3279.43 3215.68 40.86
2877 158.3403 3130.85 3050.14 39.92
2878 158.3902 2898.38 2892.66 38.36
2879 158.4403 2777.98 2742.77 37.57
2880 158.4903 2567.45 2601.63 36.11
2881 158.5403 2492.59 2469.13 35.61
2882 158.5902 2387.32 2345.35 34.90
2883 158.6402 2144.21 2229.60 32.98
2884 158.6902 2076.18 2121.75 32.46
2885 158.7402 1991.85 2021.48 31.74
2886 158.7904 1891.29 1927.91 31.83
2887 158.8404 1806.71 1841.35 31.12
2888 158.8904 1774.00 1760.93 30.57
2889 158.9404 1666.40 1686.18 29.65
2890 158.9904 1637.58 1616.65 29.34
2891 159.0404 1540.11 1551.95 28.33
2892 159.0904 1426.41 1491.70 27.34
2893 159.1404 1369.38 1435.55 26.74
2894 159.1904 1314.42 1383.20 26.20
2895 159.2404 1272.73 1334.39 25.85
2896 159.2904 1240.41 1288.90 25.46
2897 159.3404 1184.29 1246.51 24.74
2898 159.3904 1170.93 1207.05 24.62
2899 159.4404 1087.17 1170.36 23.77
2900 159.4904 1094.25 1136.32 23.83
2901 159.5405 1042.84 1104.75 23.23
2902 159.5904 1009.92 1075.71 22.82
2903 159.6404 1011.49 1048.92 22.87
2904 159.6904 1019.82 1024.33 22.97
2905 159.7404 978.09 1001.87 22.43
2906 159.7904 932.78 981.42 21.91
2907 159.8404 882.06 962.89 21.34
2908 159.8904 963.25 946.16 22.33
2909 159.9404 960.65 931.14 22.24
2910 159.9904 936.66 917.71 21.98
2911 160.0625 919.64 900.92 21.19
2912 160.1125 921.12 890.91 21.18
2913 160.1625 902.32 882.11 20.72
2914 160.2125 910.31 874.41 20.81
2915 160.2625 885.67 867.72 20.58
2916 160.3125 886.72 861.92 20.60
2917 160.3625 878.08 856.93 20.53
2918 160.4125 911.47 852.66 20.91
2919 160.4625 872.54 849.02 20.47
2920 160.5125 882.76 845.94 20.68
2921 160.5625 850.47 843.36 20.17
2922 160.6125 893.89 841.21 20.71
2923 160.6626 862.27 839.43 20.34
2924 160.7125 873.38 837.98 20.47
2925 160.7625 860.30 836.81 20.34
2926 160.8126 837.24 835.88 20.04
2927 160.8625 831.58 835.17 19.96
2928 160.9125 848.05 834.64 20.19
2929 160.9625 870.17 834.27 20.40
2930 161.0125 850.08 834.04 20.22
2931 161.0625 817.26 833.92 19.78
2932 161.1125 866.79 833.91 20.42
2933 161.1625 841.06 833.99 20.13
2934 161.2125 852.36 834.15 20.21
2935 161.2625 863.58 834.38 20.35
2936 161.3210 870.46 834.73 20.67
2937 161.3710 856.00 835.08 20.48
2938 161.4210 877.13 835.47 20.53
2939 161.4710 873.58 835.91 20.52
2940 161.5210 824.61 836.38 19.98
2941 161.5710 813.72 836.87 19.83
2942 161.6210 866.49 837.40 20.53
2943 161.6710 833.12 837.94 20.12
2944 161.7210 843.24 838.49 20.22
2945 161.7711 837.13 839.06 20.19
2946 161.8210 880.49 839.63 20.73
2947 161.8711 862.72 840.21 20.48
2948 161.9211 845.32 840.79 20.27
2949 161.9711 849.67 841.36 20.35
2950 162.0211 841.48 841.92 20.24
2951 162.0711 854.44 842.48 20.45
2952 162.1210 809.84 843.01 19.81
2953 162.1710 825.73 843.53 19.99
2954 162.2211 831.34 844.03 20.10
2955 162.2710 847.94 844.49 20.32
2956 162.3211 844.75 844.93 20.26
2957 162.3710 831.63 845.33 20.10
2958 162.4211 839.93 845.70 20.20
2959 162.4710 859.69 846.02 20.40
2960 162.5210 833.94 846.30 20.14
2961 162.5657 823.37 846.51 28.47
2962 162.6157 845.88 846.69 28.83
2963 162.6657 798.69 846.82 28.03
2964 162.7157 802.53 846.88 28.01
2965 162.7657 830.97 846.88 28.65
2966 162.8157 855.83 846.82 28.98
2967 162.8657 879.31 846.67 29.43
2968 162.9158 855.65 846.46 29.04
2969 162.9658 854.47 846.16 29.00
2970 163.0157 748.57 845.77 27.14
2971 163.0657 811.73 845.30 28.32
2972 163.1157 842.79 844.73 28.75
2973 163.1657 797.68 844.07 27.99
2974 163.2157 842.52 843.29 28.83
2975 163.2657 826.67 842.42 28.54
2976 163.3158 824.61 841.42 28.53
2977 163.3657 829.82 840.32 28.53
2978 163.4157 861.66 839.09 29.12
2979 163.4658 846.28 837.73 28.87
2980 163.5157 857.51 836.24 29.05
2981 163.5658 845.70 834.61 28.86
2982 163.6157 830.37 832.85 28.56
2983 163.6658 824.62 830.93 28.54
2984 163.7157 853.44 828.87 28.93
2985 163.7657 793.60 826.64 27.94
loop_
_pd_proc_info_excluded_regions
'from 2.747 to 14.757'
loop_
_refln_index_h
_refln_index_k
_refln_index_l
_refln_F_squared_calc
_refln_F_squared_meas
_refln_F_squared_sigma
_refln_observed_status
_refln_d_spacing
0 0 2 837.62 804.62 16.66 o 4.066084
1 1 0 734.16 704.48 14.59 o 4.049073
1 1 2 707.96 670.42 13.82 o 2.869122
2 0 0 930.32 881.31 18.17 o 2.863127
2 1 1 235.53 224.52 5.07 o 2.442610
2 0 2 2943.13 2944.22 59.77 o 2.340994
0 0 4 12232.95 12430.62 250.69 o 2.033042
2 2 0 11035.84 11189.08 225.62 o 2.024536
2 1 3 211.31 210.30 5.60 o 1.861527
1 1 4 631.39 675.02 14.10 o 1.816879
2 2 2 507.33 541.31 11.30 o 1.812314
3 1 0 926.35 987.98 20.64 o 1.810800
2 0 4 886.51 1022.66 21.07 o 1.657647
3 1 2 1056.59 1219.20 25.11 o 1.654179
3 2 1 141.22 100.38 4.32 o 1.558730
2 2 4 9338.85 9454.22 190.77 o 1.434561
4 0 0 8402.68 8549.88 172.52 o 1.431563
2 1 5 170.09 171.91 3.82 o 1.372937
3 2 3 126.70 129.26 2.86 o 1.370308
4 1 1 589.27 603.15 13.33 o 1.369000
0 0 6 718.96 742.34 16.07 o 1.355361
3 1 4 794.63 820.70 17.73 o 1.352202
4 0 2 297.56 306.91 6.64 o 1.350317
3 3 0 210.39 217.12 4.70 o 1.349691
1 1 6 771.86 560.84 12.24 o 1.285268
3 3 2 366.03 266.15 5.77 o 1.280964
4 2 0 1422.92 1035.81 22.48 o 1.280429
4 1 3 528.68 461.40 11.04 o 1.236036
2 0 6 1617.43 1643.61 34.25 o 1.225033
4 2 2 1004.24 1034.70 21.55 o 1.221305
4 0 4 7154.26 6966.67 142.62 o 1.170497
3 2 5 101.99 115.93 2.99 o 1.136295
4 3 1 353.34 405.09 10.27 o 1.134060
2 2 6 462.96 300.89 8.63 o 1.126271
3 3 4 194.60 124.97 3.57 o 1.124456
5 1 0 332.08 209.10 6.14 o 1.123011
3 1 6 1037.37 979.34 20.17 o 1.085076
4 2 4 1307.63 1240.80 25.52 o 1.083453
5 1 2 597.51 568.72 11.72 o 1.082483
2 1 7 122.83 99.46 2.34 o 1.057964
4 1 5 425.55 344.46 7.95 o 1.056159
4 3 3 317.00 257.29 5.96 o 1.054961
5 2 1 45.48 36.97 0.86 o 1.054363
0 0 8 7429.05 7092.93 155.85 o 1.016521
4 4 0 5222.78 5736.39 122.32 o 1.012268
5 2 3 40.80 39.10 2.62 o 0.989901
1 1 8 427.46 378.45 9.34 o 0.985926
4 0 6 294.19 268.72 6.04 o 0.984222
5 1 4 300.33 269.89 6.03 o 0.983011
4 4 2 132.19 118.94 2.67 o 0.982286
5 3 0 1152.95 1037.39 23.31 o 0.982044
2 0 8 770.41 1065.31 22.96 o 0.957937
3 3 6 447.18 561.99 11.66 o 0.956374
5 3 2 1687.38 2022.99 41.91 o 0.954597
6 0 0 1734.02 2077.07 43.05 o 0.954376
3 2 7 73.65 71.56 1.74 o 0.937654
4 3 5 255.16 255.91 5.90 o 0.936397
6 1 1 600.76 612.35 14.06 o 0.935145
4 2 6 497.14 545.31 13.10 o 0.930764
6 0 2 239.00 257.19 6.37 o 0.929125
2 2 8 5772.31 5460.24 110.96 o 0.908440
4 4 4 4499.78 4406.94 89.35 o 0.906157
6 2 0 4033.12 4111.39 83.53 o 0.905400
4 1 7 307.31 305.67 7.00 o 0.891086
5 2 5 32.84 33.60 0.75 o 0.890007
6 1 3 538.99 573.66 12.70 o 0.889290
5 4 1 113.79 125.50 2.76 o 0.888932
3 1 8 529.24 615.81 13.21 o 0.886404
5 3 4 991.00 1096.02 23.58 o 0.884284
6 2 2 72.57 79.99 1.73 o 0.883756
5 1 6 632.39 591.99 12.71 o 0.864743
6 0 4 1566.28 1459.42 31.39 o 0.863921
2 1 9 79.58 62.96 2.93 o 0.852089
5 4 3 102.09 106.55 2.67 o 0.849267
6 3 1 360.22 376.26 9.44 o 0.848955
4 0 8 4506.83 4488.47 90.46 o 0.828824
6 2 4 3500.72 3496.76 70.48 o 0.827089
