#------------------------------------------------------------------------------
#$Date: 2017-05-25 04:58:01 +0300 (Thu, 25 May 2017) $
#$Revision: 196958 $
#$URL: file:///home/coder/svn-repositories/cod/cif/7/04/31/7043102.cif $
#------------------------------------------------------------------------------
#
# This file is available in the Crystallography Open Database (COD),
# http://www.crystallography.net/
#
# All data on this site have been placed in the public domain by the
# contributors.
#
data_7043102
loop_
_publ_author_name
'Whittle, Thomas A.'
'Brant, William R.'
'Hester, James R.'
'Gu, Qinfen'
'Schmid, Siegbert'
_publ_section_title
;
 Tailoring phase transition temperatures in perovskites via A-site vacancy
 generation
;
_journal_name_full               'Dalton Trans.'
_journal_paper_doi               10.1039/C7DT00352H
_journal_year                    2017
_chemical_formula_sum            'Nb0.4 O3 Sr0.8 Ti0.48 Zr0.12'
_chemical_formula_weight         189.2
_chemical_name_systematic        ' ?'
_space_group_IT_number           221
_symmetry_cell_setting           cubic
_symmetry_Int_Tables_number      221
_symmetry_space_group_name_Hall  '-P 4 2 3'
_symmetry_space_group_name_H-M   'P m -3 m'
_cell_angle_alpha                90
_cell_angle_beta                 90
_cell_angle_gamma                90
_cell_formula_units_Z            1
_cell_length_a                   3.956674(4)
_cell_length_b                   3.956674(4)
_cell_length_c                   3.956674(4)
_cell_measurement_temperature    293
_cell_volume                     61.94280(11)
_diffrn_ambient_temperature      293
_diffrn_radiation_probe          x-ray
_diffrn_radiation_wavelength     0.82538
_exptl_absorpt_coefficient_mu    9.463
_exptl_crystal_density_diffrn    5.0716
_exptl_crystal_F_000             86
_pd_instr_location               ' ?'
_pd_meas_2theta_range_max        82.005
_pd_meas_2theta_range_min        2.184
_pd_meas_number_of_points        21234
_pd_proc_2theta_range_max        82.005
_pd_proc_2theta_range_min        3.841
_pd_proc_ls_background_function  '12 Legendre polynoms'
_pd_proc_ls_pref_orient_corr     none
_pd_proc_ls_profile_function     Pseudo-Voigt
_pd_proc_ls_prof_R_factor        0.0454
_pd_proc_ls_prof_wR_expected     0.0221
_pd_proc_ls_prof_wR_factor       0.0562
_refine_ls_goodness_of_fit_all   2.54
_refine_ls_number_constraints    0
_refine_ls_number_parameters     21
_refine_ls_number_restraints     0
_refine_ls_R_factor_all          0.0129
_refine_ls_R_factor_gt           0.0128
_refine_ls_shift/su_max          0.0473
_refine_ls_shift/su_mean         0.0027
_refine_ls_weighting_scheme      sigma
_refine_ls_wR_factor_all         0.0228
_refine_ls_wR_factor_gt          0.0228
_cod_data_source_file            c7dt00352h7.cif
_cod_data_source_block           I
_cod_depositor_comments
;
The following automatic conversions were performed:

'_diffrn_radiation_probe' value 'X-ray' changed to 'x-ray' according
to
/home/data/users/saulius/crontab/automatic-downloads/rss-feeds/RSC/lib/dictionaries/cif_core.dic
dictionary named 'cif_core.dic' version 2.4.2 from 2011-04-26.

Automatic conversion script
Id: cif_fix_values 4973 2017-02-22 13:04:09Z antanas 
;
_cod_original_cell_volume        61.94279(10)
_cod_original_sg_symbol_Hall     '-P 4;2;3'
_cod_database_code               7043102
loop_
_space_group_symop_id
_space_group_symop_operation_xyz
1 x,y,z
2 -x,-y,z
3 -x,y,-z
4 x,-y,-z
5 z,x,y
6 z,-x,-y
7 -z,-x,y
8 -z,x,-y
9 y,z,x
10 -y,z,-x
11 y,-z,-x
12 -y,-z,x
13 y,x,-z
14 -y,-x,-z
15 y,-x,z
16 -y,x,z
17 x,z,-y
18 -x,z,y
19 -x,-z,-y
20 x,-z,y
21 z,y,-x
22 z,-y,x
23 -z,y,x
24 -z,-y,-x
25 -x,-y,-z
26 x,y,-z
27 x,-y,z
28 -x,y,z
29 -z,-x,-y
30 -z,x,y
31 z,x,-y
32 z,-x,y
33 -y,-z,-x
34 y,-z,x
35 -y,z,x
36 y,z,-x
37 -y,-x,z
38 y,x,z
39 -y,x,-z
40 y,-x,-z
41 -x,-z,y
42 x,-z,-y
43 x,z,y
44 -x,z,-y
45 -z,-y,x
46 -z,y,-x
47 z,-y,-x
48 z,y,x
loop_
_atom_site_label
_atom_site_type_symbol
_atom_site_fract_x
_atom_site_fract_y
_atom_site_fract_z
_atom_site_adp_type
_atom_site_U_iso_or_equiv
_atom_site_site_symmetry_multiplicity
_atom_site_occupancy
_atom_site_calc_flag
Sr Sr 0.5 0.5 0.5 Uiso 0.00970(8) 1 0.8 d
Ti Ti 0 0 0 Uiso 0.00933(8) 1 0.48 d
Zr Zr 0 0 0 Uiso 0.00933(8) 1 0.12 d
Nb Nb 0 0 0 Uiso 0.00933(8) 1 0.4 d
O O 0 0 0.5 Uiso 0.0147(2) 3 1 d
loop_
_atom_type_symbol
_atom_type_scat_dispersion_real
_atom_type_scat_dispersion_imag
_atom_type_scat_source
Nb -1.2589 0.8323 'International Tables Vol C tables 4.2.6.8 and 6.1.1.1'
O 0.0160 0.0087 'International Tables Vol C tables 4.2.6.8 and 6.1.1.1'
Sr -2.2526 0.6045 'International Tables Vol C tables 4.2.6.8 and 6.1.1.1'
Ti 0.3250 0.5982 'International Tables Vol C tables 4.2.6.8 and 6.1.1.1'
Zr -1.4610 0.7509 'International Tables Vol C tables 4.2.6.8 and 6.1.1.1'
loop_
_geom_angle_atom_site_label_1
_geom_angle_atom_site_label_2
_geom_angle_atom_site_label_3
_geom_angle_site_symmetry_1
_geom_angle_site_symmetry_3
_geom_angle
Sr Sr Sr 1_455 1_545 90
Sr Sr Sr 1_455 1_554 90
Sr Sr Sr 1_455 1_556 90
Sr Sr Sr 1_455 1_565 90
Sr Sr Sr 1_455 1_655 180.0(5)
Sr Sr Ti 1_455 . 54.74
Sr Sr Ti 1_455 1_556 54.74
Sr Sr Ti 1_455 1_565 54.74
Sr Sr Ti 1_455 1_566 54.74
Sr Sr Ti 1_455 1_655 125.26
Sr Sr Ti 1_455 1_656 125.26
Sr Sr Ti 1_455 1_665 125.26
Sr Sr Ti 1_455 1_666 125.26
Sr Sr Zr 1_455 . 54.74
Sr Sr Zr 1_455 1_556 54.74
Sr Sr Zr 1_455 1_565 54.74
Sr Sr Zr 1_455 1_566 54.74
Sr Sr Zr 1_455 1_655 125.26
Sr Sr Zr 1_455 1_656 125.26
Sr Sr Zr 1_455 1_665 125.26
Sr Sr Zr 1_455 1_666 125.26
Sr Sr Nb 1_455 . 54.74
Sr Sr Nb 1_455 1_556 54.74
Sr Sr Nb 1_455 1_565 54.74
Sr Sr Nb 1_455 1_566 54.74
Sr Sr Nb 1_455 1_655 125.26
Sr Sr Nb 1_455 1_656 125.26
Sr Sr Nb 1_455 1_665 125.26
Sr Sr Nb 1_455 1_666 125.26
Sr Sr Sr 1_545 1_554 90
Sr Sr Sr 1_545 1_556 90
Sr Sr Sr 1_545 1_565 180.0(5)
Sr Sr Sr 1_545 1_655 90
Sr Sr Ti 1_545 . 54.74
Sr Sr Ti 1_545 1_556 54.74
Sr Sr Ti 1_545 1_565 125.26
Sr Sr Ti 1_545 1_566 125.26
Sr Sr Ti 1_545 1_655 54.74
Sr Sr Ti 1_545 1_656 54.74
Sr Sr Ti 1_545 1_665 125.26
Sr Sr Ti 1_545 1_666 125.26
Sr Sr Zr 1_545 . 54.74
Sr Sr Zr 1_545 1_556 54.74
Sr Sr Zr 1_545 1_565 125.26
Sr Sr Zr 1_545 1_566 125.26
Sr Sr Zr 1_545 1_655 54.74
Sr Sr Zr 1_545 1_656 54.74
Sr Sr Zr 1_545 1_665 125.26
Sr Sr Zr 1_545 1_666 125.26
Sr Sr Nb 1_545 . 54.74
Sr Sr Nb 1_545 1_556 54.74
Sr Sr Nb 1_545 1_565 125.26
Sr Sr Nb 1_545 1_566 125.26
Sr Sr Nb 1_545 1_655 54.74
Sr Sr Nb 1_545 1_656 54.74
Sr Sr Nb 1_545 1_665 125.26
Sr Sr Nb 1_545 1_666 125.26
Sr Sr Sr 1_554 1_556 180.0(5)
Sr Sr Sr 1_554 1_565 90
Sr Sr Sr 1_554 1_655 90
Sr Sr Ti 1_554 . 54.74
Sr Sr Ti 1_554 1_556 125.26
Sr Sr Ti 1_554 1_565 54.74
Sr Sr Ti 1_554 1_566 125.26
Sr Sr Ti 1_554 1_655 54.74
Sr Sr Ti 1_554 1_656 125.26
Sr Sr Ti 1_554 1_665 54.74
Sr Sr Ti 1_554 1_666 125.26
Sr Sr Zr 1_554 . 54.74
Sr Sr Zr 1_554 1_556 125.26
Sr Sr Zr 1_554 1_565 54.74
Sr Sr Zr 1_554 1_566 125.26
Sr Sr Zr 1_554 1_655 54.74
Sr Sr Zr 1_554 1_656 125.26
Sr Sr Zr 1_554 1_665 54.74
Sr Sr Zr 1_554 1_666 125.26
Sr Sr Nb 1_554 . 54.74
Sr Sr Nb 1_554 1_556 125.26
Sr Sr Nb 1_554 1_565 54.74
Sr Sr Nb 1_554 1_566 125.26
Sr Sr Nb 1_554 1_655 54.74
Sr Sr Nb 1_554 1_656 125.26
Sr Sr Nb 1_554 1_665 54.74
Sr Sr Nb 1_554 1_666 125.26
Sr Sr Sr 1_556 1_565 90
Sr Sr Sr 1_556 1_655 90
Sr Sr Ti 1_556 . 125.26
Sr Sr Ti 1_556 1_556 54.74
Sr Sr Ti 1_556 1_565 125.26
Sr Sr Ti 1_556 1_566 54.74
Sr Sr Ti 1_556 1_655 125.26
Sr Sr Ti 1_556 1_656 54.74
Sr Sr Ti 1_556 1_665 125.26
Sr Sr Ti 1_556 1_666 54.74
Sr Sr Zr 1_556 . 125.26
Sr Sr Zr 1_556 1_556 54.74
Sr Sr Zr 1_556 1_565 125.26
Sr Sr Zr 1_556 1_566 54.74
Sr Sr Zr 1_556 1_655 125.26
Sr Sr Zr 1_556 1_656 54.74
Sr Sr Zr 1_556 1_665 125.26
Sr Sr Zr 1_556 1_666 54.74
Sr Sr Nb 1_556 . 125.26
Sr Sr Nb 1_556 1_556 54.74
Sr Sr Nb 1_556 1_565 125.26
Sr Sr Nb 1_556 1_566 54.74
Sr Sr Nb 1_556 1_655 125.26
Sr Sr Nb 1_556 1_656 54.74
Sr Sr Nb 1_556 1_665 125.26
Sr Sr Nb 1_556 1_666 54.74
Sr Sr Sr 1_565 1_655 90
Sr Sr Ti 1_565 . 125.26
Sr Sr Ti 1_565 1_556 125.26
Sr Sr Ti 1_565 1_565 54.74
Sr Sr Ti 1_565 1_566 54.74
Sr Sr Ti 1_565 1_655 125.26
Sr Sr Ti 1_565 1_656 125.26
Sr Sr Ti 1_565 1_665 54.74
Sr Sr Ti 1_565 1_666 54.74
Sr Sr Zr 1_565 . 125.26
Sr Sr Zr 1_565 1_556 125.26
Sr Sr Zr 1_565 1_565 54.74
Sr Sr Zr 1_565 1_566 54.74
Sr Sr Zr 1_565 1_655 125.26
Sr Sr Zr 1_565 1_656 125.26
Sr Sr Zr 1_565 1_665 54.74
Sr Sr Zr 1_565 1_666 54.74
Sr Sr Nb 1_565 . 125.26
Sr Sr Nb 1_565 1_556 125.26
Sr Sr Nb 1_565 1_565 54.74
Sr Sr Nb 1_565 1_566 54.74
Sr Sr Nb 1_565 1_655 125.26
Sr Sr Nb 1_565 1_656 125.26
Sr Sr Nb 1_565 1_665 54.74
Sr Sr Nb 1_565 1_666 54.74
Sr Sr Ti 1_655 . 125.26
Sr Sr Ti 1_655 1_556 125.26
Sr Sr Ti 1_655 1_565 125.26
Sr Sr Ti 1_655 1_566 125.26
Sr Sr Ti 1_655 1_655 54.74
Sr Sr Ti 1_655 1_656 54.74
Sr Sr Ti 1_655 1_665 54.74
Sr Sr Ti 1_655 1_666 54.74
Sr Sr Zr 1_655 . 125.26
Sr Sr Zr 1_655 1_556 125.26
Sr Sr Zr 1_655 1_565 125.26
Sr Sr Zr 1_655 1_566 125.26
Sr Sr Zr 1_655 1_655 54.74
Sr Sr Zr 1_655 1_656 54.74
Sr Sr Zr 1_655 1_665 54.74
Sr Sr Zr 1_655 1_666 54.74
Sr Sr Nb 1_655 . 125.26
Sr Sr Nb 1_655 1_556 125.26
Sr Sr Nb 1_655 1_565 125.26
Sr Sr Nb 1_655 1_566 125.26
Sr Sr Nb 1_655 1_655 54.74
Sr Sr Nb 1_655 1_656 54.74
Sr Sr Nb 1_655 1_665 54.74
Sr Sr Nb 1_655 1_666 54.74
Ti Sr Ti . 1_556 70.53
Ti Sr Ti . 1_565 70.53
Ti Sr Ti . 1_566 109.47
Ti Sr Ti . 1_655 70.53
Ti Sr Ti . 1_656 109.47
Ti Sr Ti . 1_665 109.47
Ti Sr Ti . 1_666 180.0(5)
Ti Sr Zr . . 0.0(5)
Ti Sr Zr . 1_556 70.53
Ti Sr Zr . 1_565 70.53
Ti Sr Zr . 1_566 109.47
Ti Sr Zr . 1_655 70.53
Ti Sr Zr . 1_656 109.47
Ti Sr Zr . 1_665 109.47
Ti Sr Zr . 1_666 180.0(5)
Ti Sr Nb . . 0.0(5)
Ti Sr Nb . 1_556 70.53
Ti Sr Nb . 1_565 70.53
Ti Sr Nb . 1_566 109.47
Ti Sr Nb . 1_655 70.53
Ti Sr Nb . 1_656 109.47
Ti Sr Nb . 1_665 109.47
Ti Sr Nb . 1_666 180.0(5)
Ti Sr Ti 1_556 1_565 109.47
Ti Sr Ti 1_556 1_566 70.53
Ti Sr Ti 1_556 1_655 109.47
Ti Sr Ti 1_556 1_656 70.53
Ti Sr Ti 1_556 1_665 180.0(5)
Ti Sr Ti 1_556 1_666 109.47
Ti Sr Zr 1_556 . 70.53
Ti Sr Zr 1_556 1_556 0.0(5)
Ti Sr Zr 1_556 1_565 109.47
Ti Sr Zr 1_556 1_566 70.53
Ti Sr Zr 1_556 1_655 109.47
Ti Sr Zr 1_556 1_656 70.53
Ti Sr Zr 1_556 1_665 180.0(5)
Ti Sr Zr 1_556 1_666 109.47
Ti Sr Nb 1_556 . 70.53
Ti Sr Nb 1_556 1_556 0.0(5)
Ti Sr Nb 1_556 1_565 109.47
Ti Sr Nb 1_556 1_566 70.53
Ti Sr Nb 1_556 1_655 109.47
Ti Sr Nb 1_556 1_656 70.53
Ti Sr Nb 1_556 1_665 180.0(5)
Ti Sr Nb 1_556 1_666 109.47
Ti Sr Ti 1_565 1_566 70.53
Ti Sr Ti 1_565 1_655 109.47
Ti Sr Ti 1_565 1_656 180.0(5)
Ti Sr Ti 1_565 1_665 70.53
Ti Sr Ti 1_565 1_666 109.47
Ti Sr Zr 1_565 . 70.53
Ti Sr Zr 1_565 1_556 109.47
Ti Sr Zr 1_565 1_565 0.0(5)
Ti Sr Zr 1_565 1_566 70.53
Ti Sr Zr 1_565 1_655 109.47
Ti Sr Zr 1_565 1_656 180.0(5)
Ti Sr Zr 1_565 1_665 70.53
Ti Sr Zr 1_565 1_666 109.47
Ti Sr Nb 1_565 . 70.53
Ti Sr Nb 1_565 1_556 109.47
Ti Sr Nb 1_565 1_565 0.0(5)
Ti Sr Nb 1_565 1_566 70.53
Ti Sr Nb 1_565 1_655 109.47
Ti Sr Nb 1_565 1_656 180.0(5)
Ti Sr Nb 1_565 1_665 70.53
Ti Sr Nb 1_565 1_666 109.47
Ti Sr Ti 1_566 1_655 180.0(5)
Ti Sr Ti 1_566 1_656 109.47
Ti Sr Ti 1_566 1_665 109.47
Ti Sr Ti 1_566 1_666 70.53
Ti Sr Zr 1_566 . 109.47
Ti Sr Zr 1_566 1_556 70.53
Ti Sr Zr 1_566 1_565 70.53
Ti Sr Zr 1_566 1_566 0.0(5)
Ti Sr Zr 1_566 1_655 180.0(5)
Ti Sr Zr 1_566 1_656 109.47
Ti Sr Zr 1_566 1_665 109.47
Ti Sr Zr 1_566 1_666 70.53
Ti Sr Nb 1_566 . 109.47
Ti Sr Nb 1_566 1_556 70.53
Ti Sr Nb 1_566 1_565 70.53
Ti Sr Nb 1_566 1_566 0.0(5)
Ti Sr Nb 1_566 1_655 180.0(5)
Ti Sr Nb 1_566 1_656 109.47
Ti Sr Nb 1_566 1_665 109.47
Ti Sr Nb 1_566 1_666 70.53
Ti Sr Ti 1_655 1_656 70.53
Ti Sr Ti 1_655 1_665 70.53
Ti Sr Ti 1_655 1_666 109.47
Ti Sr Zr 1_655 . 70.53
Ti Sr Zr 1_655 1_556 109.47
Ti Sr Zr 1_655 1_565 109.47
Ti Sr Zr 1_655 1_566 180.0(5)
Ti Sr Zr 1_655 1_655 0.0(5)
Ti Sr Zr 1_655 1_656 70.53
Ti Sr Zr 1_655 1_665 70.53
Ti Sr Zr 1_655 1_666 109.47
Ti Sr Nb 1_655 . 70.53
Ti Sr Nb 1_655 1_556 109.47
Ti Sr Nb 1_655 1_565 109.47
Ti Sr Nb 1_655 1_566 180.0(5)
Ti Sr Nb 1_655 1_655 0.0(5)
Ti Sr Nb 1_655 1_656 70.53
Ti Sr Nb 1_655 1_665 70.53
Ti Sr Nb 1_655 1_666 109.47
Ti Sr Ti 1_656 1_665 109.47
Ti Sr Ti 1_656 1_666 70.53
Ti Sr Zr 1_656 . 109.47
Ti Sr Zr 1_656 1_556 70.53
Ti Sr Zr 1_656 1_565 180.0(5)
Ti Sr Zr 1_656 1_566 109.47
Ti Sr Zr 1_656 1_655 70.53
Ti Sr Zr 1_656 1_656 0.0(5)
Ti Sr Zr 1_656 1_665 109.47
Ti Sr Zr 1_656 1_666 70.53
Ti Sr Nb 1_656 . 109.47
Ti Sr Nb 1_656 1_556 70.53
Ti Sr Nb 1_656 1_565 180.0(5)
Ti Sr Nb 1_656 1_566 109.47
Ti Sr Nb 1_656 1_655 70.53
Ti Sr Nb 1_656 1_656 0.0(5)
Ti Sr Nb 1_656 1_665 109.47
Ti Sr Nb 1_656 1_666 70.53
Ti Sr Ti 1_665 1_666 70.53
Ti Sr Zr 1_665 . 109.47
Ti Sr Zr 1_665 1_556 180.0(5)
Ti Sr Zr 1_665 1_565 70.53
Ti Sr Zr 1_665 1_566 109.47
Ti Sr Zr 1_665 1_655 70.53
Ti Sr Zr 1_665 1_656 109.47
Ti Sr Zr 1_665 1_665 0.0(5)
Ti Sr Zr 1_665 1_666 70.53
Ti Sr Nb 1_665 . 109.47
Ti Sr Nb 1_665 1_556 180.0(5)
Ti Sr Nb 1_665 1_565 70.53
Ti Sr Nb 1_665 1_566 109.47
Ti Sr Nb 1_665 1_655 70.53
Ti Sr Nb 1_665 1_656 109.47
Ti Sr Nb 1_665 1_665 0.0(5)
Ti Sr Nb 1_665 1_666 70.53
Ti Sr Zr 1_666 . 180.0(5)
Ti Sr Zr 1_666 1_556 109.47
Ti Sr Zr 1_666 1_565 109.47
Ti Sr Zr 1_666 1_566 70.53
Ti Sr Zr 1_666 1_655 109.47
Ti Sr Zr 1_666 1_656 70.53
Ti Sr Zr 1_666 1_665 70.53
Ti Sr Zr 1_666 1_666 0.0(5)
Ti Sr Nb 1_666 . 180.0(5)
Ti Sr Nb 1_666 1_556 109.47
Ti Sr Nb 1_666 1_565 109.47
Ti Sr Nb 1_666 1_566 70.53
Ti Sr Nb 1_666 1_655 109.47
Ti Sr Nb 1_666 1_656 70.53
Ti Sr Nb 1_666 1_665 70.53
Ti Sr Nb 1_666 1_666 0.0(5)
Zr Sr Zr . 1_556 70.53
Zr Sr Zr . 1_565 70.53
Zr Sr Zr . 1_566 109.47
Zr Sr Zr . 1_655 70.53
Zr Sr Zr . 1_656 109.47
Zr Sr Zr . 1_665 109.47
Zr Sr Zr . 1_666 180.0(5)
Zr Sr Nb . . 0.0(5)
Zr Sr Nb . 1_556 70.53
Zr Sr Nb . 1_565 70.53
Zr Sr Nb . 1_566 109.47
Zr Sr Nb . 1_655 70.53
Zr Sr Nb . 1_656 109.47
Zr Sr Nb . 1_665 109.47
Zr Sr Nb . 1_666 180.0(5)
Zr Sr Zr 1_556 1_565 109.47
Zr Sr Zr 1_556 1_566 70.53
Zr Sr Zr 1_556 1_655 109.47
Zr Sr Zr 1_556 1_656 70.53
Zr Sr Zr 1_556 1_665 180.0(5)
Zr Sr Zr 1_556 1_666 109.47
Zr Sr Nb 1_556 . 70.53
Zr Sr Nb 1_556 1_556 0.0(5)
Zr Sr Nb 1_556 1_565 109.47
Zr Sr Nb 1_556 1_566 70.53
Zr Sr Nb 1_556 1_655 109.47
Zr Sr Nb 1_556 1_656 70.53
Zr Sr Nb 1_556 1_665 180.0(5)
Zr Sr Nb 1_556 1_666 109.47
Zr Sr Zr 1_565 1_566 70.53
Zr Sr Zr 1_565 1_655 109.47
Zr Sr Zr 1_565 1_656 180.0(5)
Zr Sr Zr 1_565 1_665 70.53
Zr Sr Zr 1_565 1_666 109.47
Zr Sr Nb 1_565 . 70.53
Zr Sr Nb 1_565 1_556 109.47
Zr Sr Nb 1_565 1_565 0.0(5)
Zr Sr Nb 1_565 1_566 70.53
Zr Sr Nb 1_565 1_655 109.47
Zr Sr Nb 1_565 1_656 180.0(5)
Zr Sr Nb 1_565 1_665 70.53
Zr Sr Nb 1_565 1_666 109.47
Zr Sr Zr 1_566 1_655 180.0(5)
Zr Sr Zr 1_566 1_656 109.47
Zr Sr Zr 1_566 1_665 109.47
Zr Sr Zr 1_566 1_666 70.53
Zr Sr Nb 1_566 . 109.47
Zr Sr Nb 1_566 1_556 70.53
Zr Sr Nb 1_566 1_565 70.53
Zr Sr Nb 1_566 1_566 0.0(5)
Zr Sr Nb 1_566 1_655 180.0(5)
Zr Sr Nb 1_566 1_656 109.47
Zr Sr Nb 1_566 1_665 109.47
Zr Sr Nb 1_566 1_666 70.53
Zr Sr Zr 1_655 1_656 70.53
Zr Sr Zr 1_655 1_665 70.53
Zr Sr Zr 1_655 1_666 109.47
Zr Sr Nb 1_655 . 70.53
Zr Sr Nb 1_655 1_556 109.47
Zr Sr Nb 1_655 1_565 109.47
Zr Sr Nb 1_655 1_566 180.0(5)
Zr Sr Nb 1_655 1_655 0.0(5)
Zr Sr Nb 1_655 1_656 70.53
Zr Sr Nb 1_655 1_665 70.53
Zr Sr Nb 1_655 1_666 109.47
Zr Sr Zr 1_656 1_665 109.47
Zr Sr Zr 1_656 1_666 70.53
Zr Sr Nb 1_656 . 109.47
Zr Sr Nb 1_656 1_556 70.53
Zr Sr Nb 1_656 1_565 180.0(5)
Zr Sr Nb 1_656 1_566 109.47
Zr Sr Nb 1_656 1_655 70.53
Zr Sr Nb 1_656 1_656 0.0(5)
Zr Sr Nb 1_656 1_665 109.47
Zr Sr Nb 1_656 1_666 70.53
Zr Sr Zr 1_665 1_666 70.53
Zr Sr Nb 1_665 . 109.47
Zr Sr Nb 1_665 1_556 180.0(5)
Zr Sr Nb 1_665 1_565 70.53
Zr Sr Nb 1_665 1_566 109.47
Zr Sr Nb 1_665 1_655 70.53
Zr Sr Nb 1_665 1_656 109.47
Zr Sr Nb 1_665 1_665 0.0(5)
Zr Sr Nb 1_665 1_666 70.53
Zr Sr Nb 1_666 . 180.0(5)
Zr Sr Nb 1_666 1_556 109.47
Zr Sr Nb 1_666 1_565 109.47
Zr Sr Nb 1_666 1_566 70.53
Zr Sr Nb 1_666 1_655 109.47
Zr Sr Nb 1_666 1_656 70.53
Zr Sr Nb 1_666 1_665 70.53
Zr Sr Nb 1_666 1_666 0.0(5)
Nb Sr Nb . 1_556 70.53
Nb Sr Nb . 1_565 70.53
Nb Sr Nb . 1_566 109.47
Nb Sr Nb . 1_655 70.53
Nb Sr Nb . 1_656 109.47
Nb Sr Nb . 1_665 109.47
Nb Sr Nb . 1_666 180.0(5)
Nb Sr Nb 1_556 1_565 109.47
Nb Sr Nb 1_556 1_566 70.53
Nb Sr Nb 1_556 1_655 109.47
Nb Sr Nb 1_556 1_656 70.53
Nb Sr Nb 1_556 1_665 180.0(5)
Nb Sr Nb 1_556 1_666 109.47
Nb Sr Nb 1_565 1_566 70.53
Nb Sr Nb 1_565 1_655 109.47
Nb Sr Nb 1_565 1_656 180.0(5)
Nb Sr Nb 1_565 1_665 70.53
Nb Sr Nb 1_565 1_666 109.47
Nb Sr Nb 1_566 1_655 180.0(5)
Nb Sr Nb 1_566 1_656 109.47
Nb Sr Nb 1_566 1_665 109.47
Nb Sr Nb 1_566 1_666 70.53
Nb Sr Nb 1_655 1_656 70.53
Nb Sr Nb 1_655 1_665 70.53
Nb Sr Nb 1_655 1_666 109.47
Nb Sr Nb 1_656 1_665 109.47
Nb Sr Nb 1_656 1_666 70.53
Nb Sr Nb 1_665 1_666 70.53
Sr Ti Sr 1_444 1_445 70.53
Sr Ti Sr 1_444 1_454 70.53
Sr Ti Sr 1_444 1_455 109.47
Sr Ti Sr 1_444 1_544 70.53
Sr Ti Sr 1_444 1_545 109.47
Sr Ti Sr 1_444 1_554 109.47
Sr Ti Sr 1_444 . 180.0(5)
Sr Ti Zr 1_444 . 0
Sr Ti Nb 1_444 . 0
Sr Ti O 1_444 1_554 54.74
Sr Ti O 1_444 . 125.26
Sr Ti O 1_444 5_455 54.74
Sr Ti O 1_444 5_555 125.26
Sr Ti O 1_444 9_545 54.74
Sr Ti O 1_444 9_555 125.26
Sr Ti Sr 1_445 1_454 109.47
Sr Ti Sr 1_445 1_455 70.53
Sr Ti Sr 1_445 1_544 109.47
Sr Ti Sr 1_445 1_545 70.53
Sr Ti Sr 1_445 1_554 180.0(5)
Sr Ti Sr 1_445 . 109.47
Sr Ti Zr 1_445 . 0
Sr Ti Nb 1_445 . 0
Sr Ti O 1_445 1_554 125.26
Sr Ti O 1_445 . 54.74
Sr Ti O 1_445 5_455 54.74
Sr Ti O 1_445 5_555 125.26
Sr Ti O 1_445 9_545 54.74
Sr Ti O 1_445 9_555 125.26
Sr Ti Sr 1_454 1_455 70.53
Sr Ti Sr 1_454 1_544 109.47
Sr Ti Sr 1_454 1_545 180.0(5)
Sr Ti Sr 1_454 1_554 70.53
Sr Ti Sr 1_454 . 109.47
Sr Ti Zr 1_454 . 0
Sr Ti Nb 1_454 . 0
Sr Ti O 1_454 1_554 54.74
Sr Ti O 1_454 . 125.26
Sr Ti O 1_454 5_455 54.74
Sr Ti O 1_454 5_555 125.26
Sr Ti O 1_454 9_545 125.26
Sr Ti O 1_454 9_555 54.74
Sr Ti Sr 1_455 1_544 180.0(5)
Sr Ti Sr 1_455 1_545 109.47
Sr Ti Sr 1_455 1_554 109.47
Sr Ti Sr 1_455 . 70.53
Sr Ti Zr 1_455 . 0
Sr Ti Nb 1_455 . 0
Sr Ti O 1_455 1_554 125.26
Sr Ti O 1_455 . 54.74
Sr Ti O 1_455 5_455 54.74
Sr Ti O 1_455 5_555 125.26
Sr Ti O 1_455 9_545 125.26
Sr Ti O 1_455 9_555 54.74
Sr Ti Sr 1_544 1_545 70.53
Sr Ti Sr 1_544 1_554 70.53
Sr Ti Sr 1_544 . 109.47
Sr Ti Zr 1_544 . 0
Sr Ti Nb 1_544 . 0
Sr Ti O 1_544 1_554 54.74
Sr Ti O 1_544 . 125.26
Sr Ti O 1_544 5_455 125.26
Sr Ti O 1_544 5_555 54.74
Sr Ti O 1_544 9_545 54.74
Sr Ti O 1_544 9_555 125.26
Sr Ti Sr 1_545 1_554 109.47
Sr Ti Sr 1_545 . 70.53
Sr Ti Zr 1_545 . 0
Sr Ti Nb 1_545 . 0
Sr Ti O 1_545 1_554 125.26
Sr Ti O 1_545 . 54.74
Sr Ti O 1_545 5_455 125.26
Sr Ti O 1_545 5_555 54.74
Sr Ti O 1_545 9_545 54.74
Sr Ti O 1_545 9_555 125.26
Sr Ti Sr 1_554 . 70.53
Sr Ti Zr 1_554 . 0
Sr Ti Nb 1_554 . 0
Sr Ti O 1_554 1_554 54.74
Sr Ti O 1_554 . 125.26
Sr Ti O 1_554 5_455 125.26
Sr Ti O 1_554 5_555 54.74
Sr Ti O 1_554 9_545 125.26
Sr Ti O 1_554 9_555 54.74
Sr Ti Zr . . 0
Sr Ti Nb . . 0
Sr Ti O . 1_554 125.26
Sr Ti O . . 54.74
Sr Ti O . 5_455 125.26
Sr Ti O . 5_555 54.74
Sr Ti O . 9_545 125.26
Sr Ti O . 9_555 54.74
Zr Ti Nb . . 0
Zr Ti O . 1_554 0
Zr Ti O . . 0
Zr Ti O . 5_455 0
Zr Ti O . 5_555 0
Zr Ti O . 9_545 0
Zr Ti O . 9_555 0
Nb Ti O . 1_554 0
Nb Ti O . . 0
Nb Ti O . 5_455 0
Nb Ti O . 5_555 0
Nb Ti O . 9_545 0
Nb Ti O . 9_555 0
O Ti O 1_554 . 180.0(5)
O Ti O 1_554 5_455 90
O Ti O 1_554 5_555 90
O Ti O 1_554 9_545 90
O Ti O 1_554 9_555 90
O Ti O . 5_455 90
O Ti O . 5_555 90
O Ti O . 9_545 90
O Ti O . 9_555 90
O Ti O 5_455 5_555 180.0(5)
O Ti O 5_455 9_545 90
O Ti O 5_455 9_555 90
O Ti O 5_555 9_545 90
O Ti O 5_555 9_555 90
O Ti O 9_545 9_555 180.0(5)
Sr Zr Sr 1_444 1_445 70.53
Sr Zr Sr 1_444 1_454 70.53
Sr Zr Sr 1_444 1_455 109.47
Sr Zr Sr 1_444 1_544 70.53
Sr Zr Sr 1_444 1_545 109.47
Sr Zr Sr 1_444 1_554 109.47
Sr Zr Sr 1_444 . 180.0(5)
Sr Zr Ti 1_444 . 0
Sr Zr Nb 1_444 . 0
Sr Zr O 1_444 1_554 54.74
Sr Zr O 1_444 . 125.26
Sr Zr O 1_444 5_455 54.74
Sr Zr O 1_444 5_555 125.26
Sr Zr O 1_444 9_545 54.74
Sr Zr O 1_444 9_555 125.26
Sr Zr Sr 1_445 1_454 109.47
Sr Zr Sr 1_445 1_455 70.53
Sr Zr Sr 1_445 1_544 109.47
Sr Zr Sr 1_445 1_545 70.53
Sr Zr Sr 1_445 1_554 180.0(5)
Sr Zr Sr 1_445 . 109.47
Sr Zr Ti 1_445 . 0
Sr Zr Nb 1_445 . 0
Sr Zr O 1_445 1_554 125.26
Sr Zr O 1_445 . 54.74
Sr Zr O 1_445 5_455 54.74
Sr Zr O 1_445 5_555 125.26
Sr Zr O 1_445 9_545 54.74
Sr Zr O 1_445 9_555 125.26
Sr Zr Sr 1_454 1_455 70.53
Sr Zr Sr 1_454 1_544 109.47
Sr Zr Sr 1_454 1_545 180.0(5)
Sr Zr Sr 1_454 1_554 70.53
Sr Zr Sr 1_454 . 109.47
Sr Zr Ti 1_454 . 0
Sr Zr Nb 1_454 . 0
Sr Zr O 1_454 1_554 54.74
Sr Zr O 1_454 . 125.26
Sr Zr O 1_454 5_455 54.74
Sr Zr O 1_454 5_555 125.26
Sr Zr O 1_454 9_545 125.26
Sr Zr O 1_454 9_555 54.74
Sr Zr Sr 1_455 1_544 180.0(5)
Sr Zr Sr 1_455 1_545 109.47
Sr Zr Sr 1_455 1_554 109.47
Sr Zr Sr 1_455 . 70.53
Sr Zr Ti 1_455 . 0
Sr Zr Nb 1_455 . 0
Sr Zr O 1_455 1_554 125.26
Sr Zr O 1_455 . 54.74
Sr Zr O 1_455 5_455 54.74
Sr Zr O 1_455 5_555 125.26
Sr Zr O 1_455 9_545 125.26
Sr Zr O 1_455 9_555 54.74
Sr Zr Sr 1_544 1_545 70.53
Sr Zr Sr 1_544 1_554 70.53
Sr Zr Sr 1_544 . 109.47
Sr Zr Ti 1_544 . 0
Sr Zr Nb 1_544 . 0
Sr Zr O 1_544 1_554 54.74
Sr Zr O 1_544 . 125.26
Sr Zr O 1_544 5_455 125.26
Sr Zr O 1_544 5_555 54.74
Sr Zr O 1_544 9_545 54.74
Sr Zr O 1_544 9_555 125.26
Sr Zr Sr 1_545 1_554 109.47
Sr Zr Sr 1_545 . 70.53
Sr Zr Ti 1_545 . 0
Sr Zr Nb 1_545 . 0
Sr Zr O 1_545 1_554 125.26
Sr Zr O 1_545 . 54.74
Sr Zr O 1_545 5_455 125.26
Sr Zr O 1_545 5_555 54.74
Sr Zr O 1_545 9_545 54.74
Sr Zr O 1_545 9_555 125.26
Sr Zr Sr 1_554 . 70.53
Sr Zr Ti 1_554 . 0
Sr Zr Nb 1_554 . 0
Sr Zr O 1_554 1_554 54.74
Sr Zr O 1_554 . 125.26
Sr Zr O 1_554 5_455 125.26
Sr Zr O 1_554 5_555 54.74
Sr Zr O 1_554 9_545 125.26
Sr Zr O 1_554 9_555 54.74
Sr Zr Ti . . 0
Sr Zr Nb . . 0
Sr Zr O . 1_554 125.26
Sr Zr O . . 54.74
Sr Zr O . 5_455 125.26
Sr Zr O . 5_555 54.74
Sr Zr O . 9_545 125.26
Sr Zr O . 9_555 54.74
Ti Zr Nb . . 0
Ti Zr O . 1_554 0
Ti Zr O . . 0
Ti Zr O . 5_455 0
Ti Zr O . 5_555 0
Ti Zr O . 9_545 0
Ti Zr O . 9_555 0
Nb Zr O . 1_554 0
Nb Zr O . . 0
Nb Zr O . 5_455 0
Nb Zr O . 5_555 0
Nb Zr O . 9_545 0
Nb Zr O . 9_555 0
O Zr O 1_554 . 180.0(5)
O Zr O 1_554 5_455 90
O Zr O 1_554 5_555 90
O Zr O 1_554 9_545 90
O Zr O 1_554 9_555 90
O Zr O . 5_455 90
O Zr O . 5_555 90
O Zr O . 9_545 90
O Zr O . 9_555 90
O Zr O 5_455 5_555 180.0(5)
O Zr O 5_455 9_545 90
O Zr O 5_455 9_555 90
O Zr O 5_555 9_545 90
O Zr O 5_555 9_555 90
O Zr O 9_545 9_555 180.0(5)
Sr Nb Sr 1_444 1_445 70.53
Sr Nb Sr 1_444 1_454 70.53
Sr Nb Sr 1_444 1_455 109.47
Sr Nb Sr 1_444 1_544 70.53
Sr Nb Sr 1_444 1_545 109.47
Sr Nb Sr 1_444 1_554 109.47
Sr Nb Sr 1_444 . 180.0(5)
Sr Nb Ti 1_444 . 0
Sr Nb Zr 1_444 . 0
Sr Nb O 1_444 1_554 54.74
Sr Nb O 1_444 . 125.26
Sr Nb O 1_444 5_455 54.74
Sr Nb O 1_444 5_555 125.26
Sr Nb O 1_444 9_545 54.74
Sr Nb O 1_444 9_555 125.26
Sr Nb Sr 1_445 1_454 109.47
Sr Nb Sr 1_445 1_455 70.53
Sr Nb Sr 1_445 1_544 109.47
Sr Nb Sr 1_445 1_545 70.53
Sr Nb Sr 1_445 1_554 180.0(5)
Sr Nb Sr 1_445 . 109.47
Sr Nb Ti 1_445 . 0
Sr Nb Zr 1_445 . 0
Sr Nb O 1_445 1_554 125.26
Sr Nb O 1_445 . 54.74
Sr Nb O 1_445 5_455 54.74
Sr Nb O 1_445 5_555 125.26
Sr Nb O 1_445 9_545 54.74
Sr Nb O 1_445 9_555 125.26
Sr Nb Sr 1_454 1_455 70.53
Sr Nb Sr 1_454 1_544 109.47
Sr Nb Sr 1_454 1_545 180.0(5)
Sr Nb Sr 1_454 1_554 70.53
Sr Nb Sr 1_454 . 109.47
Sr Nb Ti 1_454 . 0
Sr Nb Zr 1_454 . 0
Sr Nb O 1_454 1_554 54.74
Sr Nb O 1_454 . 125.26
Sr Nb O 1_454 5_455 54.74
Sr Nb O 1_454 5_555 125.26
Sr Nb O 1_454 9_545 125.26
Sr Nb O 1_454 9_555 54.74
Sr Nb Sr 1_455 1_544 180.0(5)
Sr Nb Sr 1_455 1_545 109.47
Sr Nb Sr 1_455 1_554 109.47
Sr Nb Sr 1_455 . 70.53
Sr Nb Ti 1_455 . 0
Sr Nb Zr 1_455 . 0
Sr Nb O 1_455 1_554 125.26
Sr Nb O 1_455 . 54.74
Sr Nb O 1_455 5_455 54.74
Sr Nb O 1_455 5_555 125.26
Sr Nb O 1_455 9_545 125.26
Sr Nb O 1_455 9_555 54.74
Sr Nb Sr 1_544 1_545 70.53
Sr Nb Sr 1_544 1_554 70.53
Sr Nb Sr 1_544 . 109.47
Sr Nb Ti 1_544 . 0
Sr Nb Zr 1_544 . 0
Sr Nb O 1_544 1_554 54.74
Sr Nb O 1_544 . 125.26
Sr Nb O 1_544 5_455 125.26
Sr Nb O 1_544 5_555 54.74
Sr Nb O 1_544 9_545 54.74
Sr Nb O 1_544 9_555 125.26
Sr Nb Sr 1_545 1_554 109.47
Sr Nb Sr 1_545 . 70.53
Sr Nb Ti 1_545 . 0
Sr Nb Zr 1_545 . 0
Sr Nb O 1_545 1_554 125.26
Sr Nb O 1_545 . 54.74
Sr Nb O 1_545 5_455 125.26
Sr Nb O 1_545 5_555 54.74
Sr Nb O 1_545 9_545 54.74
Sr Nb O 1_545 9_555 125.26
Sr Nb Sr 1_554 . 70.53
Sr Nb Ti 1_554 . 0
Sr Nb Zr 1_554 . 0
Sr Nb O 1_554 1_554 54.74
Sr Nb O 1_554 . 125.26
Sr Nb O 1_554 5_455 125.26
Sr Nb O 1_554 5_555 54.74
Sr Nb O 1_554 9_545 125.26
Sr Nb O 1_554 9_555 54.74
Sr Nb Ti . . 0
Sr Nb Zr . . 0
Sr Nb O . 1_554 125.26
Sr Nb O . . 54.74
Sr Nb O . 5_455 125.26
Sr Nb O . 5_555 54.74
Sr Nb O . 9_545 125.26
Sr Nb O . 9_555 54.74
Ti Nb Zr . . 0
Ti Nb O . 1_554 0
Ti Nb O . . 0
Ti Nb O . 5_455 0
Ti Nb O . 5_555 0
Ti Nb O . 9_545 0
Ti Nb O . 9_555 0
Zr Nb O . 1_554 0
Zr Nb O . . 0
Zr Nb O . 5_455 0
Zr Nb O . 5_555 0
Zr Nb O . 9_545 0
Zr Nb O . 9_555 0
O Nb O 1_554 . 180.0(5)
O Nb O 1_554 5_455 90
O Nb O 1_554 5_555 90
O Nb O 1_554 9_545 90
O Nb O 1_554 9_555 90
O Nb O . 5_455 90
O Nb O . 5_555 90
O Nb O . 9_545 90
O Nb O . 9_555 90
O Nb O 5_455 5_555 180.0(5)
O Nb O 5_455 9_545 90
O Nb O 5_455 9_555 90
O Nb O 5_555 9_545 90
O Nb O 5_555 9_555 90
O Nb O 9_545 9_555 180.0(5)
Ti O Ti . 1_556 180.0(5)
Ti O Zr . . 0.0(5)
Ti O Zr . 1_556 180.0(5)
Ti O Nb . . 0.0(5)
Ti O Nb . 1_556 180.0(5)
Ti O Zr 1_556 . 180.0(5)
Ti O Zr 1_556 1_556 0.0(5)
Ti O Nb 1_556 . 180.0(5)
Ti O Nb 1_556 1_556 0.0(5)
Zr O Zr . 1_556 180.0(5)
Zr O Nb . . 0.0(5)
Zr O Nb . 1_556 180.0(5)
Zr O Nb 1_556 . 180.0(5)
Zr O Nb 1_556 1_556 0.0(5)
Nb O Nb . 1_556 180.0(5)
loop_
_geom_bond_atom_site_label_1
_geom_bond_atom_site_label_2
_geom_bond_site_symmetry_2
_geom_bond_distance
Sr Sr 1_455 3.9567
Sr Sr 1_545 3.9567
Sr Sr 1_554 3.9567
Sr Sr 1_556 3.9567
Sr Sr 1_565 3.9567
Sr Sr 1_655 3.9567
Sr Ti . 3.4266
Sr Ti 1_556 3.4266
Sr Ti 1_565 3.4266
Sr Ti 1_566 3.4266
Sr Ti 1_655 3.4266
Sr Ti 1_656 3.4266
Sr Ti 1_665 3.4266
Sr Ti 1_666 3.4266
Sr Zr . 3.4266
Sr Zr 1_556 3.4266
Sr Zr 1_565 3.4266
Sr Zr 1_566 3.4266
Sr Zr 1_655 3.4266
Sr Zr 1_656 3.4266
Sr Zr 1_665 3.4266
Sr Zr 1_666 3.4266
Sr Nb . 3.4266
Sr Nb 1_556 3.4266
Sr Nb 1_565 3.4266
Sr Nb 1_566 3.4266
Sr Nb 1_655 3.4266
Sr Nb 1_656 3.4266
Sr Nb 1_665 3.4266
Sr Nb 1_666 3.4266
Ti Zr . 0
Ti Nb . 0
Ti O 1_554 1.9783
Ti O . 1.9783
Ti O 5_455 1.9783
Ti O 5_555 1.9783
Ti O 9_545 1.9783
Ti O 9_555 1.9783
Zr Nb . 0
Zr O 1_554 1.9783
Zr O . 1.9783
Zr O 5_455 1.9783
Zr O 5_555 1.9783
Zr O 9_545 1.9783
Zr O 9_555 1.9783
Nb O 1_554 1.9783
Nb O . 1.9783
Nb O 5_455 1.9783
Nb O 5_555 1.9783
Nb O 9_545 1.9783
Nb O 9_555 1.9783
loop_
_pd_proc_point_id
_pd_proc_2theta_corrected
_pd_proc_intensity_net
_pd_calc_intensity_net
_pd_proc_ls_weight
1 3.8508 3995.00 4431.06 67.20
2 3.8545 4219.60 4429.04 70.70
3 3.8583 4007.80 4427.04 68.60
4 3.8620 4140.00 4425.03 69.90
5 3.8658 3940.00 4423.04 67.50
6 3.8696 4046.80 4421.06 69.50
7 3.8733 4074.50 4419.08 69.80
8 3.8771 4206.80 4417.11 71.00
9 3.8808 4044.80 4415.15 68.60
10 3.8846 4129.20 4413.19 70.40
11 3.8884 3905.50 4411.25 68.70
12 3.8921 3888.60 4409.31 67.90
13 3.8959 4011.20 4407.38 69.10
14 3.8996 4088.00 4405.46 69.10
15 3.9034 3937.00 4403.54 68.10
16 3.9072 4157.50 4401.64 70.70
17 3.9109 4084.30 4399.74 69.90
18 3.9147 4129.90 4397.85 70.60
19 3.9184 3984.50 4395.96 68.50
20 3.9222 4053.80 4394.09 69.30
21 3.9260 4035.10 4392.22 69.40
22 3.9297 4103.40 4390.36 70.30
23 3.9335 3968.60 4388.51 68.90
24 3.9372 4112.00 4386.67 69.60
25 3.9410 4210.80 4384.83 70.80
26 3.9448 4280.60 4383.00 70.50
27 3.9485 4102.90 4381.18 69.90
28 3.9523 4095.10 4379.36 70.50
29 3.9560 4071.40 4377.56 69.90
30 3.9598 4129.90 4375.76 69.90
31 3.9636 4003.90 4373.97 70.20
32 3.9673 4048.40 4372.18 69.40
33 3.9711 4040.60 4370.41 69.00
34 3.9748 4112.50 4368.64 69.60
35 3.9786 4034.10 4366.88 69.80
36 3.9824 4122.50 4365.12 70.20
37 3.9861 4077.60 4363.38 70.30
38 3.9899 4138.30 4361.64 69.50
39 3.9936 4030.10 4359.91 69.70
40 3.9974 4264.90 4358.18 71.30
41 4.0012 4051.20 4356.47 70.50
42 4.0049 4166.00 4354.76 70.80
43 4.0087 4034.60 4353.06 69.20
44 4.0124 4087.90 4351.36 69.20
45 4.0162 4123.00 4349.67 70.20
46 4.0200 3964.80 4348.00 68.80
47 4.0237 4113.50 4346.32 70.50
48 4.0275 4143.00 4344.66 71.40
49 4.0312 4000.80 4343.00 69.10
50 4.0350 4295.60 4341.35 72.40
51 4.0388 4135.80 4339.71 70.20
52 4.0425 4186.20 4338.07 71.10
53 4.0463 4032.20 4336.44 69.60
54 4.0500 4228.20 4334.82 70.80
55 4.0538 4104.10 4333.20 70.80
56 4.0576 4191.50 4331.59 70.80
57 4.0613 3988.80 4329.99 69.60
58 4.0651 4212.70 4328.40 71.30
59 4.0689 4109.80 4326.82 69.90
60 4.0726 4033.70 4325.24 68.40
61 4.0764 3986.20 4323.67 68.80
62 4.0801 4211.80 4322.10 70.90
63 4.0839 4155.50 4320.55 70.80
64 4.0876 4163.10 4319.00 70.40
65 4.0914 4203.70 4317.45 70.80
66 4.0952 4169.10 4315.92 69.30
67 4.0989 4027.70 4314.39 68.40
68 4.1027 4177.80 4312.86 70.60
69 4.1065 4122.10 4311.35 70.10
70 4.1102 4118.30 4309.84 70.60
71 4.1140 4165.40 4308.34 71.60
72 4.1177 4198.70 4306.85 69.80
73 4.1215 3953.40 4305.36 67.10
74 4.1252 4111.80 4303.88 68.60
75 4.1290 4090.10 4302.41 68.20
76 4.1328 4062.80 4300.94 67.40
77 4.1365 4070.50 4299.48 68.00
78 4.1403 4174.50 4298.03 68.80
79 4.1441 4183.40 4296.58 69.00
80 4.1478 4097.90 4295.14 67.60
81 4.1516 4167.10 4293.71 68.80
82 4.1553 4151.10 4292.28 68.90
83 4.1591 4139.00 4290.86 68.90
84 4.1629 4169.30 4289.45 68.80
85 4.1666 4118.90 4288.04 68.70
86 4.1704 4086.50 4286.64 68.10
87 4.1741 4098.50 4285.25 68.30
88 4.1779 4171.70 4283.87 69.00
89 4.1817 4087.00 4282.49 68.70
90 4.1854 4134.00 4281.12 68.60
91 4.1892 4083.20 4279.75 67.70
92 4.1929 4183.00 4278.39 68.80
93 4.1967 4043.00 4277.04 68.40
94 4.2005 4152.10 4275.70 69.30
95 4.2042 3996.70 4274.36 67.80
96 4.2080 4319.70 4273.03 69.90
97 4.2117 4016.90 4271.70 68.00
98 4.2155 4285.60 4270.38 69.80
99 4.2193 4174.80 4269.07 69.10
100 4.2230 4257.00 4267.76 70.60
101 4.2268 4190.30 4266.47 68.80
102 4.2305 4184.00 4265.17 69.10
103 4.2343 4054.80 4263.89 68.00
104 4.2381 4238.40 4262.61 69.60
105 4.2418 4016.80 4261.33 66.60
106 4.2456 4227.10 4260.06 69.60
107 4.2494 4050.70 4258.80 67.80
108 4.2531 4400.10 4257.55 71.30
109 4.2569 4059.70 4256.30 68.20
110 4.2606 4065.00 4255.06 68.00
111 4.2644 4155.10 4253.83 69.00
112 4.2681 4171.30 4252.60 69.50
113 4.2719 4141.40 4251.37 69.10
114 4.2757 4267.50 4250.16 70.10
115 4.2794 4146.70 4248.95 69.10
116 4.2832 4152.40 4247.75 68.80
117 4.2870 4138.30 4246.55 68.70
118 4.2907 4213.10 4245.36 68.90
119 4.2945 4143.00 4244.17 69.40
120 4.2982 4332.10 4243.00 70.40
121 4.3020 4151.60 4241.83 69.20
122 4.3057 4260.10 4240.66 69.50
123 4.3095 4148.80 4239.50 69.60
124 4.3133 4242.90 4238.35 70.40
125 4.3170 4197.80 4237.20 69.30
126 4.3208 4209.30 4236.06 69.60
127 4.3246 4123.70 4234.92 67.30
128 4.3283 4300.60 4233.79 69.40
129 4.3321 4143.10 4232.67 68.90
130 4.3358 4272.10 4231.55 69.90
131 4.3396 4258.30 4230.44 70.40
132 4.3434 4309.60 4229.34 70.10
133 4.3471 4143.40 4228.24 68.20
134 4.3509 4213.50 4227.15 69.80
135 4.3546 4093.00 4226.06 68.80
136 4.3584 4190.30 4224.98 69.30
137 4.3622 4182.30 4223.91 69.10
138 4.3659 4094.30 4222.84 68.30
139 4.3697 3991.10 4221.78 67.90
140 4.3734 4178.00 4220.73 69.90
141 4.3772 4097.10 4219.67 68.90
142 4.3810 4173.10 4218.63 69.70
143 4.3847 4082.70 4217.59 68.40
144 4.3885 4052.30 4216.56 68.30
145 4.3923 4103.10 4215.53 68.90
146 4.3960 4192.70 4214.51 69.50
147 4.3998 4117.90 4213.50 69.30
148 4.4035 4088.30 4212.49 69.00
149 4.4073 4076.70 4211.49 68.50
150 4.4110 4256.70 4210.49 69.90
151 4.4148 4132.30 4209.50 68.90
152 4.4186 4265.30 4208.51 70.20
153 4.4223 4063.50 4207.53 68.40
154 4.4261 4242.40 4206.56 70.50
155 4.4299 4195.40 4205.59 69.60
156 4.4336 4395.50 4204.63 71.10
157 4.4374 4185.10 4203.67 69.90
158 4.4411 4201.30 4202.72 69.60
159 4.4449 4059.50 4201.78 68.10
160 4.4487 4241.20 4200.84 70.40
161 4.4524 4153.10 4199.90 69.30
162 4.4562 4255.20 4198.98 70.10
163 4.4599 4183.70 4198.05 70.50
164 4.4637 4144.30 4197.14 69.40
165 4.4675 4100.00 4196.23 68.70
166 4.4712 4239.40 4195.32 70.00
167 4.4750 4082.20 4194.42 68.70
168 4.4787 4186.10 4193.53 69.80
169 4.4825 4001.10 4192.64 67.10
170 4.4863 4216.70 4191.76 70.20
171 4.4900 4157.50 4190.88 69.30
172 4.4938 4146.90 4190.01 69.40
173 4.4975 4146.20 4189.14 69.10
174 4.5013 4198.90 4188.28 69.40
175 4.5051 4207.60 4187.43 70.40
176 4.5088 4225.60 4186.58 68.90
177 4.5126 4144.20 4185.73 69.20
178 4.5163 4155.20 4184.89 69.40
179 4.5201 4283.30 4184.06 70.80
180 4.5239 4291.10 4183.23 70.20
181 4.5276 4126.10 4182.41 69.30
182 4.5314 4291.90 4181.59 70.20
183 4.5352 4223.40 4180.78 69.50
184 4.5389 4111.50 4179.98 68.70
185 4.5427 4138.00 4179.17 68.90
186 4.5464 4144.10 4178.38 68.10
187 4.5502 4098.60 4177.59 68.20
188 4.5539 4098.10 4176.80 68.90
189 4.5577 4130.00 4176.03 68.60
190 4.5615 4244.30 4175.25 69.70
191 4.5652 4038.60 4174.48 68.60
192 4.5690 4246.90 4173.72 71.10
193 4.5728 4151.40 4172.96 69.30
194 4.5765 4319.40 4172.21 70.80
195 4.5803 4191.00 4171.46 70.50
196 4.5840 4326.80 4170.72 70.50
197 4.5878 4217.70 4169.98 69.50
198 4.5916 4261.40 4169.25 70.60
199 4.5953 4122.20 4168.52 70.30
200 4.5991 4283.40 4167.80 70.80
201 4.6028 4002.30 4167.08 68.00
202 4.6066 4226.20 4166.37 69.40
203 4.6104 4177.50 4165.67 68.30
204 4.6141 4335.00 4164.97 71.00
205 4.6179 4188.10 4164.27 69.90
206 4.6216 4229.90 4163.58 70.10
207 4.6254 4284.50 4162.90 70.30
208 4.6292 4399.60 4162.22 70.90
209 4.6329 4115.50 4161.54 68.40
210 4.6367 4301.10 4160.87 70.70
211 4.6404 4239.80 4160.21 69.40
212 4.6442 4261.60 4159.54 69.60
213 4.6480 4084.30 4158.89 68.10
214 4.6517 4318.10 4158.24 70.40
215 4.6555 4135.80 4157.59 69.50
216 4.6592 4263.10 4156.96 69.90
217 4.6630 4180.50 4156.32 69.50
218 4.6668 4324.30 4155.69 70.30
219 4.6705 4241.20 4155.06 70.20
220 4.6743 4376.20 4154.44 71.40
221 4.6781 4120.20 4153.83 68.70
222 4.6818 4295.20 4153.22 70.40
223 4.6856 4257.10 4152.61 69.40
224 4.6893 4294.80 4152.01 70.30
225 4.6931 4175.00 4151.42 69.60
226 4.6969 4292.00 4150.83 70.90
227 4.7006 4188.50 4150.24 69.60
228 4.7044 4327.60 4149.66 71.10
229 4.7081 4302.20 4149.08 70.80
230 4.7119 4266.30 4148.51 69.80
231 4.7157 4236.50 4147.95 68.50
232 4.7194 4259.60 4147.39 70.30
233 4.7232 4240.80 4146.83 68.40
234 4.7269 4343.00 4146.28 71.30
235 4.7307 4215.90 4145.73 69.00
236 4.7382 4136.40 4144.65 69.40
237 4.7457 4265.20 4143.59 70.40
238 4.7495 4411.90 4143.07 72.30
239 4.7533 4173.50 4142.55 69.40
240 4.7570 4211.40 4142.03 70.20
241 4.7608 4181.70 4141.52 69.00
242 4.7646 4284.30 4141.02 70.80
243 4.7683 4216.10 4140.52 70.20
244 4.7721 4232.80 4140.02 70.10
245 4.7758 4247.00 4139.53 70.30
246 4.7796 4341.90 4139.04 71.30
247 4.7833 4257.80 4138.56 70.50
248 4.7871 4211.60 4138.09 70.10
249 4.7909 4151.70 4137.61 68.90
250 4.7946 4278.60 4137.15 70.40
251 4.7984 4196.70 4136.68 69.50
252 4.8021 4166.50 4136.22 69.90
253 4.8059 4286.10 4135.77 70.50
254 4.8097 4239.20 4135.32 71.40
255 4.8134 4228.60 4134.87 70.50
256 4.8172 4308.50 4134.43 71.70
257 4.8210 4115.10 4134.00 68.90
258 4.8247 4367.00 4133.57 71.20
259 4.8285 4230.90 4133.14 70.60
260 4.8322 4247.10 4132.72 70.30
261 4.8360 4219.30 4132.30 70.60
262 4.8398 4330.60 4131.88 72.10
263 4.8435 4167.50 4131.47 69.90
264 4.8473 4200.70 4131.07 69.30
265 4.8510 4183.70 4130.67 69.90
266 4.8548 4351.50 4130.27 71.40
267 4.8586 4256.70 4129.88 70.30
268 4.8623 4299.50 4129.49 70.90
269 4.8661 4063.10 4129.11 69.00
270 4.8698 4325.90 4128.73 70.90
271 4.8736 4088.30 4128.36 69.20
272 4.8774 4353.70 4127.99 70.90
273 4.8811 4234.30 4127.62 69.90
274 4.8849 4336.90 4127.26 70.40
275 4.8886 4248.40 4126.90 71.10
276 4.8924 4366.60 4126.55 70.90
277 4.8962 4211.70 4126.20 70.10
278 4.8999 4476.70 4125.85 72.70
279 4.9037 4281.10 4125.51 71.20
280 4.9074 4313.60 4125.18 70.80
281 4.9112 4199.70 4124.85 70.20
282 4.9150 4260.50 4124.52 69.80
283 4.9187 4103.10 4124.19 68.80
284 4.9225 4168.40 4123.88 68.50
285 4.9262 4167.00 4123.56 69.90
286 4.9300 4293.10 4123.25 70.60
287 4.9338 4247.30 4122.94 70.50
288 4.9375 4261.90 4122.64 71.10
289 4.9413 4176.60 4122.34 69.70
290 4.9450 4248.20 4122.05 70.50
291 4.9488 4101.30 4121.76 68.70
292 4.9526 4254.80 4121.47 70.80
293 4.9563 4211.90 4121.19 69.90
294 4.9601 4402.90 4120.91 71.80
295 4.9639 4131.80 4120.64 69.30
296 4.9676 4254.30 4120.37 71.00
297 4.9714 4229.70 4120.10 69.80
298 4.9751 4317.80 4119.84 70.60
299 4.9789 4096.50 4119.58 68.80
300 4.9827 4347.80 4119.33 71.10
301 4.9864 4216.70 4119.08 69.40
302 4.9902 4206.70 4118.83 69.90
303 4.9939 4261.20 4118.59 70.50
304 4.9977 4362.30 4118.35 71.60
305 5.0015 4263.80 4118.12 70.80
306 5.0052 4333.10 4117.89 71.30
307 5.0090 4121.50 4117.66 69.30
308 5.0127 4336.70 4117.44 72.30
309 5.0165 4263.40 4117.22 70.80
310 5.0203 4323.30 4117.01 71.50
311 5.0240 4265.00 4116.80 70.40
312 5.0278 4227.10 4116.59 70.50
313 5.0315 4176.20 4116.39 70.30
314 5.0353 4372.60 4116.19 71.90
315 5.0391 4267.40 4116.00 71.00
316 5.0428 4204.70 4115.81 70.10
317 5.0466 4217.50 4115.62 70.70
318 5.0503 4273.50 4115.44 71.50
319 5.0541 4298.40 4115.26 71.20
320 5.0579 4350.20 4115.08 71.10
321 5.0616 4224.40 4114.91 70.10
322 5.0654 4385.00 4114.74 71.30
323 5.0691 4158.10 4114.58 69.70
324 5.0729 4390.70 4114.42 72.00
325 5.0767 4255.40 4114.26 70.70
326 5.0804 4237.10 4114.11 71.50
327 5.0842 4232.10 4113.96 70.60
328 5.0880 4337.30 4113.81 71.70
329 5.0917 4074.80 4113.67 68.90
330 5.0955 4341.70 4113.53 70.50
331 5.0992 4212.50 4113.40 71.30
332 5.1030 4286.60 4113.27 71.50
333 5.1068 4215.00 4113.14 71.60
334 5.1105 4238.50 4113.02 70.40
335 5.1143 4213.10 4112.90 70.20
336 5.1180 4411.70 4112.78 72.60
337 5.1218 4086.10 4112.67 68.60
338 5.1255 4391.20 4112.56 72.10
339 5.1293 4320.50 4112.45 71.70
340 5.1331 4438.40 4112.35 73.30
341 5.1368 4263.30 4112.25 71.20
342 5.1406 4471.50 4112.16 72.20
343 5.1444 4336.80 4112.07 71.00
344 5.1481 4332.30 4111.98 71.40
345 5.1519 4179.20 4111.90 70.90
346 5.1556 4300.80 4111.81 71.80
347 5.1594 4235.60 4111.74 70.80
348 5.1631 4336.70 4111.66 71.40
349 5.1669 4279.00 4111.59 72.10
350 5.1707 4473.90 4111.53 73.60
351 5.1744 4225.60 4111.47 69.80
352 5.1782 4383.60 4111.41 72.90
353 5.1820 4340.70 4111.35 72.50
354 5.1857 4359.60 4111.30 72.40
355 5.1895 4275.20 4111.25 71.50
356 5.1932 4389.30 4111.20 73.30
357 5.1970 4100.40 4111.16 69.50
358 5.2007 4441.10 4111.12 73.70
359 5.2045 4336.40 4111.09 71.50
360 5.2083 4295.80 4111.05 71.10
361 5.2120 4190.70 4111.03 70.00
362 5.2158 4422.20 4111.00 72.70
363 5.2196 4239.80 4110.98 70.70
364 5.2233 4396.10 4110.96 72.20
365 5.2271 4247.40 4110.94 70.60
366 5.2308 4426.30 4110.93 72.70
367 5.2346 4239.50 4110.92 71.30
368 5.2384 4306.20 4110.92 69.90
369 5.2421 4359.60 4110.92 70.50
370 5.2459 4268.00 4110.92 71.30
371 5.2496 4297.60 4110.92 71.40
372 5.2534 4348.00 4110.93 70.80
373 5.2572 4183.20 4110.94 70.20
374 5.2609 4235.50 4110.96 71.10
375 5.2647 4185.60 4110.97 70.20
376 5.2684 4276.90 4111.00 70.70
377 5.2722 4132.50 4111.02 69.80
378 5.2760 4395.10 4111.05 71.90
379 5.2797 4233.20 4111.08 70.40
380 5.2835 4247.50 4111.11 70.80
381 5.2872 4277.20 4111.15 71.80
382 5.2910 4316.20 4111.19 69.80
383 5.2948 4099.30 4111.23 69.40
384 5.2985 4351.30 4111.28 71.70
385 5.3023 4252.10 4111.33 70.80
386 5.3060 4346.80 4111.38 70.60
387 5.3098 4304.70 4111.44 70.60
388 5.3136 4288.00 4111.50 71.10
389 5.3173 4177.50 4111.56 69.50
390 5.3211 4321.90 4111.62 71.10
391 5.3248 4160.80 4111.69 70.00
392 5.3286 4315.80 4111.76 70.10
393 5.3324 4321.70 4111.84 71.00
394 5.3361 4302.50 4111.92 71.30
395 5.3399 4222.20 4112.00 70.90
396 5.3436 4354.00 4112.08 72.00
397 5.3474 4182.40 4112.17 70.60
398 5.3512 4428.20 4112.26 71.90
399 5.3549 4175.20 4112.35 69.90
400 5.3587 4437.10 4112.45 72.80
401 5.3624 4125.00 4112.54 69.60
402 5.3662 4279.70 4112.65 70.70
403 5.3700 4362.20 4112.75 72.30
404 5.3737 4379.90 4112.86 72.70
405 5.3775 4302.10 4112.97 71.90
406 5.3812 4398.80 4113.08 72.70
407 5.3850 4148.80 4113.20 70.30
408 5.3888 4410.60 4113.32 71.40
409 5.3925 4229.50 4113.44 70.10
410 5.3963 4417.70 4113.57 73.90
411 5.4000 4404.60 4113.70 73.00
412 5.4038 4335.00 4113.83 71.50
413 5.4076 4324.60 4113.96 71.00
414 5.4113 4221.10 4114.10 69.70
415 5.4151 4339.80 4114.24 71.60
416 5.4188 4361.00 4114.38 72.60
417 5.4226 4254.10 4114.53 70.70
418 5.4264 4337.90 4114.67 71.90
419 5.4301 4224.50 4114.83 69.50
420 5.4339 4397.80 4114.98 70.30
421 5.4376 4247.00 4115.14 70.80
422 5.4414 4425.40 4115.30 71.90
423 5.4451 4251.40 4115.46 71.80
424 5.4489 4294.20 4115.62 70.50
425 5.4527 4213.70 4115.79 70.10
426 5.4564 4409.80 4115.96 72.50
427 5.4602 4391.00 4116.14 72.40
428 5.4640 4515.70 4116.31 73.30
429 5.4677 4203.30 4116.49 70.30
430 5.4715 4353.00 4116.68 72.30
431 5.4752 4471.50 4116.86 72.80
432 5.4790 4440.00 4117.05 71.90
433 5.4827 4226.00 4117.24 71.00
434 5.4865 4353.00 4117.43 71.60
435 5.4903 4173.30 4117.63 69.40
436 5.4940 4384.70 4117.82 73.30
437 5.4978 4210.40 4118.02 70.40
438 5.5016 4388.40 4118.23 71.30
439 5.5053 4183.90 4118.43 70.80
440 5.5091 4431.10 4118.64 71.60
441 5.5128 4149.90 4118.85 70.00
442 5.5166 4316.20 4119.07 72.00
443 5.5203 4215.10 4119.29 69.90
444 5.5241 4332.70 4119.51 72.20
445 5.5279 4297.40 4119.73 72.10
446 5.5316 4430.00 4119.95 72.60
447 5.5354 4456.20 4120.18 72.70
448 5.5392 4413.00 4120.41 72.70
449 5.5429 4225.70 4120.64 69.70
450 5.5467 4302.30 4120.88 70.60
451 5.5504 4286.20 4121.11 70.90
452 5.5542 4381.40 4121.35 72.40
453 5.5579 4352.10 4121.60 72.20
454 5.5617 4407.30 4121.84 71.60
455 5.5655 4129.10 4122.09 69.40
456 5.5692 4418.50 4122.34 70.70
457 5.5730 4286.50 4122.59 70.50
458 5.5767 4340.00 4122.85 70.80
459 5.5805 4251.40 4123.10 70.70
460 5.5843 4197.30 4123.36 69.40
461 5.5880 4194.00 4123.63 69.30
462 5.5918 4349.70 4123.89 70.50
463 5.5955 4278.60 4124.16 70.10
464 5.5993 4256.90 4124.43 69.90
465 5.6031 4329.90 4124.70 70.60
466 5.6068 4344.70 4124.98 70.00
467 5.6106 4322.80 4125.25 70.60
468 5.6143 4345.60 4125.53 70.80
469 5.6181 4267.10 4125.81 70.40
470 5.6219 4362.50 4126.10 70.90
471 5.6256 4287.30 4126.39 70.30
472 5.6294 4339.30 4126.68 70.50
473 5.6331 4298.40 4126.97 70.50
474 5.6369 4490.50 4127.26 72.10
475 5.6406 4267.70 4127.56 70.50
476 5.6444 4334.90 4127.86 70.90
477 5.6482 4165.50 4128.16 68.80
478 5.6519 4320.90 4128.46 70.60
479 5.6557 4418.80 4128.77 70.90
480 5.6595 4345.20 4129.07 71.00
481 5.6632 4209.10 4129.38 69.50
482 5.6670 4401.50 4129.70 71.50
483 5.6707 4254.00 4130.01 70.00
484 5.6745 4433.00 4130.33 72.40
485 5.6782 4232.40 4130.65 70.60
486 5.6820 4330.00 4130.97 70.40
487 5.6858 4361.90 4131.29 71.20
488 5.6895 4326.20 4131.62 70.70
489 5.6933 4310.70 4131.95 71.70
490 5.6970 4400.10 4132.28 71.90
491 5.7008 4216.50 4132.61 69.90
492 5.7046 4591.10 4132.95 72.10
493 5.7083 4238.20 4133.28 69.60
494 5.7121 4260.50 4133.62 69.70
495 5.7158 4287.20 4133.97 71.40
496 5.7196 4382.30 4134.31 71.60
497 5.7234 4319.20 4134.65 71.10
498 5.7271 4249.50 4135.00 70.40
499 5.7309 4175.10 4135.35 69.70
500 5.7346 4326.80 4135.71 69.40
501 5.7384 4268.20 4136.06 71.00
502 5.7421 4380.60 4136.42 71.10
503 5.7459 4118.90 4136.78 69.00
504 5.7497 4304.00 4137.14 69.70
505 5.7534 4219.50 4137.50 69.10
506 5.7572 4352.10 4137.87 71.20
507 5.7610 4200.50 4138.23 69.80
508 5.7647 4350.40 4138.60 71.70
509 5.7685 4341.10 4138.97 71.90
510 5.7722 4387.60 4139.35 71.80
511 5.7760 4297.10 4139.72 71.50
512 5.7797 4441.40 4140.10 72.00
513 5.7835 4452.80 4140.48 71.30
514 5.7873 4265.80 4140.86 70.40
515 5.7910 4286.30 4141.25 71.20
516 5.7948 4459.70 4141.63 72.40
517 5.7985 4228.60 4142.02 70.00
518 5.8023 4345.50 4142.41 70.70
519 5.8060 4292.80 4142.80 70.70
520 5.8098 4351.10 4143.20 71.00
521 5.8136 4305.00 4143.59 71.40
522 5.8173 4328.30 4143.99 70.90
523 5.8211 4339.20 4144.39 71.70
524 5.8249 4490.60 4144.79 72.30
525 5.8286 4347.50 4145.20 71.70
526 5.8324 4359.30 4145.60 70.20
527 5.8361 4298.20 4146.01 70.20
528 5.8399 4284.10 4146.42 70.90
529 5.8436 4293.00 4146.83 71.50
530 5.8474 4468.60 4147.24 73.20
531 5.8512 4272.50 4147.66 71.40
532 5.8549 4364.60 4148.08 72.10
533 5.8587 4206.70 4148.50 70.00
534 5.8624 4354.50 4148.92 71.00
535 5.8662 4275.60 4149.34 70.00
536 5.8699 4440.00 4149.76 72.60
537 5.8737 4300.30 4150.19 69.60
538 5.8775 4345.00 4150.62 70.90
539 5.8812 4163.40 4151.05 70.20
540 5.8850 4395.50 4151.48 71.80
541 5.8888 4297.90 4151.92 70.80
542 5.8925 4549.40 4152.35 73.20
543 5.8963 4258.30 4152.79 70.50
544 5.9000 4452.90 4153.23 72.50
545 5.9038 4324.40 4153.67 72.10
546 5.9075 4407.30 4154.11 71.00
547 5.9113 4202.00 4154.56 70.50
548 5.9151 4448.90 4155.01 72.10
549 5.9188 4409.00 4155.45 72.30
550 5.9226 4362.90 4155.90 71.50
551 5.9263 4313.40 4156.36 70.50
552 5.9301 4352.90 4156.81 71.40
553 5.9338 4248.30 4157.27 70.40
554 5.9376 4317.40 4157.72 71.00
555 5.9414 4172.00 4158.18 70.20
556 5.9451 4459.50 4158.64 72.40
557 5.9489 4169.70 4159.11 70.00
558 5.9526 4418.00 4159.57 72.40
559 5.9564 4275.10 4160.04 70.50
560 5.9602 4369.40 4160.50 71.20
561 5.9639 4291.90 4160.97 70.80
562 5.9677 4417.40 4161.44 71.20
563 5.9714 4389.60 4161.92 72.40
564 5.9752 4343.50 4162.39 71.50
565 5.9790 4274.50 4162.87 70.50
566 5.9827 4424.20 4163.34 72.00
567 5.9865 4257.20 4163.82 71.10
568 5.9902 4359.70 4164.30 71.80
569 5.9940 4232.50 4164.79 71.20
570 5.9977 4333.10 4165.27 70.50
571 6.0015 4312.90 4165.76 71.00
572 6.0053 4328.10 4166.24 71.50
573 6.0090 4362.20 4166.73 72.50
574 6.0128 4471.80 4167.22 72.50
575 6.0165 4364.70 4167.72 72.60
576 6.0203 4226.00 4168.21 71.40
577 6.0241 4233.10 4168.71 71.20
578 6.0278 4455.70 4169.20 72.70
579 6.0316 4339.60 4169.70 70.80
580 6.0353 4376.70 4170.20 71.80
581 6.0391 4304.90 4170.70 71.80
582 6.0428 4344.20 4171.21 71.30
583 6.0466 4304.20 4171.71 69.80
584 6.0504 4431.90 4172.22 70.00
585 6.0541 4150.90 4172.73 69.10
586 6.0579 4334.10 4173.24 71.20
587 6.0616 4353.80 4173.75 70.70
588 6.0654 4470.00 4174.26 72.40
589 6.0691 4429.10 4174.77 71.30
590 6.0729 4334.00 4175.29 70.90
591 6.0767 4325.70 4175.80 70.90
592 6.0804 4423.00 4176.32 71.40
593 6.0842 4283.20 4176.84 70.00
594 6.0879 4389.10 4177.36 72.20
595 6.0917 4402.90 4177.89 71.10
596 6.0955 4285.60 4178.41 70.30
597 6.0992 4348.70 4178.94 71.70
598 6.1030 4402.70 4179.46 71.50
599 6.1067 4237.80 4179.99 69.40
600 6.1105 4390.40 4180.52 71.60
601 6.1143 4416.20 4181.05 72.10
602 6.1180 4469.50 4181.59 71.60
603 6.1218 4375.10 4182.12 71.80
604 6.1255 4537.50 4182.65 72.30
605 6.1293 4228.20 4183.19 70.50
606 6.1330 4352.30 4183.73 71.20
607 6.1368 4258.70 4184.27 70.20
608 6.1406 4447.40 4184.81 71.10
609 6.1443 4309.90 4185.35 70.50
610 6.1481 4464.50 4185.90 72.00
611 6.1518 4410.00 4186.44 71.90
612 6.1556 4458.00 4186.99 71.70
613 6.1593 4332.50 4187.54 70.60
614 6.1631 4404.10 4188.08 71.40
615 6.1669 4171.90 4188.64 70.00
616 6.1706 4371.10 4189.19 70.10
617 6.1744 4380.40 4189.74 72.20
618 6.1781 4452.30 4190.29 71.90
619 6.1819 4236.50 4190.85 69.80
620 6.1856 4402.60 4191.41 71.10
621 6.1894 4394.70 4191.97 72.40
622 6.1932 4419.10 4192.52 72.30
623 6.1969 4307.50 4193.09 70.60
624 6.2007 4429.50 4193.65 72.20
625 6.2044 4236.70 4194.21 69.60
626 6.2082 4447.90 4194.77 71.50
627 6.2119 4317.20 4195.34 70.00
628 6.2157 4485.90 4195.91 73.80
629 6.2195 4346.30 4196.48 72.00
630 6.2232 4396.90 4197.04 71.00
631 6.2270 4340.70 4197.62 71.40
632 6.2307 4334.40 4198.19 70.80
633 6.2345 4300.80 4198.76 70.80
634 6.2382 4451.30 4199.33 72.40
635 6.2420 4362.10 4199.91 71.70
636 6.2458 4450.30 4200.49 71.60
637 6.2495 4370.50 4201.07 71.20
638 6.2533 4137.30 4201.64 68.60
639 6.2570 4361.10 4202.22 71.90
640 6.2608 4415.90 4202.81 71.80
641 6.2646 4195.10 4203.39 69.90
642 6.2683 4326.90 4203.97 71.00
643 6.2721 4339.90 4204.56 71.40
644 6.2758 4394.00 4205.14 71.70
645 6.2796 4241.30 4205.73 70.10
646 6.2833 4401.90 4206.32 71.10
647 6.2871 4388.10 4206.91 71.60
648 6.2909 4344.70 4207.50 71.10
649 6.2946 4328.90 4208.09 70.90
650 6.2984 4450.10 4208.68 72.60
651 6.3021 4258.10 4209.28 70.20
652 6.3059 4389.50 4209.87 71.60
653 6.3096 4269.80 4210.47 70.50
654 6.3134 4340.00 4211.06 70.80
655 6.3172 4311.80 4211.66 70.90
656 6.3209 4428.30 4212.26 71.70
657 6.3247 4263.00 4212.86 70.90
658 6.3284 4397.60 4213.46 70.80
659 6.3322 4265.50 4214.07 70.90
660 6.3359 4349.70 4214.67 71.20
661 6.3397 4253.80 4215.27 70.20
662 6.3435 4374.00 4215.88 70.70
663 6.3472 4284.20 4216.49 70.50
664 6.3510 4443.10 4217.09 71.70
665 6.3547 4188.40 4217.70 69.80
666 6.3585 4496.20 4218.31 72.60
667 6.3622 4244.40 4218.92 70.80
668 6.3660 4561.50 4219.53 73.70
669 6.3698 4391.50 4220.15 71.80
670 6.3735 4385.90 4220.76 71.60
671 6.3773 4377.20 4221.37 71.20
672 6.3810 4571.70 4221.99 73.50
673 6.3848 4318.10 4222.61 71.00
674 6.3885 4337.90 4223.22 71.20
675 6.3923 4256.80 4223.84 70.40
676 6.3961 4342.50 4224.46 71.20
677 6.3998 4268.20 4225.08 70.20
678 6.4036 4415.20 4225.70 72.60
679 6.4073 4282.20 4226.32 70.90
680 6.4111 4393.80 4226.94 72.10
681 6.4148 4330.80 4227.57 71.20
682 6.4186 4480.40 4228.19 71.00
683 6.4223 4217.60 4228.82 70.30
684 6.4261 4391.50 4229.45 72.20
685 6.4299 4375.00 4230.07 71.90
686 6.4336 4486.20 4230.70 72.30
687 6.4374 4247.70 4231.33 70.60
688 6.4411 4469.20 4231.96 72.60
689 6.4449 4287.00 4232.59 70.50
690 6.4486 4437.50 4233.22 71.70
691 6.4524 4228.10 4233.86 70.50
692 6.4562 4400.80 4234.49 72.00
693 6.4599 4406.50 4235.12 71.90
694 6.4637 4329.30 4235.76 71.40
695 6.4674 4411.90 4236.40 71.70
696 6.4712 4389.50 4237.03 71.80
697 6.4749 4325.30 4237.67 71.50
698 6.4787 4371.10 4238.31 71.60
699 6.4825 4308.30 4238.95 70.90
700 6.4862 4389.50 4239.59 72.00
701 6.4900 4258.30 4240.23 70.50
702 6.4937 4365.10 4240.87 71.20
703 6.4975 4284.60 4241.51 71.10
704 6.5012 4480.60 4242.16 71.90
705 6.5050 4158.30 4242.80 69.50
706 6.5088 4474.90 4243.45 72.10
707 6.5125 4380.10 4244.09 72.10
708 6.5163 4426.10 4244.74 71.70
709 6.5200 4234.80 4245.38 70.80
710 6.5238 4369.80 4246.03 70.50
711 6.5275 4319.20 4246.68 71.10
712 6.5313 4557.40 4247.33 72.90
713 6.5350 4316.50 4247.98 71.00
714 6.5388 4333.20 4248.63 70.50
715 6.5426 4369.80 4249.28 71.10
716 6.5463 4328.80 4249.94 71.00
717 6.5501 4308.70 4250.59 70.90
718 6.5538 4441.40 4251.24 71.90
719 6.5576 4345.60 4251.90 70.90
720 6.5613 4326.90 4252.55 71.40
721 6.5651 4229.60 4253.21 69.60
722 6.5689 4497.90 4253.86 72.20
723 6.5726 4249.00 4254.52 70.20
724 6.5764 4458.00 4255.18 72.00
725 6.5801 4384.20 4255.84 71.50
726 6.5839 4351.90 4256.50 71.70
727 6.5876 4287.70 4257.16 70.60
728 6.5914 4424.40 4257.82 71.70
729 6.5951 4271.10 4258.48 70.20
730 6.5989 4319.60 4259.14 71.10
731 6.6027 4377.80 4259.80 71.60
732 6.6064 4490.70 4260.47 71.80
733 6.6102 4290.10 4261.13 70.80
734 6.6139 4447.20 4261.79 72.30
735 6.6177 4251.30 4262.46 70.40
736 6.6214 4418.50 4263.12 71.20
737 6.6252 4333.50 4263.79 71.50
738 6.6290 4403.00 4264.46 71.30
739 6.6327 4376.10 4265.13 71.30
740 6.6365 4417.90 4265.79 71.50
741 6.6402 4343.90 4266.46 71.50
742 6.6440 4354.20 4267.13 71.50
743 6.6477 4298.90 4267.80 71.10
744 6.6515 4412.50 4268.47 71.10
745 6.6552 4326.60 4269.14 71.20
746 6.6590 4471.30 4269.81 72.30
747 6.6628 4465.70 4270.49 71.90
748 6.6665 4364.10 4271.16 72.40
749 6.6740 4381.00 4272.50 71.10
750 6.6778 4331.50 4273.18 70.50
751 6.6815 4460.20 4273.85 71.70
752 6.6853 4329.20 4274.53 71.50
753 6.6890 4480.00 4275.20 72.30
754 6.6928 4343.40 4275.88 71.50
755 6.6966 4298.30 4276.56 70.80
756 6.7003 4249.80 4277.23 70.20
757 6.7041 4338.00 4277.91 71.20
758 6.7078 4469.90 4278.59 71.80
759 6.7116 4345.90 4279.27 70.90
760 6.7153 4224.00 4279.95 70.20
761 6.7191 4391.70 4280.63 71.50
762 6.7228 4313.90 4281.31 71.00
763 6.7266 4222.40 4281.99 70.20
764 6.7304 4321.00 4282.67 71.00
765 6.7341 4449.70 4283.35 71.30
766 6.7379 4285.70 4284.03 70.90
767 6.7416 4389.30 4284.71 71.60
768 6.7454 4211.90 4285.40 70.00
769 6.7491 4419.20 4286.08 72.00
770 6.7529 4305.70 4286.77 71.60
771 6.7566 4280.00 4287.45 71.10
772 6.7604 4257.00 4288.13 70.00
773 6.7642 4181.50 4288.82 70.00
774 6.7679 4250.10 4289.50 70.10
775 6.7717 4339.60 4290.19 71.30
776 6.7754 4286.60 4290.88 71.20
777 6.7792 4380.30 4291.56 72.20
778 6.7829 4347.60 4292.25 71.50
779 6.7867 4345.80 4292.94 69.50
780 6.7904 4235.70 4293.63 70.50
781 6.7942 4370.50 4294.31 71.50
782 6.7979 4234.90 4295.00 69.40
783 6.8017 4421.70 4295.69 71.70
784 6.8055 4200.30 4296.38 69.30
785 6.8092 4481.90 4297.07 72.50
786 6.8130 4408.40 4297.76 72.60
787 6.8167 4443.60 4298.45 72.20
788 6.8205 4352.90 4299.14 71.60
789 6.8242 4422.20 4299.83 71.90
790 6.8280 4253.50 4300.52 70.80
791 6.8317 4388.00 4301.22 71.40
792 6.8355 4240.80 4301.91 70.30
793 6.8393 4440.00 4302.60 72.50
794 6.8430 4368.30 4303.29 70.60
795 6.8468 4338.30 4303.99 72.00
796 6.8505 4345.00 4304.68 72.00
797 6.8543 4380.70 4305.37 70.10
798 6.8580 4286.50 4306.07 70.70
799 6.8618 4377.50 4306.76 71.40
800 6.8655 4248.40 4307.46 70.70
801 6.8693 4389.80 4308.15 70.70
802 6.8731 4326.80 4308.85 71.90
803 6.8768 4327.40 4309.54 71.90
804 6.8806 4384.50 4310.24 72.40
805 6.8843 4219.90 4310.93 70.80
806 6.8881 4277.40 4311.63 70.50
807 6.8918 4458.10 4312.33 72.10
808 6.8956 4366.80 4313.02 72.00
809 6.8993 4338.70 4313.72 71.00
810 6.9031 4166.00 4314.42 69.40
811 6.9068 4333.80 4315.11 71.10
812 6.9106 4320.50 4315.81 71.60
813 6.9144 4307.00 4316.51 69.90
814 6.9181 4248.90 4317.21 70.90
815 6.9219 4385.20 4317.91 72.30
816 6.9256 4307.40 4318.61 72.00
817 6.9294 4450.80 4319.30 72.60
818 6.9331 4210.70 4320.00 70.20
819 6.9369 4413.50 4320.70 71.50
820 6.9406 4354.70 4321.40 72.50
821 6.9444 4443.70 4322.10 73.00
822 6.9519 4301.70 4323.50 71.90
823 6.9594 4401.20 4324.90 72.10
824 6.9632 4288.10 4325.60 71.20
825 6.9669 4364.20 4326.30 71.60
826 6.9707 4196.90 4327.00 69.80
827 6.9744 4434.80 4327.70 71.30
828 6.9782 4337.80 4328.41 71.50
829 6.9800 4222.80 4328.75 70.20
830 6.9837 4450.80 4329.45 72.00
831 6.9875 4257.00 4330.15 70.80
832 6.9913 4343.50 4330.85 70.80
833 6.9950 4234.20 4331.55 70.20
834 6.9988 4462.90 4332.26 72.00
835 7.0025 4257.40 4332.96 71.10
836 7.0063 4207.70 4333.66 69.80
837 7.0100 4265.60 4334.36 71.10
838 7.0138 4460.70 4335.07 71.30
839 7.0175 4288.80 4335.77 70.80
840 7.0213 4329.70 4336.47 70.90
841 7.0251 4316.50 4337.18 71.00
842 7.0288 4407.80 4337.88 71.10
843 7.0326 4219.30 4338.58 69.80
844 7.0363 4384.40 4339.29 71.50
845 7.0401 4274.20 4339.99 70.60
846 7.0438 4423.20 4340.70 71.80
847 7.0476 4185.00 4341.40 69.50
848 7.0514 4324.80 4342.10 71.30
849 7.0551 4309.40 4342.81 70.30
850 7.0589 4337.30 4343.51 70.80
851 7.0626 4261.10 4344.21 70.30
852 7.0664 4436.80 4344.92 71.80
853 7.0701 4335.80 4345.62 71.00
854 7.0739 4394.00 4346.33 72.10
855 7.0776 4273.60 4347.03 70.40
856 7.0814 4513.10 4347.74 72.50
857 7.0852 4217.90 4348.44 69.80
858 7.0889 4281.00 4349.14 70.80
859 7.0927 4397.10 4349.85 71.80
860 7.0964 4316.80 4350.55 70.30
861 7.1002 4378.40 4351.26 71.60
862 7.1039 4407.50 4351.96 71.90
863 7.1077 4244.20 4352.67 70.40
864 7.1115 4272.00 4353.37 70.00
865 7.1152 4266.90 4354.08 71.00
866 7.1190 4374.00 4354.78 71.00
867 7.1227 4327.70 4355.49 70.90
868 7.1265 4473.10 4356.19 72.00
869 7.1302 4332.60 4356.90 71.40
870 7.1340 4374.60 4357.60 71.70
871 7.1377 4373.40 4358.30 71.70
872 7.1415 4350.80 4359.01 70.60
873 7.1452 4237.10 4359.71 70.40
874 7.1490 4428.80 4360.42 71.90
875 7.1528 4420.50 4361.12 71.50
876 7.1565 4382.80 4361.83 72.50
877 7.1640 4250.90 4363.23 69.90
878 7.1678 4254.70 4363.94 69.90
879 7.1715 4307.20 4364.64 70.40
880 7.1753 4373.30 4365.35 71.90
881 7.1790 4411.40 4366.05 71.70
882 7.1828 4450.60 4366.76 72.40
883 7.1866 4354.10 4367.46 71.30
884 7.1903 4347.50 4368.16 71.00
885 7.1941 4374.50 4368.87 71.50
886 7.1978 4323.90 4369.57 70.60
887 7.2016 4342.90 4370.27 70.90
888 7.2053 4369.30 4370.98 71.50
889 7.2091 4315.00 4371.68 70.80
890 7.2129 4336.20 4372.38 71.20
891 7.2166 4362.60 4373.09 71.50
892 7.2167 4285.70 4373.10 70.80
893 7.2204 4452.50 4373.80 73.30
894 7.2242 4365.20 4374.50 71.80
895 7.2279 4531.80 4375.21 74.10
896 7.2317 4295.70 4375.91 70.50
897 7.2354 4405.70 4376.61 72.50
898 7.2392 4395.40 4377.31 72.40
899 7.2429 4344.80 4378.02 71.80
900 7.2467 4219.40 4378.72 71.10
901 7.2505 4504.70 4379.42 72.80
902 7.2542 4392.70 4380.12 71.60
903 7.2580 4463.30 4380.82 72.90
904 7.2617 4294.00 4381.52 71.90
905 7.2655 4402.70 4382.22 72.10
906 7.2692 4442.80 4382.93 73.40
907 7.2730 4391.70 4383.63 72.60
908 7.2767 4147.50 4384.33 70.10
909 7.2805 4410.90 4385.03 72.80
910 7.2842 4364.00 4385.73 72.60
911 7.2880 4372.10 4386.43 71.30
912 7.2917 4330.10 4387.13 71.20
913 7.2955 4414.60 4387.83 72.80
914 7.2993 4288.40 4388.53 71.40
915 7.3030 4344.00 4389.23 70.80
916 7.3068 4530.10 4389.93 74.30
917 7.3105 4524.90 4390.63 73.50
918 7.3143 4329.70 4391.33 71.60
919 7.3180 4282.90 4392.03 71.20
920 7.3218 4306.20 4392.73 71.90
921 7.3255 4413.40 4393.43 71.80
922 7.3293 4390.90 4394.12 71.40
923 7.3330 4393.20 4394.82 72.30
924 7.3368 4403.90 4395.52 72.50
925 7.3406 4444.10 4396.22 72.60
926 7.3443 4295.40 4396.92 71.30
927 7.3481 4467.90 4397.61 72.50
928 7.3518 4390.80 4398.31 72.70
929 7.3556 4341.30 4399.01 71.90
930 7.3593 4343.90 4399.70 73.00
931 7.3631 4446.50 4400.40 72.90
932 7.3668 4281.60 4401.10 72.00
933 7.3706 4483.50 4401.79 73.40
934 7.3744 4360.30 4402.49 70.50
935 7.3781 4339.40 4403.18 71.60
936 7.3819 4366.50 4403.88 71.30
937 7.3856 4347.70 4404.57 72.50
938 7.3894 4329.70 4405.27 71.80
939 7.3931 4404.70 4405.96 72.60
940 7.3969 4275.10 4406.66 70.20
941 7.4006 4444.30 4407.35 72.30
942 7.4044 4283.50 4408.04 70.90
943 7.4082 4515.50 4408.74 73.20
944 7.4119 4419.40 4409.43 72.60
945 7.4157 4489.00 4410.12 73.40
946 7.4194 4305.20 4410.82 72.10
947 7.4232 4373.80 4411.51 71.90
948 7.4269 4337.80 4412.20 71.60
949 7.4307 4297.50 4412.89 70.40
950 7.4344 4278.90 4413.58 72.30
951 7.4382 4405.60 4414.28 71.10
952 7.4419 4353.30 4414.96 71.40
953 7.4457 4416.10 4415.66 72.70
954 7.4495 4323.60 4416.35 71.30
955 7.4532 4450.90 4417.04 72.60
956 7.4570 4374.10 4417.73 72.20
957 7.4607 4293.70 4418.41 70.90
958 7.4645 4265.80 4419.10 71.80
959 7.4682 4309.10 4419.79 69.10
960 7.4720 4369.80 4420.48 72.20
961 7.4757 4381.40 4421.17 71.20
962 7.4795 4343.50 4421.85 72.20
963 7.4833 4358.70 4422.54 71.20
964 7.4870 4259.30 4423.23 69.80
965 7.4908 4280.20 4423.91 71.30
966 7.4945 4202.00 4424.60 69.40
967 7.4983 4396.40 4425.29 72.50
968 7.5020 4186.60 4425.97 70.00
969 7.5058 4291.00 4426.66 71.00
970 7.5095 4377.30 4427.34 71.10
971 7.5133 4398.90 4428.03 72.30
972 7.5170 4300.30 4428.71 71.50
973 7.5208 4367.40 4429.39 71.10
974 7.5246 4283.90 4430.08 70.60
975 7.5283 4428.40 4430.76 72.30
976 7.5321 4270.80 4431.44 71.20
977 7.5358 4253.40 4432.12 70.90
978 7.5396 4334.40 4432.81 72.00
979 7.5433 4417.70 4433.49 72.30
980 7.5471 4363.60 4434.17 72.30
981 7.5509 4534.40 4434.85 73.90
982 7.5546 4240.10 4435.53 70.80
983 7.5584 4341.80 4436.21 72.20
984 7.5621 4219.20 4436.89 70.30
985 7.5659 4402.80 4437.56 72.40
986 7.5696 4223.80 4438.24 70.50
987 7.5734 4399.90 4438.92 72.20
988 7.5771 4224.80 4439.60 70.30
989 7.5809 4365.40 4440.27 72.00
990 7.5847 4333.20 4440.95 72.40
991 7.5884 4449.70 4441.63 73.50
992 7.5922 4281.20 4442.30 71.20
993 7.5959 4460.20 4442.98 73.60
994 7.5997 4257.70 4443.65 70.70
995 7.6034 4291.60 4444.33 70.70
996 7.6072 4376.60 4445.00 72.50
997 7.6109 4382.10 4445.68 72.60
998 7.6147 4359.90 4446.35 72.40
999 7.6185 4496.80 4447.02 73.10
1000 7.6222 4307.70 4447.69 72.00
1001 7.6260 4339.60 4448.37 71.30
1002 7.6297 4425.60 4449.04 72.70
1003 7.6335 4632.90 4449.71 74.90
1004 7.6372 4319.80 4450.38 71.60
1005 7.6410 4442.50 4451.05 72.70
1006 7.6448 4271.40 4451.72 70.60
1007 7.6485 4421.00 4452.38 72.70
1008 7.6523 4248.10 4453.05 70.20
1009 7.6560 4397.60 4453.72 72.30
1010 7.6598 4286.70 4454.39 71.40
1011 7.6635 4281.40 4455.06 72.70
1012 7.6673 4375.40 4455.72 71.80
1013 7.6711 4477.10 4456.39 72.40
1014 7.6748 4354.20 4457.05 72.70
1015 7.6786 4443.60 4457.72 73.00
1016 7.6823 4327.80 4458.38 71.30
1017 7.6861 4480.10 4459.05 73.10
1018 7.6898 4348.20 4459.71 71.20
1019 7.6936 4403.00 4460.37 71.50
1020 7.6974 4408.00 4461.04 71.70
1021 7.7011 4461.10 4461.70 72.60
1022 7.7049 4309.90 4462.36 71.00
1023 7.7086 4369.10 4463.02 71.00
1024 7.7124 4487.40 4463.68 74.00
1025 7.7161 4350.80 4464.34 70.60
1026 7.7199 4352.60 4465.00 70.90
1027 7.7236 4450.50 4465.66 72.60
1028 7.7274 4366.60 4466.31 70.70
1029 7.7312 4524.60 4466.97 72.80
1030 7.7349 4306.40 4467.63 71.10
1031 7.7387 4363.70 4468.29 71.00
1032 7.7424 4310.80 4468.94 71.50
1033 7.7462 4409.70 4469.60 71.70
1034 7.7499 4261.50 4470.25 70.10
1035 7.7537 4423.70 4470.91 72.50
1036 7.7575 4396.20 4471.56 71.60
1037 7.7612 4473.80 4472.21 72.60
1038 7.7650 4288.90 4472.87 70.60
1039 7.7687 4381.40 4473.52 71.70
1040 7.7725 4385.70 4474.17 72.00
1041 7.7762 4375.30 4474.82 71.40
1042 7.7800 4276.20 4475.47 70.90
1043 7.7838 4482.60 4476.12 72.90
1044 7.7875 4306.00 4476.77 71.00
1045 7.7913 4397.50 4477.42 72.20
1046 7.7950 4344.30 4478.06 71.30
1047 7.7988 4498.00 4478.71 72.90
1048 7.8025 4378.00 4479.36 71.80
1049 7.8063 4369.20 4480.00 71.60
1050 7.8101 4415.90 4480.65 72.70
1051 7.8138 4383.60 4481.29 71.70
1052 7.8176 4370.50 4481.94 71.90
1053 7.8213 4298.40 4482.58 70.60
1054 7.8251 4279.30 4483.23 71.00
1055 7.8288 4276.90 4483.87 69.80
1056 7.8326 4338.70 4484.51 71.80
1057 7.8363 4444.90 4485.15 73.00
1058 7.8401 4472.90 4485.79 72.80
1059 7.8439 4394.10 4486.43 71.80
1060 7.8476 4374.80 4487.07 72.20
1061 7.8514 4451.40 4487.71 72.60
1062 7.8551 4272.00 4488.35 70.90
1063 7.8589 4467.00 4488.98 72.70
1064 7.8626 4358.60 4489.62 71.20
1065 7.8664 4455.80 4490.26 72.00
1066 7.8702 4367.50 4490.89 71.90
1067 7.8739 4455.10 4491.53 72.60
1068 7.8777 4308.20 4492.16 71.00
1069 7.8814 4431.90 4492.80 72.60
1070 7.8852 4380.40 4493.43 71.60
1071 7.8889 4506.50 4494.06 73.10
1072 7.8927 4272.00 4494.69 70.60
1073 7.8965 4419.80 4495.32 72.40
1074 7.9002 4356.40 4495.95 71.70
1075 7.9040 4423.30 4496.58 72.00
1076 7.9077 4334.80 4497.21 71.80
1077 7.9115 4335.10 4497.84 71.40
1078 7.9152 4262.40 4498.47 71.00
1079 7.9190 4514.50 4499.09 73.20
1080 7.9228 4306.10 4499.72 70.40
1081 7.9265 4386.20 4500.35 72.60
1082 7.9303 4385.00 4500.97 72.50
1083 7.9340 4422.70 4501.60 71.40
1084 7.9378 4397.70 4502.22 71.60
1085 7.9415 4354.70 4502.84 71.30
1086 7.9453 4365.70 4503.46 71.60
1087 7.9491 4318.30 4504.09 70.90
1088 7.9528 4354.50 4504.71 72.20
1089 7.9566 4429.80 4505.33 73.20
1090 7.9603 4361.90 4505.95 71.40
1091 7.9641 4440.10 4506.56 72.60
1092 7.9679 4364.80 4507.18 71.60
1093 7.9716 4355.10 4507.80 70.70
1094 7.9754 4375.70 4508.42 72.10
1095 7.9791 4533.00 4509.03 73.30
1096 7.9829 4467.90 4509.65 73.00
1097 7.9866 4394.70 4510.26 71.50
1098 7.9904 4373.40 4510.87 71.70
1099 7.9942 4435.00 4511.49 72.30
1100 7.9979 4291.50 4512.10 71.50
1101 8.0017 4374.00 4512.71 71.90
1102 8.0054 4390.00 4513.32 72.50
1103 8.0092 4318.70 4513.93 71.10
1104 8.0129 4288.00 4514.54 70.90
1105 8.0167 4356.80 4515.15 72.70
1106 8.0205 4318.20 4515.76 71.60
1107 8.0242 4509.70 4516.36 73.30
1108 8.0280 4411.80 4516.97 72.10
1109 8.0317 4445.30 4517.58 72.40
1110 8.0355 4376.70 4518.18 72.10
1111 8.0393 4350.20 4518.78 70.60
1112 8.0430 4388.50 4519.39 72.50
1113 8.0468 4464.80 4519.99 72.90
1114 8.0505 4571.20 4520.59 73.20
1115 8.0543 4559.60 4521.19 72.90
1116 8.0580 4275.30 4521.79 71.10
1117 8.0618 4321.70 4522.39 72.10
1118 8.0656 4400.10 4522.99 72.30
1119 8.0693 4423.20 4523.59 72.30
1120 8.0731 4381.30 4524.19 72.50
1121 8.0768 4440.70 4524.78 70.90
1122 8.0806 4510.30 4525.38 73.80
1123 8.0843 4473.50 4525.97 73.50
1124 8.0881 4341.10 4526.57 71.60
1125 8.0919 4481.50 4527.16 73.40
1126 8.0956 4360.50 4527.75 72.10
1127 8.0994 4500.70 4528.34 72.30
1128 8.1031 4292.00 4528.94 71.50
1129 8.1069 4454.40 4529.53 72.50
1130 8.1107 4393.00 4530.12 72.30
1131 8.1144 4435.20 4530.70 72.80
1132 8.1182 4242.70 4531.29 71.30
1133 8.1219 4397.70 4531.88 72.20
1134 8.1257 4325.90 4532.46 71.80
1135 8.1294 4434.30 4533.05 71.40
1136 8.1332 4373.80 4533.63 71.50
1137 8.1370 4493.40 4534.22 73.10
1138 8.1407 4335.90 4534.80 71.20
1139 8.1445 4501.70 4535.38 74.30
1140 8.1482 4154.50 4535.96 69.90
1141 8.1520 4386.30 4536.55 72.90
1142 8.1558 4254.50 4537.12 72.50
1143 8.1595 4426.60 4537.70 69.60
1144 8.1633 4345.40 4538.28 69.30
1145 8.1670 4522.00 4538.86 71.20
1146 8.1708 4475.10 4539.44 71.20
1147 8.1746 4457.80 4540.01 70.50
1148 8.1783 4365.60 4540.58 69.20
1149 8.1821 4384.60 4541.16 68.70
1150 8.1858 4215.10 4541.73 67.60
1151 8.1896 4439.90 4542.30 70.70
1152 8.1933 4328.90 4542.88 69.50
1153 8.1971 4299.60 4543.45 68.30
1154 8.2009 4281.30 4544.02 68.10
1155 8.2046 4561.10 4544.58 71.30
1156 8.2084 4274.00 4545.15 67.90
1157 8.2121 4444.00 4545.72 69.20
1158 8.2159 4215.70 4546.29 68.50
1159 8.2197 4346.00 4546.85 69.40
1160 8.2234 4481.70 4547.42 70.20
1161 8.2272 4375.40 4547.98 69.40
1162 8.2309 4347.00 4548.54 68.70
1163 8.2347 4349.20 4549.10 68.70
1164 8.2384 4309.90 4549.67 68.60
1165 8.2422 4435.40 4550.23 70.20
1166 8.2460 4279.20 4550.79 69.20
1167 8.2497 4534.30 4551.34 71.00
1168 8.2535 4315.40 4551.90 68.90
1169 8.2572 4387.30 4552.46 69.60
1170 8.2610 4439.20 4553.01 69.20
1171 8.2647 4471.00 4553.57 69.60
1172 8.2685 4369.70 4554.12 69.30
1173 8.2723 4351.00 4554.68 69.70
1174 8.2760 4428.40 4555.23 70.40
1175 8.2798 4371.50 4555.78 69.70
1176 8.2835 4383.40 4556.33 69.30
1177 8.2873 4425.40 4556.88 69.90
1178 8.2911 4365.40 4557.43 69.90
1179 8.2948 4432.20 4557.98 70.10
1180 8.2986 4386.50 4558.52 69.60
1181 8.3023 4551.20 4559.07 71.10
1182 8.3061 4212.90 4559.62 68.80
1183 8.3098 4499.80 4560.16 70.10
1184 8.3136 4304.00 4560.70 68.20
1185 8.3174 4433.30 4561.25 70.70
1186 8.3211 4424.00 4561.79 70.20
1187 8.3249 4454.60 4562.33 70.40
1188 8.3287 4414.90 4562.87 70.60
1189 8.3324 4461.20 4563.41 70.40
1190 8.3362 4319.50 4563.95 69.60
1191 8.3399 4359.60 4564.48 69.40
1192 8.3437 4437.60 4565.02 70.50
1193 8.3474 4537.80 4565.55 71.60
1194 8.3512 4273.50 4566.09 68.50
1195 8.3550 4479.90 4566.62 71.00
1196 8.3587 4338.00 4567.15 68.70
1197 8.3625 4443.00 4567.69 70.00
1198 8.3662 4353.50 4568.22 69.00
1199 8.3700 4443.10 4568.75 69.60
1200 8.3737 4436.60 4569.27 70.00
1201 8.3775 4480.50 4569.80 71.00
1202 8.3813 4429.80 4570.33 70.50
1203 8.3850 4405.40 4570.85 70.90
1204 8.3888 4244.60 4571.38 69.00
1205 8.3926 4321.90 4571.90 69.60
1206 8.3963 4312.70 4572.43 69.70
1207 8.4001 4406.80 4572.95 69.50
1208 8.4038 4308.60 4573.47 69.70
1209 8.4076 4376.90 4573.99 69.50
1210 8.4113 4362.20 4574.51 69.80
1211 8.4151 4492.40 4575.03 70.50
1212 8.4189 4229.20 4575.55 68.80
1213 8.4226 4452.50 4576.06 70.70
1214 8.4264 4349.30 4576.58 70.10
1215 8.4301 4516.20 4577.09 71.00
1216 8.4339 4319.80 4577.61 70.00
1217 8.4377 4529.60 4578.12 71.30
1218 8.4414 4310.50 4578.63 69.60
1219 8.4452 4364.40 4579.14 70.00
1220 8.4489 4364.40 4579.65 70.00
1221 8.4527 4430.50 4580.16 70.90
1222 8.4565 4351.20 4580.67 69.00
1223 8.4602 4356.80 4581.18 69.10
1224 8.4640 4377.60 4581.68 69.60
1225 8.4677 4358.40 4582.19 69.80
1226 8.4715 4354.20 4582.69 69.30
1227 8.4753 4388.60 4583.19 70.40
1228 8.4790 4331.50 4583.70 68.50
1229 8.4828 4508.60 4584.20 72.10
1230 8.4865 4336.10 4584.70 69.10
1231 8.4903 4410.20 4585.20 70.30
1232 8.4941 4377.40 4585.69 70.40
1233 8.4978 4573.40 4586.19 72.30
1234 8.5016 4306.00 4586.69 69.80
1235 8.5053 4351.50 4587.18 70.60
1236 8.5091 4336.90 4587.68 69.50
1237 8.5128 4475.00 4588.17 71.30
1238 8.5166 4357.40 4588.66 68.80
1239 8.5204 4541.80 4589.15 70.70
1240 8.5241 4267.90 4589.64 69.40
1241 8.5279 4465.50 4590.13 69.80
1242 8.5316 4359.80 4590.62 69.70
1243 8.5354 4459.80 4591.11 70.30
1244 8.5392 4350.10 4591.60 68.90
1245 8.5429 4439.30 4592.08 70.80
1246 8.5467 4351.20 4592.56 70.10
1247 8.5504 4449.40 4593.05 69.70
1248 8.5542 4339.00 4593.53 69.90
1249 8.5580 4457.00 4594.01 70.90
1250 8.5617 4316.50 4594.49 69.50
1251 8.5655 4484.90 4594.97 71.00
1252 8.5692 4303.40 4595.45 69.40
1253 8.5730 4380.00 4595.93 69.90
1254 8.5767 4317.10 4596.40 69.80
1255 8.5805 4285.70 4596.88 68.90
1256 8.5843 4365.90 4597.35 70.00
1257 8.5880 4293.20 4597.82 70.00
1258 8.5918 4236.10 4598.30 68.40
1259 8.5955 4489.80 4598.77 71.10
1260 8.5993 4255.20 4599.24 69.00
1261 8.6031 4370.60 4599.71 69.80
1262 8.6068 4418.50 4600.17 70.10
1263 8.6106 4329.50 4600.64 69.60
1264 8.6144 4343.10 4601.11 69.90
1265 8.6181 4418.20 4601.57 71.40
1266 8.6219 4401.40 4602.04 70.50
1267 8.6256 4340.10 4602.50 69.60
1268 8.6294 4403.20 4602.96 70.70
1269 8.6332 4445.80 4603.42 71.00
1270 8.6369 4463.40 4603.88 72.00
1271 8.6407 4473.80 4604.34 71.50
1272 8.6444 4390.50 4604.80 70.10
1273 8.6482 4332.60 4605.25 69.70
1274 8.6519 4350.80 4605.71 70.30
1275 8.6557 4412.50 4606.16 70.70
1276 8.6595 4384.90 4606.62 70.20
1277 8.6632 4510.00 4607.07 71.80
1278 8.6670 4383.70 4607.52 71.10
1279 8.6707 4405.90 4607.97 70.90
1280 8.6745 4306.90 4608.42 70.30
1281 8.6783 4338.80 4608.87 69.80
1282 8.6820 4322.50 4609.32 70.70
1283 8.6858 4451.30 4609.76 70.90
1284 8.6895 4543.30 4610.21 73.50
1285 8.6933 4508.50 4610.65 71.70
1286 8.6971 4436.60 4611.09 70.70
1287 8.7008 4504.20 4611.54 70.90
1288 8.7046 4364.40 4611.98 69.90
1289 8.7083 4344.00 4612.42 70.50
1290 8.7121 4328.30 4612.85 68.80
1291 8.7159 4294.80 4613.29 69.30
1292 8.7196 4316.70 4613.73 70.10
1293 8.7234 4502.80 4614.16 71.40
1294 8.7271 4493.10 4614.60 72.50
1295 8.7309 4448.00 4615.03 70.30
1296 8.7347 4262.00 4615.46 69.40
1297 8.7384 4499.40 4615.89 71.10
1298 8.7422 4398.40 4616.32 71.20
1299 8.7459 4453.40 4616.75 71.30
1300 8.7497 4277.40 4617.18 68.20
1301 8.7535 4423.70 4617.61 71.00
1302 8.7572 4458.50 4618.03 70.30
1303 8.7610 4466.60 4618.46 71.00
1304 8.7647 4329.60 4618.88 70.60
1305 8.7685 4417.10 4619.30 70.90
1306 8.7723 4378.90 4619.73 70.80
1307 8.7760 4465.90 4620.15 71.40
1308 8.7798 4185.60 4620.57 68.60
1309 8.7835 4440.90 4620.98 70.90
1310 8.7873 4302.90 4621.40 70.10
1311 8.7911 4487.20 4621.82 70.90
1312 8.7948 4427.40 4622.23 71.30
1313 8.7986 4425.30 4622.65 70.70
1314 8.8023 4484.60 4623.06 71.60
1315 8.8061 4437.90 4623.47 71.70
1316 8.8099 4268.70 4623.88 68.70
1317 8.8136 4497.50 4624.29 72.30
1318 8.8174 4201.90 4624.70 69.40
1319 8.8211 4368.10 4625.10 70.60
1320 8.8249 4423.40 4625.51 70.60
1321 8.8287 4447.30 4625.92 71.10
1322 8.8324 4289.00 4626.32 69.30
1323 8.8362 4417.00 4626.72 70.40
1324 8.8399 4325.00 4627.12 70.20
1325 8.8437 4544.20 4627.52 72.20
1326 8.8475 4335.30 4627.92 69.90
1327 8.8512 4513.20 4628.32 71.50
1328 8.8550 4279.90 4628.72 69.50
1329 8.8587 4535.70 4629.12 71.70
1330 8.8625 4445.60 4629.51 70.90
1331 8.8663 4431.70 4629.90 70.50
1332 8.8700 4292.00 4630.30 69.30
1333 8.8738 4511.50 4630.69 72.10
1334 8.8775 4324.30 4631.08 69.60
1335 8.8813 4515.40 4631.47 70.90
1336 8.8851 4313.90 4631.86 70.00
1337 8.8888 4442.00 4632.24 70.80
1338 8.8926 4331.80 4632.63 70.00
1339 8.8963 4440.00 4633.02 71.00
1340 8.9001 4319.00 4633.40 69.60
1341 8.9039 4509.40 4633.78 71.10
1342 8.9076 4325.40 4634.16 69.50
1343 8.9114 4480.20 4634.54 70.50
1344 8.9151 4469.30 4634.92 71.50
1345 8.9189 4437.40 4635.30 70.20
1346 8.9227 4331.70 4635.68 69.50
1347 8.9264 4414.80 4636.05 71.10
1348 8.9302 4349.60 4636.43 69.70
1349 8.9339 4487.60 4636.80 70.90
1350 8.9377 4383.20 4637.17 69.40
1351 8.9415 4374.60 4637.55 69.40
1352 8.9452 4378.50 4637.92 69.80
1353 8.9490 4478.50 4638.29 70.20
1354 8.9527 4299.30 4638.65 68.80
1355 8.9565 4492.40 4639.02 70.50
1356 8.9603 4330.90 4639.39 68.90
1357 8.9640 4489.80 4639.75 70.60
1358 8.9678 4323.40 4640.11 69.00
1359 8.9715 4467.80 4640.48 70.50
1360 8.9753 4372.80 4640.84 69.10
1361 8.9791 4428.30 4641.20 70.20
1362 8.9828 4391.00 4641.56 69.70
1363 8.9866 4570.70 4641.91 72.30
1364 8.9903 4266.80 4642.27 69.00
1365 8.9941 4396.00 4642.62 71.20
1366 8.9979 4288.10 4642.98 70.30
1367 9.0016 4466.50 4643.33 69.70
1368 9.0054 4284.60 4643.68 68.70
1369 9.0091 4367.50 4644.03 69.20
1370 9.0129 4496.30 4644.38 70.70
1371 9.0167 4475.90 4644.73 70.10
1372 9.0204 4353.40 4645.08 69.10
1373 9.0242 4422.40 4645.43 69.70
1374 9.0279 4411.70 4645.77 69.90
1375 9.0317 4373.40 4646.11 69.70
1376 9.0355 4349.70 4646.46 70.20
1377 9.0392 4597.20 4646.80 71.90
1378 9.0430 4329.20 4647.14 69.30
1379 9.0467 4462.50 4647.48 70.50
1380 9.0505 4442.30 4647.82 70.20
1381 9.0543 4499.30 4648.15 70.50
1382 9.0580 4384.90 4648.49 70.40
1383 9.0618 4610.80 4648.82 71.70
1384 9.0768 4452.40 4650.15 71.30
1385 9.0806 4271.00 4650.48 69.50
1386 9.0843 4481.50 4650.81 71.20
1387 9.0881 4163.50 4651.13 68.00
1388 9.0919 4414.40 4651.46 70.30
1389 9.0956 4286.80 4651.78 69.30
1390 9.0994 4569.00 4652.10 71.80
1391 9.1032 4283.90 4652.43 69.30
1392 9.1069 4382.30 4652.75 69.80
1393 9.1107 4311.70 4653.07 69.70
1394 9.1144 4251.90 4653.38 69.50
1395 9.1182 4495.50 4653.70 72.10
1396 9.1220 4611.60 4654.02 73.70
1397 9.1257 4422.60 4654.33 70.30
1398 9.1295 4497.80 4654.64 71.20
1399 9.1332 4413.50 4654.96 70.80
1400 9.1370 4383.30 4655.27 69.40
1401 9.1407 4337.00 4655.58 69.60
1402 9.1445 4393.00 4655.89 70.30
1403 9.1483 4405.20 4656.19 69.90
1404 9.1520 4354.50 4656.50 70.20
1405 9.1558 4394.00 4656.80 70.40
1406 9.1595 4401.90 4657.11 70.60
1407 9.1633 4483.00 4657.41 70.70
1408 9.1671 4533.40 4657.71 71.70
1409 9.1708 4441.80 4658.01 70.40
1410 9.1746 4414.50 4658.31 70.60
1411 9.1784 4409.30 4658.61 70.20
1412 9.1821 4562.40 4658.91 71.80
1413 9.1859 4414.30 4659.20 70.20
1414 9.1896 4519.80 4659.50 71.10
1415 9.1934 4403.00 4659.79 70.70
1416 9.1972 4480.70 4660.08 71.60
1417 9.2009 4382.40 4660.37 70.40
1418 9.2047 4486.70 4660.66 71.80
1419 9.2084 4433.30 4660.95 70.00
1420 9.2122 4417.90 4661.24 70.20
1421 9.2160 4325.40 4661.52 69.80
1422 9.2197 4434.70 4661.81 70.90
1423 9.2235 4400.70 4662.09 69.50
1424 9.2272 4438.70 4662.37 70.50
1425 9.2310 4352.90 4662.66 70.20
1426 9.2348 4325.50 4662.94 69.40
1427 9.2385 4321.80 4663.22 69.40
1428 9.2423 4418.50 4663.49 70.00
1429 9.2460 4400.00 4663.77 70.10
1430 9.2498 4395.20 4664.04 70.70
1431 9.2536 4332.60 4664.32 69.60
1432 9.2573 4369.50 4664.59 69.50
1433 9.2611 4302.80 4664.86 69.30
1434 9.2648 4508.60 4665.13 71.20
1435 9.2686 4376.90 4665.40 69.70
1436 9.2724 4364.20 4665.67 70.90
1437 9.2761 4378.80 4665.94 71.10
1438 9.2799 4397.80 4666.20 70.40
1439 9.2837 4422.20 4666.47 70.50
1440 9.2874 4473.70 4666.73 71.30
1441 9.2912 4329.40 4666.99 70.40
1442 9.2949 4475.40 4667.25 71.50
1443 9.2987 4414.20 4667.51 70.90
1444 9.3025 4530.90 4667.77 71.80
1445 9.3062 4393.90 4668.03 70.50
1446 9.3100 4565.40 4668.28 71.70
1447 9.3137 4430.60 4668.54 71.00
1448 9.3175 4389.20 4668.79 70.20
1449 9.3213 4386.40 4669.04 70.70
1450 9.3250 4463.00 4669.29 71.70
1451 9.3288 4379.00 4669.54 70.10
1452 9.3325 4493.30 4669.79 71.10
1453 9.3363 4299.20 4670.04 69.90
1454 9.3401 4529.70 4670.29 71.50
1455 9.3438 4420.10 4670.53 71.20
1456 9.3476 4608.40 4670.77 72.20
1457 9.3513 4402.60 4671.02 70.40
1458 9.3551 4533.80 4671.26 72.00
1459 9.3589 4425.00 4671.50 71.30
1460 9.3626 4521.80 4671.74 70.90
1461 9.3664 4450.70 4671.97 71.20
1462 9.3701 4370.80 4672.21 70.20
1463 9.3739 4517.70 4672.45 72.00
1464 9.3777 4501.20 4672.68 71.20
1465 9.3814 4498.00 4672.91 72.10
1466 9.3852 4441.10 4673.14 71.20
1467 9.3890 4341.10 4673.38 70.60
1468 9.3927 4546.40 4673.60 73.40
1469 9.3965 4270.30 4673.83 69.50
1470 9.4002 4483.70 4674.06 71.80
1471 9.4040 4463.30 4674.28 71.90
1472 9.4078 4555.20 4674.51 72.60
1473 9.4115 4447.40 4674.73 70.00
1474 9.4153 4452.10 4674.95 71.50
1475 9.4190 4519.20 4675.17 72.50
1476 9.4228 4519.80 4675.39 71.70
1477 9.4265 4256.30 4675.61 69.70
1478 9.4303 4412.60 4675.83 70.60
1479 9.4341 4339.50 4676.04 69.80
1480 9.4378 4487.50 4676.26 71.60
1481 9.4416 4427.70 4676.47 70.20
1482 9.4454 4588.40 4676.68 72.60
1483 9.4491 4229.90 4676.89 69.20
1484 9.4529 4382.40 4677.10 70.40
1485 9.4566 4355.60 4677.31 70.50
1486 9.4604 4510.40 4677.52 71.60
1487 9.4642 4325.30 4677.72 70.30
1488 9.4679 4446.00 4677.93 71.10
1489 9.4717 4371.30 4678.13 70.60
1490 9.4754 4564.40 4678.33 71.10
1491 9.4792 4293.30 4678.53 69.30
1492 9.4830 4460.60 4678.73 72.50
1493 9.4867 4450.90 4678.93 71.30
1494 9.4905 4490.20 4679.13 71.70
1495 9.4943 4253.20 4679.32 69.80
1496 9.4980 4457.40 4679.52 71.80
1497 9.5018 4454.00 4679.71 71.30
1498 9.5055 4392.80 4679.90 71.00
1499 9.5093 4462.00 4680.09 71.00
1500 9.5131 4559.50 4680.28 73.00
1501 9.5168 4499.10 4680.47 71.90
1502 9.5206 4405.50 4680.66 70.80
1503 9.5243 4384.40 4680.84 71.40
1504 9.5281 4583.60 4681.03 72.80
1505 9.5318 4333.70 4681.21 70.20
1506 9.5356 4631.50 4681.39 72.90
1507 9.5394 4410.90 4681.57 71.60
1508 9.5431 4441.20 4681.75 71.00
1509 9.5469 4410.70 4681.93 71.00
1510 9.5507 4406.50 4682.11 70.70
1511 9.5544 4488.60 4682.28 71.70
1512 9.5582 4426.80 4682.46 71.10
1513 9.5619 4457.90 4682.63 71.90
1514 9.5657 4399.70 4682.80 71.10
1515 9.5695 4350.80 4682.98 70.30
1516 9.5732 4406.80 4683.15 70.70
1517 9.5770 4287.60 4683.31 69.60
1518 9.5807 4510.20 4683.48 71.60
1519 9.5845 4418.80 4683.65 71.40
1520 9.5883 4553.80 4683.81 72.20
1521 9.5920 4416.50 4683.97 71.30
1522 9.5958 4400.40 4684.14 70.50
1523 9.5995 4238.20 4684.30 69.80
1524 9.6033 4672.00 4684.46 76.30
1525 9.6071 4459.60 4684.62 72.30
1526 9.6108 4453.40 4684.77 71.90
1527 9.6146 4417.70 4684.93 74.10
1528 9.6184 4458.60 4685.08 73.60
1529 9.6221 4569.30 4685.24 73.70
1530 9.6259 4462.10 4685.39 72.80
1531 9.6296 4448.40 4685.54 73.30
1532 9.6334 4606.30 4685.69 74.80
1533 9.6371 4516.90 4685.84 73.40
1534 9.6409 4476.70 4685.98 72.60
1535 9.6447 4401.90 4686.13 72.90
1536 9.6484 4517.10 4686.27 72.90
1537 9.6522 4414.20 4686.42 72.50
1538 9.6559 4423.50 4686.56 72.00
1539 9.6597 4476.10 4686.70 73.20
1540 9.6635 4538.70 4686.84 73.40
1541 9.6672 4627.30 4686.98 73.90
1542 9.6710 4484.90 4687.12 71.50
1543 9.6748 4350.20 4687.25 71.80
1544 9.6785 4397.10 4687.39 72.10
1545 9.6823 4428.30 4687.52 74.10
1546 9.6860 4481.20 4687.65 71.70
1547 9.6898 4352.20 4687.78 71.50
1548 9.6936 4474.80 4687.91 71.70
1549 9.6973 4278.40 4688.04 71.90
1550 9.7011 4475.90 4688.17 72.60
1551 9.7048 4401.90 4688.29 73.10
1552 9.7086 4634.60 4688.42 75.00
1553 9.7124 4377.30 4688.54 72.00
1554 9.7161 4626.40 4688.66 74.30
1555 9.7199 4476.60 4688.78 73.10
1556 9.7236 4413.30 4688.90 73.30
1557 9.7274 4460.60 4689.02 73.60
1558 9.7312 4592.30 4689.14 73.90
1559 9.7349 4462.30 4689.25 72.60
1560 9.7387 4486.70 4689.37 73.50
1561 9.7424 4421.70 4689.48 73.00
1562 9.7462 4631.20 4689.59 74.10
1563 9.7500 4481.60 4689.71 72.80
1564 9.7537 4544.70 4689.81 73.80
1565 9.7575 4350.80 4689.92 71.80
1566 9.7612 4511.30 4690.03 72.30
1567 9.7650 4453.20 4690.14 73.00
1568 9.7688 4490.50 4690.24 73.00
1569 9.7725 4479.70 4690.34 73.80
1570 9.7763 4554.20 4690.44 73.80
1571 9.7801 4446.50 4690.55 72.40
1572 9.7838 4501.60 4690.65 72.20
1573 9.7876 4524.90 4690.74 74.00
1574 9.7913 4486.30 4690.84 72.20
1575 9.7951 4417.00 4690.94 72.50
1576 9.7989 4511.30 4691.03 73.40
1577 9.8026 4451.90 4691.12 72.50
1578 9.8064 4656.10 4691.21 75.50
1579 9.8101 4489.10 4691.30 73.00
1580 9.8139 4421.40 4691.39 72.20
1581 9.8177 4333.80 4691.48 72.00
1582 9.8214 4437.50 4691.57 71.90
1583 9.8252 4460.10 4691.65 72.10
1584 9.8289 4472.60 4691.74 72.40
1585 9.8327 4413.30 4691.82 73.00
1586 9.8365 4516.60 4691.90 73.50
1587 9.8402 4377.90 4691.98 70.90
1588 9.8440 4597.80 4692.06 74.40
1589 9.8477 4435.20 4692.14 73.10
1590 9.8515 4483.60 4692.22 73.60
1591 9.8553 4411.90 4692.29 71.50
1592 9.8590 4499.60 4692.37 73.00
1593 9.8628 4518.80 4692.44 73.40
1594 9.8666 4477.90 4692.51 73.20
1595 9.8703 4445.30 4692.58 73.70
1596 9.8741 4575.40 4692.65 74.30
1597 9.8778 4396.30 4692.72 72.10
1598 9.8816 4570.70 4692.78 73.00
1599 9.8854 4492.30 4692.85 72.60
1600 9.8891 4453.30 4692.91 72.10
1601 9.8929 4408.20 4692.98 72.70
1602 9.8966 4463.70 4693.04 72.60
1603 9.9004 4343.70 4693.10 71.60
1604 9.9042 4621.70 4693.16 75.00
1605 9.9079 4399.00 4693.21 72.40
1606 9.9117 4550.40 4693.27 72.60
1607 9.9154 4485.90 4693.33 73.60
1608 9.9192 4608.50 4693.38 73.10
1609 9.9230 4523.50 4693.43 73.60
1610 9.9267 4446.40 4693.48 73.20
1611 9.9305 4514.60 4693.53 73.20
1612 9.9342 4635.80 4693.58 74.90
1613 9.9380 4368.20 4693.63 73.30
1614 9.9418 4583.30 4693.68 73.80
1615 9.9455 4400.70 4693.72 72.20
1616 9.9493 4422.40 4693.77 72.80
1617 9.9530 4504.50 4693.81 72.80
1618 9.9568 4468.80 4693.85 72.70
1619 9.9606 4495.90 4693.89 73.20
1620 9.9643 4575.70 4693.93 74.30
1621 9.9681 4365.70 4693.97 72.40
1622 9.9719 4505.80 4694.00 73.50
1623 9.9756 4468.00 4694.04 72.30
1624 9.9794 4660.40 4694.07 74.50
1625 9.9831 4526.20 4694.10 73.40
1626 9.9869 4599.30 4694.13 73.80
1627 9.9907 4547.30 4694.16 74.20
1628 9.9944 4704.10 4694.19 76.20
1629 9.9982 4508.70 4694.22 72.60
1630 10.0019 4561.20 4694.25 74.10
1631 10.0057 4481.20 4694.27 72.80
1632 10.0094 4553.80 4694.29 73.50
1633 10.0132 4488.50 4694.32 73.70
1634 10.0170 4632.60 4694.34 74.70
1635 10.0207 4510.80 4694.36 73.00
1636 10.0245 4544.10 4694.38 72.40
1637 10.0282 4529.00 4694.39 73.50
1638 10.0320 4606.60 4694.41 73.60
1639 10.0358 4510.10 4694.42 73.70
1640 10.0395 4738.50 4694.44 75.10
1641 10.0433 4414.90 4694.45 73.60
1642 10.0471 4486.20 4694.46 72.90
1643 10.0508 4460.80 4694.47 72.50
1644 10.0546 4519.00 4694.48 72.20
1645 10.0583 4321.60 4694.48 71.40
1646 10.0621 4670.60 4694.49 75.60
1647 10.0659 4477.80 4694.49 71.90
1648 10.0696 4525.20 4694.50 73.40
1649 10.0734 4476.30 4694.50 73.00
1650 10.0771 4556.30 4694.50 74.90
1651 10.0809 4519.60 4694.50 74.90
1652 10.0847 4623.00 4694.50 74.40
1653 10.0884 4428.30 4694.50 73.00
1654 10.0922 4580.20 4694.49 74.60
1655 10.0959 4286.10 4694.49 70.80
1656 10.0997 4649.50 4694.48 74.30
1657 10.1035 4394.70 4694.47 72.30
1658 10.1072 4612.00 4694.46 75.00
1659 10.1110 4299.40 4694.45 71.70
1660 10.1147 4566.50 4694.44 74.10
1661 10.1185 4394.50 4694.43 71.50
1662 10.1223 4563.40 4694.41 74.10
1663 10.1260 4431.10 4694.40 73.10
1664 10.1298 4679.90 4694.38 75.50
1665 10.1335 4476.70 4694.36 72.50
1666 10.1373 4530.50 4694.34 73.20
1667 10.1411 4451.40 4694.32 72.20
1668 10.1448 4516.40 4694.30 73.90
1669 10.1486 4473.70 4694.27 73.50
1670 10.1524 4591.60 4694.25 74.40
1671 10.1561 4494.40 4694.22 73.20
1672 10.1599 4472.90 4694.20 74.40
1673 10.1636 4302.40 4694.17 72.30
1674 10.1674 4567.70 4694.14 73.40
1675 10.1712 4571.40 4694.11 74.30
1676 10.1749 4584.20 4694.08 74.40
1677 10.1787 4598.30 4694.04 75.40
1678 10.1824 4514.80 4694.01 74.10
1679 10.1862 4424.90 4693.97 72.70
1680 10.1899 4570.30 4693.94 73.80
1681 10.1937 4487.80 4693.90 73.40
1682 10.1975 4608.30 4693.86 74.30
1683 10.2012 4471.70 4693.82 73.00
1684 10.2050 4463.20 4693.77 73.10
1685 10.2087 4491.70 4693.73 73.90
1686 10.2125 4501.40 4693.69 73.50
1687 10.2163 4575.70 4693.64 74.40
1688 10.2200 4609.80 4693.59 74.50
1689 10.2238 4496.30 4693.54 74.20
1690 10.2275 4633.00 4693.49 74.50
1691 10.2313 4596.50 4693.44 73.50
1692 10.2351 4585.50 4693.39 74.90
1693 10.2388 4536.00 4693.34 73.00
1694 10.2426 4600.60 4693.28 74.80
1695 10.2464 4491.00 4693.23 72.90
1696 10.2501 4643.10 4693.17 74.10
1697 10.2539 4498.60 4693.11 74.50
1698 10.2576 4523.30 4693.05 73.10
1699 10.2614 4504.10 4692.99 72.30
1700 10.2652 4586.90 4692.93 74.80
1701 10.2689 4498.60 4692.86 72.50
1702 10.2727 4627.90 4692.80 74.50
1703 10.2764 4510.40 4692.73 73.80
1704 10.2802 4581.80 4692.67 72.50
1705 10.2839 4554.80 4692.60 73.70
1706 10.2877 4483.90 4692.53 74.00
1707 10.2915 4604.90 4692.46 75.30
1708 10.2952 4548.90 4692.38 73.60
1709 10.2990 4492.50 4692.31 74.10
1710 10.3027 4530.70 4692.23 74.30
1711 10.3065 4462.60 4692.16 71.60
1712 10.3103 4527.40 4692.08 73.60
1713 10.3140 4600.80 4692.00 74.60
1714 10.3178 4563.00 4691.92 74.10
1715 10.3216 4515.00 4691.84 73.30
1716 10.3253 4536.40 4691.76 74.00
1717 10.3291 4426.70 4691.67 73.50
1718 10.3328 4632.10 4691.59 75.40
1719 10.3366 4460.40 4691.50 73.00
1720 10.3404 4574.30 4691.42 75.00
1721 10.3441 4445.80 4691.33 73.20
1722 10.3479 4627.70 4691.24 75.60
1723 10.3516 4450.20 4691.15 73.10
1724 10.3554 4578.70 4691.05 74.30
1725 10.3591 4591.90 4690.96 74.40
1726 10.3629 4637.20 4690.86 75.90
1727 10.3667 4482.60 4690.77 73.40
1728 10.3704 4640.60 4690.67 74.90
1729 10.3742 4491.40 4690.57 72.30
1730 10.3779 4630.50 4690.47 75.40
1731 10.3817 4583.00 4690.37 74.70
1732 10.3855 4512.80 4690.27 74.30
1733 10.3892 4596.00 4690.17 74.80
1734 10.3930 4682.10 4690.06 75.30
1735 10.3968 4513.60 4689.95 75.10
1736 10.4005 4655.70 4689.85 75.40
1737 10.4043 4359.40 4689.74 73.50
1738 10.4080 4562.30 4689.63 74.40
1739 10.4118 4473.60 4689.52 73.40
1740 10.4156 4552.10 4689.40 74.20
1741 10.4193 4571.10 4689.29 75.20
1742 10.4231 4655.30 4689.17 75.00
1743 10.4268 4526.60 4689.06 74.30
1744 10.4306 4642.90 4688.94 75.70
1745 10.4344 4508.20 4688.82 74.70
1746 10.4381 4571.20 4688.70 73.20
1747 10.4419 4577.70 4688.58 74.70
1748 10.4456 4611.50 4688.46 75.50
1749 10.4494 4376.90 4688.33 72.00
1750 10.4531 4637.50 4688.21 74.10
1751 10.4569 4614.20 4688.08 75.40
1752 10.4607 4578.30 4687.96 75.50
1753 10.4644 4472.10 4687.83 72.80
1754 10.4682 4583.40 4687.70 74.70
1755 10.4719 4480.70 4687.57 73.80
1756 10.4757 4570.00 4687.43 74.90
1757 10.4795 4592.40 4687.30 74.40
1758 10.4832 4663.30 4687.17 75.20
1759 10.4870 4385.20 4687.03 73.50
1760 10.4908 4511.40 4686.89 73.80
1761 10.4945 4673.20 4686.75 75.60
1762 10.4983 4683.60 4686.61 76.90
1763 10.5020 4465.10 4686.47 74.40
1764 10.5058 4528.10 4686.33 73.80
1765 10.5096 4451.90 4686.19 75.10
1766 10.5133 4544.80 4686.04 74.50
1767 10.5171 4457.50 4685.90 73.00
1768 10.5208 4508.90 4685.75 74.70
1769 10.5246 4506.10 4685.60 73.50
1770 10.5283 4581.90 4685.45 73.90
1771 10.5321 4501.80 4685.30 75.20
1772 10.5359 4580.40 4685.15 75.90
1773 10.5396 4369.50 4684.99 72.90
1774 10.5434 4498.90 4684.84 74.80
1775 10.5471 4372.20 4684.68 74.30
1776 10.5509 4710.50 4684.52 76.20
1777 10.5547 4572.60 4684.37 73.60
1778 10.5584 4689.30 4684.21 76.20
1779 10.5622 4400.50 4684.05 73.60
1780 10.5659 4586.60 4683.88 73.20
1781 10.5697 4586.20 4683.72 72.70
1782 10.5735 4651.60 4683.56 73.70
1783 10.5772 4527.80 4683.39 72.80
1784 10.5810 4634.70 4683.22 73.40
1785 10.5847 4535.30 4683.05 72.50
1786 10.5885 4524.80 4682.88 72.90
1787 10.5923 4516.40 4682.71 72.70
1788 10.5960 4636.70 4682.54 73.10
1789 10.5998 4558.00 4682.37 73.10
1790 10.6035 4608.80 4682.19 72.70
1791 10.6073 4472.80 4682.02 71.10
1792 10.6111 4557.50 4681.84 73.40
1793 10.6148 4561.90 4681.66 71.60
1794 10.6186 4509.50 4681.48 72.70
1795 10.6223 4575.20 4681.30 72.80
1796 10.6261 4730.40 4681.12 75.40
1797 10.6299 4543.70 4680.94 72.50
1798 10.6336 4595.20 4680.75 73.30
1799 10.6374 4540.00 4680.57 73.50
1800 10.6411 4632.60 4680.38 73.80
1801 10.6449 4483.90 4680.19 72.40
1802 10.6487 4608.60 4680.00 74.10
1803 10.6524 4563.70 4679.81 73.00
1804 10.6562 4607.50 4679.62 73.10
1805 10.6599 4429.00 4679.43 71.70
1806 10.6637 4605.40 4679.23 73.30
1807 10.6674 4438.50 4679.04 71.70
1808 10.6712 4603.90 4678.84 73.80
1809 10.6750 4450.00 4678.65 72.00
1810 10.6787 4562.90 4678.45 71.60
1811 10.6825 4611.00 4678.25 72.10
1812 10.6862 4528.40 4678.04 71.90
1813 10.6900 4522.70 4677.84 73.10
1814 10.6938 4633.10 4677.64 72.90
1815 10.6975 4527.70 4677.43 73.00
1816 10.7013 4597.70 4677.23 72.70
1817 10.7050 4506.30 4677.02 72.40
1818 10.7088 4564.10 4676.81 72.20
1819 10.7126 4337.80 4676.60 71.10
1820 10.7163 4603.40 4676.39 73.10
1821 10.7201 4532.60 4676.18 72.90
1822 10.7238 4738.90 4675.96 74.30
1823 10.7276 4553.90 4675.75 73.00
1824 10.7314 4699.40 4675.53 74.50
1825 10.7351 4521.20 4675.31 72.00
1826 10.7389 4483.00 4675.10 72.10
1827 10.7426 4554.80 4674.88 73.20
1828 10.7464 4598.50 4674.65 73.00
1829 10.7501 4602.40 4674.43 73.10
1830 10.7539 4701.40 4674.21 73.80
1831 10.7577 4366.90 4673.98 71.30
1832 10.7614 4544.70 4673.76 71.80
1833 10.7652 4489.10 4673.53 73.40
1834 10.7690 4610.70 4673.30 73.10
1835 10.7727 4513.20 4673.07 74.20
1836 10.7765 4503.40 4672.84 72.30
1837 10.7802 4684.90 4672.61 74.30
1838 10.7840 4577.90 4672.38 72.50
1839 10.7877 4473.10 4672.14 71.80
1840 10.7915 4713.40 4671.91 74.00
1841 10.7953 4420.50 4671.67 70.00
1842 10.7990 4749.10 4671.43 74.70
1843 10.8028 4632.10 4671.19 73.20
1844 10.8065 4600.90 4670.95 73.10
1845 10.8103 4525.60 4670.71 73.50
1846 10.8141 4681.30 4670.47 75.30
1847 10.8178 4553.90 4670.23 71.70
1848 10.8216 4757.70 4669.98 75.30
1849 10.8253 4556.10 4669.73 72.60
1850 10.8291 4558.40 4669.49 73.20
1851 10.8329 4528.50 4669.24 72.70
1852 10.8366 4527.20 4668.99 72.80
1853 10.8404 4506.50 4668.74 72.20
1854 10.8441 4528.60 4668.48 71.90
1855 10.8479 4498.40 4668.23 72.00
1856 10.8517 4392.50 4667.98 70.70
1857 10.8554 4564.30 4667.72 73.40
1858 10.8592 4539.30 4667.46 72.70
1859 10.8629 4619.30 4667.21 73.20
1860 10.8667 4761.70 4666.95 73.90
1861 10.8704 4574.00 4666.68 73.10
1862 10.8742 4558.10 4666.42 73.00
1863 10.8780 4685.70 4666.16 74.50
1864 10.8817 4539.00 4665.90 72.60
1865 10.8855 4556.10 4665.63 71.80
1866 10.8892 4685.70 4665.36 74.50
1867 10.8930 4489.00 4665.10 72.80
1868 10.8968 4581.90 4664.83 73.30
1869 10.9005 4655.00 4664.56 73.30
1870 10.9043 4768.10 4664.28 75.50
1871 10.9080 4470.90 4664.01 72.40
1872 10.9118 4623.00 4663.74 74.20
1873 10.9156 4504.80 4663.46 72.00
1874 10.9193 4560.20 4663.19 73.50
1875 10.9231 4588.40 4662.91 73.20
1876 10.9268 4624.80 4662.63 74.10
1877 10.9306 4569.50 4662.35 72.70
1878 10.9343 4620.20 4662.07 73.60
1879 10.9381 4482.60 4661.79 72.30
1880 10.9419 4573.70 4661.50 73.30
1881 10.9456 4396.80 4661.22 71.50
1882 10.9494 4571.80 4660.93 72.70
1883 10.9531 4643.00 4660.65 74.50
1884 10.9569 4648.50 4660.36 74.10
1885 10.9607 4513.00 4660.07 73.30
1886 10.9644 4626.20 4659.78 74.30
1887 10.9682 4637.90 4659.49 73.60
1888 10.9719 4655.60 4659.19 73.90
1889 10.9757 4479.60 4658.90 72.70
1890 10.9794 4627.00 4658.60 74.50
1891 10.9832 4490.50 4658.31 73.40
1892 10.9870 4673.10 4658.01 73.00
1893 10.9907 4594.50 4657.71 74.50
1894 10.9945 4547.60 4657.41 73.60
1895 10.9982 4492.80 4657.11 73.00
1896 11.0020 4630.70 4656.81 73.30
1897 11.0057 4605.30 4656.50 74.60
1898 11.0095 4740.40 4656.20 76.40
1899 11.0133 4405.20 4655.89 72.60
1900 11.0170 4587.60 4655.59 73.90
1901 11.0208 4462.80 4655.28 72.80
1902 11.0245 4645.30 4654.97 73.80
1903 11.0283 4368.90 4654.66 71.90
1904 11.0321 4668.20 4654.35 74.60
1905 11.0358 4507.40 4654.03 72.50
1906 11.0396 4636.70 4653.72 74.60
1907 11.0433 4504.90 4653.40 74.20
1908 11.0471 4626.80 4653.09 73.10
1909 11.0508 4453.50 4652.77 71.80
1910 11.0546 4718.70 4652.45 74.00
1911 11.0584 4690.60 4652.13 73.90
1912 11.0621 4576.70 4651.81 72.40
1913 11.0659 4595.90 4651.49 73.80
1914 11.0696 4718.30 4651.16 73.90
1915 11.0734 4667.80 4650.84 73.30
1916 11.0772 4581.90 4650.51 72.50
1917 11.0809 4654.60 4650.19 73.60
1918 11.0847 4641.80 4649.86 72.40
1919 11.0884 4541.00 4649.53 73.00
1920 11.0922 4667.90 4649.20 73.80
1921 11.0960 4436.70 4648.87 72.50
1922 11.0997 4600.10 4648.54 73.60
1923 11.1035 4542.80 4648.20 73.20
1924 11.1072 4671.50 4647.87 75.20
1925 11.1110 4531.80 4647.53 73.20
1926 11.1147 4814.00 4647.19 74.80
1927 11.1185 4623.60 4646.85 73.90
1928 11.1223 4690.20 4646.51 73.50
1929 11.1260 4825.90 4646.17 73.10
1930 11.1298 4609.70 4645.83 74.90
1931 11.1335 4594.60 4645.49 73.60
1932 11.1373 4670.60 4645.14 73.90
1933 11.1411 4546.40 4644.80 73.60
1934 11.1448 4631.50 4644.45 74.40
1935 11.1486 4730.00 4644.10 74.70
1936 11.1523 4603.70 4643.75 73.00
1937 11.1561 4592.20 4643.40 73.40
1938 11.1598 4631.80 4643.05 73.30
1939 11.1636 4513.70 4642.70 73.30
1940 11.1673 4694.90 4642.35 73.90
1941 11.1711 4562.60 4641.99 74.10
1942 11.1749 4481.30 4641.64 72.50
1943 11.1786 4637.00 4641.28 74.20
1944 11.1824 4697.60 4640.92 74.60
1945 11.1861 4580.40 4640.56 73.40
1946 11.1899 4632.60 4640.20 74.30
1947 11.1937 4709.00 4639.84 73.80
1948 11.1974 4727.50 4639.48 75.30
1949 11.2012 4600.40 4639.11 73.80
1950 11.2049 4676.90 4638.75 74.50
1951 11.2087 4522.90 4638.38 72.10
1952 11.2124 4617.60 4638.02 73.80
1953 11.2162 4688.40 4637.65 74.70
1954 11.2200 4677.70 4637.28 74.10
1955 11.2237 4539.80 4636.91 72.90
1956 11.2275 4632.20 4636.53 73.50
1957 11.2312 4482.10 4636.16 72.60
1958 11.2350 4668.10 4635.79 74.10
1959 11.2388 4603.90 4635.41 74.40
1960 11.2425 4538.30 4635.04 74.20
1961 11.2463 4579.70 4634.66 73.20
1962 11.2500 4643.80 4634.28 74.50
1963 11.2538 4628.00 4633.90 74.00
1964 11.2575 4676.40 4633.52 75.00
1965 11.2613 4523.90 4633.14 73.60
1966 11.2650 4643.90 4632.75 74.50
1967 11.2688 4400.00 4632.37 72.80
1968 11.2726 4711.10 4631.98 75.60
1969 11.2763 4698.00 4631.60 74.50
1970 11.2801 4687.50 4631.21 74.80
1971 11.2838 4573.60 4630.82 73.30
1972 11.2876 4814.90 4630.43 75.50
1973 11.2914 4625.90 4630.04 74.50
1974 11.2951 4743.70 4629.65 75.60
1975 11.2989 4517.60 4629.25 73.10
1976 11.3026 4598.90 4628.86 73.50
1977 11.3064 4545.00 4628.46 73.90
1978 11.3101 4639.10 4628.07 74.20
1979 11.3139 4532.70 4627.67 73.40
1980 11.3176 4616.30 4627.27 75.00
1981 11.3214 4591.90 4626.87 74.30
1982 11.3252 4626.80 4626.47 74.20
1983 11.3289 4483.40 4626.07 73.30
1984 11.3327 4708.20 4625.66 75.00
1985 11.3364 4693.60 4625.26 75.00
1986 11.3402 4699.20 4624.85 73.80
1987 11.3440 4565.90 4624.45 73.40
1988 11.3477 4597.80 4624.04 74.00
1989 11.3515 4566.10 4623.63 74.30
1990 11.3552 4594.80 4623.22 73.80
1991 11.3590 4500.20 4622.81 73.00
1992 11.3627 4677.00 4622.39 75.00
1993 11.3665 4544.70 4621.98 73.00
1994 11.3702 4723.10 4621.57 75.40
1995 11.3740 4591.40 4621.15 73.80
1996 11.3778 4602.10 4620.73 73.30
1997 11.3815 4507.20 4620.32 73.20
1998 11.3853 4699.50 4619.90 74.20
1999 11.3890 4486.30 4619.48 72.80
2000 11.3928 4689.60 4619.05 74.20
2001 11.3966 4684.80 4618.63 75.50
2002 11.4003 4730.50 4618.21 73.40
2003 11.4041 4646.00 4617.78 74.70
2004 11.4078 4657.30 4617.36 74.10
2005 11.4116 4695.00 4616.93 74.80
2006 11.4153 4925.90 4616.50 76.80
2007 11.4191 4803.40 4616.07 76.50
2008 11.4228 4868.30 4615.65 75.80
2009 11.4266 4841.00 4615.21 76.70
2010 11.4304 4927.50 4614.78 76.50
2011 11.4341 4711.30 4614.35 74.80
2012 11.4379 4725.40 4613.91 74.60
2013 11.4416 4663.70 4613.48 74.00
2014 11.4454 4628.40 4613.04 74.80
2015 11.4492 4734.40 4612.60 74.80
2016 11.4529 4659.90 4612.16 74.20
2017 11.4567 4644.50 4611.72 73.90
2018 11.4604 4649.50 4611.28 74.40
2019 11.4642 4547.10 4610.84 73.20
2020 11.4679 4564.50 4610.40 73.90
2021 11.4717 4543.20 4609.95 74.20
2022 11.4754 4717.70 4609.51 75.60
2023 11.4792 4578.30 4609.06 74.60
2024 11.4830 4669.80 4608.61 73.90
2025 11.4867 4377.10 4608.16 72.50
2026 11.4905 4641.40 4607.72 74.40
2027 11.4942 4563.80 4607.26 73.90
2028 11.4980 4703.90 4606.81 72.20
2029 11.5017 4565.70 4606.36 74.80
2030 11.5055 4549.80 4605.90 72.30
2031 11.5093 4775.00 4605.45 75.70
2032 11.5130 4693.30 4604.99 76.00
2033 11.5168 4590.90 4604.54 74.40
2034 11.5205 4708.90 4604.08 75.40
2035 11.5243 4708.00 4603.62 81.70
2036 11.5280 4613.30 4603.16 72.30
2037 11.5318 4601.00 4602.70 72.10
2038 11.5356 4644.20 4602.23 73.50
2039 11.5393 4503.00 4601.77 70.70
2040 11.5431 4691.30 4601.30 74.10
2041 11.5468 4644.80 4600.84 72.00
2042 11.5506 4756.00 4600.37 74.50
2043 11.5543 4576.40 4599.90 71.90
2044 11.5581 4640.60 4599.43 71.80
2045 11.5618 4660.80 4598.96 72.40
2046 11.5656 4688.90 4598.49 73.90
2047 11.5694 4564.20 4598.02 71.20
2048 11.5731 4716.20 4597.55 72.60
2049 11.5769 4640.00 4597.07 72.80
2050 11.5806 4638.20 4596.59 73.40
2051 11.5844 4659.30 4596.12 73.20
2052 11.5881 4671.10 4595.64 72.70
2053 11.5919 4604.30 4595.16 72.80
2054 11.5956 4669.30 4594.68 73.50
2055 11.5994 4573.30 4594.20 72.40
2056 11.6032 4720.80 4593.72 73.00
2057 11.6069 4598.10 4593.23 72.10
2058 11.6107 4766.20 4592.75 74.70
2059 11.6144 4492.30 4592.27 72.30
2060 11.6182 4773.20 4591.78 73.10
2061 11.6219 4630.10 4591.29 72.30
2062 11.6257 4581.40 4590.80 72.60
2063 11.6294 4596.30 4590.31 72.60
2064 11.6332 4677.30 4589.82 73.10
2065 11.6370 4619.00 4589.33 72.90
2066 11.6407 4602.70 4588.84 73.10
2067 11.6445 4635.00 4588.34 73.20
2068 11.6482 4648.20 4587.85 73.40
2069 11.6520 4652.30 4587.35 73.20
2070 11.6558 4589.60 4586.86 72.20
2071 11.6595 4594.10 4586.36 72.20
2072 11.6633 4676.60 4585.86 74.20
2073 11.6670 4588.50 4585.36 73.10
2074 11.6708 4683.20 4584.86 73.70
2075 11.6745 4543.30 4584.36 72.20
2076 11.6783 4557.60 4583.85 72.50
2077 11.6820 4641.00 4583.35 73.60
2078 11.6858 4839.00 4582.84 75.20
2079 11.6896 4564.00 4582.34 72.70
2080 11.6933 4757.30 4591.59 74.00
2081 11.6971 4712.10 4591.34 73.80
2082 11.7008 4995.90 4591.11 75.90
2083 11.7046 4513.70 4590.89 72.30
2084 11.7083 4737.10 4590.68 74.00
2085 11.7121 4597.70 4590.48 73.10
2086 11.7158 4694.00 4590.29 73.70
2087 11.7196 4668.70 4590.12 74.20
2088 11.7233 4679.30 4589.96 73.30
2089 11.7271 4662.80 4589.82 73.80
2090 11.7309 4691.40 4589.70 73.60
2091 11.7346 4649.40 4589.59 72.70
2092 11.7384 4740.90 4589.50 74.10
2093 11.7421 4564.70 4589.43 72.50
2094 11.7459 4813.90 4589.38 75.00
2095 11.7496 4544.00 4589.36 72.00
2096 11.7534 4764.10 4589.36 73.50
2097 11.7571 4615.70 4589.38 73.10
2098 11.7609 4663.30 4589.44 72.80
2099 11.7647 4589.50 4589.52 72.60
2100 11.7684 4776.80 4589.64 74.30
2101 11.7722 4627.90 4589.79 73.50
2102 11.7759 4752.80 4589.98 74.00
2103 11.7797 4604.40 4590.21 71.90
2104 11.7834 4756.80 4590.49 74.50
2105 11.7872 4655.10 4590.81 72.90
2106 11.7909 4738.70 4591.18 73.90
2107 11.7947 4680.70 4591.62 73.70
2108 11.7985 4632.20 4592.11 72.70
2109 11.8022 4732.50 4592.67 74.50
2110 11.8060 4748.00 4593.31 73.90
2111 11.8097 4610.30 4594.02 72.40
2112 11.8135 4701.70 4594.82 72.70
2113 11.8172 4735.30 4595.72 73.90
2114 11.8210 4710.20 4596.72 73.30
2115 11.8247 4663.90 4597.84 73.20
2116 11.8285 4637.30 4599.09 72.70
2117 11.8322 4627.20 4600.48 72.60
2118 11.8360 4750.60 4602.03 74.10
2119 11.8398 4697.40 4603.76 73.50
2120 11.8435 4779.20 4605.68 74.90
2121 11.8473 4650.60 4607.83 72.80
2122 11.8510 4693.90 4610.21 73.40
2123 11.8548 4816.80 4612.89 74.30
2124 11.8585 4887.00 4615.87 75.20
2125 11.8623 4636.20 4619.22 73.00
2126 11.8660 4899.60 4622.97 75.60
2127 11.8698 4626.20 4627.19 72.90
2128 11.8736 4836.20 4631.95 74.50
2129 11.8773 4628.10 4637.34 73.00
2130 11.8811 4739.90 4643.44 74.10
2131 11.8848 4777.60 4650.41 74.60
2132 11.8886 4890.50 4658.35 75.00
2133 11.8923 4564.50 4667.50 73.20
2134 11.8961 4859.90 4678.03 74.70
2135 11.8998 4697.90 4690.29 73.30
2136 11.9036 4814.00 4704.56 74.90
2137 11.9073 4787.50 4721.35 75.00
2138 11.9111 5014.20 4741.30 75.40
2139 11.9149 4858.10 4765.09 75.90
2140 11.9186 4989.80 4793.90 75.70
2141 11.9224 4950.00 4829.00 74.90
2142 11.9261 5113.20 4872.51 76.80
2143 11.9299 5201.20 4926.97 78.60
2144 11.9336 5178.80 4996.73 77.30
2145 11.9374 5407.50 5087.68 79.60
2146 11.9411 5765.10 5212.37 82.10
2147 11.9449 5858.40 5400.75 82.40
2148 11.9486 6685.90 5744.50 89.40
2149 11.9524 7226.50 6499.29 92.30
2150 11.9562 9082.20 8211.55 105.50
2151 11.9599 12453.10 11719.70 125.10
2152 11.9637 19715.40 17600.10 161.20
2153 11.9674 27104.30 25236.90 194.10
2154 11.9712 31638.90 31955.80 211.20
2155 11.9749 29951.90 33527.40 206.30
2156 11.9787 25445.80 28670.80 188.00
2157 11.9824 18165.10 20990.10 154.00
2158 11.9862 12255.50 14096.90 122.80
2159 11.9880 10025.40 11601.60 108.90
2160 11.9917 7544.10 8146.64 98.10
2161 11.9955 6653.20 6465.76 88.70
2162 11.9993 6004.20 5725.02 85.60
2163 12.0030 5933.80 5385.20 86.20
2164 12.0068 5363.70 5198.16 80.80
2165 12.0105 5454.90 5073.49 81.60
2166 12.0143 5185.20 4981.85 86.00
2167 12.0180 5205.10 4911.63 77.10
2168 12.0218 4917.50 4856.19 74.70
2169 12.0256 5044.60 4811.79 76.90
2170 12.0293 4808.90 4775.75 73.30
2171 12.0331 4911.60 4745.93 75.90
2172 12.0368 4847.20 4721.04 73.60
2173 12.0406 4987.40 4700.08 76.40
2174 12.0443 4676.20 4682.17 72.80
2175 12.0481 4834.60 4666.80 73.40
2176 12.0519 4818.90 4653.44 73.70
2177 12.0556 4801.50 4641.77 74.90
2178 12.0594 4769.00 4631.52 72.90
2179 12.0631 4736.50 4622.42 72.80
2180 12.0669 4664.70 4614.32 73.00
2181 12.0706 4825.70 4607.08 74.90
2182 12.0744 4685.20 4600.55 73.40
2183 12.0781 4763.10 4594.65 73.50
2184 12.0819 4711.70 4589.27 73.70
2185 12.0857 4732.20 4584.36 74.00
2186 12.0894 4653.60 4579.87 73.10
2187 12.0932 4826.00 4575.72 73.90
2188 12.0969 4569.80 4571.90 71.90
2189 12.1007 4751.00 4568.35 74.50
2190 12.1044 4684.90 4565.04 74.00
2191 12.1082 4631.20 4561.96 71.90
2192 12.1119 4575.50 4559.08 71.90
2193 12.1157 4751.50 4556.37 74.00
2194 12.1195 4631.00 4553.81 72.90
2195 12.1232 4796.60 4551.40 74.10
2196 12.1270 4631.90 4549.12 73.00
2197 12.1307 4781.20 4546.96 74.60
2198 12.1345 4633.00 4544.90 73.20
2199 12.1382 4747.20 4542.93 74.20
2200 12.1420 4601.50 4541.06 72.80
2201 12.1458 4688.00 4539.26 73.10
2202 12.1495 4547.90 4537.54 71.90
2203 12.1533 4730.50 4535.88 74.70
2204 12.1570 4601.60 4534.29 73.20
2205 12.1608 4705.20 4532.75 73.90
2206 12.1645 4637.70 4531.26 73.00
2207 12.1683 4699.10 4529.82 73.70
2208 12.1720 4756.10 4528.43 74.60
2209 12.1758 4887.30 4527.07 75.60
2210 12.1796 4647.10 4525.76 73.40
2211 12.1833 4762.20 4524.48 74.10
2212 12.1871 4677.20 4523.23 73.50
2213 12.1908 4759.20 4522.01 73.90
2214 12.1946 4700.40 4520.82 73.90
2215 12.1983 4818.80 4519.66 74.60
2216 12.2021 4623.80 4518.52 73.30
2217 12.2058 4848.00 4517.41 75.00
2218 12.2096 4591.40 4516.31 73.50
2219 12.2134 4749.70 4515.24 73.90
2220 12.2171 4628.50 4514.19 73.50
2221 12.2178 4546.40 4513.98 71.80
2222 12.2216 4725.80 4512.95 72.20
2223 12.2254 4707.90 4511.93 73.10
2224 12.2291 4827.50 4510.93 74.90
2225 12.2329 4651.30 4509.94 72.90
2226 12.2366 4686.60 4508.97 73.30
2227 12.2404 4683.10 4508.00 73.20
2228 12.2441 4764.20 4507.06 74.30
2229 12.2479 4539.70 4506.12 72.20
2230 12.2516 4698.90 4505.19 72.80
2231 12.2554 4662.40 4504.27 73.50
2232 12.2591 4758.80 4493.92 73.80
2233 12.2629 4526.10 4493.27 71.40
2234 12.2667 4667.40 4492.61 74.10
2235 12.2704 4609.60 4491.95 72.10
2236 12.2742 4773.30 4491.29 74.30
2237 12.2779 4581.00 4490.63 72.50
2238 12.2817 4737.30 4489.97 73.70
2239 12.2854 4626.00 4489.31 72.50
2240 12.2892 4738.10 4488.65 71.50
2241 12.2929 4706.50 4487.99 73.60
2242 12.2967 4743.30 4487.32 73.90
2243 12.3005 4562.00 4486.66 72.70
2244 12.3042 4666.50 4485.99 74.20
2245 12.3080 4522.00 4485.32 71.90
2246 12.3117 4671.10 4484.66 73.00
2247 12.3155 4742.70 4483.99 74.10
2248 12.3192 4747.60 4483.32 73.80
2249 12.3230 4624.80 4482.65 72.40
2250 12.3267 4732.90 4481.98 73.60
2251 12.3305 4598.00 4481.30 73.70
2252 12.3343 4695.50 4480.63 73.70
2253 12.3380 4599.00 4479.96 73.60
2254 12.3418 4798.60 4479.28 73.50
2255 12.3455 4734.60 4478.61 73.70
2256 12.3493 4716.80 4477.93 74.00
2257 12.3530 4745.80 4477.25 74.40
2258 12.3568 4705.80 4476.57 73.50
2259 12.3605 4721.40 4475.89 73.40
2260 12.3643 4748.30 4475.21 74.10
2261 12.3680 4599.30 4474.53 72.70
2262 12.3718 4750.00 4473.85 72.20
2263 12.3756 4670.00 4473.17 73.30
2264 12.3793 4640.40 4472.49 72.80
2265 12.3831 4593.00 4471.80 72.60
2266 12.3868 4718.90 4471.12 74.20
2267 12.3906 4718.40 4470.43 73.70
2268 12.3943 4825.10 4469.74 74.00
2269 12.3981 4533.00 4469.05 72.20
2270 12.4018 4669.60 4468.36 73.20
2271 12.4056 4539.90 4467.67 72.50
2272 12.4094 4844.00 4466.98 75.40
2273 12.4131 4635.80 4466.29 72.70
2274 12.4169 4651.50 4465.60 72.70
2275 12.4206 4674.80 4464.90 73.70
2276 12.4244 4676.00 4464.21 73.10
2277 12.4281 4654.80 4463.52 73.30
2278 12.4319 4798.60 4462.82 74.50
2279 12.4356 4613.30 4462.12 72.80
2280 12.4394 4741.10 4461.42 74.00
2281 12.4432 4591.00 4460.72 73.00
2282 12.4469 4611.70 4460.03 72.50
2283 12.4507 4514.90 4459.32 71.10
2284 12.4544 4712.20 4458.62 73.60
2285 12.4582 4483.30 4457.92 71.90
2286 12.4619 4686.10 4457.22 73.50
2287 12.4657 4661.70 4456.51 73.30
2288 12.4694 4827.60 4455.81 75.10
2289 12.4732 4579.00 4455.10 73.30
2290 12.4770 4743.90 4454.40 74.30
2291 12.4807 4506.20 4453.69 71.80
2292 12.4845 4697.30 4452.98 73.10
2293 12.4882 4754.10 4452.27 74.70
2294 12.4920 4769.70 4451.56 74.60
2295 12.4957 4552.80 4450.85 72.60
2296 12.4995 4648.40 4450.14 73.10
2297 12.5033 4607.80 4449.43 73.80
2298 12.5070 4722.90 4448.71 74.90
2299 12.5108 4609.00 4448.00 72.80
2300 12.5145 4679.50 4447.28 74.20
2301 12.5183 4665.30 4446.57 73.30
2302 12.5220 4656.80 4445.85 73.40
2303 12.5258 4643.40 4445.13 73.70
2304 12.5295 4753.40 4444.42 74.00
2305 12.5333 4711.00 4443.69 74.40
2306 12.5371 4620.60 4442.97 72.60
2307 12.5408 4651.30 4442.25 73.70
2308 12.5446 4714.20 4441.53 74.20
2309 12.5483 4505.40 4440.81 72.40
2310 12.5521 4808.70 4440.09 75.20
2311 12.5558 4579.30 4439.36 73.40
2312 12.5596 4674.90 4438.64 73.70
2313 12.5633 4576.10 4437.91 72.80
2314 12.5671 4765.30 4437.18 74.60
2315 12.5709 4653.50 4436.46 73.90
2316 12.5746 4864.40 4435.73 75.60
2317 12.5784 4602.80 4435.00 73.20
2318 12.5821 4694.80 4434.27 74.40
2319 12.5859 4581.60 4433.54 73.10
2320 12.5896 4724.30 4432.80 74.00
2321 12.5934 4615.80 4432.07 73.50
2322 12.5972 4788.10 4431.34 74.80
2323 12.6009 4751.10 4430.60 74.40
2324 12.6047 4723.20 4429.87 73.80
2325 12.6084 4661.80 4429.13 73.90
2326 12.6122 4700.50 4428.40 73.70
2327 12.6159 4625.20 4427.66 73.30
2328 12.6197 4627.60 4426.92 73.40
2329 12.6235 4680.70 4426.18 73.60
2330 12.6272 4855.40 4425.44 75.90
2331 12.6310 4614.80 4424.70 73.40
2332 12.6347 4594.00 4423.96 73.30
2333 12.6385 4622.90 4423.21 73.20
2334 12.6422 4773.70 4422.47 74.60
2335 12.6460 4768.90 4421.73 75.00
2336 12.6497 4744.50 4420.98 74.30
2337 12.6535 4686.50 4420.24 74.20
2338 12.6573 4757.60 4419.49 74.30
2339 12.6610 4647.60 4418.74 72.80
2340 12.6648 4678.70 4417.99 73.20
2341 12.6685 4688.50 4417.24 72.90
2342 12.6723 4707.40 4416.49 73.70
2343 12.6760 4633.60 4415.74 73.40
2344 12.6798 4710.20 4414.99 74.70
2345 12.6836 4707.30 4414.24 73.20
2346 12.6873 4758.20 4413.49 73.40
2347 12.6911 4712.20 4412.73 75.40
2348 12.6948 4785.60 4411.98 74.60
2349 12.6986 4495.60 4411.22 71.70
2350 12.7023 4692.90 4410.46 73.70
2351 12.7061 4614.80 4409.71 73.70
2352 12.7099 4616.70 4408.95 73.00
2353 12.7136 4557.60 4408.19 73.40
2354 12.7174 4670.00 4407.43 74.00
2355 12.7211 4625.20 4406.67 72.90
2356 12.7249 4706.40 4405.91 74.90
2357 12.7286 4576.70 4405.15 71.80
2358 12.7324 4795.40 4404.38 75.10
2359 12.7361 4582.80 4403.62 73.50
2360 12.7399 4713.00 4402.85 75.40
2361 12.7437 4631.00 4402.09 74.10
2362 12.7474 4656.00 4401.32 73.10
2363 12.7512 4664.90 4400.56 74.80
2364 12.7549 4791.70 4399.79 75.30
2365 12.7587 4596.00 4399.02 73.70
2366 12.7625 4794.80 4398.25 75.40
2367 12.7662 4575.50 4397.48 72.90
2368 12.7700 4774.80 4396.71 75.70
2369 12.7737 4625.60 4395.94 73.70
2370 12.7775 4773.30 4395.17 73.40
2371 12.7812 4530.80 4394.39 72.50
2372 12.7850 4845.70 4393.62 76.00
2373 12.7888 4690.50 4392.84 73.20
2374 12.7925 4680.30 4392.07 73.90
2375 12.7963 4655.40 4391.29 72.50
2376 12.8000 4838.00 4390.52 76.10
2377 12.8038 4618.00 4389.74 74.20
2378 12.8075 4655.30 4388.96 74.10
2379 12.8113 4644.90 4388.18 73.50
2380 12.8151 4761.90 4387.40 75.00
2381 12.8188 4587.80 4386.62 72.90
2382 12.8226 4708.30 4385.84 74.70
2383 12.8263 4656.50 4385.06 74.30
2384 12.8301 4712.50 4384.27 74.30
2385 12.8338 4631.80 4383.49 74.00
2386 12.8376 4824.50 4382.70 76.20
2387 12.8414 4608.50 4381.92 74.40
2388 12.8451 4782.50 4381.13 75.30
2389 12.8489 4592.10 4380.35 72.60
2390 12.8526 4731.20 4379.56 75.10
2391 12.8564 4561.50 4378.77 73.20
2392 12.8601 4645.00 4377.98 74.20
2393 12.8639 4634.20 4377.19 73.20
2394 12.8677 4887.70 4376.40 76.10
2395 12.8714 4506.50 4375.61 72.40
2396 12.8752 4688.80 4374.82 74.40
2397 12.8789 4611.00 4374.02 73.50
2398 12.8827 4634.10 4373.23 73.70
2399 12.8864 4522.90 4372.43 73.40
2400 12.8902 4670.50 4371.64 74.10
2401 12.8940 4534.60 4370.84 73.10
2402 12.8977 4714.70 4370.05 75.10
2403 12.9015 4529.20 4369.25 73.00
2404 12.9052 4698.90 4368.45 74.30
2405 12.9090 4633.30 4367.65 73.00
2406 12.9128 4589.90 4366.85 73.00
2407 12.9165 4658.50 4366.05 74.30
2408 12.9203 4783.20 4365.25 75.40
2409 12.9240 4605.60 4364.45 73.10
2410 12.9278 4660.40 4363.65 73.30
2411 12.9315 4652.20 4362.84 74.90
2412 12.9353 4655.10 4362.04 73.80
2413 12.9391 4699.00 4361.23 74.20
2414 12.9428 4640.50 4360.43 73.30
2415 12.9466 4438.80 4359.62 72.40
2416 12.9503 4782.30 4358.81 75.90
2417 12.9541 4645.30 4358.00 74.70
2418 12.9579 4661.60 4357.19 74.00
2419 12.9616 4517.30 4356.39 72.80
2420 12.9654 4767.10 4355.58 75.00
2421 12.9691 4595.90 4354.76 73.70
2422 12.9729 4616.50 4353.95 72.80
2423 12.9766 4553.20 4353.14 72.50
2424 12.9804 4666.90 4352.33 73.90
2425 12.9841 4578.10 4351.51 72.70
2426 12.9879 4642.80 4350.70 73.80
2427 12.9917 4634.20 4349.88 73.60
2428 12.9954 4643.60 4349.07 73.40
2429 12.9992 4426.50 4348.25 71.40
2430 13.0029 4646.70 4347.43 73.10
2431 13.0067 4584.50 4346.62 72.10
2432 13.0105 4554.20 4345.80 70.70
2433 13.0142 4533.90 4344.98 72.60
2434 13.0180 4631.70 4344.16 73.80
2435 13.0217 4570.50 4343.34 74.30
2436 13.0255 4602.60 4342.51 72.40
2437 13.0293 4420.70 4341.69 71.40
2438 13.0330 4600.30 4340.87 72.60
2439 13.0368 4636.10 4340.04 72.80
2440 13.0405 4488.40 4339.22 71.00
2441 13.0443 4550.30 4338.40 72.60
2442 13.0480 4718.10 4337.57 74.30
2443 13.0518 4572.00 4336.74 72.50
2444 13.0556 4557.40 4335.91 72.70
2445 13.0593 4614.60 4335.09 73.60
2446 13.0631 4631.30 4334.26 73.50
2447 13.0668 4637.20 4333.43 73.80
2448 13.0706 4629.80 4332.60 73.50
2449 13.0744 4558.60 4331.77 73.40
2450 13.0781 4596.20 4330.93 74.20
2451 13.0819 4671.30 4330.10 75.00
2452 13.0856 4709.80 4329.27 74.60
2453 13.0894 4465.30 4328.44 71.90
2454 13.0931 4620.90 4327.60 73.80
2455 13.0969 4604.20 4326.77 74.20
2456 13.1007 4827.00 4325.93 76.00
2457 13.1044 4475.60 4325.09 72.40
2458 13.1082 4634.50 4324.26 73.70
2459 13.1119 4681.40 4323.42 73.80
2460 13.1157 4656.70 4322.58 75.10
2461 13.1194 4471.30 4321.74 72.60
2462 13.1232 4598.80 4320.90 73.60
2463 13.1270 4583.30 4320.06 73.30
2464 13.1307 4613.10 4319.22 73.40
2465 13.1345 4431.80 4318.38 71.80
2466 13.1382 4646.20 4317.53 74.10
2467 13.1420 4614.80 4316.69 73.50
2468 13.1458 4614.00 4315.85 73.50
2469 13.1495 4625.70 4315.00 73.60
2470 13.1533 4544.20 4314.15 72.50
2471 13.1570 4539.20 4313.31 76.80
2472 13.1608 4745.20 4312.46 74.00
2473 13.1645 4572.40 4311.62 71.20
2474 13.1683 4649.70 4310.77 71.90
2475 13.1721 4488.50 4309.92 71.00
2476 13.1758 4562.00 4309.07 72.00
2477 13.1796 4650.50 4308.22 72.40
2478 13.1833 4580.10 4307.37 72.10
2479 13.1871 4534.00 4306.52 71.40
2480 13.1909 4655.40 4305.66 72.20
2481 13.1946 4624.80 4304.81 71.40
2482 13.1984 4669.70 4303.96 72.20
2483 13.2021 4648.70 4303.10 72.20
2484 13.2059 4661.80 4302.25 72.00
2485 13.2097 4717.90 4301.39 71.80
2486 13.2134 4630.60 4300.53 72.10
2487 13.2172 4492.30 4299.68 70.70
2488 13.2209 4530.70 4298.82 71.10
2489 13.2247 4640.00 4297.96 72.50
2490 13.2284 4548.10 4297.10 71.50
2491 13.2322 4491.70 4296.24 71.10
2492 13.2360 4717.40 4295.38 72.40
2493 13.2397 4580.40 4294.52 71.10
2494 13.2435 4496.40 4293.66 71.10
2495 13.2472 4509.90 4292.80 71.70
2496 13.2510 4650.40 4291.94 72.80
2497 13.2548 4372.30 4291.07 70.10
2498 13.2585 4604.20 4290.21 72.40
2499 13.2623 4397.70 4289.34 70.50
2500 13.2660 4685.40 4288.48 72.90
2501 13.2698 4461.10 4287.61 69.90
2502 13.2736 4773.70 4286.74 73.20
2503 13.2773 4476.30 4285.88 71.50
2504 13.2811 4568.40 4285.01 72.00
2505 13.2848 4499.20 4284.14 71.60
2506 13.2886 4536.50 4283.27 71.40
2507 13.2923 4465.00 4282.40 70.10
2508 13.2961 4796.80 4281.53 74.20
2509 13.2999 4538.40 4280.66 71.40
2510 13.3036 4562.70 4279.79 71.70
2511 13.3074 4432.90 4278.91 71.00
2512 13.3111 4580.40 4278.04 71.10
2513 13.3149 4417.50 4277.17 71.00
2514 13.3187 4502.80 4276.29 71.10
2515 13.3224 4507.10 4275.42 71.50
2516 13.3262 4576.50 4274.54 71.80
2517 13.3299 4523.80 4273.67 71.00
2518 13.3337 4582.50 4272.79 72.10
2519 13.3375 4452.90 4271.91 71.40
2520 13.3412 4697.00 4271.03 72.80
2521 13.3450 4494.10 4270.15 72.70
2522 13.3487 4483.40 4269.27 71.30
2523 13.3525 4558.00 4268.39 72.00
2524 13.3563 4637.90 4267.51 72.30
2525 13.3600 4557.40 4266.63 71.20
2526 13.3638 4551.10 4265.75 71.50
2527 13.3675 4439.80 4264.87 70.70
2528 13.3713 4561.70 4263.98 71.00
2529 13.3750 4597.70 4263.10 72.90
2530 13.3788 4541.00 4262.22 70.90
2531 13.3826 4529.60 4261.33 71.80
2532 13.3863 4465.60 4260.45 71.80
2533 13.3901 4611.60 4259.56 72.10
2534 13.3939 4607.80 4258.67 71.00
2535 13.3976 4640.70 4257.78 72.70
2536 13.4014 4575.50 4256.90 72.10
2537 13.4051 4566.00 4256.01 72.70
2538 13.4089 4585.10 4255.12 72.60
2539 13.4127 4554.20 4254.23 73.10
2540 13.4164 4546.10 4253.34 72.30
2541 13.4202 4498.80 4252.44 71.80
2542 13.4239 4543.50 4251.55 71.50
2543 13.4277 4454.70 4250.66 71.30
2544 13.4314 4614.80 4249.77 72.60
2545 13.4352 4582.70 4248.88 71.90
2546 13.4390 4694.80 4247.98 73.80
2547 13.4427 4512.30 4247.09 71.20
2548 13.4465 4694.90 4246.19 73.50
2549 13.4502 4538.30 4245.29 71.80
2550 13.4540 4607.30 4244.40 72.00
2551 13.4578 4453.70 4243.50 71.40
2552 13.4615 4608.30 4242.60 72.70
2553 13.4653 4430.90 4241.70 70.20
2554 13.4690 4664.60 4240.80 73.20
2555 13.4728 4554.50 4239.90 72.20
2556 13.4766 4496.70 4239.00 71.60
2557 13.4803 4483.90 4238.10 71.30
2558 13.4841 4644.90 4237.20 72.70
2559 13.4878 4552.80 4236.30 71.90
2560 13.4916 4574.20 4235.40 72.80
2561 13.4954 4556.60 4234.49 72.40
2562 13.4991 4489.60 4233.59 71.80
2563 13.5029 4499.30 4232.68 72.10
2564 13.5066 4639.30 4231.78 72.20
2565 13.5104 4381.50 4230.87 70.50
2566 13.5141 4585.00 4229.97 73.00
2567 13.5179 4537.70 4229.06 71.40
2568 13.5217 4552.00 4228.15 71.70
2569 13.5254 4604.60 4227.25 73.40
2570 13.5292 4640.10 4226.34 72.60
2571 13.5330 4429.20 4225.43 70.80
2572 13.5367 4532.50 4224.52 72.40
2573 13.5405 4517.70 4223.61 71.60
2574 13.5442 4642.10 4222.70 74.20
2575 13.5480 4343.70 4221.79 70.30
2576 13.5518 4700.40 4220.87 73.90
2577 13.5555 4397.10 4219.96 70.80
2578 13.5593 4567.70 4219.05 71.30
2579 13.5630 4396.00 4218.13 70.00
2580 13.5668 4585.70 4217.22 72.70
2581 13.5705 4435.10 4216.31 71.90
2582 13.5743 4675.00 4215.39 73.40
2583 13.5781 4443.00 4214.47 71.30
2584 13.5818 4580.00 4213.56 72.20
2585 13.5856 4536.60 4212.64 71.80
2586 13.5893 4552.00 4211.72 72.40
2587 13.5931 4488.70 4210.80 72.80
2588 13.5969 4622.50 4209.89 72.60
2589 13.6006 4535.00 4208.97 72.40
2590 13.6044 4581.10 4208.05 72.90
2591 13.6081 4380.90 4207.13 71.30
2592 13.6119 4537.60 4206.21 72.40
2593 13.6157 4504.50 4205.28 72.10
2594 13.6194 4587.20 4204.36 71.90
2595 13.6232 4614.00 4203.44 73.00
2596 13.6270 4619.60 4202.52 73.50
2597 13.6307 4618.60 4201.59 73.30
2598 13.6345 4456.90 4200.67 71.80
2599 13.6382 4606.90 4199.74 73.40
2600 13.6420 4547.40 4198.82 72.80
2601 13.6458 4349.10 4197.89 71.50
2602 13.6495 4508.20 4196.96 72.30
2603 13.6533 4512.50 4196.04 72.30
2604 13.6570 4516.00 4195.11 72.40
2605 13.6608 4432.60 4194.18 71.80
2606 13.6645 4513.60 4193.25 72.70
2607 13.6683 4566.80 4192.32 73.20
2608 13.6721 4497.90 4191.39 73.10
2609 13.6758 4430.30 4190.46 71.90
2610 13.6796 4420.70 4189.53 72.00
2611 13.6833 4421.50 4188.60 72.20
2612 13.6871 4550.10 4187.67 72.80
2613 13.6909 4541.60 4186.74 73.00
2614 13.6946 4468.00 4185.80 71.50
2615 13.6984 4474.80 4184.87 72.20
2616 13.7022 4508.30 4183.94 73.00
2617 13.7059 4326.50 4183.00 69.90
2618 13.7097 4518.50 4182.07 73.80
2619 13.7134 4394.50 4181.13 71.60
2620 13.7172 4513.30 4180.19 72.40
2621 13.7210 4336.30 4179.26 71.80
2622 13.7247 4617.50 4178.32 73.20
2623 13.7285 4437.60 4177.38 72.80
2624 13.7322 4530.90 4176.45 74.40
2625 13.7360 4586.60 4175.51 73.80
2626 13.7397 4456.00 4174.57 72.80
2627 13.7435 4389.30 4173.63 72.00
2628 13.7473 4440.80 4172.69 72.00
2629 13.7510 4309.50 4171.75 71.00
2630 13.7548 4398.20 4170.80 71.60
2631 13.7585 4400.50 4169.86 71.80
2632 13.7623 4535.60 4168.92 73.50
2633 13.7661 4346.70 4167.98 70.20
2634 13.7698 4450.00 4167.03 71.20
2635 13.7736 4399.30 4166.09 72.40
2636 13.7774 4634.30 4165.15 74.90
2637 13.7811 4531.20 4164.20 73.00
2638 13.7849 4405.70 4163.26 70.80
2639 13.7886 4293.30 4162.31 71.10
2640 13.7924 4430.20 4161.36 72.70
2641 13.7962 4402.00 4160.42 71.80
2642 13.7999 4568.70 4159.47 72.80
2643 13.8037 4365.60 4158.52 72.70
2644 13.8074 4558.30 4157.57 74.50
2645 13.8112 4177.90 4156.62 69.70
2646 13.8149 4435.40 4155.67 73.30
2647 13.8187 4536.40 4154.72 73.30
2648 13.8225 4577.20 4153.77 73.80
2649 13.8262 4513.20 4152.82 73.30
2650 13.8300 4462.30 4151.87 72.50
2651 13.8338 4373.50 4150.92 72.30
2652 13.8375 4458.90 4149.96 72.50
2653 13.8413 4421.80 4149.01 73.20
2654 13.8450 4503.90 4148.06 73.30
2655 13.8488 4406.10 4147.10 71.90
2656 13.8526 4418.10 4146.15 71.90
2657 13.8563 4389.10 4145.19 71.90
2658 13.8601 4360.70 4144.24 72.10
2659 13.8638 4422.10 4143.28 73.70
2660 13.8676 4487.80 4142.33 72.20
2661 13.8714 4316.70 4141.37 71.60
2662 13.8751 4428.00 4140.41 72.60
2663 13.8789 4405.10 4139.46 72.30
2664 13.8826 4398.50 4138.50 72.80
2665 13.8864 4598.20 4137.54 73.80
2666 13.8902 4349.00 4136.58 71.40
2667 13.8939 4451.10 4135.62 73.00
2668 13.8977 4550.00 4134.66 73.60
2669 13.9014 4378.90 4133.70 72.50
2670 13.9052 4499.70 4132.74 73.10
2671 13.9090 4339.60 4131.77 72.20
2672 13.9127 4537.60 4130.81 73.40
2673 13.9165 4352.40 4129.85 71.80
2674 13.9202 4453.10 4128.88 72.50
2675 13.9240 4442.60 4127.92 72.50
2676 13.9278 4447.40 4126.96 72.60
2677 13.9315 4418.80 4125.99 72.60
2678 13.9353 4607.80 4125.03 74.80
2679 13.9390 4344.80 4124.06 71.90
2680 13.9428 4448.30 4123.10 71.40
2681 13.9466 4325.70 4122.13 72.30
2682 13.9503 4528.30 4121.16 73.40
2683 13.9541 4359.60 4120.20 72.70
2684 13.9579 4509.60 4119.23 72.70
2685 13.9616 4299.80 4118.26 71.30
2686 13.9654 4467.80 4117.29 72.40
2687 13.9691 4440.90 4116.32 73.20
2688 13.9729 4538.40 4115.35 73.60
2689 13.9767 4316.00 4114.38 71.60
2690 13.9804 4426.20 4113.41 73.90
2691 13.9842 4428.90 4112.44 72.90
2692 13.9879 4444.60 4111.47 73.00
2693 13.9917 4315.80 4110.50 72.20
2694 13.9955 4453.30 4109.52 72.30
2695 13.9992 4378.50 4108.55 72.40
2696 14.0030 4431.40 4107.58 72.50
2697 14.0067 4430.70 4106.60 72.80
2698 14.0105 4477.40 4105.63 72.40
2699 14.0143 4326.10 4104.65 72.40
2700 14.0180 4457.70 4103.68 72.70
2701 14.0218 4443.30 4102.70 72.60
2702 14.0255 4424.10 4101.73 72.30
2703 14.0293 4449.60 4100.75 72.50
2704 14.0331 4501.40 4099.78 74.10
2705 14.0368 4367.50 4098.80 73.40
2706 14.0406 4477.70 4097.82 73.80
2707 14.0443 4358.90 4096.84 71.30
2708 14.0481 4404.30 4095.86 72.10
2709 14.0519 4254.60 4094.88 70.90
2710 14.0556 4383.70 4093.90 70.90
2711 14.0594 4344.00 4092.92 71.20
2712 14.0632 4514.00 4091.94 73.00
2713 14.0669 4254.90 4090.96 71.40
2714 14.0707 4298.80 4089.98 71.60
2715 14.0744 4235.90 4089.00 71.40
2716 14.0782 4404.40 4088.02 72.00
2717 14.0820 4308.70 4087.04 70.20
2718 14.0857 4443.60 4086.05 73.00
2719 14.0895 4306.20 4085.07 71.30
2720 14.0932 4334.10 4084.09 71.40
2721 14.0970 4451.40 4083.10 72.90
2722 14.1007 4320.90 4082.12 71.70
2723 14.1045 4268.00 4081.13 71.50
2724 14.1083 4295.20 4080.14 71.90
2725 14.1120 4307.90 4079.16 71.70
2726 14.1158 4408.30 4078.17 72.20
2727 14.1196 4433.80 4077.19 73.40
2728 14.1233 4424.90 4076.20 73.30
2729 14.1271 4383.50 4075.21 72.50
2730 14.1308 4568.10 4074.22 75.30
2731 14.1346 4387.60 4073.24 72.70
2732 14.1384 4301.80 4072.25 71.60
2733 14.1421 4352.20 4071.26 72.40
2734 14.1459 4368.80 4070.27 72.10
2735 14.1496 4241.40 4069.28 70.40
2736 14.1534 4487.50 4068.29 72.70
2737 14.1572 4321.40 4067.29 72.70
2738 14.1609 4350.60 4066.30 70.80
2739 14.1647 4358.20 4065.31 73.20
2740 14.1685 4437.10 4064.32 72.90
2741 14.1722 4439.10 4063.33 74.00
2742 14.1760 4334.70 4062.33 72.50
2743 14.1797 4332.40 4061.34 72.80
2744 14.1835 4345.60 4060.35 72.70
2745 14.1873 4431.30 4059.35 72.20
2746 14.1910 4386.10 4058.36 73.30
2747 14.1948 4343.10 4057.36 72.20
2748 14.1985 4380.10 4056.37 72.30
2749 14.2023 4238.20 4055.37 71.50
2750 14.2061 4312.40 4054.38 72.30
2751 14.2098 4324.00 4053.38 72.40
2752 14.2136 4322.80 4052.38 71.50
2753 14.2173 4315.50 4051.39 72.20
2754 14.2211 4538.30 4050.39 74.20
2755 14.2249 4355.40 4049.39 72.70
2756 14.2286 4418.70 4048.39 73.80
2757 14.2324 4212.60 4047.39 70.60
2758 14.2361 4371.80 4046.39 72.70
2759 14.2399 4328.20 4045.39 73.20
2760 14.2437 4352.90 4044.39 72.90
2761 14.2474 4337.30 4043.39 72.10
2762 14.2512 4336.70 4042.39 72.40
2763 14.2549 4353.10 4041.39 71.40
2764 14.2587 4422.70 4040.39 73.10
2765 14.2625 4244.30 4039.39 71.70
2766 14.2662 4387.20 4038.38 72.90
2767 14.2700 4252.20 4037.38 71.70
2768 14.2738 4318.60 4036.38 72.60
2769 14.2775 4152.00 4035.38 71.40
2770 14.2813 4262.10 4034.37 71.70
2771 14.2850 4257.80 4033.37 72.90
2772 14.2888 4398.50 4032.36 71.90
2773 14.2926 4291.50 4031.36 71.20
2774 14.2963 4226.30 4030.35 71.10
2775 14.3001 4347.40 4029.35 73.50
2776 14.3038 4250.60 4028.34 70.90
2777 14.3076 4240.50 4027.33 70.70
2778 14.3114 4236.60 4026.33 71.10
2779 14.3151 4221.40 4025.32 71.20
2780 14.3189 4320.90 4024.31 71.40
2781 14.3226 4268.60 4023.30 71.70
2782 14.3264 4416.60 4022.30 72.90
2783 14.3302 4235.30 4021.29 71.60
2784 14.3339 4214.50 4020.28 71.40
2785 14.3377 4315.70 4019.27 72.80
2786 14.3414 4310.20 4018.26 72.10
2787 14.3452 4237.00 4017.25 72.50
2788 14.3490 4253.10 4016.24 71.50
2789 14.3527 4348.70 4015.23 72.40
2790 14.3565 4190.50 4014.22 71.40
2791 14.3603 4179.90 4013.20 70.80
2792 14.3640 4333.70 4012.19 72.10
2793 14.3678 4227.00 4011.18 71.90
2794 14.3715 4349.70 4010.17 72.20
2795 14.3753 4089.10 4009.15 70.80
2796 14.3791 4320.30 4008.14 71.90
2797 14.3828 4199.50 4007.13 70.20
2798 14.3866 4211.20 4006.11 71.20
2799 14.3903 4232.30 4005.10 71.80
2800 14.3941 4395.70 4004.08 72.70
2801 14.3979 4235.00 4003.07 71.00
2802 14.4016 4357.20 4002.05 73.00
2803 14.4054 4228.90 4001.04 70.80
2804 14.4092 4339.10 4000.02 72.50
2805 14.4129 4276.70 3999.00 71.50
2806 14.4167 4310.40 3997.99 73.50
2807 14.4204 4273.10 3996.97 71.90
2808 14.4242 4282.70 3995.95 71.80
2809 14.4279 4257.00 3994.94 72.10
2810 14.4317 4156.40 3993.92 70.60
2811 14.4355 4275.90 3992.90 72.10
2812 14.4392 4226.80 3991.88 71.40
2813 14.4430 4263.40 3990.86 71.70
2814 14.4468 4257.60 3989.84 72.20
2815 14.4505 4192.90 3988.82 71.70
2816 14.4543 4404.60 3987.80 73.30
2817 14.4580 4144.30 3986.78 70.20
2818 14.4618 4278.30 3985.76 71.90
2819 14.4656 4126.70 3984.74 70.50
2820 14.4693 4461.00 3983.72 74.90
2821 14.4731 4234.10 3982.70 72.50
2822 14.4768 4291.20 3981.67 72.00
2823 14.4806 4188.90 3980.65 71.00
2824 14.4844 4339.60 3979.63 72.30
2825 14.4881 4227.30 3978.60 71.90
2826 14.4919 4161.50 3977.58 70.70
2827 14.4957 4124.30 3976.56 70.80
2828 14.4994 4298.90 3975.53 71.90
2829 14.5032 4251.50 3974.51 72.50
2830 14.5069 4167.30 3973.48 71.20
2831 14.5107 4155.60 3972.46 71.30
2832 14.5145 4214.80 3971.43 70.40
2833 14.5182 4309.60 3970.41 73.20
2834 14.5220 4328.10 3969.38 72.60
2835 14.5257 4112.90 3968.35 70.90
2836 14.5295 4154.00 3967.33 71.10
2837 14.5333 4116.00 3966.30 70.90
2838 14.5370 4201.10 3965.28 70.80
2839 14.5408 4069.90 3964.25 69.10
2840 14.5445 4325.30 3963.22 73.20
2841 14.5483 4231.20 3962.19 71.10
2842 14.5521 4212.30 3961.16 71.40
2843 14.5558 4136.90 3960.14 70.90
2844 14.5596 4188.50 3959.10 71.60
2845 14.5633 4075.40 3958.08 70.80
2846 14.5671 4268.90 3957.05 72.00
2847 14.5709 4175.40 3956.02 71.10
2848 14.5746 4130.60 3954.99 69.50
2849 14.5784 4112.30 3953.96 70.20
2850 14.5822 4250.50 3952.93 71.50
2851 14.5859 4250.20 3951.89 71.90
2852 14.5897 4274.30 3950.86 72.50
2853 14.5934 4125.70 3949.83 71.20
2854 14.5972 4243.00 3948.80 71.70
2855 14.6010 4192.40 3947.76 73.20
2856 14.6047 4189.90 3946.73 69.50
2857 14.6085 4086.40 3945.70 68.70
2858 14.6122 4191.50 3944.67 70.70
2859 14.6160 4056.30 3943.63 68.50
2860 14.6198 4209.10 3942.60 70.10
2861 14.6235 4038.20 3941.57 68.70
2862 14.6273 4160.00 3940.53 69.60
2863 14.6310 4126.60 3939.50 69.30
2864 14.6348 4139.30 3938.46 69.10
2865 14.6386 4234.90 3937.43 70.00
2866 14.6423 4137.00 3936.39 70.10
2867 14.6461 4104.90 3935.35 69.60
2868 14.6498 4178.00 3934.32 69.80
2869 14.6536 3983.10 3933.28 68.10
2870 14.6574 4162.90 3932.25 69.70
2871 14.6611 4125.00 3931.21 69.40
2872 14.6649 4229.60 3930.17 70.80
2873 14.6686 4182.60 3929.14 69.40
2874 14.6724 4295.50 3928.10 70.70
2875 14.6762 4078.00 3927.06 69.10
2876 14.6799 4239.10 3926.02 70.50
2877 14.6837 4218.50 3924.98 70.60
2878 14.6875 4267.10 3923.94 71.70
2879 14.6912 4021.00 3922.90 68.40
2880 14.6950 4046.30 3921.87 68.00
2881 14.6987 4087.60 3920.83 68.70
2882 14.7025 4076.60 3919.79 69.60
2883 14.7063 4083.70 3918.75 68.50
2884 14.7100 4168.00 3917.70 70.00
2885 14.7138 4056.50 3916.66 67.70
2886 14.7176 4288.60 3915.62 70.40
2887 14.7213 4076.20 3914.58 69.20
2888 14.7251 4205.90 3913.54 70.20
2889 14.7288 4212.40 3912.50 69.70
2890 14.7326 4120.00 3911.46 69.30
2891 14.7364 3983.20 3910.41 68.80
2892 14.7439 4073.90 3908.33 69.40
2893 14.7514 4037.80 3906.24 68.80
2894 14.7552 4143.20 3905.20 69.90
2895 14.7589 4006.30 3904.15 69.40
2896 14.7627 4185.20 3903.11 68.50
2897 14.7664 4148.40 3902.07 70.30
2898 14.7702 4025.20 3901.02 68.70
2899 14.7740 4160.50 3899.98 70.80
2900 14.7777 4092.30 3898.93 68.30
2901 14.7815 4075.90 3897.89 69.00
2902 14.7852 4018.60 3896.84 68.20
2903 14.7890 4160.60 3895.79 69.00
2904 14.7928 4135.80 3894.75 68.60
2905 14.7965 3991.20 3893.70 67.90
2906 14.8003 4139.20 3892.66 69.70
2907 14.8041 4114.30 3891.61 69.50
2908 14.8078 4079.90 3890.56 69.40
2909 14.8116 4122.80 3889.52 70.20
2910 14.8153 4086.10 3888.47 69.60
2911 14.8191 4062.10 3887.42 69.10
2912 14.8229 4210.00 3886.37 70.20
2913 14.8266 4082.80 3885.32 69.30
2914 14.8304 4132.10 3884.27 70.20
2915 14.8341 4071.20 3883.23 67.80
2916 14.8379 4059.90 3882.18 68.90
2917 14.8417 4076.50 3881.13 69.50
2918 14.8454 4241.40 3880.08 70.40
2919 14.8492 4095.70 3879.03 69.70
2920 14.8529 4124.90 3877.98 70.00
2921 14.8567 3982.80 3876.93 67.90
2922 14.8605 4086.50 3875.88 69.40
2923 14.8642 3986.80 3874.83 68.10
2924 14.8680 4088.50 3873.78 68.90
2925 14.8717 4061.60 3872.73 68.80
2926 14.8755 4279.00 3871.67 71.10
2927 14.8793 4040.10 3870.62 69.30
2928 14.8830 4169.10 3869.57 69.80
2929 14.8868 3944.10 3868.52 67.80
2930 14.8905 4123.90 3867.47 70.10
2931 14.8943 4132.20 3866.42 69.00
2932 14.8981 4061.10 3865.36 69.60
2933 14.9018 4068.50 3864.31 69.60
2934 14.9056 4050.40 3863.26 68.70
2935 14.9094 4083.20 3862.20 68.90
2936 14.9131 4083.60 3861.15 69.20
2937 14.9169 4024.00 3860.10 68.30
2938 14.9206 4041.20 3859.04 68.50
2939 14.9244 3933.60 3857.99 67.30
2940 14.9282 4040.10 3856.94 68.90
2941 14.9319 3996.10 3855.88 67.40
2942 14.9357 4036.20 3854.83 68.70
2943 14.9394 3978.40 3853.77 68.00
2944 14.9432 4131.90 3852.72 69.60
2945 14.9470 4017.50 3851.66 68.20
2946 14.9507 4095.20 3850.60 68.50
2947 14.9545 3967.30 3849.55 67.60
2948 14.9583 4034.90 3848.49 68.60
2949 14.9620 4017.30 3847.44 68.30
2950 14.9658 3981.80 3846.38 68.00
2951 14.9695 3985.20 3845.32 68.40
2952 14.9733 4062.10 3844.27 68.70
2953 14.9770 4076.90 3843.21 69.70
2954 14.9808 3996.00 3842.15 68.40
2955 14.9846 3880.80 3841.10 67.30
2956 14.9883 4212.20 3840.04 70.10
2957 14.9921 3969.40 3838.98 68.00
2958 14.9959 4064.60 3837.92 68.80
2959 14.9996 3981.80 3836.86 68.00
2960 15.0034 4015.00 3835.81 68.60
2961 15.0071 3889.60 3834.75 68.40
2962 15.0109 3925.30 3833.69 67.90
2963 15.0147 4179.90 3832.63 69.90
2964 15.0184 4084.90 3831.57 69.60
2965 15.0222 3924.30 3830.51 67.50
2966 15.0259 4018.80 3829.45 68.90
2967 15.0297 4038.70 3828.39 69.80
2968 15.0335 3819.00 3827.33 66.20
2969 15.0372 4007.60 3826.27 69.30
2970 15.0410 4096.70 3825.21 68.60
2971 15.0448 4093.50 3824.15 69.40
2972 15.0485 4083.60 3823.09 69.00
2973 15.0523 3953.00 3822.03 67.90
2974 15.0560 4056.10 3820.97 68.70
2975 15.0598 3912.20 3819.91 67.50
2976 15.0635 3923.30 3818.85 68.00
2977 15.0673 4110.30 3817.79 68.90
2978 15.0711 3852.70 3816.73 67.50
2979 15.0748 3872.60 3815.66 65.70
2980 15.0786 4090.50 3814.60 68.90
2981 15.0823 3982.90 3813.54 68.90
2982 15.0861 4021.60 3812.48 68.80
2983 15.0899 3946.20 3811.41 66.90
2984 15.0936 3944.10 3810.35 68.30
2985 15.0974 4051.70 3809.29 69.10
2986 15.1012 3944.30 3808.22 67.10
2987 15.1049 3879.30 3807.16 67.50
2988 15.1087 4075.00 3806.10 69.30
2989 15.1124 4007.10 3805.04 68.30
2990 15.1162 4055.20 3803.97 69.40
2991 15.1200 4013.80 3802.91 69.40
2992 15.1237 3973.30 3801.84 68.00
2993 15.1275 3836.80 3800.78 66.00
2994 15.1312 3975.50 3799.72 67.50
2995 15.1350 3852.20 3798.65 67.40
2996 15.1388 3915.40 3797.59 67.50
2997 15.1425 3862.10 3796.52 67.10
2998 15.1463 4101.30 3795.46 69.30
2999 15.1501 3905.70 3794.39 67.40
3000 15.1538 4005.80 3793.33 69.40
3001 15.1576 3894.50 3792.26 67.70
3002 15.1613 3964.10 3791.19 68.40
3003 15.1651 3971.00 3790.13 68.20
3004 15.1688 3962.50 3789.06 66.00
3005 15.1726 3984.40 3788.00 68.50
3006 15.1764 4035.20 3786.93 68.70
3007 15.1801 3855.50 3785.86 67.10
3008 15.1839 4035.50 3784.80 68.40
3009 15.1876 4033.40 3783.73 69.50
3010 15.1914 3911.00 3782.67 68.50
3011 15.1952 3876.60 3781.60 67.60
3012 15.1989 3882.20 3780.53 67.70
3013 15.2027 3878.10 3779.46 68.50
3014 15.2065 3917.90 3778.39 68.50
3015 15.2102 3765.60 3777.33 65.80
3016 15.2140 3874.50 3776.26 67.40
3017 15.2177 3906.40 3775.19 67.60
3018 15.2215 4024.00 3774.12 69.10
3019 15.2253 3999.20 3773.06 69.30
3020 15.2290 3971.70 3771.99 69.10
3021 15.2328 3914.00 3770.92 67.90
3022 15.2365 3986.10 3769.85 67.60
3023 15.2403 3880.40 3768.78 67.90
3024 15.2441 3981.50 3767.71 69.00
3025 15.2478 3725.40 3766.65 65.90
3026 15.2516 3999.20 3765.58 69.70
3027 15.2553 3931.80 3764.51 68.80
3028 15.2591 4024.50 3763.44 68.70
3029 15.2629 3962.70 3762.37 68.80
3030 15.2666 3865.50 3761.30 67.60
3031 15.2704 3885.90 3760.23 67.60
3032 15.2741 3985.60 3759.16 68.80
3033 15.2779 3853.80 3758.09 67.00
3034 15.2817 3986.50 3757.02 69.60
3035 15.2854 3859.90 3755.95 68.10
3036 15.2892 3886.30 3754.88 67.30
3037 15.2929 3856.60 3753.81 67.70
3038 15.2967 3889.30 3752.74 68.20
3039 15.3005 3890.30 3751.67 68.10
3040 15.3042 3905.20 3750.59 67.50
3041 15.3080 3884.70 3749.52 68.00
3042 15.3118 3973.10 3748.45 68.00
3043 15.3155 3835.50 3747.38 68.00
3044 15.3193 3953.20 3746.31 67.70
3045 15.3230 3905.60 3745.24 68.20
3046 15.3268 3974.10 3744.17 68.20
3047 15.3306 3852.90 3743.10 68.50
3048 15.3343 3914.80 3742.02 68.00
3049 15.3381 3959.50 3740.95 68.80
3050 15.3418 3963.30 3739.88 68.80
3051 15.3456 3901.50 3738.81 67.10
3052 15.3493 3830.40 3737.74 67.90
3053 15.3531 3844.40 3736.66 66.60
3054 15.3569 3923.30 3735.59 68.50
3055 15.3606 3787.60 3734.52 66.10
3056 15.3644 3941.90 3733.44 68.50
3057 15.3682 3981.10 3732.37 69.80
3058 15.3719 3911.00 3731.30 67.50
3059 15.3757 3763.50 3730.23 66.90
3060 15.3794 3856.30 3729.15 68.20
3061 15.3832 3805.60 3728.08 67.10
3062 15.3870 3838.90 3727.01 68.00
3063 15.3907 3820.50 3725.93 67.80
3064 15.3945 3878.90 3724.86 67.90
3065 15.3982 3845.80 3723.78 67.40
3066 15.4020 3764.20 3722.71 66.30
3067 15.4058 3803.70 3721.64 67.60
3068 15.4095 3880.90 3720.56 67.80
3069 15.4133 3850.10 3719.49 66.00
3070 15.4170 3824.00 3718.42 67.50
3071 15.4208 3761.90 3717.34 66.10
3072 15.4246 3931.30 3716.27 68.70
3073 15.4283 3889.30 3715.19 68.00
3074 15.4321 3994.50 3714.12 69.60
3075 15.4358 3860.70 3713.04 67.60
3076 15.4396 3931.10 3711.97 68.90
3077 15.4434 3786.00 3710.89 66.50
3078 15.4471 3921.00 3709.82 68.20
3079 15.4509 3829.10 3708.74 67.00
3080 15.4546 3799.20 3707.67 68.00
3081 15.4584 3908.30 3706.59 68.10
3082 15.4622 3938.90 3705.52 69.20
3083 15.4659 3830.60 3704.44 67.60
3084 15.4697 3897.90 3703.37 69.00
3085 15.4734 3757.70 3702.29 65.90
3086 15.4772 3874.70 3701.22 68.10
3087 15.4810 3820.00 3700.14 66.80
3088 15.4847 3883.00 3699.07 67.90
3089 15.4885 3753.50 3697.99 66.90
3090 15.4922 3856.40 3696.92 68.10
3091 15.4960 3845.20 3695.84 68.00
3092 15.4998 3943.70 3694.76 68.40
3093 15.5035 3851.20 3693.69 67.30
3094 15.5073 3963.60 3692.61 68.20
3095 15.5110 3883.50 3691.53 67.50
3096 15.5148 3873.60 3690.46 67.50
3097 15.5186 3818.90 3689.38 65.90
3098 15.5223 3655.30 3688.31 65.90
3099 15.5261 3723.10 3687.23 67.30
3100 15.5298 3911.60 3686.15 68.40
3101 15.5336 3804.50 3685.08 67.60
3102 15.5374 3901.40 3684.00 67.80
3103 15.5411 3813.70 3682.92 68.20
3104 15.5449 3767.90 3681.85 67.50
3105 15.5486 3774.50 3680.77 67.70
3106 15.5524 3865.50 3679.69 67.20
3107 15.5562 3681.80 3678.61 66.90
3108 15.5599 3813.10 3677.54 67.70
3109 15.5637 3777.70 3676.46 67.40
3110 15.5674 3740.40 3675.38 64.60
3111 15.5712 3656.20 3674.30 64.10
3112 15.5750 3785.20 3673.23 64.40
3113 15.5787 3825.00 3672.15 65.50
3114 15.5825 3809.10 3671.07 65.80
3115 15.5862 3732.20 3669.99 64.50
3116 15.5900 3881.30 3668.92 66.30
3117 15.5938 3759.30 3667.84 64.70
3118 15.5975 3806.50 3666.76 65.40
3119 15.6013 3688.80 3665.68 63.70
3120 15.6050 3901.40 3664.61 66.60
3121 15.6088 3661.20 3663.53 64.00
3122 15.6126 3747.10 3662.45 65.40
3123 15.6163 3672.00 3661.37 64.00
3124 15.6201 3910.30 3660.29 66.70
3125 15.6238 3678.20 3659.22 64.10
3126 15.6276 3724.80 3658.14 64.50
3127 15.6314 3718.30 3657.06 63.90
3128 15.6351 3802.50 3655.98 65.00
3129 15.6389 3731.70 3654.90 64.30
3130 15.6426 3818.70 3653.82 65.80
3131 15.6464 3727.00 3652.75 64.70
3132 15.6502 3761.20 3651.67 64.70
3133 15.6539 3766.60 3650.59 65.10
3134 15.6577 3821.50 3649.51 65.70
3135 15.6614 3689.20 3648.43 64.10
3136 15.6652 3774.10 3647.35 65.20
3137 15.6690 3752.90 3646.27 64.40
3138 15.6727 3817.50 3645.19 65.50
3139 15.6765 3714.80 3644.12 64.20
3140 15.6802 3660.50 3643.04 63.40
3141 15.6840 3753.60 3641.96 65.00
3142 15.6878 3712.70 3640.88 64.40
3143 15.6915 3610.70 3639.80 64.10
3144 15.6953 3839.40 3638.72 66.10
3145 15.6990 3800.80 3637.64 65.80
3146 15.7028 3866.40 3636.56 66.10
3147 15.7066 3840.90 3635.48 66.20
3148 15.7103 3791.20 3634.40 65.10
3149 15.7141 3697.30 3633.33 64.10
3150 15.7178 3819.50 3632.25 66.70
3151 15.7216 3637.80 3631.17 63.60
3152 15.7254 3785.80 3630.09 65.30
3153 15.7291 3766.70 3629.01 64.20
3154 15.7329 3732.10 3627.93 65.10
3155 15.7366 3782.50 3626.85 66.10
3156 15.7404 3765.90 3625.77 64.90
3157 15.7442 3713.90 3624.69 65.20
3158 15.7479 3766.60 3623.61 65.00
3159 15.7517 3702.90 3622.53 64.70
3160 15.7554 3738.20 3621.45 64.50
3161 15.7592 3710.50 3620.38 64.40
3162 15.7629 3635.50 3619.30 63.40
3163 15.7667 3813.20 3618.22 65.60
3164 15.7705 3851.50 3617.14 67.00
3165 15.7742 3768.00 3616.06 65.30
3166 15.7780 3765.30 3614.98 65.40
3167 15.7817 3682.60 3613.90 65.00
3168 15.7855 3759.30 3612.82 65.60
3169 15.7893 3781.20 3611.74 65.90
3170 15.7930 3897.10 3610.66 67.00
3171 15.7968 3620.70 3609.58 64.40
3172 15.8005 3723.20 3608.50 64.60
3173 15.8043 3697.80 3607.42 64.60
3174 15.8081 3635.40 3606.34 63.90
3175 15.8118 3624.00 3605.26 63.90
3176 15.8156 3783.40 3604.18 65.70
3177 15.8193 3703.40 3603.10 64.80
3178 15.8231 3823.50 3602.02 65.40
3179 15.8269 3841.80 3600.94 66.60
3180 15.8306 3771.80 3599.86 65.70
3181 15.8344 3716.10 3598.78 64.80
3182 15.8381 3809.40 3597.70 65.80
3183 15.8419 3687.60 3596.62 64.80
3184 15.8456 3591.70 3595.55 63.80
3185 15.8494 3650.10 3594.47 64.80
3186 15.8532 3730.70 3593.39 64.40
3187 15.8569 3682.50 3592.31 64.60
3188 15.8607 3663.30 3591.23 64.50
3189 15.8645 3581.00 3590.15 63.30
3190 15.8682 3736.10 3589.07 64.80
3191 15.8720 3715.60 3587.99 64.70
3192 15.8757 3812.00 3586.91 66.20
3193 15.8795 3729.20 3585.83 65.10
3194 15.8833 3779.80 3584.75 65.30
3195 15.8870 3620.00 3583.67 64.10
3196 15.8908 3544.70 3582.59 63.10
3197 15.8945 3536.10 3581.51 63.90
3198 15.8983 3689.30 3580.43 64.40
3199 15.9020 3528.80 3579.35 63.70
3200 15.9058 3761.80 3578.27 64.80
3201 15.9096 3667.90 3577.19 65.00
3202 15.9133 3670.40 3576.11 65.10
3203 15.9171 3648.10 3575.03 64.70
3204 15.9208 3748.40 3573.95 65.80
3205 15.9246 3488.80 3572.87 63.20
3206 15.9284 3742.30 3571.79 64.90
3207 15.9321 3589.60 3570.72 63.90
3208 15.9359 3603.10 3569.64 64.20
3209 15.9396 3609.80 3568.56 63.40
3210 15.9434 3636.00 3567.48 64.70
3211 15.9472 3720.30 3566.40 64.90
3212 15.9509 3674.30 3565.32 64.80
3213 15.9547 3613.30 3564.24 64.60
3214 15.9584 3699.20 3563.16 65.00
3215 15.9622 3672.10 3562.08 64.90
3216 15.9659 3549.10 3561.00 63.90
3217 15.9697 3720.50 3559.92 64.70
3218 15.9735 3760.60 3558.84 65.90
3219 15.9772 3700.60 3557.76 65.10
3220 15.9810 3710.20 3556.68 64.80
3221 15.9847 3547.90 3555.60 63.50
3222 15.9885 3748.50 3554.52 65.80
3223 15.9923 3574.00 3553.45 63.40
3224 15.9960 3572.80 3552.37 63.70
3225 15.9998 3601.10 3551.29 64.50
3226 16.0035 3657.70 3550.21 64.80
3227 16.0073 3642.00 3549.13 64.60
3228 16.0110 3636.40 3548.05 64.40
3229 16.0148 3569.10 3546.97 64.00
3230 16.0186 3640.60 3545.89 64.80
3231 16.0223 3593.20 3544.81 63.00
3232 16.0261 3556.80 3543.74 64.20
3233 16.0298 3552.20 3542.66 63.30
3234 16.0336 3702.80 3541.58 65.30
3235 16.0374 3550.10 3540.50 63.70
3236 16.0411 3611.60 3539.42 64.40
3237 16.0449 3653.20 3538.34 67.40
3238 16.0486 3653.60 3537.26 63.90
3239 16.0524 3574.60 3536.19 63.80
3240 16.0562 3659.70 3535.11 63.60
3241 16.0599 3651.10 3534.03 64.40
3242 16.0637 3718.10 3532.95 65.50
3243 16.0674 3560.50 3531.87 63.30
3244 16.0712 3583.00 3530.79 63.00
3245 16.0749 3463.10 3529.71 61.90
3246 16.0787 3715.40 3528.64 64.80
3247 16.0825 3493.20 3527.56 63.70
3248 16.0862 3595.90 3526.48 64.40
3249 16.0900 3551.40 3525.40 63.40
3250 16.0937 3635.20 3524.32 64.10
3251 16.0975 3526.30 3523.24 63.20
3252 16.1013 3654.30 3522.17 64.40
3253 16.1050 3565.80 3521.09 63.80
3254 16.1088 3612.70 3520.01 64.40
3255 16.1125 3446.70 3518.93 62.10
3256 16.1163 3649.50 3517.85 64.40
3257 16.1201 3601.80 3516.78 64.40
3258 16.1238 3580.20 3515.70 63.50
3259 16.1276 3633.30 3514.62 65.10
3260 16.1313 3577.80 3513.55 64.00
3261 16.1351 3575.00 3512.47 64.30
3262 16.1388 3621.90 3511.39 64.40
3263 16.1426 3536.60 3510.31 63.20
3264 16.1464 3617.40 3509.23 64.50
3265 16.1501 3558.00 3508.16 63.80
3266 16.1539 3582.20 3507.08 64.00
3267 16.1576 3490.30 3506.00 63.80
3268 16.1614 3597.10 3504.93 64.10
3269 16.1651 3561.10 3503.85 63.80
3270 16.1689 3620.20 3502.77 65.10
3271 16.1727 3602.20 3501.70 64.20
3272 16.1764 3704.20 3500.62 64.90
3273 16.1802 3604.00 3499.54 64.70
3274 16.1839 3482.20 3498.46 62.60
3275 16.1877 3622.20 3497.39 64.10
3276 16.1915 3628.20 3496.31 64.10
3277 16.1952 3596.20 3495.24 64.30
3278 16.1990 3677.10 3494.16 65.70
3279 16.2027 3484.40 3493.08 63.30
3280 16.2065 3524.80 3492.00 63.50
3281 16.2103 3612.20 3490.93 64.90
3282 16.2140 3559.60 3489.85 63.80
3283 16.2178 3596.00 3488.78 64.00
3284 16.2215 3631.30 3487.70 64.90
3285 16.2253 3638.60 3486.62 64.90
3286 16.2290 3580.70 3485.55 64.00
3287 16.2328 3485.20 3484.47 62.90
3288 16.2365 3536.00 3483.40 63.40
3289 16.2403 3520.50 3482.32 63.30
3290 16.2441 3639.40 3481.25 64.90
3291 16.2478 3597.30 3480.17 63.90
3292 16.2516 3534.40 3479.10 63.50
3293 16.2553 3400.20 3478.02 62.60
3294 16.2591 3518.00 3476.94 63.80
3295 16.2629 3493.90 3475.87 63.40
3296 16.2666 3564.00 3474.80 63.10
3297 16.2704 3445.90 3473.72 62.60
3298 16.2741 3546.90 3472.64 64.30
3299 16.2779 3591.60 3471.57 63.40
3300 16.2816 3602.50 3470.50 64.00
3301 16.2854 3487.70 3469.42 63.20
3302 16.2892 3535.80 3468.35 63.40
3303 16.2929 3449.10 3467.27 62.80
3304 16.2967 3621.00 3466.20 63.70
3305 16.3004 3513.30 3465.12 63.80
3306 16.3042 3582.20 3464.05 63.70
3307 16.3079 3555.50 3462.97 64.80
3308 16.3117 3612.30 3461.90 63.80
3309 16.3155 3512.60 3460.83 63.80
3310 16.3192 3457.10 3459.75 62.00
3311 16.3230 3557.40 3458.68 63.80
3312 16.3267 3562.30 3457.60 63.60
3313 16.3305 3439.40 3456.53 62.70
3314 16.3342 3597.60 3455.46 64.70
3315 16.3380 3518.40 3454.38 63.40
3316 16.3418 3520.90 3453.31 63.30
3317 16.3455 3573.60 3452.24 63.60
3318 16.3493 3545.00 3451.17 63.50
3319 16.3530 3655.60 3450.09 65.00
3320 16.3568 3391.10 3449.02 61.80
3321 16.3606 3489.80 3447.94 63.40
3322 16.3643 3476.30 3446.87 62.30
3323 16.3681 3339.60 3445.80 61.80
3324 16.3718 3719.40 3444.73 65.70
3325 16.3756 3550.00 3443.65 63.40
3326 16.3793 3496.70 3442.58 63.20
3327 16.3831 3526.00 3441.51 63.30
3328 16.3869 3584.20 3440.44 64.30
3329 16.3906 3543.00 3439.37 62.90
3330 16.3944 3603.50 3438.30 64.50
3331 16.3981 3446.80 3437.22 62.70
3332 16.4019 3650.30 3436.15 64.50
3333 16.4056 3505.80 3435.08 63.70
3334 16.4094 3485.80 3434.01 62.60
3335 16.4132 3605.10 3432.94 63.80
3336 16.4169 3617.10 3431.86 64.90
3337 16.4207 3635.10 3430.80 64.40
3338 16.4244 3473.10 3429.72 63.10
3339 16.4282 3449.90 3428.65 62.20
3340 16.4319 3498.00 3427.58 64.10
3341 16.4357 3466.10 3426.51 62.60
3342 16.4395 3671.70 3425.44 65.30
3343 16.4432 3501.30 3424.37 62.60
3344 16.4470 3560.40 3423.30 63.80
3345 16.4507 3445.90 3422.23 62.40
3346 16.4545 3559.10 3421.16 63.10
3347 16.4582 3461.40 3420.09 63.00
3348 16.4620 3638.80 3419.02 64.60
3349 16.4658 3477.60 3417.95 63.40
3350 16.4695 3566.20 3416.88 63.50
3351 16.4733 3436.60 3415.81 61.80
3352 16.4770 3585.80 3414.74 64.20
3353 16.4808 3626.00 3413.67 64.80
3354 16.4845 3558.90 3412.60 63.70
3355 16.4883 3456.50 3411.53 63.10
3356 16.4921 3522.30 3410.46 63.70
3357 16.4958 3445.40 3409.40 62.60
3358 16.4996 3611.60 3408.33 63.90
3359 16.5033 3412.50 3407.26 62.10
3360 16.5071 3458.60 3406.19 62.30
3361 16.5108 3508.20 3405.12 63.30
3362 16.5146 3671.80 3404.05 65.10
3363 16.5184 3507.50 3402.99 63.90
3364 16.5221 3517.90 3401.92 63.70
3365 16.5259 3536.60 3400.85 63.70
3366 16.5296 3549.50 3399.78 65.30
3367 16.5334 3578.30 3398.72 65.10
3368 16.5371 3594.60 3397.65 64.00
3369 16.5409 3511.00 3396.58 64.30
3370 16.5446 3543.60 3395.51 64.20
3371 16.5484 3442.80 3394.45 63.30
3372 16.5522 3559.00 3393.38 64.70
3373 16.5559 3586.20 3392.31 65.10
3374 16.5597 3602.40 3391.25 64.50
3375 16.5634 3590.50 3390.18 64.70
3376 16.5672 3517.20 3389.11 62.50
3377 16.5709 3546.20 3388.05 64.30
3378 16.5747 3637.80 3386.98 65.90
3379 16.5785 3490.10 3385.92 63.90
3380 16.5822 3520.00 3384.85 63.30
3381 16.5860 3508.30 3383.78 64.10
3382 16.5897 3610.30 3382.72 64.90
3383 16.5935 3572.30 3381.65 64.80
3384 16.5972 3578.60 3380.59 64.20
3385 16.6010 3514.00 3379.52 64.20
3386 16.6048 3578.40 3378.46 64.90
3387 16.6085 3562.20 3377.39 64.80
3388 16.6123 3495.60 3376.33 64.50
3389 16.6160 3614.60 3375.26 65.30
3390 16.6198 3544.90 3374.20 64.20
3391 16.6235 3524.90 3373.13 64.50
3392 16.6273 3501.50 3372.07 64.20
3393 16.6311 3564.60 3371.01 64.90
3394 16.6348 3696.40 3369.94 65.90
3395 16.6386 3436.20 3368.88 63.80
3396 16.6423 3643.80 3367.82 65.10
3397 16.6461 3469.60 3366.75 64.50
3398 16.6498 3529.30 3365.69 63.70
3399 16.6536 3491.20 3364.63 64.00
3400 16.6573 3720.70 3363.57 66.80
3401 16.6611 3664.50 3362.50 64.90
3402 16.6649 3700.60 3606.14 66.00
3403 16.6686 3640.90 3611.31 65.60
3404 16.6724 3578.10 3616.74 65.20
3405 16.6761 3605.20 3622.42 65.40
3406 16.6799 3722.40 3628.35 66.00
3407 16.6836 3654.40 3634.57 66.60
3408 16.6874 3797.10 3641.08 66.60
3409 16.6912 3636.30 3647.93 65.60
3410 16.6949 3603.80 3655.10 64.20
3411 16.6987 3560.40 3662.61 64.70
3412 16.7024 3681.20 3670.50 65.40
3413 16.7062 3642.50 3678.76 63.80
3414 16.7099 3692.10 3687.47 66.10
3415 16.7137 3636.20 3696.62 64.50
3416 16.7174 3742.30 3706.20 65.90
3417 16.7212 3749.00 3716.30 66.80
3418 16.7250 3593.40 3726.92 64.20
3419 16.7287 3628.30 3738.11 65.90
3420 16.7325 3813.40 3749.91 67.60
3421 16.7362 3644.10 3762.31 65.20
3422 16.7400 3885.90 3775.43 68.50
3423 16.7437 3621.70 3789.23 64.60
3424 16.7475 3969.20 3803.85 68.90
3425 16.7512 3849.80 3819.25 67.50
3426 16.7550 3888.20 3835.60 67.30
3427 16.7588 3888.10 3852.85 67.60
3428 16.7625 3954.30 3871.18 68.20
3429 16.7663 3936.90 3890.61 68.90
3430 16.7700 3894.40 3911.18 68.20
3431 16.7738 3977.00 3933.11 69.20
3432 16.7775 4016.30 3956.36 69.50
3433 16.7813 4128.60 3981.17 70.00
3434 16.7850 4023.70 4007.54 69.20
3435 16.7888 4084.40 4035.76 70.20
3436 16.7925 4235.40 4065.82 71.10
3437 16.7963 4164.70 4098.07 70.20
3438 16.8001 4288.10 4132.61 71.10
3439 16.8038 4307.70 4169.56 71.60
3440 16.8076 4612.80 4209.35 73.80
3441 16.8113 4492.30 4252.07 73.10
3442 16.8151 4504.10 4298.19 73.10
3443 16.8188 4458.90 4347.86 72.60
3444 16.8226 4622.90 4401.72 73.90
3445 16.8264 4693.50 4460.12 74.20
3446 16.8301 4798.40 4523.32 75.80
3447 16.8339 4788.90 4592.08 77.00
3448 16.8376 4935.20 4667.26 77.10
3449 16.8414 5081.50 4749.43 78.40
3450 16.8451 5209.40 4839.27 79.50
3451 16.8489 5261.90 4938.31 79.80
3452 16.8526 5473.30 5047.13 80.60
3453 16.8564 5395.90 5167.77 81.20
3454 16.8601 5873.70 5301.22 85.10
3455 16.8639 6074.20 5450.18 86.80
3456 16.8677 6220.20 5616.17 88.70
3457 16.8714 6373.60 5802.92 88.00
3458 16.8752 6825.40 6012.81 92.20
3459 16.8789 7105.60 6251.13 94.40
3460 16.8827 7405.40 6521.78 96.00
3461 16.8864 7789.60 6832.31 99.10
3462 16.8902 8381.30 7188.98 103.70
3463 16.8939 8532.40 7603.46 103.10
3464 16.8977 9489.60 8086.49 109.20
3465 16.9015 10387.10 8657.19 116.10
3466 16.9052 11214.20 9333.24 121.30
3467 16.9090 12191.10 10147.00 126.90
3468 16.9127 13505.80 11132.20 129.80
3469 16.9165 14954.90 12346.20 142.80
3470 16.9202 17057.50 13857.80 154.90
3471 16.9240 19246.90 15781.60 163.00
3472 16.9277 22816.60 18279.90 179.20
3473 16.9315 27209.70 21699.10 200.30
3474 16.9352 33650.50 26811.00 227.40
3475 16.9390 42788.70 35662.50 254.80
3476 16.9428 59504.50 53119.20 311.30
3477 16.9465 87882.60 88121.70 400.10
3478 16.9503 150028.00 152954.00 569.20
3479 16.9540 256668.00 255573.00 812.30
3480 16.9578 401544.00 386692.00 1110.90
3481 16.9615 489444.00 507295.00 1270.40
3482 16.9653 501426.00 548945.00 1285.00
3483 16.9690 435743.00 478497.00 1170.80
3484 16.9728 324693.00 348614.00 939.50
3485 16.9765 200030.00 223166.00 680.80
3486 16.9803 116496.00 131147.00 482.50
3487 16.9841 71363.20 75922.20 351.20
3488 16.9878 49769.90 46910.20 283.70
3489 16.9896 40988.20 38959.20 247.20
3490 16.9933 31290.90 28551.80 211.40
3491 16.9971 25676.90 22750.30 187.90
3492 17.0009 21183.40 19007.30 169.70
3493 17.0046 18553.60 16320.70 157.80
3494 17.0084 15699.90 14269.60 144.40
3495 17.0121 14409.90 12662.70 137.20
3496 17.0159 13038.70 11382.80 129.30
3497 17.0196 12281.10 10342.10 127.90
3498 17.0234 10871.20 9487.26 118.70
3499 17.0271 10146.10 8778.61 112.10
3500 17.0309 9502.10 8181.74 110.00
3501 17.0347 8793.60 7675.80 104.70
3502 17.0384 8122.90 7244.37 100.50
3503 17.0422 7584.70 6871.64 97.20
3504 17.0459 7311.40 6548.17 95.40
3505 17.0497 6915.10 6266.62 91.60
3506 17.0534 6512.30 6018.67 89.00
3507 17.0572 6225.40 5799.85 84.80
3508 17.0610 6048.00 5605.52 85.50
3509 17.0647 5912.20 5432.82 85.40
3510 17.0685 5762.30 5277.77 83.50
3511 17.0722 5523.30 5138.77 80.60
3512 17.0760 5309.40 5013.07 80.00
3513 17.0797 5130.50 4899.17 78.30
3514 17.0835 4906.00 4796.04 76.80
3515 17.0872 4965.50 4701.81 76.50
3516 17.0910 4831.80 4615.75 76.10
3517 17.0948 4680.70 4537.03 74.90
3518 17.0985 4576.10 4464.56 74.10
3519 17.1023 4518.50 4397.81 74.00
3520 17.1060 4437.20 4336.37 72.80
3521 17.1098 4429.60 4279.38 72.30
3522 17.1135 4374.30 4226.66 72.30
3523 17.1173 4189.50 4177.60 70.60
3524 17.1211 4063.70 4131.93 69.60
3525 17.1248 4089.70 4089.46 69.50
3526 17.1286 4045.30 4049.66 69.60
3527 17.1323 3995.50 4012.47 68.40
3528 17.1361 4051.90 3977.70 70.00
3529 17.1398 4039.00 3944.97 68.40
3530 17.1436 3972.20 3914.29 68.50
3531 17.1474 3869.90 3885.33 68.20
3532 17.1511 3844.00 3858.06 66.60
3533 17.1549 3831.70 3832.38 67.20
3534 17.1586 3703.20 3808.03 66.20
3535 17.1624 3716.00 3785.07 66.50
3536 17.1661 3753.10 3763.26 66.80
3537 17.1699 3697.70 3742.59 65.80
3538 17.1736 3700.20 3723.01 67.00
3539 17.1774 3608.80 3704.34 64.80
3540 17.1812 3496.10 3686.59 64.20
3541 17.1849 3676.30 3669.73 64.90
3542 17.1887 3561.40 3653.62 64.70
3543 17.1924 3509.70 3638.28 63.80
3544 17.1962 3438.20 3623.59 61.90
3545 17.1999 3570.70 3609.55 64.90
3546 17.2037 3511.50 3596.16 63.30
3547 17.2075 3438.20 3583.29 63.00
3548 17.2112 3537.20 3571.00 64.80
3549 17.2150 3406.00 3559.18 62.40
3550 17.2187 3542.10 3547.86 65.10
3551 17.2224 3307.60 3537.21 60.90
3552 17.2261 3361.30 3526.75 61.70
3553 17.2299 3370.20 3516.66 61.00
3554 17.2336 3416.70 3506.97 62.20
3555 17.2374 3370.50 3497.64 61.70
3556 17.2411 3344.60 3488.61 61.80
3557 17.2449 3320.60 3479.93 61.20
3558 17.2487 3419.30 3471.53 62.20
3559 17.2524 3187.00 3463.43 60.50
3560 17.2562 3279.50 3455.59 60.70
3561 17.2599 3364.60 3448.02 61.60
3562 17.2637 3355.40 3440.69 61.70
3563 17.2674 3227.40 3433.60 60.40
3564 17.2712 3320.60 3192.30 61.10
3565 17.2749 3294.50 3191.27 60.70
3566 17.2787 3324.00 3190.24 61.70
3567 17.2824 3226.60 3189.21 59.90
3568 17.2862 3251.30 3188.18 59.70
3569 17.2900 3152.40 3187.15 60.10
3570 17.2937 3262.90 3186.13 60.80
3571 17.2975 3126.00 3185.10 59.00
3572 17.3012 3169.20 3184.07 59.80
3573 17.3050 3104.20 3183.04 59.70
3574 17.3087 3299.60 3182.01 60.00
3575 17.3125 3219.40 3180.98 60.30
3576 17.3162 3205.70 3179.96 59.70
3577 17.3200 3150.50 3178.93 59.40
3578 17.3237 3215.50 3177.90 60.80
3579 17.3275 3085.80 3176.88 59.20
3580 17.3313 3181.70 3175.85 59.90
3581 17.3350 3093.60 3174.82 59.00
3582 17.3388 3085.50 3173.80 59.70
3583 17.3425 3102.20 3172.77 59.10
3584 17.3463 3065.30 3171.75 59.00
3585 17.3500 3155.00 3170.72 60.10
3586 17.3538 3120.40 3169.70 59.50
3587 17.3575 3160.60 3168.67 60.00
3588 17.3613 3265.70 3167.65 61.70
3589 17.3651 3192.80 3166.62 60.20
3590 17.3688 3163.20 3165.60 60.60
3591 17.3726 3198.60 3164.58 60.70
3592 17.3763 3070.90 3163.55 58.80
3593 17.3801 3092.80 3162.53 59.40
3594 17.3838 3130.20 3161.51 59.70
3595 17.3876 3273.60 3160.48 61.50
3596 17.3913 3138.20 3159.46 60.20
3597 17.3951 3143.70 3158.44 59.60
3598 17.3988 3092.20 3157.42 59.70
3599 17.4026 3066.00 3156.40 59.90
3600 17.4064 3178.90 3155.38 60.60
3601 17.4101 3029.10 3154.35 59.10
3602 17.4139 3116.90 3153.33 59.40
3603 17.4176 2977.40 3152.31 58.00
3604 17.4214 3062.60 3151.29 58.70
3605 17.4251 3095.30 3150.27 59.30
3606 17.4289 2979.60 3149.25 58.10
3607 17.4326 2973.40 3148.23 58.30
3608 17.4364 3088.00 3147.21 58.40
3609 17.4402 3007.40 3146.19 58.90
3610 17.4439 3069.80 3145.17 59.30
3611 17.4477 3009.90 3144.15 59.00
3612 17.4514 3151.70 3143.14 60.10
3613 17.4552 3051.30 3142.12 58.80
3614 17.4589 3106.30 3141.10 59.70
3615 17.4627 3020.60 3140.08 58.90
3616 17.4664 2896.70 3139.07 57.50
3617 17.4702 3033.30 3138.05 58.80
3618 17.4740 3041.60 3137.03 58.90
3619 17.4777 3090.40 3136.02 59.10
3620 17.4815 3068.00 3135.00 58.40
3621 17.4852 3059.10 3133.98 59.50
3622 17.4890 3073.80 3132.97 59.90
3623 17.4927 2954.80 3131.95 58.20
3624 17.4965 3004.80 3130.94 58.40
3625 17.5002 2987.60 3129.92 58.90
3626 17.5040 3092.10 3128.91 59.20
3627 17.5078 3024.00 3127.89 58.70
3628 17.5115 3092.00 3126.88 59.70
3629 17.5153 3086.50 3125.87 59.70
3630 17.5190 3020.70 3124.85 59.30
3631 17.5228 3039.40 3123.84 58.90
3632 17.5266 3037.70 3122.83 59.70
3633 17.5303 2993.50 3121.81 58.50
3634 17.5341 3062.20 3120.80 59.00
3635 17.5378 3003.00 3119.79 58.70
3636 17.5416 3061.90 3118.78 59.10
3637 17.5453 3056.20 3117.77 59.30
3638 17.5491 2968.10 3116.76 58.10
3639 17.5528 2986.10 3115.74 58.80
3640 17.5566 3115.10 3114.73 59.90
3641 17.5604 2975.30 3113.72 58.10
3642 17.5641 2946.70 3112.71 58.10
3643 17.5679 2997.40 3111.70 58.30
3644 17.5716 2996.60 3110.69 59.30
3645 17.5754 2966.80 3109.68 58.10
3646 17.5791 2999.90 3108.68 58.80
3647 17.5829 3017.60 3107.67 59.10
3648 17.5866 2949.80 3106.66 58.00
3649 17.5904 3074.70 3105.65 58.90
3650 17.5942 2943.20 3104.64 57.30
3651 17.5979 3002.60 3103.63 58.80
3652 17.6017 2959.90 3102.63 58.70
3653 17.6054 2985.40 3101.62 58.50
3654 17.6092 2911.10 3100.61 58.20
3655 17.6129 3009.70 3099.60 58.90
3656 17.6167 2987.20 3098.60 58.40
3657 17.6204 2961.10 3097.59 58.40
3658 17.6242 2927.80 3096.59 58.30
3659 17.6280 3041.10 3095.58 59.50
3660 17.6317 2963.30 3094.58 59.10
3661 17.6355 2944.90 3093.57 58.50
3662 17.6392 3004.20 3092.57 59.50
3663 17.6430 2917.20 3091.56 58.90
3664 17.6467 3024.50 3090.56 58.50
3665 17.6505 3035.20 3089.56 59.20
3666 17.6543 2954.00 3088.55 58.60
3667 17.6580 2943.00 3087.55 58.50
3668 17.6618 2947.50 3086.55 59.10
3669 17.6655 2966.30 3085.54 58.90
3670 17.6693 2956.90 3084.54 59.10
3671 17.6730 2925.60 3083.54 58.40
3672 17.6768 2921.10 3082.54 58.30
3673 17.6805 2878.20 3081.54 58.00
3674 17.6843 2887.50 3080.54 57.20
3675 17.6881 2943.90 3079.53 57.60
3676 17.6918 2880.00 3078.53 57.10
3677 17.6956 2846.30 3077.53 56.90
3678 17.6993 3038.70 3076.53 58.80
3679 17.7031 2943.90 3075.53 57.60
3680 17.7069 2927.20 3074.53 57.10
3681 17.7106 2870.90 3073.54 56.80
3682 17.7144 2959.00 3072.53 57.80
3683 17.7181 2986.90 3071.54 58.20
3684 17.7219 2948.20 3070.54 58.10
3685 17.7256 2892.70 3069.54 57.20
3686 17.7294 3022.90 3068.55 58.10
3687 17.7332 2928.30 3067.55 57.60
3688 17.7369 3003.00 3066.55 58.80
3689 17.7407 2844.50 3065.55 56.30
3690 17.7444 2798.80 3064.56 56.50
3691 17.7482 2964.90 3063.56 58.30
3692 17.7519 2895.30 3062.57 56.80
3693 17.7557 2851.80 3061.57 56.60
3694 17.7595 2942.40 3060.57 57.70
3695 17.7632 2919.10 3059.58 57.40
3696 17.7670 3059.90 3058.59 59.40
3697 17.7707 2891.90 3057.59 56.90
3698 17.7745 2924.10 3056.60 57.10
3699 17.7782 2824.80 3055.60 56.60
3700 17.7820 2922.00 3054.61 58.10
3701 17.7857 2888.80 3053.62 57.30
3702 17.7895 2939.60 3052.63 57.50
3703 17.7933 2848.00 3051.63 55.80
3704 17.7970 2944.40 3050.64 57.40
3705 17.8008 2890.30 3049.65 57.40
3706 17.8045 2956.20 3048.66 58.10
3707 17.8083 2920.30 3047.67 56.80
3708 17.8120 2855.50 3046.67 57.20
3709 17.8158 2891.10 3045.69 57.90
3710 17.8196 2827.40 3044.69 56.60
3711 17.8233 2797.00 3043.70 56.40
3712 17.8271 2998.60 3042.71 58.50
3713 17.8308 2880.10 3041.73 57.10
3714 17.8346 2867.60 3040.74 56.10
3715 17.8384 2864.90 3039.75 56.90
3716 17.8421 2899.20 3038.76 58.00
3717 17.8459 2881.90 3037.77 57.60
3718 17.8496 2905.00 3036.78 57.90
3719 17.8534 2905.50 3035.79 57.60
3720 17.8571 2832.20 3034.81 56.40
3721 17.8609 2774.30 3033.82 55.20
3722 17.8647 2996.30 3032.83 58.80
3723 17.8684 2780.50 3031.85 56.30
3724 17.8722 2831.40 3030.86 56.60
3725 17.8759 2852.00 3029.88 56.80
3726 17.8797 2859.10 3028.89 57.20
3727 17.8834 2845.20 3027.91 57.60
3728 17.8872 2842.90 3026.92 56.90
3729 17.8909 2850.20 3025.94 57.10
3730 17.8947 2923.90 3024.95 57.80
3731 17.8985 2752.00 3023.97 55.70
3732 17.9022 2925.00 3022.99 56.70
3733 17.9060 2780.30 3022.00 56.40
3734 17.9097 2916.50 3021.02 57.70
3735 17.9135 2804.20 3020.04 56.40
3736 17.9173 2843.70 3019.06 56.50
3737 17.9210 2814.10 3018.08 56.40
3738 17.9248 2841.60 3017.09 56.60
3739 17.9285 2897.30 3016.11 57.60
3740 17.9323 2897.90 3015.13 57.30
3741 17.9360 2822.50 3014.15 56.60
3742 17.9398 2905.50 3013.17 57.80
3743 17.9436 2776.10 3012.19 56.30
3744 17.9473 2856.30 3011.21 56.50
3745 17.9511 2809.10 3010.23 56.40
3746 17.9548 2810.50 3009.25 56.80
3747 17.9586 2843.00 3008.27 56.90
3748 17.9624 2854.60 3007.30 56.60
3749 17.9661 2867.80 3006.32 57.40
3750 17.9699 2700.70 3005.34 55.80
3751 17.9736 2820.90 3004.36 56.20
3752 17.9774 2837.30 3003.39 56.90
3753 17.9811 2796.10 3002.41 55.90
3754 17.9849 2824.40 3001.44 57.40
3755 17.9886 2743.50 3000.46 56.00
3756 17.9924 2878.90 2999.48 57.50
3757 17.9962 2778.30 2998.51 56.30
3758 17.9999 2878.60 2997.53 57.70
3759 18.0037 2882.50 2996.56 57.50
3760 18.0074 2786.00 2995.58 56.30
3761 18.0112 2839.70 2994.61 57.80
3762 18.0150 2844.20 2993.63 57.30
3763 18.0187 2763.30 2992.66 56.60
3764 18.0225 2788.20 2991.69 56.50
3765 18.0262 2859.60 2990.72 56.60
3766 18.0300 2845.80 2989.74 56.60
3767 18.0338 2743.80 2988.77 56.00
3768 18.0375 2852.50 2987.80 57.50
3769 18.0413 2701.40 2986.83 55.50
3770 18.0450 2797.40 2985.86 56.60
3771 18.0488 2765.90 2984.89 56.50
3772 18.0525 2885.10 2983.92 58.10
3773 18.0563 2788.60 2982.95 56.70
3774 18.0600 2862.60 2981.98 56.10
3775 18.0638 2798.90 2981.01 55.80
3776 18.0676 2834.80 2980.04 57.00
3777 18.0713 2843.60 2979.07 57.50
3778 18.0751 2907.40 2978.10 57.70
3779 18.0788 2733.90 2977.13 56.10
3780 18.0826 2832.50 2976.17 57.10
3781 18.0864 2820.80 2975.20 56.90
3782 18.0901 2869.10 2974.23 58.00
3783 18.0939 2769.10 2973.27 56.10
3784 18.0976 2839.90 2972.30 57.30
3785 18.1014 2765.50 2971.34 56.30
3786 18.1052 2844.40 2970.37 56.60
3787 18.1089 2677.50 2969.40 54.90
3788 18.1127 2870.50 2968.44 57.40
3789 18.1164 2669.10 2967.47 55.20
3790 18.1202 2824.90 2966.51 57.40
3791 18.1239 2785.40 2965.54 56.10
3792 18.1277 2763.20 2964.58 56.80
3793 18.1315 2786.90 2963.62 56.20
3794 18.1352 2844.20 2962.66 56.60
3795 18.1390 2742.90 2961.69 56.10
3796 18.1427 2791.20 2960.73 57.00
3797 18.1465 2802.30 2959.77 56.60
3798 18.1503 2787.50 2958.81 56.50
3799 18.1540 2781.80 2957.85 56.10
3800 18.1578 2806.00 2956.89 57.00
3801 18.1615 2853.00 2955.93 58.10
3802 18.1653 2767.30 2954.97 56.90
3803 18.1691 2787.60 2954.01 56.00
3804 18.1728 2748.40 2953.05 56.10
3805 18.1766 2723.50 2952.09 55.50
3806 18.1803 2785.30 2951.13 56.50
3807 18.1841 2837.40 2950.17 56.60
3808 18.1878 2757.00 2949.21 55.20
3809 18.1916 2748.10 2948.25 55.60
3810 18.1954 2752.60 2947.30 55.10
3811 18.1991 2801.20 2946.34 56.50
3812 18.2029 2666.00 2945.38 54.90
3813 18.2066 2637.10 2944.43 54.80
3814 18.2104 2715.50 2943.47 55.50
3815 18.2141 2674.00 2942.52 55.30
3816 18.2179 2741.20 2941.56 56.10
3817 18.2217 2847.20 2940.61 57.10
3818 18.2254 2706.40 2939.65 55.20
3819 18.2292 2741.40 2938.70 55.90
3820 18.2329 2817.00 2937.74 56.70
3821 18.2367 2744.70 2936.79 56.30
3822 18.2405 2714.20 2935.84 55.40
3823 18.2442 2803.10 2934.88 56.80
3824 18.2480 2737.70 2933.93 55.10
3825 18.2517 2648.90 2932.98 53.70
3826 18.2555 2710.70 2932.03 55.60
3827 18.2593 2794.40 2931.08 56.40
3828 18.2630 2687.20 2930.13 55.40
3829 18.2668 2775.40 2929.18 56.10
3830 18.2705 2752.60 2928.23 56.30
3831 18.2743 2656.20 2927.28 54.80
3832 18.2780 2736.30 2926.33 56.10
3833 18.2818 2739.50 2925.38 56.30
3834 18.2856 2652.20 2924.43 54.10
3835 18.2893 2738.90 2923.48 54.70
3836 18.2931 2782.80 2922.53 56.70
3837 18.2968 2671.10 2921.59 55.00
3838 18.3006 2751.00 2920.64 56.30
3839 18.3044 2762.50 2919.69 55.90
3840 18.3081 2680.40 2918.74 55.20
3841 18.3119 2768.20 2917.80 55.80
3842 18.3156 2836.70 2916.85 56.00
3843 18.3194 2782.90 2915.90 56.60
3844 18.3232 2715.20 2914.96 55.70
3845 18.3269 2724.90 2914.01 55.60
3846 18.3307 2716.20 2913.07 55.30
3847 18.3344 2659.90 2912.13 54.60
3848 18.3382 2759.80 2911.18 56.20
3849 18.3419 2689.40 2910.24 55.80
3850 18.3457 2623.70 2909.30 54.40
3851 18.3495 2719.40 2908.35 55.40
3852 18.3532 2687.90 2907.41 55.20
3853 18.3570 2699.10 2906.47 55.10
3854 18.3608 2652.70 2905.53 54.70
3855 18.3645 2662.70 2904.59 54.90
3856 18.3683 2712.80 2903.65 55.20
3857 18.3720 2607.70 2902.71 53.30
3858 18.3758 2736.60 2901.77 55.10
3859 18.3795 2685.60 2900.83 55.30
3860 18.3833 2589.10 2899.89 54.40
3861 18.3871 2670.20 2898.95 53.70
3862 18.3908 2650.60 2898.01 55.10
3863 18.3946 2655.70 2897.07 54.90
3864 18.3983 2616.60 2896.13 54.20
3865 18.4021 2704.50 2895.20 54.90
3866 18.4059 2632.80 2894.26 54.40
3867 18.4096 2541.40 2893.32 53.20
3868 18.4134 2818.30 2892.38 56.30
3869 18.4171 2647.10 2891.45 54.70
3870 18.4209 2634.40 2890.52 54.00
3871 18.4247 2618.50 2889.58 53.70
3872 18.4284 2743.10 2888.64 55.90
3873 18.4322 2617.50 2887.71 54.30
3874 18.4359 2731.20 2886.78 56.00
3875 18.4397 2590.80 2885.84 54.30
3876 18.4435 2681.10 2884.91 54.20
3877 18.4472 2668.20 2883.97 55.00
3878 18.4510 2647.00 2883.04 55.00
3879 18.4547 2577.90 2882.11 53.90
3880 18.4585 2684.70 2881.18 55.30
3881 18.4622 2612.60 2880.25 53.30
3882 18.4660 2630.90 2879.31 54.80
3883 18.4698 2634.20 2878.38 55.00
3884 18.4735 2696.60 2877.45 55.00
3885 18.4773 2569.80 2876.52 54.10
3886 18.4810 2578.00 2875.60 53.70
3887 18.4848 2685.70 2874.67 55.70
3888 18.4886 2635.90 2873.74 54.20
3889 18.4923 2651.70 2872.81 54.80
3890 18.4961 2603.00 2871.88 54.30
3891 18.4998 2521.50 2870.95 53.60
3892 18.5036 2684.00 2870.03 55.50
3893 18.5074 2666.10 2869.10 54.80
3894 18.5111 2646.50 2868.17 54.40
3895 18.5149 2575.20 2867.24 53.60
3896 18.5186 2575.10 2866.32 53.90
3897 18.5224 2600.60 2865.39 53.90
3898 18.5262 2634.40 2864.47 54.70
3899 18.5299 2633.80 2863.54 54.40
3900 18.5337 2708.40 2862.62 54.70
3901 18.5374 2516.30 2861.69 53.70
3902 18.5412 2604.70 2860.77 54.40
3903 18.5450 2563.50 2859.85 53.80
3904 18.5487 2670.40 2858.92 55.00
3905 18.5525 2603.00 2858.00 54.10
3906 18.5562 2706.90 2857.08 55.80
3907 18.5600 2592.00 2856.16 53.60
3908 18.5638 2634.70 2855.24 53.50
3909 18.5675 2682.70 2854.32 55.10
3910 18.5713 2628.20 2853.40 54.30
3911 18.5750 2591.90 2852.48 54.20
3912 18.5788 2749.40 2851.56 56.00
3913 18.5826 2639.40 2850.64 54.80
3914 18.5863 2623.20 2849.72 55.10
3915 18.5901 2573.60 2848.80 53.70
3916 18.5938 2576.80 2847.88 54.10
3917 18.5976 2565.90 2846.96 53.50
3918 18.6014 2630.20 2846.05 54.00
3919 18.6051 2639.40 2845.13 54.50
3920 18.6089 2652.80 2844.21 55.10
3921 18.6126 2624.10 2843.30 54.30
3922 18.6164 2616.90 2842.38 54.00
3923 18.6201 2594.80 2841.46 53.70
3924 18.6239 2677.40 2840.55 54.70
3925 18.6277 2590.10 2839.63 54.20
3926 18.6314 2479.30 2838.72 52.50
3927 18.6352 2621.40 2837.81 54.10
3928 18.6390 2610.50 2836.89 54.20
3929 18.6427 2659.70 2835.98 55.90
3930 18.6465 2629.60 2835.07 53.80
3931 18.6502 2613.30 2834.15 53.70
3932 18.6540 2549.90 2833.24 53.00
3933 18.6577 2550.60 2832.33 52.90
3934 18.6615 2625.10 2831.42 52.70
3935 18.6653 2519.00 2830.51 52.30
3936 18.6690 2616.70 2829.60 53.70
3937 18.6728 2615.70 2828.69 54.20
3938 18.6765 2461.30 2827.78 52.10
3939 18.6803 2515.00 2826.87 52.70
3940 18.6841 2681.70 2825.96 54.20
3941 18.6878 2597.10 2825.05 53.70
3942 18.6916 2608.40 2824.14 53.00
3943 18.6954 2604.80 2823.24 53.90
3944 18.6991 2574.40 2822.33 53.10
3945 18.7029 2515.70 2821.42 52.40
3946 18.7066 2609.60 2820.52 53.60
3947 18.7104 2605.40 2819.61 53.60
3948 18.7141 2591.40 2818.70 53.20
3949 18.7179 2612.40 2817.80 53.50
3950 18.7217 2611.00 2816.89 54.00
3951 18.7254 2548.00 2815.99 53.20
3952 18.7292 2658.10 2815.08 54.00
3953 18.7330 2609.60 2814.18 54.30
3954 18.7367 2616.70 2813.28 54.00
3955 18.7405 2537.30 2812.37 52.90
3956 18.7442 2573.30 2811.47 52.80
3957 18.7480 2537.80 2810.57 52.30
3958 18.7518 2565.70 2809.67 52.50
3959 18.7555 2609.30 2808.77 53.50
3960 18.7593 2579.00 2807.87 53.50
3961 18.7630 2537.90 2806.97 52.90
3962 18.7668 2699.70 2806.07 55.20
3963 18.7705 2486.90 2805.17 52.60
3964 18.7743 2534.20 2804.27 53.20
3965 18.7781 2592.80 2803.37 53.70
3966 18.7818 2581.50 2802.47 53.50
3967 18.7856 2541.80 2801.57 52.30
3968 18.7894 2558.30 2800.67 53.10
3969 18.7931 2597.40 2799.78 53.50
3970 18.7969 2483.70 2798.88 53.00
3971 18.8006 2592.50 2797.98 53.70
3972 18.8044 2614.30 2797.09 53.30
3973 18.8081 2621.00 2796.19 53.80
3974 18.8119 2583.50 2795.30 52.60
3975 18.8157 2547.20 2794.40 53.30
3976 18.8194 2565.00 2793.51 53.10
3977 18.8232 2565.60 2792.61 53.30
3978 18.8270 2552.60 2791.72 53.10
3979 18.8307 2513.40 2790.83 52.40
3980 18.8345 2624.70 2789.93 54.10
3981 18.8382 2504.50 2789.04 52.10
3982 18.8420 2587.60 2788.15 53.70
3983 18.8458 2567.80 2787.26 53.20
3984 18.8495 2519.40 2786.37 52.90
3985 18.8533 2536.80 2785.47 53.10
3986 18.8570 2598.60 2784.58 53.90
3987 18.8608 2600.40 2783.69 53.70
3988 18.8645 2488.60 2782.80 52.20
3989 18.8683 2527.60 2781.92 52.60
3990 18.8721 2459.40 2781.03 51.80
3991 18.8758 2572.00 2780.14 53.80
3992 18.8796 2522.00 2779.25 53.00
3993 18.8834 2601.20 2778.36 53.60
3994 18.8871 2462.50 2777.47 52.50
3995 18.8909 2487.10 2776.59 52.50
3996 18.8946 2618.90 2775.70 53.80
3997 18.8984 2522.40 2774.81 53.10
3998 18.9022 2613.80 2773.93 53.20
3999 18.9059 2530.00 2773.04 53.40
4000 18.9097 2599.20 2772.16 54.20
4001 18.9134 2457.50 2771.27 52.50
4002 18.9172 2549.60 2770.39 53.60
4003 18.9210 2442.40 2769.51 51.50
4004 18.9247 2627.70 2768.62 54.30
4005 18.9285 2502.70 2767.74 52.70
4006 18.9322 2527.90 2766.86 52.80
4007 18.9360 2422.50 2765.98 52.00
4008 18.9398 2616.60 2765.10 53.30
4009 18.9435 2553.90 2764.22 53.60
4010 18.9473 2585.50 2763.33 53.40
4011 18.9510 2504.90 2762.46 53.30
4012 18.9548 2525.60 2761.58 52.80
4013 18.9586 2524.60 2760.70 53.30
4014 18.9623 2519.00 2759.82 53.20
4015 18.9661 2499.00 2758.94 52.90
4016 18.9698 2561.80 2758.06 53.60
4017 18.9736 2383.60 2757.18 51.50
4018 18.9774 2461.00 2756.31 52.20
4019 18.9811 2538.50 2755.43 53.40
4020 18.9849 2508.70 2754.55 52.90
4021 18.9886 2475.40 2753.67 52.20
4022 18.9924 2523.00 2752.80 52.80
4023 18.9962 2497.20 2751.92 52.80
4024 18.9999 2525.80 2751.05 53.00
4025 19.0037 2422.80 2750.17 51.70
4026 19.0075 2515.80 2749.30 52.90
4027 19.0112 2516.20 2748.43 53.10
4028 19.0150 2488.30 2747.55 52.40
4029 19.0187 2454.40 2746.68 52.40
4030 19.0225 2440.50 2745.81 52.30
4031 19.0263 2462.70 2744.94 52.80
4032 19.0300 2449.60 2744.07 52.40
4033 19.0338 2446.80 2743.20 52.20
4034 19.0375 2404.40 2742.32 50.80
4035 19.0413 2425.60 2741.45 52.10
4036 19.0450 2493.90 2740.58 53.00
4037 19.0488 2477.40 2739.72 53.20
4038 19.0526 2502.00 2738.85 53.00
4039 19.0563 2391.40 2737.98 51.60
4040 19.0601 2504.80 2737.11 52.60
4041 19.0639 2418.20 2736.24 51.60
4042 19.0676 2509.20 2735.37 53.10
4043 19.0714 2490.00 2734.51 53.00
4044 19.0751 2527.80 2733.64 53.30
4045 19.0789 2418.80 2732.77 52.10
4046 19.0827 2518.40 2731.91 53.50
4047 19.0864 2440.30 2731.04 51.80
4048 19.0902 2495.60 2730.18 53.00
4049 19.0939 2386.10 2729.31 51.60
4050 19.0977 2466.30 2728.45 52.70
4051 19.1015 2395.00 2727.59 51.60
4052 19.1052 2508.10 2726.72 53.30
4053 19.1090 2429.80 2725.86 52.00
4054 19.1127 2525.80 2725.00 53.40
4055 19.1165 2450.80 2724.14 52.60
4056 19.1203 2472.70 2723.28 52.70
4057 19.1240 2430.10 2722.41 53.00
4058 19.1278 2484.50 2721.56 52.40
4059 19.1315 2488.50 2720.69 52.80
4060 19.1353 2466.60 2719.83 52.80
4061 19.1391 2427.10 2718.98 51.70
4062 19.1428 2467.20 2718.12 51.30
4063 19.1466 2510.50 2717.26 53.10
4064 19.1504 2489.50 2716.40 53.00
4065 19.1541 2469.20 2715.54 52.60
4066 19.1579 2477.50 2714.69 52.40
4067 19.1616 2501.10 2713.83 52.30
4068 19.1654 2542.50 2712.97 52.90
4069 19.1691 2481.20 2712.12 51.40
4070 19.1729 2416.30 2711.26 51.80
4071 19.1767 2416.00 2710.41 52.40
4072 19.1804 2459.50 2709.55 52.50
4073 19.1842 2527.00 2708.70 53.50
4074 19.1880 2476.90 2707.84 52.50
4075 19.1917 2507.10 2706.99 53.30
4076 19.1955 2559.50 2706.14 52.70
4077 19.1992 2510.40 2705.28 53.20
4078 19.2030 2499.00 2704.43 52.90
4079 19.2068 2399.50 2703.58 52.40
4080 19.2105 2484.20 2702.73 52.80
4081 19.2143 2444.60 2701.88 52.20
4082 19.2180 2489.20 2701.03 52.80
4083 19.2218 2245.80 2700.18 50.10
4084 19.2256 2426.10 2699.33 52.30
4085 19.2293 2459.50 2698.48 52.20
4086 19.2331 2449.40 2697.63 51.90
4087 19.2369 2446.20 2696.78 52.00
4088 19.2406 2393.50 2695.94 51.80
4089 19.2444 2384.80 2695.09 52.10
4090 19.2481 2398.10 2694.24 52.00
4091 19.2519 2389.10 2693.40 51.30
4092 19.2556 2412.40 2692.55 51.80
4093 19.2594 2388.90 2691.70 51.60
4094 19.2632 2508.80 2690.86 52.70
4095 19.2669 2378.80 2690.01 51.30
4096 19.2707 2376.10 2689.17 52.00
4097 19.2745 2414.70 2688.33 52.20
4098 19.2782 2320.20 2687.48 50.90
4099 19.2820 2448.70 2686.64 52.70
4100 19.2857 2452.50 2685.80 52.70
4101 19.2895 2358.70 2684.96 50.60
4102 19.2933 2470.50 2684.11 52.70
4103 19.2970 2332.70 2683.27 51.30
4104 19.3008 2463.80 2682.43 52.50
4105 19.3045 2413.60 2681.59 51.90
4106 19.3083 2490.10 2680.75 53.70
4107 19.3121 2375.80 2679.91 52.10
4108 19.3158 2554.10 2679.07 54.30
4109 19.3196 2454.10 2678.23 51.80
4110 19.3233 2448.50 2677.40 52.60
4111 19.3271 2432.40 2676.56 52.80
4112 19.3309 2410.80 2675.72 52.10
4113 19.3346 2394.90 2674.88 52.30
4114 19.3384 2349.90 2674.05 51.50
4115 19.3421 2334.30 2673.21 51.80
4116 19.3459 2510.30 2672.38 53.10
4117 19.3497 2443.20 2671.54 53.20
4118 19.3534 2397.90 2670.71 52.60
4119 19.3572 2334.60 2669.87 51.20
4120 19.3610 2352.40 2669.04 51.80
4121 19.3647 2372.90 2668.21 51.50
4122 19.3685 2428.20 2667.37 51.60
4123 19.3722 2396.50 2666.54 52.10
4124 19.3760 2385.60 2665.71 51.70
4125 19.3798 2433.20 2664.87 52.20
4126 19.3835 2421.60 2664.04 52.50
4127 19.3873 2329.00 2663.21 50.70
4128 19.3910 2359.40 2662.38 51.00
4129 19.3948 2392.50 2661.55 52.00
4130 19.3986 2363.50 2660.72 51.30
4131 19.4023 2373.60 2659.89 51.70
4132 19.4061 2463.70 2659.07 52.80
4133 19.4098 2353.80 2658.24 51.70
4134 19.4136 2414.20 2657.41 52.20
4135 19.4174 2331.40 2656.58 51.70
4136 19.4211 2502.40 2655.75 53.60
4137 19.4249 2376.40 2654.93 50.70
4138 19.4286 2412.90 2654.10 51.40
4139 19.4324 2436.20 2653.28 52.10
4140 19.4362 2411.90 2652.45 51.90
4141 19.4399 2446.30 2651.63 52.30
4142 19.4437 2381.50 2650.80 51.30
4143 19.4475 2302.80 2649.98 50.50
4144 19.4512 2371.00 2649.16 51.40
4145 19.4550 2363.40 2648.33 51.70
4146 19.4587 2436.10 2647.51 52.90
4147 19.4625 2437.80 2646.69 50.90
4148 19.4663 2435.60 2645.87 52.10
4149 19.4700 2316.60 2645.05 50.90
4150 19.4738 2346.80 2644.23 51.20
4151 19.4775 2355.70 2643.41 51.20
4152 19.4813 2410.50 2642.59 51.40
4153 19.4851 2410.60 2641.77 52.00
4154 19.4888 2382.10 2640.95 52.00
4155 19.4926 2428.50 2640.13 52.10
4156 19.4963 2348.60 2639.31 51.10
4157 19.5001 2393.10 2638.49 52.40
4158 19.5039 2438.20 2637.68 51.90
4159 19.5076 2277.00 2636.86 50.00
4160 19.5114 2295.50 2636.04 50.30
4161 19.5152 2316.10 2635.23 50.40
4162 19.5189 2303.40 2634.41 50.50
4163 19.5227 2303.70 2633.60 51.10
4164 19.5264 2380.00 2632.78 51.90
4165 19.5302 2407.80 2631.97 51.40
4166 19.5340 2414.90 2631.16 52.00
4167 19.5377 2369.20 2630.34 52.00
4168 19.5415 2398.00 2629.53 52.30
4169 19.5452 2284.60 2628.72 51.00
4170 19.5490 2252.80 2627.91 50.90
4171 19.5528 2395.40 2627.09 52.10
4172 19.5565 2392.10 2626.28 52.00
4173 19.5603 2316.20 2625.47 51.00
4174 19.5640 2379.00 2624.66 51.60
4175 19.5678 2287.20 2623.85 51.10
4176 19.5716 2295.00 2623.04 50.50
4177 19.5753 2356.80 2622.24 51.40
4178 19.5791 2343.80 2621.43 51.10
4179 19.5828 2326.80 2620.62 50.80
4180 19.5866 2423.40 2619.81 52.80
4181 19.5904 2223.90 2619.01 50.00
4182 19.5941 2420.10 2618.20 52.60
4183 19.5979 2313.40 2617.39 50.00
4184 19.6017 2325.90 2616.59 51.70
4185 19.6054 2281.80 2615.78 51.90
4186 19.6092 2416.70 2614.98 53.20
4187 19.6129 2338.30 2614.17 51.60
4188 19.6167 2393.00 2613.37 52.20
4189 19.6204 2276.50 2612.57 50.30
4190 19.6242 2346.00 2611.76 52.10
4191 19.6280 2312.70 2610.96 51.20
4192 19.6317 2386.00 2610.16 51.90
4193 19.6355 2382.00 2609.36 52.90
4194 19.6393 2382.50 2608.56 52.00
4195 19.6430 2364.30 2607.76 51.10
4196 19.6468 2398.00 2606.96 51.40
4197 19.6505 2235.70 2606.16 49.80
4198 19.6543 2405.80 2605.36 52.40
4199 19.6581 2340.60 2604.56 51.90
4200 19.6618 2309.40 2603.76 51.80
4201 19.6656 2388.00 2602.96 52.40
4202 19.6693 2331.80 2602.17 51.50
4203 19.6731 2373.10 2601.37 51.60
4204 19.6769 2347.40 2600.57 52.10
4205 19.6806 2245.80 2599.77 50.90
4206 19.6844 2336.80 2598.98 52.50
4207 19.6882 2368.60 2598.18 52.10
4208 19.6919 2388.90 2597.39 52.20
4209 19.6957 2275.50 2596.60 51.40
4210 19.6994 2377.90 2595.80 52.10
4211 19.7032 2376.40 2595.01 50.60
4212 19.7069 2396.30 2594.22 51.80
4213 19.7107 2420.00 2593.42 52.60
4214 19.7145 2329.50 2592.63 51.80
4215 19.7182 2380.80 2591.84 52.00
4216 19.7220 2392.40 2591.05 52.30
4217 19.7258 2340.50 2590.26 51.70
4218 19.7295 2411.80 2589.47 52.50
4219 19.7333 2331.20 2588.68 51.80
4220 19.7370 2381.50 2587.89 52.50
4221 19.7408 2340.90 2587.10 51.20
4222 19.7446 2320.40 2586.31 51.30
4223 19.7483 2294.30 2585.52 51.10
4224 19.7521 2265.90 2584.74 50.80
4225 19.7558 2257.70 2583.95 50.80
4226 19.7596 2298.80 2583.16 52.10
4227 19.7634 2273.30 2582.38 51.00
4228 19.7671 2281.10 2581.59 50.70
4229 19.7709 2291.00 2580.80 50.90
4230 19.7747 2313.70 2580.02 51.20
4231 19.7784 2304.40 2579.23 50.60
4232 19.7822 2393.20 2578.45 52.80
4233 19.7859 2344.80 2577.67 51.30
4234 19.7897 2298.40 2576.88 51.30
4235 19.7934 2269.60 2576.10 51.00
4236 19.7972 2394.90 2575.32 51.60
4237 19.8010 2334.50 2574.54 50.90
4238 19.8047 2340.10 2573.76 51.20
4239 19.8085 2335.90 2572.98 50.60
4240 19.8123 2380.70 2572.19 50.80
4241 19.8160 2335.90 2571.42 51.60
4242 19.8198 2286.80 2570.64 51.50
4243 19.8235 2358.40 2569.86 51.60
4244 19.8273 2289.70 2569.08 51.50
4245 19.8311 2363.30 2568.30 52.00
4246 19.8348 2350.10 2567.52 51.60
4247 19.8386 2243.40 2566.75 51.10
4248 19.8423 2401.20 2565.97 51.90
4249 19.8461 2306.00 2565.19 51.20
4250 19.8499 2304.20 2564.42 50.30
4251 19.8536 2393.40 2563.64 52.70
4252 19.8574 2284.50 2562.87 51.20
4253 19.8612 2310.00 2562.09 51.50
4254 19.8649 2216.10 2561.32 49.70
4255 19.8687 2286.50 2560.55 51.10
4256 19.8724 2407.90 2559.77 51.90
4257 19.8762 2253.20 2559.00 51.00
4258 19.8799 2320.60 2558.23 51.00
4259 19.8837 2271.30 2557.46 49.70
4260 19.8875 2311.30 2556.69 51.20
4261 19.8912 2253.60 2555.92 50.50
4262 19.8950 2326.30 2555.15 51.30
4263 19.8988 2278.80 2554.37 51.00
4264 19.9025 2380.40 2553.61 52.10
4265 19.9063 2254.50 2552.84 50.80
4266 19.9100 2353.30 2552.07 52.10
4267 19.9138 2204.30 2551.30 50.20
4268 19.9176 2342.00 2550.53 52.00
4269 19.9213 2340.30 2549.77 51.30
4270 19.9251 2276.80 2549.00 50.80
4271 19.9288 2287.40 2548.23 51.20
4272 19.9326 2307.10 2547.47 51.50
4273 19.9364 2312.90 2546.70 51.20
4274 19.9401 2329.60 2545.94 51.80
4275 19.9439 2241.30 2545.17 50.40
4276 19.9477 2343.20 2544.41 51.30
4277 19.9514 2312.30 2543.65 51.90
4278 19.9552 2330.70 2542.88 51.10
4279 19.9589 2321.40 2542.12 51.30
4280 19.9627 2385.10 2541.36 52.20
4281 19.9664 2252.50 2540.60 50.40
4282 19.9702 2289.40 2539.84 51.30
4283 19.9740 2263.40 2539.08 49.90
4284 19.9777 2334.90 2538.32 50.60
4285 19.9815 2257.50 2537.56 49.90
4286 19.9853 2283.10 2536.80 51.00
4287 19.9890 2250.30 2536.04 50.80
4288 19.9928 2266.00 2535.28 50.90
4289 19.9965 2263.00 2534.52 51.00
4290 20.0003 2322.80 2533.76 51.20
4291 20.0041 2281.30 2533.01 51.00
4292 20.0078 2278.60 2532.25 50.60
4293 20.0116 2238.40 2531.49 49.40
4294 20.0153 2309.50 2530.74 51.10
4295 20.0191 2302.40 2529.98 51.40
4296 20.0229 2333.70 2529.23 52.10
4297 20.0266 2206.50 2528.48 49.80
4298 20.0304 2303.70 2527.72 51.10
4299 20.0341 2234.00 2526.97 49.90
4300 20.0379 2316.90 2526.22 51.40
4301 20.0417 2258.80 2525.46 50.70
4302 20.0454 2263.20 2524.71 50.90
4303 20.0492 2209.20 2523.96 50.00
4304 20.0529 2278.60 2523.21 50.90
4305 20.0567 2290.10 2522.46 50.60
4306 20.0605 2309.30 2521.71 50.80
4307 20.0642 2272.00 2520.96 51.20
4308 20.0680 2244.70 2520.21 50.60
4309 20.0718 2332.90 2519.46 50.80
4310 20.0755 2400.40 2518.71 52.20
4311 20.0793 2277.00 2517.97 50.60
4312 20.0830 2226.90 2517.22 50.70
4313 20.0868 2307.70 2516.47 52.10
4314 20.0905 2311.70 2515.73 51.80
4315 20.0943 2375.00 2514.98 51.40
4316 20.0981 2323.80 2514.23 51.20
4317 20.1018 2285.50 2513.49 50.60
4318 20.1056 2275.50 2512.75 50.60
4319 20.1094 2279.30 2512.00 50.40
4320 20.1131 2322.60 2511.26 51.30
4321 20.1169 2283.20 2510.51 50.80
4322 20.1206 2270.20 2509.77 50.80
4323 20.1244 2276.90 2509.03 50.50
4324 20.1282 2269.50 2508.29 50.70
4325 20.1319 2269.10 2507.55 50.20
4326 20.1357 2432.90 2506.81 52.10
4327 20.1394 2269.20 2506.07 50.00
4328 20.1432 2318.30 2505.33 50.40
4329 20.1470 2228.80 2504.59 49.20
4330 20.1507 2278.90 2503.85 51.00
4331 20.1545 2219.70 2503.11 50.30
4332 20.1582 2322.70 2502.37 51.60
4333 20.1620 2153.50 2501.63 49.10
4334 20.1658 2336.30 2500.90 51.00
4335 20.1695 2342.90 2500.16 51.40
4336 20.1733 2290.70 2499.42 50.40
4337 20.1770 2200.10 2498.69 49.60
4338 20.1808 2292.50 2497.95 50.60
4339 20.1846 2242.60 2497.22 50.00
4340 20.1883 2208.40 2496.48 49.60
4341 20.1921 2159.90 2495.75 49.50
4342 20.1959 2377.10 2495.02 51.80
4343 20.1996 2254.60 2494.28 50.20
4344 20.2034 2316.80 2493.55 51.20
4345 20.2071 2197.00 2492.82 48.50
4346 20.2109 2197.30 2492.09 49.60
4347 20.2146 2257.90 2491.36 49.90
4348 20.2184 2288.30 2490.63 51.20
4349 20.2222 2117.20 2489.90 48.90
4350 20.2259 2256.30 2489.17 50.10
4351 20.2297 2175.00 2488.44 49.70
4352 20.2334 2225.80 2487.71 50.30
4353 20.2372 2203.40 2486.98 50.10
4354 20.2410 2271.40 2486.25 50.80
4355 20.2447 2205.60 2485.53 49.80
4356 20.2485 2181.90 2484.80 50.20
4357 20.2523 2288.80 2484.07 50.50
4358 20.2560 2237.20 2483.35 50.10
4359 20.2598 2318.70 2482.62 51.30
4360 20.2635 2252.80 2481.89 50.70
4361 20.2673 2340.60 2481.17 51.60
4362 20.2711 2357.30 2480.45 51.90
4363 20.2748 2250.00 2479.72 50.20
4364 20.2786 2227.40 2479.00 50.00
4365 20.2823 2231.80 2478.28 50.70
4366 20.2861 2302.70 2477.56 50.50
4367 20.2899 2228.90 2476.83 50.20
4368 20.2936 2270.40 2476.11 50.60
4369 20.2974 2230.20 2475.39 49.80
4370 20.3011 2222.10 2474.67 49.80
4371 20.3049 2275.80 2473.95 50.70
4372 20.3087 2276.40 2473.23 50.50
4373 20.3124 2277.50 2472.51 50.10
4374 20.3162 2236.30 2471.79 50.50
4375 20.3199 2221.00 2471.08 49.90
4376 20.3237 2215.90 2470.36 50.30
4377 20.3275 2188.60 2469.64 50.00
4378 20.3312 2290.50 2468.93 50.90
4379 20.3350 2133.30 2468.21 48.60
4380 20.3387 2345.70 2467.49 52.50
4381 20.3425 2172.20 2466.78 50.00
4382 20.3463 2242.70 2466.06 50.70
4383 20.3500 2245.70 2465.35 50.30
4384 20.3538 2277.70 2464.64 50.80
4385 20.3575 2236.00 2463.92 50.70
4386 20.3613 2253.80 2463.21 50.70
4387 20.3651 2259.20 2462.50 50.60
4388 20.3688 2238.30 2461.79 50.10
4389 20.3726 2150.00 2461.07 49.00
4390 20.3763 2270.30 2460.36 51.10
4391 20.3801 2227.10 2459.65 50.10
4392 20.3839 2201.30 2458.94 48.90
4393 20.3876 2262.90 2458.23 50.20
4394 20.3914 2273.90 2457.52 50.80
4395 20.3951 2147.10 2456.81 49.60
4396 20.3989 2275.30 2456.11 51.00
4397 20.4027 2160.30 2455.40 49.40
4398 20.4064 2216.00 2454.69 49.70
4399 20.4102 2179.60 2453.98 49.50
4400 20.4139 2203.50 2453.28 48.90
4401 20.4177 2116.70 2452.57 49.00
4402 20.4215 2314.10 2451.87 50.50
4403 20.4252 2272.90 2451.16 51.20
4404 20.4290 2309.10 2450.46 51.30
4405 20.4328 2122.40 2449.75 49.30
4406 20.4365 2227.30 2449.05 50.30
4407 20.4403 2113.20 2448.35 48.60
4408 20.4440 2206.60 2447.64 50.10
4409 20.4478 2198.50 2446.94 49.80
4410 20.4515 2251.60 2446.24 50.90
4411 20.4553 2235.50 2445.54 50.40
4412 20.4591 2256.80 2444.84 50.90
4413 20.4628 2170.30 2444.14 49.10
4414 20.4666 2269.10 2443.44 50.10
4415 20.4704 2243.40 2442.74 49.70
4416 20.4741 2378.20 2442.04 52.70
4417 20.4779 2154.50 2441.34 49.90
4418 20.4816 2274.70 2440.64 51.00
4419 20.4854 2155.70 2439.95 49.70
4420 20.4891 2199.40 2439.25 50.60
4421 20.4929 2178.20 2438.55 49.90
4422 20.4967 2364.40 2437.86 52.10
4423 20.5004 2109.10 2450.33 49.10
4424 20.5042 2247.30 2449.95 50.60
4425 20.5079 2256.20 2449.59 50.40
4426 20.5117 2157.10 2449.23 50.20
4427 20.5155 2280.40 2448.90 51.60
4428 20.5192 2267.10 2448.57 51.80
4429 20.5230 2232.10 2448.26 50.80
4430 20.5268 2199.30 2447.97 49.50
4431 20.5305 2251.10 2447.69 50.80
4432 20.5343 2310.70 2447.43 52.10
4433 20.5380 2224.90 2447.19 50.60
4434 20.5418 2214.30 2446.97 50.20
4435 20.5455 2207.80 2446.77 50.10
4436 20.5493 2326.20 2446.59 51.50
4437 20.5531 2221.50 2446.43 50.00
4438 20.5568 2210.10 2446.29 50.40
4439 20.5606 2276.10 2446.18 50.80
4440 20.5644 2251.10 2446.10 51.00
4441 20.5681 2164.10 2446.04 50.30
4442 20.5719 2248.10 2446.01 52.30
4443 20.5756 2134.50 2446.02 49.60
4444 20.5794 2337.00 2446.06 52.20
4445 20.5832 2268.20 2446.13 52.10
4446 20.5869 2264.30 2446.25 51.70
4447 20.5907 2188.80 2446.40 49.20
4448 20.5944 2307.40 2446.60 51.70
4449 20.5982 2293.90 2446.84 50.80
4450 20.6019 2306.60 2447.13 52.90
4451 20.6057 2199.30 2447.48 50.70
4452 20.6095 2354.80 2447.88 52.60
4453 20.6132 2272.00 2448.35 52.00
4454 20.6170 2251.30 2448.88 51.80
4455 20.6207 2305.00 2449.48 52.90
4456 20.6245 2234.40 2450.15 51.60
4457 20.6283 2226.20 2450.91 51.80
4458 20.6320 2255.10 2451.76 52.10
4459 20.6358 2296.30 2452.71 52.60
4460 20.6395 2268.90 2453.76 51.00
4461 20.6433 2310.30 2454.92 52.20
4462 20.6471 2315.70 2456.21 52.30
4463 20.6508 2314.20 2457.63 52.50
4464 20.6546 2260.10 2459.21 51.30
4465 20.6583 2258.50 2460.94 51.50
4466 20.6621 2363.30 2462.85 53.30
4467 20.6659 2184.90 2464.96 51.20
4468 20.6696 2301.30 2467.29 52.90
4469 20.6734 2252.20 2469.85 52.80
4470 20.6771 2292.90 2472.68 51.90
4471 20.6809 2364.40 2475.80 52.90
4472 20.6847 2434.50 2479.25 54.00
4473 20.6884 2311.40 2483.07 52.20
4474 20.6922 2335.80 2487.30 52.60
4475 20.6959 2333.70 2492.00 52.70
4476 20.6997 2329.70 2497.22 51.50
4477 20.7035 2339.50 2503.03 52.60
4478 20.7072 2409.10 2509.50 52.70
4479 20.7110 2335.80 2516.76 53.00
4480 20.7147 2401.00 2524.90 53.80
4481 20.7185 2338.10 2534.08 52.30
4482 20.7222 2492.80 2544.43 54.80
4483 20.7260 2363.70 2556.17 53.20
4484 20.7298 2372.00 2569.55 52.90
4485 20.7335 2406.10 2584.84 52.80
4486 20.7373 2531.90 2602.42 54.30
4487 20.7411 2441.10 2622.75 53.80
4488 20.7448 2604.50 2646.39 55.90
4489 20.7486 2571.60 2674.08 55.20
4490 20.7523 2634.00 2706.78 55.40
4491 20.7561 2730.50 2745.67 56.30
4492 20.7598 2696.00 2792.42 56.00
4493 20.7636 2869.70 2849.24 58.80
4494 20.7674 2878.50 2918.86 58.60
4495 20.7711 3028.90 3005.84 60.90
4496 20.7749 3195.60 3116.28 62.50
4497 20.7786 3372.40 3260.30 64.00
4498 20.7824 3580.40 3457.16 64.60
4499 20.7862 3913.30 3751.25 67.60
4500 20.7899 4506.50 4246.43 72.60
4501 20.7937 5428.50 5160.45 81.50
4502 20.7974 7178.70 6867.55 96.10
4503 20.8012 9901.40 9827.91 114.10
4504 20.8050 15687.50 14313.50 148.20
4505 20.8087 22591.10 19978.50 180.90
4506 20.8125 29312.90 25285.00 210.10
4507 20.8162 29639.40 27394.80 209.50
4508 20.8200 28835.40 24682.60 208.50
4509 20.8238 22369.20 19180.40 177.10
4510 20.8275 15867.00 13625.20 148.80
4511 20.8313 10223.50 9340.98 113.50
4512 20.8350 7298.30 6571.39 97.60
4513 20.8388 5314.50 4994.31 80.40
4514 20.8426 4465.20 4153.14 73.40
4515 20.8463 3857.90 3693.15 69.00
4516 20.8501 3685.60 3414.85 66.40
4517 20.8538 3316.70 3225.42 63.20
4518 20.8576 3152.50 3085.44 61.00
4519 20.8613 3020.20 2977.26 60.40
4520 20.8651 2875.00 2891.70 58.90
4521 20.8689 2813.40 2822.54 57.90
4522 20.8726 2707.70 2765.93 57.60
4523 20.8764 2675.70 2719.02 56.10
4524 20.8801 2546.50 2679.71 54.60
4525 20.8839 2568.90 2646.44 55.50
4526 20.8877 2574.40 2618.03 55.80
4527 20.8914 2523.90 2593.55 55.50
4528 20.8952 2484.60 2572.31 54.30
4529 20.8989 2440.60 2553.74 54.10
4530 20.9027 2518.10 2537.45 53.70
4531 20.9065 2329.50 2523.00 53.10
4532 20.9102 2452.40 2510.13 53.70
4533 20.9140 2415.10 2498.63 52.50
4534 20.9177 2395.10 2488.29 53.30
4535 20.9215 2369.30 2478.95 52.70
4536 20.9252 2412.10 2470.49 53.20
4537 20.9290 2275.20 2462.78 52.10
4538 20.9328 2359.80 2455.74 52.80
4539 20.9365 2355.50 2449.28 52.80
4540 20.9403 2362.50 2443.36 52.60
4541 20.9440 2238.70 2437.87 51.60
4542 20.9478 2281.50 2432.79 51.60
4543 20.9516 2242.50 2428.07 51.70
4544 20.9553 2282.60 2423.67 52.20
4545 20.9591 2278.70 2419.57 51.80
4546 20.9628 2256.30 2415.72 52.00
4547 20.9666 2210.20 2412.12 51.00
4548 20.9704 2326.80 2408.73 51.20
4549 20.9741 2251.30 2405.53 52.30
4550 20.9779 2295.50 2402.50 52.20
4551 20.9816 2316.60 2399.64 52.30
4552 20.9854 2243.40 2396.92 51.80
4553 20.9891 2197.90 2394.34 50.80
4554 20.9929 2223.10 2391.87 50.80
4555 20.9967 2150.80 2389.53 50.70
4556 21.0004 2215.30 2387.29 51.10
4557 21.0042 2167.90 2385.14 51.10
4558 21.0079 2245.50 2383.08 50.70
4559 21.0117 2172.20 2381.10 49.50
4560 21.0155 2278.40 2379.19 52.90
4561 21.0192 2215.70 2377.36 50.70
4562 21.0230 2400.80 2375.59 53.50
4563 21.0267 2197.70 2373.88 50.40
4564 21.0305 2335.00 2372.23 52.40
4565 21.0343 2176.30 2370.64 50.90
4566 21.0380 2298.90 2369.09 52.40
4567 21.0418 2204.40 2367.58 51.00
4568 21.0455 2277.10 2366.12 52.20
4569 21.0493 2255.80 2364.70 51.60
4570 21.0530 2228.60 2363.32 50.20
4571 21.0568 2134.50 2361.97 48.20
4572 21.0606 2221.50 2360.66 50.20
4573 21.0643 2223.60 2359.38 50.00
4574 21.0681 2188.30 2358.12 49.50
4575 21.0718 2173.10 2356.90 48.70
4576 21.0756 2217.10 2355.70 49.80
4577 21.0793 2158.20 2354.53 48.60
4578 21.0831 2204.20 2353.38 49.30
4579 21.0869 2215.90 2352.25 49.50
4580 21.0906 2346.20 2351.14 51.20
4581 21.0944 2242.50 2350.06 49.50
4582 21.0981 2223.40 2348.99 50.00
4583 21.1019 2186.00 2347.94 49.40
4584 21.1057 2141.70 2346.91 48.60
4585 21.1094 2261.50 2345.89 50.70
4586 21.1132 2189.20 2344.89 49.60
4587 21.1169 2157.80 2343.90 49.20
4588 21.1207 2140.80 2342.93 49.10
4589 21.1245 2184.60 2341.97 49.50
4590 21.1282 2347.90 2341.02 50.50
4591 21.1320 2117.10 2340.09 48.70
4592 21.1357 2289.70 2326.34 50.80
4593 21.1395 2176.90 2325.72 49.90
4594 21.1432 2238.60 2325.11 50.40
4595 21.1470 2203.10 2324.49 49.80
4596 21.1508 2210.20 2323.88 49.70
4597 21.1545 2159.80 2323.27 49.40
4598 21.1583 2246.70 2322.65 50.90
4599 21.1620 2258.70 2322.04 50.10
4600 21.1658 2268.60 2321.43 50.40
4601 21.1695 2168.50 2320.81 49.50
4602 21.1733 2212.30 2320.20 50.50
4603 21.1771 2204.20 2319.59 49.60
4604 21.1808 2226.50 2318.98 49.00
4605 21.1846 2259.00 2318.37 50.50
4606 21.1883 2211.40 2317.76 50.00
4607 21.1921 2201.50 2317.15 49.70
4608 21.1959 2197.20 2316.54 49.40
4609 21.1996 2150.00 2315.93 49.30
4610 21.2034 2244.70 2315.32 50.20
4611 21.2071 2116.80 2314.72 48.20
4612 21.2109 2258.10 2314.11 50.30
4613 21.2146 2131.20 2313.50 48.90
4614 21.2184 2286.50 2312.90 50.90
4615 21.2222 2179.30 2312.29 49.80
4616 21.2259 2195.30 2311.69 49.50
4617 21.2297 2184.70 2311.08 49.50
4618 21.2334 2120.90 2310.48 48.90
4619 21.2372 2143.60 2309.87 49.40
4620 21.2409 2311.90 2309.27 51.20
4621 21.2447 2183.80 2308.67 49.40
4622 21.2485 2194.90 2308.06 48.70
4623 21.2522 2200.50 2307.46 49.80
4624 21.2560 2244.50 2306.86 50.00
4625 21.2597 2176.80 2306.26 49.70
4626 21.2635 2274.10 2305.66 50.20
4627 21.2673 2216.70 2305.06 50.40
4628 21.2710 2230.10 2304.46 49.50
4629 21.2748 2130.50 2303.86 49.20
4630 21.2785 2259.60 2303.26 49.80
4631 21.2823 2199.70 2302.66 49.80
4632 21.2861 2225.10 2302.06 50.00
4633 21.2898 2228.10 2301.47 50.10
4634 21.2936 2207.10 2300.87 50.10
4635 21.2973 2167.60 2300.27 49.50
4636 21.3011 2233.00 2299.68 50.20
4637 21.3048 2182.10 2299.08 49.80
4638 21.3086 2248.00 2298.49 50.00
4639 21.3123 2257.70 2297.89 50.40
4640 21.3161 2179.40 2297.30 49.70
4641 21.3199 2179.60 2296.70 49.00
4642 21.3236 2163.70 2296.11 49.70
4643 21.3274 2186.90 2295.52 49.40
4644 21.3311 2198.60 2294.93 49.20
4645 21.3349 2130.80 2294.33 49.10
4646 21.3386 2242.60 2293.74 50.40
4647 21.3424 2169.30 2293.15 49.90
4648 21.3462 2255.20 2292.56 50.30
4649 21.3499 2213.60 2291.97 49.90
4650 21.3537 2235.80 2291.38 50.70
4651 21.3574 2192.70 2290.79 50.20
4652 21.3612 2220.50 2290.20 50.20
4653 21.3650 2179.90 2289.62 49.80
4654 21.3687 2220.00 2289.03 50.10
4655 21.3725 2226.80 2288.44 50.20
4656 21.3762 2272.00 2287.85 49.80
4657 21.3800 2275.40 2287.27 50.00
4658 21.3837 2183.00 2286.68 50.10
4659 21.3875 2233.70 2286.10 50.70
4660 21.3913 2190.30 2285.51 50.50
4661 21.3950 2185.80 2284.93 49.80
4662 21.3988 2212.20 2284.34 49.40
4663 21.4025 2177.90 2283.76 50.10
4664 21.4063 2206.70 2283.18 49.60
4665 21.4100 2163.20 2282.59 50.30
4666 21.4138 2173.60 2282.01 49.80
4667 21.4175 2128.60 2281.43 48.40
4668 21.4213 2140.80 2280.85 49.10
4669 21.4251 2095.60 2280.27 48.70
4670 21.4288 2219.10 2279.69 49.60
4671 21.4326 2106.50 2279.11 48.90
4672 21.4363 2166.80 2278.53 49.00
4673 21.4401 2082.80 2277.95 49.20
4674 21.4439 2280.80 2277.37 50.40
4675 21.4476 2180.50 2276.79 49.70
4676 21.4514 2175.40 2276.22 49.60
4677 21.4551 2154.40 2275.64 48.90
4678 21.4589 2267.80 2275.06 51.20
4679 21.4626 2168.60 2274.49 50.10
4680 21.4664 2084.10 2273.91 48.70
4681 21.4701 2184.40 2273.34 49.70
4682 21.4739 2228.80 2272.76 50.30
4683 21.4777 2217.30 2272.19 51.20
4684 21.4814 2274.00 2271.61 50.70
4685 21.4852 2148.50 2271.04 49.40
4686 21.4889 2151.80 2270.47 49.10
4687 21.4927 2129.60 2269.89 49.40
4688 21.4965 2195.30 2269.32 49.90
4689 21.5002 2139.90 2268.75 47.90
4690 21.5040 2221.60 2268.18 50.80
4691 21.5077 2155.90 2267.61 49.80
4692 21.5115 2232.30 2267.04 50.40
4693 21.5152 2231.70 2266.47 50.60
4694 21.5190 2248.70 2265.90 51.20
4695 21.5228 2120.70 2265.33 49.20
4696 21.5265 2163.50 2264.76 48.50
4697 21.5303 2099.60 2264.19 49.20
4698 21.5340 2152.70 2263.63 49.80
4699 21.5378 2164.10 2263.06 49.30
4700 21.5415 2275.00 2262.49 49.00
4701 21.5453 2210.00 2261.93 49.80
4702 21.5490 2245.50 2261.36 50.20
4703 21.5528 2159.70 2260.80 49.10
4704 21.5566 2214.40 2260.23 49.60
4705 21.5603 2105.60 2259.67 48.10
4706 21.5641 2322.70 2259.10 50.60
4707 21.5678 2252.00 2258.54 50.00
4708 21.5716 2164.90 2257.98 48.30
4709 21.5753 2140.80 2257.42 48.60
4710 21.5791 2182.30 2256.85 49.30
4711 21.5828 2194.20 2256.29 49.70
4712 21.5866 2234.10 2255.73 49.90
4713 21.5904 2133.70 2255.17 48.30
4714 21.5941 2193.00 2254.61 49.60
4715 21.5979 2095.70 2254.05 48.30
4716 21.6016 2150.70 2253.49 48.50
4717 21.6054 2132.90 2252.93 48.70
4718 21.6091 2184.00 2252.37 49.40
4719 21.6129 2090.00 2251.82 48.40
4720 21.6167 2185.50 2251.26 49.20
4721 21.6204 2170.40 2250.70 49.50
4722 21.6242 2179.00 2250.15 49.40
4723 21.6279 2190.50 2249.59 49.50
4724 21.6317 2145.20 2249.03 48.80
4725 21.6354 2126.70 2248.48 48.40
4726 21.6392 2264.00 2247.93 50.30
4727 21.6430 2063.90 2247.37 47.90
4728 21.6467 2199.70 2246.82 49.00
4729 21.6505 2169.70 2246.26 49.70
4730 21.6542 2214.20 2245.71 49.30
4731 21.6580 2116.30 2245.16 48.90
4732 21.6617 2182.20 2244.61 49.40
4733 21.6655 2154.10 2244.06 48.30
4734 21.6693 2123.40 2243.50 48.40
4735 21.6730 2164.20 2242.95 48.80
4736 21.6768 2324.40 2242.40 51.00
4737 21.6805 2184.90 2241.86 49.30
4738 21.6843 2189.20 2241.31 49.50
4739 21.6880 2202.50 2240.76 49.50
4740 21.6918 2184.80 2240.21 49.60
4741 21.6955 2078.00 2239.66 48.30
4742 21.6993 2202.80 2239.11 50.00
4743 21.7031 2154.90 2238.57 48.30
4744 21.7068 2186.90 2238.02 48.90
4745 21.7106 2141.20 2237.47 49.00
4746 21.7143 2219.20 2236.93 49.20
4747 21.7181 2211.90 2236.38 50.00
4748 21.7218 2187.40 2235.84 49.60
4749 21.7256 2166.80 2235.30 48.40
4750 21.7293 2221.00 2234.75 49.30
4751 21.7331 2192.80 2234.21 49.30
4752 21.7369 2202.80 2233.67 49.80
4753 21.7406 2203.30 2233.12 49.00
4754 21.7444 2172.50 2232.58 49.90
4755 21.7481 2221.10 2232.04 50.30
4756 21.7519 2095.00 2231.50 48.10
4757 21.7556 2132.10 2230.96 49.50
4758 21.7594 2059.50 2230.42 48.10
4759 21.7631 2170.00 2229.88 49.30
4760 21.7669 2203.10 2229.34 49.50
4761 21.7707 2149.50 2228.80 49.50
4762 21.7744 2259.80 2228.26 50.20
4763 21.7782 2048.00 2227.73 48.20
4764 21.7819 2199.70 2227.19 49.10
4765 21.7857 2244.60 2226.65 50.70
4766 21.7894 2189.40 2226.11 49.60
4767 21.7932 2186.30 2225.58 49.10
4768 21.7969 2274.30 2225.04 50.40
4769 21.8007 2102.10 2224.51 47.20
4770 21.8044 2186.10 2223.97 49.90
4771 21.8082 2143.80 2223.44 48.00
4772 21.8120 2195.70 2222.91 50.10
4773 21.8157 2196.10 2222.37 49.90
4774 21.8195 2234.80 2221.84 50.30
4775 21.8232 2053.30 2221.31 47.70
4776 21.8270 2217.90 2220.77 49.80
4777 21.8307 2128.90 2220.24 48.80
4778 21.8345 2165.80 2219.71 49.70
4779 21.8382 2159.10 2219.18 49.50
4780 21.8420 2261.40 2218.65 50.30
4781 21.8458 2124.90 2218.12 49.30
4782 21.8495 2239.70 2217.59 50.10
4783 21.8533 2240.00 2217.06 50.90
4784 21.8570 2172.00 2216.53 49.30
4785 21.8608 2124.40 2216.01 49.40
4786 21.8645 2244.80 2215.48 50.50
4787 21.8683 2080.70 2214.95 48.00
4788 21.8720 2259.20 2214.43 50.20
4789 21.8758 2171.00 2213.90 48.70
4790 21.8796 2137.00 2213.38 48.90
4791 21.8833 2230.90 2212.85 49.60
4792 21.8871 2144.30 2212.33 49.00
4793 21.8908 2181.40 2211.80 49.50
4794 21.8946 2110.10 2211.28 48.80
4795 21.8983 2233.00 2210.75 50.40
4796 21.9021 2247.80 2210.23 50.40
4797 21.9058 2231.80 2209.71 50.30
4798 21.9096 2143.20 2209.19 49.20
4799 21.9133 2167.30 2208.66 49.10
4800 21.9171 2212.40 2208.14 50.60
4801 21.9209 2120.30 2207.62 48.90
4802 21.9246 2176.10 2207.10 49.50
4803 21.9284 2160.30 2206.58 49.20
4804 21.9321 2238.30 2206.06 50.30
4805 21.9359 2073.30 2205.54 48.70
4806 21.9396 2213.70 2205.03 49.80
4807 21.9434 2105.80 2204.51 48.80
4808 21.9471 2203.20 2203.99 49.70
4809 21.9509 2194.70 2203.47 50.10
4810 21.9547 2177.70 2202.96 49.10
4811 21.9584 2128.00 2202.44 48.90
4812 21.9622 2189.20 2201.92 50.00
4813 21.9659 2132.40 2201.41 49.40
4814 21.9697 2144.80 2200.89 48.70
4815 21.9734 2055.90 2200.38 48.00
4816 21.9772 2222.90 2199.87 50.40
4817 21.9809 2140.20 2199.35 49.10
4818 21.9847 2192.10 2198.84 49.40
4819 21.9884 2069.80 2198.33 48.10
4820 21.9902 2208.80 2198.09 48.70
4821 21.9940 2130.50 2197.57 49.70
4822 21.9977 2195.40 2197.06 50.30
4823 22.0015 2158.30 2196.55 49.50
4824 22.0052 2118.60 2196.04 49.30
4825 22.0090 2143.30 2195.53 50.00
4826 22.0128 2177.50 2195.02 49.90
4827 22.0165 2129.10 2194.51 48.10
4828 22.0203 2113.20 2194.00 49.40
4829 22.0240 2230.80 2193.49 50.70
4830 22.0278 2161.10 2192.98 49.30
4831 22.0315 2174.90 2192.47 47.90
4832 22.0353 2057.20 2191.97 47.90
4833 22.0390 2208.10 2191.46 49.80
4834 22.0428 2050.70 2190.95 47.80
4835 22.0466 2205.30 2190.45 49.50
4836 22.0503 2120.60 2189.94 48.30
4837 22.0541 2162.70 2189.44 48.70
4838 22.0578 2157.70 2188.93 48.90
4839 22.0616 2159.00 2188.43 48.20
4840 22.0653 2158.70 2187.92 48.80
4841 22.0691 2147.10 2187.42 48.90
4842 22.0729 2148.40 2186.92 49.10
4843 22.0766 2216.90 2186.41 49.70
4844 22.0804 2154.40 2185.91 48.60
4845 22.0841 2208.20 2185.41 49.70
4846 22.0879 2108.80 2184.91 48.40
4847 22.0916 2216.00 2184.41 49.30
4848 22.0954 2122.80 2183.91 48.60
4849 22.0991 2262.80 2183.41 50.30
4850 22.1029 2223.90 2182.91 50.00
4851 22.1067 2098.60 2182.41 48.10
4852 22.1104 2167.40 2181.91 49.50
4853 22.1142 2185.10 2181.41 49.40
4854 22.1179 2093.60 2180.91 48.30
4855 22.1217 2119.20 2180.42 48.40
4856 22.1255 2063.90 2179.92 47.70
4857 22.1292 2096.50 2179.42 48.30
4858 22.1330 2135.30 2178.93 48.70
4859 22.1367 2209.50 2178.43 49.10
4860 22.1405 2071.80 2177.94 48.50
4861 22.1442 2138.90 2177.44 48.40
4862 22.1480 2158.10 2176.95 49.40
4863 22.1517 2200.40 2176.46 49.60
4864 22.1555 2186.40 2175.96 48.70
4865 22.1593 2173.30 2175.47 49.00
4866 22.1630 2147.30 2174.98 48.60
4867 22.1668 2131.00 2174.48 48.70
4868 22.1705 2105.60 2173.99 48.30
4869 22.1743 2217.50 2173.50 49.80
4870 22.1780 2184.50 2173.01 49.30
4871 22.1818 2292.70 2172.52 50.90
4872 22.1855 2094.30 2172.03 48.50
4873 22.1893 2161.80 2171.54 49.50
4874 22.1931 2096.10 2171.05 47.60
4875 22.1968 2223.50 2170.56 49.30
4876 22.2006 2146.30 2170.08 49.10
4877 22.2043 2134.40 2169.59 48.20
4878 22.2081 2129.20 2169.10 49.00
4879 22.2118 2212.80 2168.62 49.90
4880 22.2156 2173.60 2168.13 48.50
4881 22.2194 2201.20 2167.64 49.10
4882 22.2231 2147.80 2167.16 48.80
4883 22.2246 2236.50 2166.97 49.00
4884 22.2283 2235.10 2166.48 49.30
4885 22.2321 2248.80 2166.00 49.50
4886 22.2358 2244.80 2165.52 49.50
4887 22.2396 2172.90 2165.03 49.00
4888 22.2433 2161.40 2164.55 48.40
4889 22.2471 2175.90 2164.07 49.20
4890 22.2508 2193.20 2163.59 48.90
4891 22.2546 2142.80 2163.10 47.80
4892 22.2584 2189.50 2162.62 49.00
4893 22.2621 2035.70 2162.14 47.50
4894 22.2659 2140.90 2161.66 48.00
4895 22.2696 2109.30 2161.18 47.90
4896 22.2734 2209.50 2160.70 49.00
4897 22.2771 2143.10 2160.22 48.40
4898 22.2809 2082.40 2159.74 48.00
4899 22.2846 2129.50 2159.27 48.30
4900 22.2884 2135.80 2158.79 48.10
4901 22.2921 2149.70 2158.31 48.60
4902 22.2959 2204.20 2157.83 48.40
4903 22.2997 2231.50 2157.36 49.40
4904 22.3034 2260.80 2156.88 49.90
4905 22.3072 2233.70 2156.41 49.70
4906 22.3109 2198.80 2155.93 48.80
4907 22.3147 2212.70 2155.46 49.10
4908 22.3184 2162.10 2154.98 48.90
4909 22.3222 2129.30 2154.51 48.10
4910 22.3259 2246.20 2154.03 49.20
4911 22.3297 2135.50 2153.56 48.30
4912 22.3334 2142.10 2153.09 48.70
4913 22.3372 2134.10 2152.62 48.70
4914 22.3410 2229.90 2152.15 49.70
4915 22.3447 2224.70 2151.67 49.10
4916 22.3485 2233.30 2151.20 49.30
4917 22.3522 2140.90 2150.73 48.50
4918 22.3560 2225.60 2150.26 49.60
4919 22.3597 2179.00 2149.79 48.40
4920 22.3635 2211.10 2149.32 49.60
4921 22.3672 2157.00 2148.86 48.70
4922 22.3710 2173.00 2148.39 49.10
4923 22.3748 2141.30 2147.92 48.50
4924 22.3785 2144.20 2147.45 48.70
4925 22.3823 2144.70 2146.98 48.30
4926 22.3860 2210.90 2146.52 48.70
4927 22.3898 2068.60 2146.05 47.30
4928 22.3935 2171.20 2145.59 49.40
4929 22.3973 2218.20 2145.12 49.80
4930 22.4010 2141.30 2144.66 48.30
4931 22.4048 2093.40 2144.19 48.40
4932 22.4085 2295.50 2143.73 50.90
4933 22.4123 2193.80 2143.26 49.10
4934 22.4160 2152.30 2142.80 48.80
4935 22.4198 2143.60 2142.34 48.50
4936 22.4236 2258.50 2141.88 50.10
4937 22.4273 2123.00 2141.41 47.20
4938 22.4311 2201.10 2140.95 49.10
4939 22.4348 2145.30 2140.49 48.80
4940 22.4386 2218.50 2140.03 49.60
4941 22.4423 2107.30 2139.57 48.50
4942 22.4461 2262.60 2139.11 49.70
4943 22.4499 2223.10 2138.65 49.00
4944 22.4536 2166.00 2138.19 48.90
4945 22.4574 2131.00 2137.73 48.10
4946 22.4611 2191.50 2137.27 49.10
4947 22.4649 2069.70 2136.82 48.10
4948 22.4686 2191.60 2136.36 49.10
4949 22.4724 2139.00 2135.90 48.30
4950 22.4761 2244.00 2135.45 49.80
4951 22.4799 2084.80 2134.99 47.80
4952 22.4837 2201.00 2134.53 49.50
4953 22.4874 2226.90 2134.08 49.90
4954 22.4912 2114.40 2133.63 48.50
4955 22.4949 2224.60 2133.17 49.80
4956 22.4987 2177.50 2132.72 49.30
4957 22.5024 2083.70 2132.26 47.70
4958 22.5062 2120.10 2131.81 48.40
4959 22.5099 2145.60 2131.36 48.40
4960 22.5137 2168.20 2130.90 48.30
4961 22.5175 2203.10 2130.45 49.60
4962 22.5212 2169.70 2130.00 49.30
4963 22.5250 2149.30 2129.55 49.40
4964 22.5287 2081.80 2129.10 48.10
4965 22.5325 2155.80 2128.65 49.50
4966 22.5362 2182.90 2128.20 48.90
4967 22.5400 2159.40 2127.75 48.70
4968 22.5437 2144.50 2127.30 49.30
4969 22.5475 2218.70 2126.85 49.50
4970 22.5513 2066.10 2126.41 47.80
4971 22.5550 2189.60 2125.96 49.00
4972 22.5588 2098.10 2125.51 48.40
4973 22.5625 2173.20 2125.06 49.00
4974 22.5663 2202.60 2124.62 49.80
4975 22.5700 2145.50 2124.17 49.40
4976 22.5738 2128.70 2123.73 48.50
4977 22.5776 2191.50 2123.28 49.20
4978 22.5813 2271.50 2122.84 49.90
4979 22.5851 2130.20 2122.39 49.00
4980 22.5888 2200.10 2121.95 49.50
4981 22.5926 2117.20 2121.51 48.70
4982 22.5963 2265.50 2121.06 50.60
4983 22.6001 2194.10 2120.62 50.10
4984 22.6038 2180.20 2120.18 49.00
4985 22.6076 2112.50 2119.74 48.40
4986 22.6113 2191.60 2119.29 49.70
4987 22.6151 2208.60 2118.85 49.60
4988 22.6189 2085.50 2118.41 48.40
4989 22.6226 2216.30 2117.97 49.60
4990 22.6264 2156.90 2117.53 49.20
4991 22.6301 2137.10 2117.09 49.00
4992 22.6339 2176.30 2116.65 49.70
4993 22.6376 2091.40 2116.22 48.10
4994 22.6414 2243.20 2115.78 49.60
4995 22.6452 2136.10 2115.34 48.40
4996 22.6489 2173.80 2114.90 49.00
4997 22.6527 2092.80 2114.47 48.10
4998 22.6564 2131.30 2114.03 48.80
4999 22.6602 2082.90 2113.59 48.10
5000 22.6639 2200.20 2113.16 49.30
5001 22.6677 2113.10 2112.72 48.70
5002 22.6714 2230.90 2112.29 50.20
5003 22.6752 2152.00 2111.85 49.10
5004 22.6790 2180.60 2111.42 49.60
5005 22.6827 2232.50 2110.99 51.00
5006 22.6865 2226.90 2110.55 49.80
5007 22.6902 2081.20 2110.12 48.00
5008 22.6940 2189.80 2109.69 49.00
5009 22.6978 2185.60 2109.26 50.00
5010 22.7015 2212.00 2108.83 49.80
5011 22.7053 2100.90 2108.40 48.90
5012 22.7090 2149.40 2107.96 49.10
5013 22.7128 2217.80 2107.53 50.00
5014 22.7165 2218.00 2107.10 49.30
5015 22.7203 2186.70 2106.68 49.60
5016 22.7240 2235.20 2106.25 50.40
5017 22.7278 2179.50 2105.82 49.20
5018 22.7316 2231.50 2105.39 49.80
5019 22.7353 2232.90 2104.96 49.80
5020 22.7391 2108.90 2104.53 48.60
5021 22.7428 2200.20 2104.11 49.90
5022 22.7466 2192.60 2103.68 49.80
5023 22.7503 2100.40 2103.26 48.60
5024 22.7541 2169.80 2102.83 48.70
5025 22.7579 2075.80 2102.40 48.20
5026 22.7616 2180.80 2101.98 49.50
5027 22.7654 2131.70 2101.56 48.80
5028 22.7691 2185.50 2101.13 49.40
5029 22.7729 2057.00 2100.71 48.00
5030 22.7766 2182.60 2100.28 49.70
5031 22.7804 2215.30 2099.86 49.60
5032 22.7841 2146.20 2099.44 49.20
5033 22.7879 2085.50 2099.02 48.60
5034 22.7917 2183.30 2098.60 49.70
5035 22.7954 2118.50 2098.18 48.00
5036 22.7992 2214.10 2097.75 49.80
5037 22.8029 2202.00 2097.33 49.00
5038 22.8067 2166.40 2096.91 50.00
5039 22.8104 2198.30 2096.49 49.50
5040 22.8142 2219.50 2096.07 50.70
5041 22.8180 2092.50 2095.66 48.10
5042 22.8217 2223.50 2095.24 50.20
5043 22.8255 2166.30 2094.82 49.20
5044 22.8292 2244.50 2094.40 50.90
5045 22.8330 2186.60 2093.99 49.70
5046 22.8368 2133.60 2093.57 48.80
5047 22.8405 2192.60 2093.15 50.00
5048 22.8443 2109.70 2092.74 48.70
5049 22.8480 2188.60 2092.32 49.40
5050 22.8518 2119.10 2091.91 48.60
5051 22.8555 2113.20 2091.49 49.20
5052 22.8593 2201.90 2091.08 48.80
5053 22.8631 2147.90 2090.66 49.10
5054 22.8668 2161.80 2090.25 48.50
5055 22.8706 2158.50 2089.84 49.00
5056 22.8743 2222.10 2089.42 49.70
5057 22.8781 2108.90 2089.01 49.30
5058 22.8818 2258.30 2088.60 50.60
5059 22.8856 2230.70 2088.19 49.90
5060 22.8894 2173.80 2087.78 49.60
5061 22.8931 2096.60 2087.37 48.50
5062 22.8969 2214.90 2086.96 49.50
5063 22.9006 2150.30 2086.55 48.60
5064 22.9044 2201.90 2086.14 49.40
5065 22.9081 2137.60 2085.73 48.90
5066 22.9119 2235.60 2085.32 49.80
5067 22.9156 2076.00 2084.91 48.30
5068 22.9194 2156.00 2084.50 49.30
5069 22.9232 2110.40 2084.10 48.80
5070 22.9269 2202.20 2083.69 49.40
5071 22.9307 2212.30 2083.28 50.40
5072 22.9344 2172.60 2082.88 49.60
5073 22.9382 2118.90 2082.47 48.80
5074 22.9420 2216.30 2082.07 50.20
5075 22.9457 2122.40 2081.66 47.80
5076 22.9495 2218.30 2081.26 50.30
5077 22.9532 2131.80 2080.85 48.90
5078 22.9570 2198.30 2080.45 50.10
5079 22.9607 2143.80 2080.05 49.00
5080 22.9645 2122.10 2079.64 49.20
5081 22.9683 2131.60 2079.24 48.70
5082 22.9720 2128.10 2078.84 49.10
5083 22.9758 2116.10 2078.44 48.70
5084 22.9795 2056.50 2078.03 48.10
5085 22.9833 2188.10 2077.63 49.30
5086 22.9870 2203.80 2077.23 50.20
5087 22.9908 2166.20 2076.83 49.90
5088 22.9946 2214.80 2076.43 49.60
5089 22.9983 2145.40 2076.03 49.10
5090 23.0021 2134.70 2075.63 49.20
5091 23.0058 2092.70 2075.24 47.90
5092 23.0096 2234.50 2074.84 50.00
5093 23.0133 2188.50 2074.44 49.60
5094 23.0171 2188.00 2074.04 50.00
5095 23.0209 2196.60 2073.65 49.90
5096 23.0246 2201.30 2073.25 49.80
5097 23.0284 2083.90 2072.85 48.30
5098 23.0321 2128.60 2072.46 49.10
5099 23.0359 2156.30 2072.06 48.90
5100 23.0397 2218.60 2071.67 50.00
5101 23.0434 2203.80 2071.27 50.60
5102 23.0472 2130.20 2070.88 48.40
5103 23.0509 2196.10 2070.48 49.30
5104 23.0547 2225.30 2070.09 50.10
5105 23.0585 2067.80 2069.70 48.40
5106 23.0622 2169.80 2069.31 49.60
5107 23.0660 2179.30 2068.91 49.20
5108 23.0697 2181.50 2068.52 49.80
5109 23.0735 2182.30 2068.13 49.90
5110 23.0772 2204.50 2067.74 50.00
5111 23.0810 2119.60 2067.35 48.00
5112 23.0847 2161.00 2066.96 49.20
5113 23.0885 2120.70 2066.57 49.10
5114 23.0923 2236.50 2066.18 49.90
5115 23.0960 2019.10 2065.79 47.90
5116 23.0998 2238.80 2065.40 50.70
5117 23.1035 2139.30 2065.01 49.00
5118 23.1073 2162.00 2064.62 49.30
5119 23.1111 2157.30 2064.24 49.20
5120 23.1148 2226.40 2063.85 51.00
5121 23.1186 2040.60 2063.46 47.40
5122 23.1223 2201.00 2063.08 50.10
5123 23.1261 2168.10 2062.69 49.80
5124 23.1299 2218.40 2062.31 50.70
5125 23.1336 2190.60 2061.92 49.70
5126 23.1374 2101.20 2061.54 49.40
5127 23.1411 2168.30 2061.15 49.60
5128 23.1449 2150.00 2060.77 49.70
5129 23.1486 2084.30 2060.38 48.60
5130 23.1524 2136.80 2060.00 49.60
5131 23.1562 2135.90 2059.62 49.10
5132 23.1599 2175.60 2059.23 49.80
5133 23.1637 2119.20 2058.85 49.40
5134 23.1674 2176.00 2058.47 50.40
5135 23.1712 2174.40 2058.09 50.30
5136 23.1749 2285.90 2057.71 51.30
5137 23.1787 2226.00 2057.33 51.00
5138 23.1825 2246.50 2056.95 51.50
5139 23.1862 2086.60 2056.57 48.70
5140 23.1900 2120.10 2056.19 48.20
5141 23.1937 2199.50 2055.81 50.30
5142 23.1975 2191.20 2055.43 49.30
5143 23.2013 2115.70 2055.05 49.70
5144 23.2050 2145.20 2054.68 49.40
5145 23.2088 2187.90 2054.30 50.20
5146 23.2125 2152.90 2053.92 49.70
5147 23.2163 2119.40 2053.55 48.60
5148 23.2201 2210.20 2053.17 50.80
5149 23.2238 2156.20 2052.79 49.90
5150 23.2276 2106.40 2052.42 49.20
5151 23.2313 2135.50 2052.04 49.40
5152 23.2351 2160.70 2051.67 49.80
5153 23.2388 2091.20 2051.29 49.10
5154 23.2426 2259.50 2050.92 51.90
5155 23.2464 2104.20 2050.55 49.30
5156 23.2501 2257.10 2050.17 51.00
5157 23.2539 2096.00 2049.80 48.40
5158 23.2576 2148.20 2049.43 49.30
5159 23.2614 2164.40 2049.06 49.80
5160 23.2652 2197.70 2048.69 50.60
5161 23.2689 2138.50 2048.31 50.10
5162 23.2727 2138.40 2047.94 50.20
5163 23.2764 2179.50 2047.57 50.20
5164 23.2802 2129.90 2047.20 48.40
5165 23.2840 2175.60 2046.83 50.30
5166 23.2877 2219.30 2046.46 51.10
5167 23.2915 2175.40 2046.09 50.20
5168 23.2952 2140.50 2045.73 49.10
5169 23.2990 2152.90 2045.36 50.30
5170 23.3027 2196.40 2044.99 50.40
5171 23.3065 2185.80 2044.62 50.00
5172 23.3103 2157.70 2044.26 49.30
5173 23.3140 2177.80 2043.89 49.70
5174 23.3178 2200.10 2043.52 50.30
5175 23.3215 2178.60 2043.16 50.20
5176 23.3253 2196.90 2042.79 50.40
5177 23.3291 2128.30 2042.43 49.70
5178 23.3328 2184.90 2042.06 50.10
5179 23.3366 2111.70 2041.70 49.00
5180 23.3403 2104.40 2041.33 48.20
5181 23.3441 2179.50 2040.97 49.80
5182 23.3479 2139.50 2040.61 49.30
5183 23.3516 2184.70 2040.24 50.10
5184 23.3554 2196.00 2039.88 50.50
5185 23.3591 2140.20 2039.52 49.70
5186 23.3629 2163.10 2039.16 50.30
5187 23.3666 2135.20 2038.80 49.70
5188 23.3704 2280.30 2038.44 51.20
5189 23.3742 2127.70 2038.08 49.00
5190 23.3779 2213.70 2037.72 50.80
5191 23.3817 2168.70 2037.36 50.10
5192 23.3854 2229.60 2037.00 50.70
5193 23.3892 2131.50 2036.64 49.80
5194 23.3930 2142.10 2036.28 49.90
5195 23.3967 2151.90 2035.92 49.90
5196 23.4005 2196.70 2035.56 50.60
5197 23.4042 2184.20 2035.21 50.30
5198 23.4080 2184.80 2034.85 50.20
5199 23.4118 2155.20 2034.49 49.70
5200 23.4155 2185.80 2034.14 49.90
5201 23.4193 2179.90 2033.78 50.20
5202 23.4230 2176.60 2033.42 50.30
5203 23.4268 2155.50 2033.07 49.50
5204 23.4305 2189.50 2032.71 50.30
5205 23.4343 2114.60 2032.36 49.70
5206 23.4381 2163.90 2032.01 50.70
5207 23.4418 2171.50 2031.65 50.70
5208 23.4456 2278.40 2031.30 52.10
5209 23.4493 2143.10 2030.95 49.80
5210 23.4531 2186.30 2030.59 50.00
5211 23.4569 2205.90 2030.24 50.90
5212 23.4606 2258.00 2029.89 51.10
5213 23.4644 2133.40 2029.54 49.70
5214 23.4681 2215.70 2029.19 50.00
5215 23.4719 2188.00 2028.84 49.90
5216 23.4757 2156.40 2028.49 50.00
5217 23.4794 2166.40 2028.14 50.30
5218 23.4832 2171.10 2027.79 48.80
5219 23.4869 2141.20 2027.44 48.90
5220 23.4907 2108.80 2027.09 49.30
5221 23.4944 2089.00 2026.74 48.50
5222 23.4982 2049.20 2026.39 48.80
5223 23.5020 2217.40 2026.04 50.50
5224 23.5057 2250.00 2025.70 50.40
5225 23.5095 2182.10 2025.35 49.40
5226 23.5133 2155.80 2025.00 49.50
5227 23.5170 2092.10 2024.66 48.90
5228 23.5208 2118.00 2024.31 49.40
5229 23.5245 2102.00 2023.96 48.90
5230 23.5283 2186.20 2023.62 50.40
5231 23.5320 2167.70 2023.27 49.90
5232 23.5358 2205.60 2022.93 51.10
5233 23.5396 2150.40 2022.59 49.70
5234 23.5433 2134.00 2022.24 49.40
5235 23.5471 2136.70 2021.90 49.90
5236 23.5508 2239.90 2021.56 51.10
5237 23.5546 2141.80 2021.21 49.40
5238 23.5584 2224.60 2020.87 50.10
5239 23.5621 2211.30 2020.53 50.50
5240 23.5659 2237.90 2020.19 50.60
5241 23.5696 2281.10 2019.85 51.50
5242 23.5734 2150.30 2019.51 50.00
5243 23.5772 2124.30 2019.17 49.40
5244 23.5809 2126.50 2018.83 50.10
5245 23.5847 2130.80 2018.49 49.20
5246 23.5884 2193.90 2018.15 49.60
5247 23.5922 2223.60 2017.81 51.10
5248 23.5960 2183.80 2017.47 50.60
5249 23.5997 2124.20 2017.13 50.00
5250 23.6035 2167.20 2016.79 50.00
5251 23.6072 2157.70 2016.46 49.60
5252 23.6110 2116.00 2016.12 49.40
5253 23.6148 2194.00 2015.78 50.30
5254 23.6185 2137.00 2015.45 49.80
5255 23.6223 2098.90 2015.11 48.90
5256 23.6260 2132.40 2014.78 48.30
5257 23.6298 2217.20 2014.44 50.40
5258 23.6336 2216.60 2014.11 50.90
5259 23.6373 2127.20 2013.77 49.80
5260 23.6411 2194.30 2013.44 50.20
5261 23.6448 2221.00 2013.10 50.30
5262 23.6486 2271.60 2012.77 50.50
5263 23.6523 2152.40 2012.44 48.40
5264 23.6561 2181.10 2012.10 49.20
5265 23.6599 2121.30 2011.77 48.60
5266 23.6636 2252.80 2011.44 49.70
5267 23.6674 2132.60 2011.11 48.50
5268 23.6712 2292.50 2010.78 50.10
5269 23.6749 2111.00 2010.45 47.90
5270 23.6787 2216.30 2010.12 49.70
5271 23.6824 2213.70 2009.79 49.80
5272 23.6862 2231.30 2009.46 49.80
5273 23.6900 2206.50 2009.13 48.90
5274 23.6937 2196.40 2008.80 49.60
5275 23.6975 2288.40 2008.47 50.20
5276 23.7012 2227.90 2008.14 50.10
5277 23.7050 2242.60 2007.81 49.70
5278 23.7087 2205.80 2007.48 49.60
5279 23.7125 2179.80 2007.16 48.80
5280 23.7163 2219.70 2006.83 49.50
5281 23.7200 2217.90 2006.50 49.40
5282 23.7238 2328.20 2006.18 50.90
5283 23.7276 2286.90 2005.85 50.60
5284 23.7313 2244.40 2005.53 50.50
5285 23.7351 2173.20 2005.20 48.60
5286 23.7388 2211.60 2004.88 48.90
5287 23.7426 2285.90 2004.55 50.80
5288 23.7463 2236.90 2004.23 50.10
5289 23.7501 2227.30 2124.62 50.00
5290 23.7539 2380.00 2127.08 51.50
5291 23.7576 2193.00 2129.64 49.10
5292 23.7614 2237.00 2132.31 50.00
5293 23.7652 2222.40 2135.08 49.70
5294 23.7689 2309.20 2137.96 50.30
5295 23.7727 2259.20 2140.96 49.80
5296 23.7764 2269.50 2144.09 50.30
5297 23.7802 2289.60 2147.35 50.40
5298 23.7840 2315.30 2150.74 50.50
5299 23.7877 2147.30 2154.27 48.80
5300 23.7915 2279.70 2157.97 49.80
5301 23.7952 2189.80 2161.81 49.50
5302 23.7990 2292.60 2165.82 50.90
5303 23.8027 2331.10 2170.02 50.90
5304 23.8065 2317.50 2174.40 51.20
5305 23.8103 2296.00 2178.96 50.20
5306 23.8140 2304.90 2183.76 50.80
5307 23.8178 2366.20 2188.76 51.70
5308 23.8215 2348.50 2193.98 51.30
5309 23.8253 2365.60 2199.48 51.60
5310 23.8291 2328.80 2205.22 51.20
5311 23.8328 2308.20 2211.23 51.10
5312 23.8366 2361.10 2217.56 51.80
5313 23.8403 2424.20 2224.18 52.20
5314 23.8441 2344.70 2231.12 51.30
5315 23.8479 2472.80 2238.46 52.80
5316 23.8516 2483.50 2246.15 53.20
5317 23.8554 2458.80 2254.22 53.00
5318 23.8591 2444.80 2262.77 52.40
5319 23.8629 2366.00 2271.75 51.50
5320 23.8667 2511.70 2281.19 53.00
5321 23.8704 2467.80 2291.23 52.70
5322 23.8742 2522.60 2301.79 53.30
5323 23.8780 2458.40 2312.97 52.40
5324 23.8817 2525.60 2324.80 54.00
5325 23.8855 2465.00 2337.33 52.60
5326 23.8892 2499.80 2350.62 52.70
5327 23.8930 2495.00 2364.74 52.30
5328 23.8967 2574.70 2379.73 47.50
5329 23.9043 2662.20 2412.71 49.50
5330 23.9080 2547.80 2430.84 53.40
5331 23.9118 2629.20 2450.22 54.70
5332 23.9156 2758.00 2470.95 55.80
5333 23.9193 2695.50 2493.14 55.10
5334 23.9231 2758.00 2516.97 55.90
5335 23.9268 2748.20 2542.56 56.10
5336 23.9306 2728.10 2570.08 55.60
5337 23.9343 2827.20 2599.78 56.00
5338 23.9381 2857.30 2631.86 56.90
5339 23.9419 2964.40 2666.55 57.90
5340 23.9456 2942.10 2704.19 58.00
5341 23.9494 3126.60 2745.11 59.70
5342 23.9531 3060.30 2789.65 59.20
5343 23.9569 3200.30 2838.29 60.30
5344 23.9607 3183.60 2891.57 60.20
5345 23.9644 3330.50 2950.00 61.70
5346 23.9682 3371.50 3014.34 62.20
5347 23.9720 3490.00 3085.42 62.90
5348 23.9757 3541.80 3164.10 63.20
5349 23.9795 3699.30 3251.60 64.70
5350 23.9832 3777.70 3349.29 66.30
5351 23.9870 3909.60 3458.65 66.70
5352 23.9907 4085.30 3581.76 69.50
5353 23.9945 4422.80 3721.02 70.90
5354 23.9983 4574.40 3879.12 73.30
5355 24.0020 4651.50 4059.85 72.90
5356 24.0058 4974.80 4267.71 76.20
5357 24.0096 5331.90 4507.99 79.50
5358 24.0133 5466.60 4788.12 80.10
5359 24.0171 6150.30 5117.35 85.10
5360 24.0208 6408.90 5507.11 89.00
5361 24.0246 7164.50 5974.80 92.50
5362 24.0284 7617.40 6538.18 96.20
5363 24.0321 8405.60 7230.81 102.40
5364 24.0359 9248.10 8088.79 107.20
5365 24.0396 10807.50 9174.82 117.10
5366 24.0434 11995.10 10586.10 125.00
5367 24.0472 14495.50 12510.60 136.70
5368 24.0509 17291.50 15358.60 151.70
5369 24.0547 22085.80 20013.00 173.00
5370 24.0584 28555.00 28200.20 204.20
5371 24.0622 40658.80 42700.10 249.20
5372 24.0660 60272.30 66740.60 315.60
5373 24.0697 98374.30 102247.00 425.50
5374 24.0735 142664.00 146936.00 534.30
5375 24.0772 187184.00 189916.00 642.90
5376 24.0810 198724.00 209799.00 671.50
5377 24.0848 190548.00 191926.00 651.90
5378 24.0885 153941.00 149622.00 568.20
5379 24.0923 109189.00 104666.00 457.10
5380 24.0960 68540.60 68471.80 342.00
5381 24.0998 44120.00 43795.70 259.60
5382 24.1036 30283.30 28841.00 208.00
5383 24.1073 22817.10 20363.90 176.20
5384 24.1111 17804.40 15561.70 153.90
5385 24.1148 14689.20 12635.00 138.10
5386 24.1186 12326.80 10675.10 125.60
5387 24.1224 10708.10 9237.15 115.80
5388 24.1261 9232.20 8135.99 108.00
5389 24.1299 8406.50 7265.84 98.10
5390 24.1336 7468.80 6566.30 92.10
5391 24.1374 6995.70 5994.97 88.60
5392 24.1412 6378.50 5522.60 85.30
5393 24.1449 6049.90 5128.30 81.20
5394 24.1487 5708.90 4795.46 79.90
5395 24.1525 5378.80 4512.04 77.30
5396 24.1562 5149.80 4269.08 75.40
5397 24.1600 4953.90 4059.01 74.10
5398 24.1637 4681.90 3876.17 72.20
5399 24.1675 4581.80 3716.28 70.70
5400 24.1712 4191.60 3575.48 67.90
5401 24.1750 4239.20 3450.86 67.90
5402 24.1788 3969.20 3340.18 65.30
5403 24.1825 3892.00 3241.30 65.20
5404 24.1863 3658.80 3152.62 63.00
5405 24.1901 3641.60 3072.88 62.50
5406 24.1938 3390.60 3000.64 60.90
5407 24.1976 3449.50 2935.50 61.30
5408 24.2013 3190.50 2876.01 58.60
5409 24.2051 3287.90 2821.90 60.00
5410 24.2089 3068.40 2772.42 57.50
5411 24.2126 3106.20 2727.07 57.60
5412 24.2164 2937.50 2685.38 56.10
5413 24.2201 2930.20 2646.99 56.40
5414 24.2239 2873.90 2611.54 55.50
5415 24.2277 2813.30 2578.74 55.30
5416 24.2314 2780.60 2548.33 54.20
5417 24.2352 2709.90 2520.09 53.70
5418 24.2389 2731.10 2493.81 53.70
5419 24.2427 2757.10 2469.31 54.40
5420 24.2465 2581.20 2446.44 52.40
5421 24.2502 2657.50 2425.05 53.40
5422 24.2540 2562.10 2405.01 52.80
5423 24.2577 2583.80 2386.22 52.90
5424 24.2615 2575.10 2368.52 52.80
5425 24.2653 2546.60 2351.96 52.40
5426 24.2690 2545.40 2336.28 52.30
5427 24.2728 2519.10 2321.53 50.90
5428 24.2766 2446.70 2307.61 51.10
5429 24.2803 2394.80 2294.45 50.50
5430 24.2841 2325.70 2282.01 50.10
5431 24.2878 2413.30 2270.21 50.30
5432 24.2916 2366.80 2259.02 50.50
5433 24.2953 2511.40 2248.41 52.30
5434 24.2991 2436.30 2238.31 51.10
5435 24.3029 2359.00 2228.72 49.80
5436 24.3066 2355.80 2219.59 50.20
5437 24.3104 2320.20 2210.88 49.30
5438 24.3141 2196.50 2202.58 48.30
5439 24.3179 2391.40 2194.67 50.60
5440 24.3217 2257.90 2187.10 48.60
5441 24.3254 2318.20 2179.85 49.30
5442 24.3292 2227.80 2172.93 48.90
5443 24.3330 2275.10 2166.31 49.10
5444 24.3367 2376.00 2159.97 50.50
5445 24.3405 2286.10 2153.88 49.60
5446 24.3442 2227.00 2148.04 49.00
5447 24.3480 2279.90 2142.44 49.70
5448 24.3518 2266.70 2137.06 48.70
5449 24.3555 2300.40 2131.89 49.20
5450 24.3593 2199.20 2126.91 48.70
5451 24.3630 2246.60 2122.13 49.00
5452 24.3668 2115.50 2117.51 47.60
5453 24.3706 2199.70 2113.07 48.30
5454 24.3743 2140.70 2108.79 47.80
5455 24.3781 2330.40 2104.65 49.60
5456 24.3818 2288.70 2100.66 49.70
5457 24.3856 2191.10 2096.82 48.40
5458 24.3894 2212.90 2093.09 48.90
5459 24.3931 2174.80 2089.49 48.00
5460 24.3969 2240.60 2086.01 48.90
5461 24.4007 2185.20 2082.65 48.00
5462 24.4044 2137.90 2079.39 47.80
5463 24.4082 2173.90 2076.24 48.10
5464 24.4119 2195.10 2073.18 48.80
5465 24.4157 2205.20 1952.04 48.70
5466 24.4195 2159.60 1951.77 48.20
5467 24.4232 2211.40 1951.51 48.30
5468 24.4270 2148.90 1951.25 48.10
5469 24.4307 2207.90 1950.99 48.40
5470 24.4345 2066.90 1950.72 46.40
5471 24.4383 2167.00 1950.46 48.00
5472 24.4420 2150.40 1950.20 48.20
5473 24.4458 2088.80 1949.94 47.50
5474 24.4495 2080.50 1949.68 46.90
5475 24.4533 2180.00 1949.42 48.20
5476 24.4571 2140.70 1949.15 47.70
5477 24.4608 2110.70 1948.89 47.50
5478 24.4646 2081.60 1948.63 47.20
5479 24.4683 2169.40 1948.38 48.50
5480 24.4721 2048.60 1948.12 46.70
5481 24.4759 2180.10 1947.86 48.20
5482 24.4796 2113.30 1947.60 47.50
5483 24.4834 2191.10 1947.34 48.20
5484 24.4871 2181.90 1947.08 48.60
5485 24.4909 2015.80 1946.82 46.20
5486 24.4947 2040.00 1946.57 46.90
5487 24.4984 2078.60 1946.31 47.00
5488 24.5022 2154.10 1946.05 47.50
5489 24.5060 2117.30 1945.80 48.30
5490 24.5097 2099.90 1945.54 47.30
5491 24.5135 2159.90 1945.28 48.20
5492 24.5172 2150.00 1945.03 47.90
5493 24.5210 2059.50 1944.77 46.40
5494 24.5247 2085.70 1944.52 47.40
5495 24.5285 2155.60 1944.26 48.40
5496 24.5323 2122.00 1944.01 47.80
5497 24.5360 2148.40 1943.76 48.00
5498 24.5398 2099.70 1943.50 47.50
5499 24.5436 2203.60 1943.25 48.80
5500 24.5473 2177.80 1943.00 48.20
5501 24.5511 2077.50 1942.74 47.00
5502 24.5548 2146.20 1942.49 47.80
5503 24.5586 2139.40 1942.24 47.80
5504 24.5624 2047.80 1941.99 46.50
5505 24.5661 2072.30 1941.74 47.10
5506 24.5699 2069.10 1941.48 47.10
5507 24.5736 2128.10 1941.23 47.60
5508 24.5774 2118.30 1940.98 47.40
5509 24.5812 2153.10 1940.73 48.60
5510 24.5849 2095.70 1940.48 47.00
5511 24.5887 2164.50 1940.23 48.00
5512 24.5924 2153.90 1939.98 48.30
5513 24.5962 2095.40 1939.74 48.00
5514 24.6000 2081.70 1939.49 47.30
5515 24.6037 2085.20 1939.24 47.20
5516 24.6075 2073.20 1938.99 47.30
5517 24.6112 2101.70 1938.74 49.50
5518 24.6150 2058.60 1938.49 47.90
5519 24.6188 2143.50 1938.25 48.80
5520 24.6225 2050.90 1938.00 48.10
5521 24.6263 2055.60 1937.75 47.70
5522 24.6301 2158.90 1937.51 48.50
5523 24.6338 2062.80 1937.26 47.90
5524 24.6376 2029.40 1937.02 47.10
5525 24.6413 2134.60 1936.77 48.00
5526 24.6451 2065.30 1936.52 47.90
5527 24.6489 2107.90 1936.28 48.30
5528 24.6526 2099.80 1936.03 48.30
5529 24.6564 2086.20 1935.79 48.00
5530 24.6601 2111.40 1935.55 48.70
5531 24.6639 2028.50 1935.30 47.20
5532 24.6677 2021.00 1935.06 47.20
5533 24.6714 2029.10 1934.82 47.30
5534 24.6752 1987.80 1934.57 46.60
5535 24.6789 2051.40 1934.33 48.00
5536 24.6827 2036.40 1934.09 47.50
5537 24.6865 2086.60 1933.85 48.70
5538 24.6902 1989.40 1933.61 46.80
5539 24.6940 2111.00 1933.37 48.70
5540 24.6977 2097.90 1933.12 48.40
5541 24.7015 2145.30 1932.88 49.30
5542 24.7053 1998.00 1932.64 47.20
5543 24.7090 2120.80 1932.40 48.50
5544 24.7128 2008.70 1932.16 46.90
5545 24.7166 2132.30 1931.92 49.00
5546 24.7203 2040.10 1931.69 47.50
5547 24.7241 2110.50 1931.45 48.50
5548 24.7278 2046.10 1931.21 48.00
5549 24.7316 2071.10 1930.97 48.30
5550 24.7353 2013.50 1930.73 47.30
5551 24.7391 2063.60 1930.49 48.10
5552 24.7429 1966.80 1930.26 46.70
5553 24.7466 2064.20 1930.02 48.60
5554 24.7504 2050.30 1929.78 48.20
5555 24.7542 2096.00 1929.55 48.80
5556 24.7579 1999.90 1929.31 47.60
5557 24.7617 2113.60 1929.07 48.70
5558 24.7654 2007.00 1928.84 46.90
5559 24.7692 2094.90 1928.60 48.00
5560 24.7730 2042.30 1928.37 47.50
5561 24.7767 2085.30 1928.13 48.10
5562 24.7805 1949.50 1927.90 46.00
5563 24.7842 1978.90 1927.67 46.80
5564 24.7880 1998.00 1927.43 47.30
5565 24.7918 2097.30 1927.20 48.30
5566 24.7955 1941.90 1926.96 46.70
5567 24.7993 2066.60 1926.73 48.20
5568 24.8030 2099.30 1926.50 48.00
5569 24.8068 2109.90 1926.27 48.50
5570 24.8106 2021.00 1926.03 46.90
5571 24.8143 1985.80 1925.80 46.70
5572 24.8181 2066.50 1925.57 48.00
5573 24.8218 2089.50 1925.34 48.50
5574 24.8256 2047.00 1925.11 48.10
5575 24.8294 2075.70 1924.88 48.10
5576 24.8331 2011.30 1924.65 47.00
5577 24.8369 2093.70 1924.42 48.20
5578 24.8407 1997.70 1924.19 47.00
5579 24.8444 2023.50 1923.96 47.70
5580 24.8482 2010.50 1923.73 47.20
5581 24.8519 2070.40 1923.50 48.30
5582 24.8557 2008.30 1923.27 47.30
5583 24.8594 2013.70 1923.04 47.30
5584 24.8632 2064.10 1922.82 47.90
5585 24.8670 2069.80 1922.59 47.50
5586 24.8707 2011.90 1922.36 48.10
5587 24.8745 2101.20 1922.13 48.50
5588 24.8783 1993.90 1921.91 47.00
5589 24.8820 2068.40 1921.68 47.80
5590 24.8858 2081.10 1921.45 48.90
5591 24.8895 2061.40 1921.23 47.50
5592 24.8933 1986.70 1921.00 46.50
5593 24.8971 2071.70 1920.78 47.80
5594 24.9008 1948.10 1920.55 46.70
5595 24.9046 2053.10 1920.33 48.00
5596 24.9083 1975.40 1920.10 46.40
5597 24.9121 2000.00 1919.88 47.00
5598 24.9159 2084.40 1919.65 47.80
5599 24.9196 2014.10 1919.43 47.20
5600 24.9234 1965.60 1919.21 46.50
5601 24.9272 2102.00 1918.98 48.40
5602 24.9309 2025.90 1918.76 47.80
5603 24.9347 1940.00 1918.54 45.70
5604 24.9384 1986.30 1918.31 46.60
5605 24.9422 2110.90 1918.09 48.30
5606 24.9459 2003.30 1917.87 47.30
5607 24.9497 1959.30 1917.65 46.80
5608 24.9535 2061.10 1917.43 47.70
5609 24.9572 2076.70 1917.21 48.00
5610 24.9610 2025.50 1916.99 47.40
5611 24.9648 2006.40 1916.77 47.10
5612 24.9685 1992.20 1916.55 46.70
5613 24.9723 2019.10 1916.33 47.30
5614 24.9760 1990.50 1916.11 46.70
5615 24.9798 2033.30 1915.89 47.50
5616 24.9835 1992.90 1915.67 47.80
5617 24.9873 1972.50 1915.45 46.90
5618 24.9911 1942.70 1915.23 46.20
5619 24.9948 2058.90 1915.01 48.10
5620 24.9986 1967.40 1914.79 46.40
5621 25.0024 2102.00 1914.58 48.60
5622 25.0061 1987.50 1914.36 46.70
5623 25.0099 2033.20 1914.14 47.50
5624 25.0136 2028.40 1913.93 47.00
5625 25.0174 2091.20 1913.71 48.10
5626 25.0212 2028.60 1913.49 46.90
5627 25.0249 2014.80 1913.28 47.00
5628 25.0287 1860.90 1913.06 44.80
5629 25.0324 2046.90 1912.85 47.50
5630 25.0362 1985.00 1912.63 46.80
5631 25.0400 1996.00 1912.42 47.30
5632 25.0437 2025.40 1912.20 47.20
5633 25.0475 2001.70 1911.99 46.80
5634 25.0512 2077.30 1911.77 48.20
5635 25.0550 1992.40 1911.56 46.70
5636 25.0588 2030.90 1911.35 47.30
5637 25.0625 2123.00 1911.13 48.00
5638 25.0663 1998.10 1910.92 46.80
5639 25.0700 1978.20 1910.71 46.90
5640 25.0738 1995.70 1910.50 47.30
5641 25.0776 1959.50 1910.28 46.50
5642 25.0813 1931.80 1910.07 45.90
5643 25.0851 1992.30 1909.86 47.10
5644 25.0889 1903.40 1909.65 45.70
5645 25.0926 2017.00 1909.44 47.40
5646 25.0964 2090.50 1909.23 47.90
5647 25.1001 2099.40 1909.02 47.90
5648 25.1039 2037.00 1908.81 47.30
5649 25.1077 2075.50 1908.60 47.90
5650 25.1114 1955.10 1908.39 45.90
5651 25.1152 2001.70 1908.18 46.40
5652 25.1189 2013.50 1907.97 46.40
5653 25.1227 2039.10 1907.76 46.90
5654 25.1264 1901.80 1907.55 44.40
5655 25.1302 2053.80 1907.34 47.30
5656 25.1340 2028.70 1907.13 47.20
5657 25.1377 1999.10 1906.93 46.90
5658 25.1415 1916.70 1906.72 46.00
5659 25.1453 2043.20 1906.51 47.00
5660 25.1490 2056.60 1906.30 47.60
5661 25.1528 2027.70 1906.10 46.90
5662 25.1565 2000.10 1905.89 47.10
5663 25.1603 2061.60 1905.69 46.30
5664 25.1641 1961.50 1905.48 46.10
5665 25.1678 2022.10 1905.27 47.00
5666 25.1716 2112.70 1905.07 48.40
5667 25.1753 2026.60 1904.86 46.90
5668 25.1791 2012.90 1904.66 47.10
5669 25.1829 2030.20 1904.45 47.50
5670 25.1866 2008.80 1904.25 47.00
5671 25.1904 2000.00 1904.05 47.20
5672 25.1941 1915.70 1903.84 45.70
5673 25.1979 2033.40 1903.64 47.30
5674 25.2017 2050.00 1903.44 47.40
5675 25.2054 2039.00 1903.23 47.30
5676 25.2092 2085.00 1903.03 47.70
5677 25.2129 2100.60 1902.83 47.70
5678 25.2167 1920.30 1902.63 46.10
5679 25.2205 2004.20 1902.42 47.00
5680 25.2242 1970.90 1902.22 46.30
5681 25.2280 2033.00 1902.02 47.20
5682 25.2317 2016.20 1901.82 47.30
5683 25.2355 2034.50 1901.62 47.70
5684 25.2393 1868.70 1901.42 45.10
5685 25.2430 2011.90 1901.22 47.10
5686 25.2468 1986.40 1901.02 46.60
5687 25.2505 1988.00 1900.82 46.20
5688 25.2543 2032.00 1900.62 47.00
5689 25.2581 1985.50 1900.42 46.60
5690 25.2618 1970.90 1900.22 46.00
5691 25.2656 1974.40 1900.02 46.50
5692 25.2693 2013.10 1899.82 47.00
5693 25.2731 1967.50 1899.62 46.40
5694 25.2769 1942.70 1899.43 45.20
5695 25.2806 2005.40 1899.23 46.70
5696 25.2844 1931.30 1899.03 46.30
5697 25.2882 2067.20 1898.83 47.70
5698 25.2919 2008.10 1898.64 46.70
5699 25.2957 2034.80 1898.44 47.00
5700 25.2994 2025.40 1898.24 47.80
5701 25.3032 1967.50 1898.05 46.20
5702 25.3069 1988.00 1897.85 46.50
5703 25.3107 1881.20 1897.66 45.10
5704 25.3145 2003.00 1897.46 46.70
5705 25.3182 2015.60 1897.27 46.70
5706 25.3220 1971.40 1897.07 46.40
5707 25.3258 2036.40 1896.88 47.10
5708 25.3295 1876.20 1896.68 45.20
5709 25.3333 1955.00 1896.49 46.70
5710 25.3370 1976.50 1896.29 46.40
5711 25.3408 2060.70 1896.10 47.50
5712 25.3445 1868.20 1895.91 45.10
5713 25.3483 2067.30 1895.71 47.60
5714 25.3521 1953.90 1895.52 46.10
5715 25.3558 2058.40 1895.33 47.60
5716 25.3596 1948.60 1895.14 45.90
5717 25.3633 1922.80 1894.94 45.60
5718 25.3671 1936.30 1894.75 45.90
5719 25.3709 2015.50 1894.56 47.00
5720 25.3746 1939.00 1894.37 45.70
5721 25.3784 1979.00 1894.18 46.50
5722 25.3822 1985.20 1893.99 46.60
5723 25.3859 2007.30 1893.80 46.70
5724 25.3897 1974.00 1893.61 46.60
5725 25.3934 2043.90 1893.42 47.50
5726 25.3972 2001.90 1893.23 46.50
5727 25.4009 2049.40 1893.04 47.40
5728 25.4047 1979.20 1892.85 46.50
5729 25.4085 2040.10 1892.66 47.40
5730 25.4122 1937.00 1892.47 46.00
5731 25.4160 1985.20 1892.28 47.20
5732 25.4198 1900.70 1892.09 45.40
5733 25.4235 2129.20 1891.91 48.40
5734 25.4273 1894.40 1891.72 45.30
5735 25.4310 1934.20 1891.53 45.60
5736 25.4348 1977.10 1891.34 46.50
5737 25.4386 2018.60 1891.16 47.10
5738 25.4423 1926.50 1890.97 46.30
5739 25.4461 1978.40 1890.78 46.50
5740 25.4498 1929.20 1890.60 46.10
5741 25.4536 1983.60 1890.41 46.20
5742 25.4573 1929.30 1890.22 45.70
5743 25.4611 1946.00 1890.04 46.10
5744 25.4649 1973.60 1889.85 46.00
5745 25.4686 2033.00 1889.67 47.20
5746 25.4724 1920.30 1889.48 45.60
5747 25.4762 1985.60 1889.30 46.70
5748 25.4799 1930.40 1889.11 45.80
5749 25.4837 1927.50 1888.93 45.30
5750 25.4874 1973.50 1888.75 46.40
5751 25.4912 2014.60 1888.56 46.90
5752 25.4949 1910.00 1888.38 45.50
5753 25.4987 1927.40 1888.20 45.90
5754 25.5025 1953.60 1888.01 45.70
5755 25.5062 1937.00 1887.83 46.30
5756 25.5100 1891.10 1887.65 45.10
5757 25.5138 2082.10 1887.47 48.00
5758 25.5175 1930.20 1887.28 45.70
5759 25.5213 1936.20 1887.10 46.00
5760 25.5250 1995.80 1886.92 46.60
5761 25.5288 2020.40 1886.74 46.90
5762 25.5326 1934.90 1886.56 45.80
5763 25.5363 2061.30 1886.38 47.20
5764 25.5401 1919.20 1886.20 45.80
5765 25.5438 1925.50 1886.02 45.60
5766 25.5476 1960.10 1885.84 46.10
5767 25.5513 1955.40 1885.66 46.10
5768 25.5551 1926.00 1885.48 45.90
5769 25.5589 2022.40 1885.30 47.10
5770 25.5626 1951.90 1885.12 46.20
5771 25.5664 1921.80 1884.94 45.90
5772 25.5701 2004.40 1884.76 46.90
5773 25.5739 1967.90 1884.59 47.20
5774 25.5777 1977.30 1884.41 47.00
5775 25.5814 1988.00 1884.23 47.00
5776 25.5852 2051.60 1884.05 47.80
5777 25.5889 1950.30 1883.87 46.30
5778 25.5927 1878.00 1883.70 45.60
5779 25.5965 1886.90 1883.52 45.80
5780 25.6002 1923.40 1883.34 46.50
5781 25.6040 1992.10 1883.17 46.50
5782 25.6077 1960.60 1882.99 46.80
5783 25.6115 2075.50 1882.82 48.40
5784 25.6153 1878.20 1882.64 46.10
5785 25.6190 1989.90 1882.46 47.10
5786 25.6228 1961.40 1882.29 45.80
5787 25.6265 1996.60 1882.11 47.20
5788 25.6303 1911.30 1881.94 46.00
5789 25.6341 1992.60 1881.77 47.20
5790 25.6378 1917.20 1881.59 46.10
5791 25.6416 1979.20 1881.42 47.00
5792 25.6453 1897.60 1881.24 46.10
5793 25.6491 1978.50 1881.07 47.00
5794 25.6528 1964.60 1880.90 46.70
5795 25.6566 1995.80 1880.72 46.80
5796 25.6604 1976.50 1880.55 47.50
5797 25.6641 2029.50 1880.38 47.10
5798 25.6679 2022.60 1880.21 47.90
5799 25.6716 1918.60 1880.03 46.20
5800 25.6754 1943.30 1879.86 46.70
5801 25.6792 2038.40 1879.69 48.10
5802 25.6829 1890.10 1879.52 45.70
5803 25.6867 1881.30 1879.35 46.00
5804 25.6905 1891.90 1879.18 45.60
5805 25.6942 1983.00 1879.01 47.10
5806 25.6980 2017.00 1878.83 47.80
5807 25.7017 1934.70 1878.66 46.80
5808 25.7055 1905.60 1878.49 45.50
5809 25.7092 2015.00 1878.33 47.80
5810 25.7130 1860.60 1878.16 45.20
5811 25.7168 1988.00 1877.99 47.00
5812 25.7205 1875.00 1877.82 45.60
5813 25.7243 1965.90 1877.65 47.50
5814 25.7280 1910.30 1877.48 46.20
5815 25.7318 2023.20 1877.31 47.50
5816 25.7356 1922.40 1877.14 46.20
5817 25.7393 2047.90 1876.97 48.20
5818 25.7431 1966.20 1876.81 46.70
5819 25.7468 1875.90 1876.64 45.70
5820 25.7506 1971.50 1876.47 46.60
5821 25.7544 1991.70 1876.31 47.50
5822 25.7581 1981.80 1876.14 47.20
5823 25.7619 1943.50 1875.97 47.30
5824 25.7656 1935.40 1875.81 45.90
5825 25.7694 1945.60 1875.64 46.50
5826 25.7731 1981.70 1875.47 47.10
5827 25.7769 1929.10 1875.31 46.30
5828 25.7807 1981.00 1875.14 47.10
5829 25.7844 2020.20 1874.98 47.80
5830 25.7882 1910.30 1874.81 45.90
5831 25.7920 1945.10 1874.65 46.20
5832 25.7957 1946.30 1874.48 46.60
5833 25.7995 1957.10 1874.32 46.70
5834 25.8032 1875.20 1874.15 45.80
5835 25.8070 1897.70 1873.99 46.30
5836 25.8107 1943.00 1873.83 46.50
5837 25.8145 1947.00 1873.66 47.00
5838 25.8183 1975.10 1873.50 47.40
5839 25.8220 1986.10 1873.34 47.20
5840 25.8258 1989.00 1873.17 48.30
5841 25.8295 2014.90 1873.01 47.70
5842 25.8333 1999.50 1872.85 47.50
5843 25.8371 1972.10 1872.69 46.60
5844 25.8408 1942.70 1872.53 46.80
5845 25.8446 1964.50 1872.36 46.70
5846 25.8483 1870.90 1872.20 45.70
5847 25.8521 1987.70 1872.04 47.90
5848 25.8559 1949.60 1871.88 46.80
5849 25.8596 1971.90 1871.72 46.80
5850 25.8634 1972.80 1871.56 47.60
5851 25.8671 1913.50 1871.40 46.00
5852 25.8709 1933.80 1871.24 46.40
5853 25.8746 1979.60 1871.08 47.40
5854 25.8784 1878.30 1870.92 45.80
5855 25.8822 1979.10 1870.76 47.40
5856 25.8859 1949.30 1870.60 46.70
5857 25.8897 1954.90 1870.44 46.20
5858 25.8934 1805.00 1870.28 44.70
5859 25.8972 1917.10 1870.12 46.40
5860 25.9010 1953.20 1869.96 47.30
5861 25.9047 1950.20 1869.81 47.10
5862 25.9085 1878.30 1869.65 45.50
5863 25.9122 1977.40 1869.49 47.40
5864 25.9160 1953.70 1869.33 46.70
5865 25.9198 1938.10 1869.18 46.70
5866 25.9235 1945.90 1869.02 47.10
5867 25.9273 2036.20 1868.86 47.80
5868 25.9310 1943.50 1868.71 46.50
5869 25.9348 1971.40 1868.55 47.00
5870 25.9385 1905.00 1868.39 46.40
5871 25.9423 2028.60 1868.24 47.10
5872 25.9461 1941.60 1868.08 46.40
5873 25.9498 2033.00 1867.93 47.80
5874 25.9536 1956.40 1867.77 46.90
5875 25.9573 1979.20 1867.61 47.10
5876 25.9611 1966.50 1867.46 47.30
5877 25.9648 1971.50 1867.31 47.00
5878 25.9686 1976.80 1867.15 47.10
5879 25.9724 1926.30 1867.00 46.40
5880 25.9761 1985.90 1866.84 48.20
5881 25.9799 1984.80 1866.69 47.40
5882 25.9837 1884.80 1866.53 46.20
5883 25.9874 1965.00 1866.38 47.80
5884 25.9912 1878.40 1866.23 45.70
5885 25.9949 1964.40 1866.08 47.20
5886 25.9987 1925.10 1865.92 46.40
5887 26.0024 1942.50 1865.77 47.60
5888 26.0062 1937.10 1865.62 47.00
5889 26.0100 1971.70 1865.46 47.40
5890 26.0137 1949.00 1865.31 47.20
5891 26.0175 1933.10 1865.16 47.00
5892 26.0212 1897.70 1865.01 46.70
5893 26.0250 1985.00 1864.86 48.40
5894 26.0287 1936.80 1864.71 46.90
5895 26.0325 1951.70 1864.56 46.90
5896 26.0363 2035.40 1864.41 48.20
5897 26.0400 1951.00 1864.26 47.70
5898 26.0438 1934.90 1864.10 46.90
5899 26.0475 2006.40 1863.95 47.90
5900 26.0513 1876.70 1863.80 46.40
5901 26.0551 2019.50 1863.66 47.30
5902 26.0588 1921.90 1863.51 46.40
5903 26.0626 1966.00 1863.36 45.70
5904 26.0663 1916.10 1863.21 45.50
5905 26.0701 1891.40 1863.06 46.10
5906 26.0739 1853.20 1862.91 45.50
5907 26.0776 1929.80 1862.76 46.10
5908 26.0814 1956.10 1862.61 47.00
5909 26.0851 1934.20 1862.47 46.70
5910 26.0889 1893.70 1862.32 45.90
5911 26.0926 1937.30 1862.17 46.30
5912 26.0964 1980.10 1862.02 46.80
5913 26.1002 1940.50 1861.88 46.10
5914 26.1039 1904.90 1861.73 45.80
5915 26.1077 1901.90 1861.58 46.40
5916 26.1114 1879.10 1861.43 45.60
5917 26.1152 1940.20 1861.29 47.00
5918 26.1189 1928.10 1861.14 45.80
5919 26.1227 1944.50 1861.00 46.30
5920 26.1265 1866.20 1860.85 45.60
5921 26.1302 1962.80 1860.70 46.90
5922 26.1340 1876.80 1860.56 46.20
5923 26.1377 1867.00 1860.41 45.60
5924 26.1415 1935.20 1860.27 46.70
5925 26.1453 1903.20 1860.12 46.10
5926 26.1490 1911.00 1859.98 45.90
5927 26.1528 1882.40 1859.84 45.50
5928 26.1565 1848.20 1859.69 45.30
5929 26.1603 1916.30 1859.55 45.40
5930 26.1640 1895.40 1859.40 46.00
5931 26.1678 1978.50 1859.26 46.90
5932 26.1716 1904.70 1859.12 46.20
5933 26.1753 2023.00 1858.97 48.30
5934 26.1791 1888.30 1858.83 45.90
5935 26.1828 1912.90 1858.69 46.10
5936 26.1866 1986.40 1858.55 47.40
5937 26.1903 1973.90 1858.40 46.80
5938 26.1941 1915.60 1858.26 46.10
5939 26.1979 2021.00 1858.12 47.20
5940 26.2016 1861.90 1857.98 45.90
5941 26.2054 1908.50 1857.84 46.20
5942 26.2091 1991.50 1857.69 47.20
5943 26.2129 1987.20 1857.55 47.10
5944 26.2167 1946.80 1857.41 47.30
5945 26.2204 1977.00 1857.27 47.30
5946 26.2242 1975.10 1857.13 47.80
5947 26.2279 1898.80 1856.99 45.90
5948 26.2317 1959.70 1856.85 47.30
5949 26.2354 1868.50 1856.71 46.00
5950 26.2392 1957.40 1856.57 47.20
5951 26.2430 1997.70 1856.43 47.70
5952 26.2467 1906.10 1856.29 46.30
5953 26.2505 1905.90 1856.15 46.20
5954 26.2542 1960.60 1856.01 47.00
5955 26.2580 1980.40 1855.87 46.90
5956 26.2617 1971.40 1855.73 46.80
5957 26.2655 1935.60 1855.60 46.50
5958 26.2693 1970.80 1855.46 46.90
5959 26.2730 1933.60 1855.32 46.60
5960 26.2768 1901.60 1855.18 46.30
5961 26.2805 1938.00 1855.04 45.80
5962 26.2843 1895.10 1854.91 46.30
5963 26.2880 1980.90 1854.77 47.50
5964 26.2918 1897.20 1854.63 45.60
5965 26.2956 1912.30 1854.50 45.80
5966 26.2993 1896.70 1854.36 46.40
5967 26.3031 1964.90 1854.22 47.40
5968 26.3068 1942.60 1854.09 46.40
5969 26.3106 1802.70 1853.95 44.80
5970 26.3144 1929.90 1853.81 46.60
5971 26.3181 1961.10 1853.68 47.20
5972 26.3219 1898.00 1853.54 46.20
5973 26.3256 2032.60 1853.41 47.60
5974 26.3294 1956.90 1853.27 46.40
5975 26.3331 1953.30 1853.14 46.90
5976 26.3369 1843.90 1853.00 45.60
5977 26.3407 1893.60 1852.87 46.50
5978 26.3444 1896.30 1852.73 46.70
5979 26.3482 1966.50 1852.60 47.20
5980 26.3519 1877.80 1852.47 45.80
5981 26.3557 2003.80 1852.33 47.30
5982 26.3594 1902.60 1852.20 46.70
5983 26.3632 1994.60 1852.06 47.60
5984 26.3669 1905.80 1851.93 46.20
5985 26.3707 1921.50 1851.80 46.80
5986 26.3745 1888.20 1851.66 46.40
5987 26.3782 1939.40 1851.53 46.40
5988 26.3820 1921.00 1851.40 46.80
5989 26.3857 1923.00 1851.27 46.30
5990 26.3895 1878.20 1851.13 46.00
5991 26.3932 1920.00 1851.00 46.80
5992 26.3970 1811.50 1850.87 44.60
5993 26.4008 1937.10 1850.74 46.40
5994 26.4045 1836.40 1850.61 45.10
5995 26.4083 1968.70 1850.48 46.80
5996 26.4120 1929.80 1850.34 46.70
5997 26.4158 1849.60 1850.21 46.00
5998 26.4195 1860.30 1850.08 45.50
5999 26.4233 1889.60 1849.95 45.90
6000 26.4271 1861.40 1849.82 45.10
6001 26.4308 1890.50 1849.69 46.40
6002 26.4346 1810.10 1849.56 45.30
6003 26.4383 1913.00 1849.43 46.60
6004 26.4421 1888.10 1849.30 46.40
6005 26.4459 1964.50 1849.17 47.30
6006 26.4496 1885.60 1849.04 46.20
6007 26.4534 1994.70 1848.92 47.90
6008 26.4571 1881.00 1848.79 46.80
6009 26.4609 1912.10 1848.66 46.70
6010 26.4646 1892.30 1848.53 45.90
6011 26.4684 1922.30 1848.40 46.60
6012 26.4722 1955.80 1848.27 47.10
6013 26.4759 1962.30 1848.14 47.00
6014 26.4797 1919.20 1848.02 46.60
6015 26.4834 1888.60 1847.89 46.10
6016 26.4872 1836.00 1847.76 45.50
6017 26.4909 1936.70 1847.63 46.90
6018 26.4947 1891.10 1847.51 46.20
6019 26.4984 1890.40 1847.38 46.70
6020 26.5022 1796.00 1847.25 45.30
6021 26.5060 1986.50 1847.13 48.00
6022 26.5097 1859.10 1847.00 45.80
6023 26.5135 1887.80 1846.87 46.20
6024 26.5172 1776.30 1846.75 44.10
6025 26.5210 1971.80 1846.62 47.40
6026 26.5247 1959.80 1846.50 47.20
6027 26.5285 1848.90 1846.37 46.00
6028 26.5322 1934.40 1846.25 47.40
6029 26.5360 1990.80 1846.12 47.90
6030 26.5398 1849.60 1845.99 45.60
6031 26.5435 1901.00 1845.87 46.30
6032 26.5473 1880.10 1845.75 45.70
6033 26.5510 1965.90 1845.62 46.70
6034 26.5548 1884.50 1845.50 45.80
6035 26.5585 1964.40 1845.37 46.50
6036 26.5623 1892.50 1845.25 46.10
6037 26.5661 1949.60 1845.13 47.00
6038 26.5698 1972.80 1845.00 46.50
6039 26.5736 1877.90 1844.88 45.80
6040 26.5773 1854.50 1844.75 45.30
6041 26.5811 1864.20 1844.63 45.50
6042 26.5848 1835.90 1844.51 45.30
6043 26.5886 1942.20 1844.39 46.60
6044 26.5924 1902.20 1844.26 45.90
6045 26.5961 1951.70 1844.14 46.50
6046 26.5999 1776.40 1844.02 44.40
6047 26.6036 1941.00 1843.90 46.70
6048 26.6074 1961.40 1843.77 47.10
6049 26.6111 1817.40 1843.65 44.60
6050 26.6149 1807.90 1843.53 45.30
6051 26.6187 1941.20 1843.41 46.50
6052 26.6224 1834.70 1843.29 45.60
6053 26.6262 1917.60 1843.17 46.50
6054 26.6299 1851.10 1843.05 45.30
6055 26.6337 1925.80 1846.82 46.10
6056 26.6374 1883.00 1846.79 46.20
6057 26.6412 1870.40 1846.76 45.90
6058 26.6449 1858.00 1846.73 45.50
6059 26.6487 1897.40 1846.71 46.20
6060 26.6525 1817.20 1846.69 45.00
6061 26.6562 1942.00 1846.67 46.50
6062 26.6600 1944.00 1846.66 46.50
6063 26.6637 1855.20 1846.65 45.60
6064 26.6675 1876.30 1846.65 45.90
6065 26.6712 1907.10 1846.65 45.50
6066 26.6750 1883.30 1846.65 45.90
6067 26.6787 1840.30 1846.66 45.30
6068 26.6825 1903.00 1846.68 46.00
6069 26.6863 1899.50 1846.70 46.00
6070 26.6900 1860.10 1846.72 45.90
6071 26.6938 1906.60 1846.76 46.60
6072 26.6975 1791.00 1846.80 44.70
6073 26.7013 1955.00 1846.84 46.70
6074 26.7050 1902.50 1846.89 46.00
6075 26.7088 1969.70 1846.95 47.10
6076 26.7125 1897.20 1847.02 46.30
6077 26.7163 1907.80 1847.10 46.30
6078 26.7201 1906.40 1847.18 46.50
6079 26.7238 1876.20 1847.28 45.80
6080 26.7276 1858.70 1847.38 45.70
6081 26.7313 1890.80 1847.49 46.20
6082 26.7351 1946.40 1847.62 46.10
6083 26.7388 1910.30 1847.76 45.80
6084 26.7426 1864.90 1847.91 45.60
6085 26.7463 1902.80 1848.07 46.50
6086 26.7501 1879.10 1848.25 46.00
6087 26.7539 1860.70 1848.44 45.30
6088 26.7576 1818.70 1848.65 45.00
6089 26.7614 1940.30 1848.87 46.60
6090 26.7651 1814.60 1849.12 44.70
6091 26.7689 1908.70 1849.38 46.40
6092 26.7726 1862.40 1849.67 45.90
6093 26.7764 1859.00 1849.98 46.10
6094 26.7801 1897.60 1850.31 45.70
6095 26.7839 1928.60 1850.67 46.10
6096 26.7876 1869.30 1851.06 45.60
6097 26.7914 1967.70 1851.48 46.90
6098 26.7952 1878.90 1851.94 45.80
6099 26.7989 1958.70 1852.43 47.00
6100 26.8027 1848.70 1852.96 46.10
6101 26.8064 1916.00 1853.54 46.60
6102 26.8102 1913.20 1854.16 47.00
6103 26.8139 1957.30 1854.84 47.10
6104 26.8177 1860.00 1855.57 45.70
6105 26.8214 1963.40 1856.37 47.00
6106 26.8252 1865.60 1857.23 45.60
6107 26.8290 1952.10 1858.18 47.30
6108 26.8327 1982.20 1859.20 47.00
6109 26.8365 1918.20 1860.32 46.40
6110 26.8402 1964.50 1861.55 46.90
6111 26.8440 1970.50 1862.89 47.00
6112 26.8477 1927.70 1864.36 46.70
6113 26.8515 1987.00 1865.97 47.20
6114 26.8552 1942.60 1867.76 46.70
6115 26.8590 1976.90 1869.72 47.20
6116 26.8627 1897.70 1871.89 46.30
6117 26.8665 1920.90 1874.31 46.30
6118 26.8703 1962.10 1877.01 46.60
6119 26.8740 1981.40 1880.01 47.40
6120 26.8778 1941.40 1883.39 46.70
6121 26.8815 1966.10 1887.18 46.80
6122 26.8853 1962.60 1891.46 46.90
6123 26.8890 2019.20 1896.34 47.30
6124 26.8928 1989.10 1901.89 46.40
6125 26.8965 2030.50 1908.27 47.20
6126 26.9003 1999.10 1915.62 47.20
6127 26.9041 1948.70 1924.19 46.80
6128 26.9078 1950.50 1934.18 46.60
6129 26.9116 2079.20 1945.99 48.60
6130 26.9153 2038.80 1960.01 47.80
6131 26.9191 2025.90 1976.90 47.40
6132 26.9228 2061.60 1997.37 48.30
6133 26.9266 2101.00 2022.61 48.60
6134 26.9303 2025.80 2054.07 47.50
6135 26.9341 2229.60 2094.34 49.80
6136 26.9379 2205.80 2147.48 48.70
6137 26.9416 2317.80 2222.07 50.90
6138 26.9454 2419.00 2335.85 52.20
6139 26.9491 2749.40 2522.97 56.10
6140 26.9529 2823.30 2843.57 57.10
6141 26.9566 3351.40 3375.81 61.90
6142 26.9604 4076.80 4197.70 69.20
6143 26.9641 5383.50 5317.89 79.50
6144 26.9679 6851.10 6604.23 91.10
6145 26.9716 8025.60 7651.16 99.50
6146 26.9754 8045.90 7844.92 99.90
6147 26.9792 7775.30 7038.75 97.80
6148 26.9829 6330.60 5774.57 88.20
6149 26.9867 4840.30 4564.66 74.60
6150 26.9904 3745.80 3633.74 65.80
6151 26.9942 3029.50 3003.71 58.90
6152 26.9960 2891.20 2794.35 58.50
6153 26.9997 2545.00 2493.45 54.00
6154 27.0035 2317.20 2317.18 51.50
6155 27.0072 2309.90 2209.58 50.60
6156 27.0110 2221.90 2137.98 50.40
6157 27.0147 2174.60 2086.42 49.80
6158 27.0185 2119.80 2047.30 49.40
6159 27.0223 2059.00 2016.42 49.00
6160 27.0260 2091.20 1991.69 49.20
6161 27.0298 2012.10 1971.46 47.60
6162 27.0335 1981.00 1954.76 47.30
6163 27.0373 2011.40 1940.84 47.30
6164 27.0410 2021.20 1929.05 47.30
6165 27.0448 1950.40 1919.02 46.60
6166 27.0485 2062.20 1910.44 47.70
6167 27.0523 1947.60 1902.99 46.80
6168 27.0561 1953.80 1896.50 47.10
6169 27.0598 1891.30 1890.84 45.50
6170 27.0636 1954.10 1885.83 46.80
6171 27.0673 1880.70 1881.39 45.60
6172 27.0711 2010.60 1877.44 47.30
6173 27.0749 1936.50 1873.90 46.50
6174 27.0786 1949.30 1870.73 46.70
6175 27.0824 1936.40 1867.86 46.30
6176 27.0861 1804.80 1865.26 44.60
6177 27.0899 1946.90 1862.90 46.60
6178 27.0936 1947.20 1860.75 46.70
6179 27.0974 1929.60 1858.78 46.70
6180 27.1011 1929.10 1856.97 46.00
6181 27.1049 1862.70 1855.30 46.00
6182 27.1087 1867.40 1853.77 45.50
6183 27.1124 1868.70 1852.34 46.00
6184 27.1162 1909.40 1851.02 46.40
6185 27.1199 1926.80 1849.80 46.30
6186 27.1237 1990.10 1848.65 46.90
6187 27.1274 1816.90 1847.58 45.40
6188 27.1312 1983.20 1846.58 47.30
6189 27.1349 1890.40 1845.65 45.90
6190 27.1387 1951.70 1844.76 46.90
6191 27.1425 1853.80 1843.93 45.50
6192 27.1462 1956.20 1843.15 46.60
6193 27.1500 1912.70 1842.41 46.10
6194 27.1537 1977.60 1841.71 47.10
6195 27.1575 1815.00 1841.04 45.10
6196 27.1612 1877.50 1840.41 45.10
6197 27.1650 1835.50 1839.82 45.30
6198 27.1688 1894.10 1839.24 46.00
6199 27.1725 1852.40 1838.70 45.40
6200 27.1763 1861.00 1838.18 45.50
6201 27.1800 1905.50 1837.68 46.50
6202 27.1838 1927.30 1837.21 46.80
6203 27.1875 1770.60 1836.75 44.40
6204 27.1913 1827.00 1836.32 45.10
6205 27.1950 1843.90 1835.90 45.20
6206 27.1988 1937.00 1835.49 46.70
6207 27.2026 1898.20 1835.10 46.30
6208 27.2063 1865.80 1834.73 45.80
6209 27.2101 1800.20 1834.37 45.10
6210 27.2138 1906.80 1834.02 46.20
6211 27.2176 1895.50 1833.68 46.20
6212 27.2213 1847.60 1833.36 45.70
6213 27.2251 1882.80 1833.04 45.30
6214 27.2257 1888.60 1832.99 45.50
6215 27.2294 1929.10 1832.69 46.00
6216 27.2332 1840.50 1832.39 44.80
6217 27.2369 1881.30 1832.11 45.50
6218 27.2407 1873.00 1831.83 45.70
6219 27.2444 1806.70 1831.56 44.50
6220 27.2482 1906.40 1831.29 46.20
6221 27.2519 1870.00 1831.03 45.00
6222 27.2557 1954.50 1830.78 46.80
6223 27.2594 1832.00 1830.54 45.10
6224 27.2632 1836.20 1830.30 45.20
6225 27.2670 1876.70 1830.07 45.50
6226 27.2707 1881.70 1829.84 46.10
6227 27.2745 1940.60 1829.62 46.20
6228 27.2782 1879.40 1829.40 45.60
6229 27.2820 1851.20 1829.19 45.10
6230 27.2857 1940.70 1828.98 46.70
6231 27.2895 1900.30 1828.77 46.00
6232 27.2932 1906.20 1828.57 45.50
6233 27.2970 1870.80 1828.37 45.80
6234 27.3007 1817.70 1828.18 45.00
6235 27.3045 1892.20 1827.99 45.70
6236 27.3082 1756.70 1827.81 44.00
6237 27.3120 1842.40 1827.62 45.20
6238 27.3158 1831.70 1827.44 45.40
6239 27.3195 1935.70 1823.48 46.50
6240 27.3233 1848.30 1823.38 45.70
6241 27.3270 1927.50 1823.29 46.50
6242 27.3308 1807.40 1823.20 44.30
6243 27.3345 1828.30 1823.10 44.70
6244 27.3383 1859.40 1823.01 45.10
6245 27.3420 1881.90 1822.92 46.00
6246 27.3458 1905.50 1822.82 45.40
6247 27.3495 1836.80 1822.73 45.20
6248 27.3533 1877.40 1822.64 46.20
6249 27.3570 1879.20 1822.55 45.80
6250 27.3608 1880.00 1822.45 46.00
6251 27.3645 1928.10 1822.36 46.20
6252 27.3683 1826.10 1822.27 44.50
6253 27.3721 1882.90 1822.18 45.60
6254 27.3758 1923.90 1822.09 46.20
6255 27.3796 1918.80 1821.99 46.00
6256 27.3833 1868.90 1821.90 45.70
6257 27.3871 1865.30 1821.81 45.70
6258 27.3908 1826.40 1821.72 44.90
6259 27.3946 1891.90 1821.63 46.60
6260 27.3983 1878.70 1821.54 45.70
6261 27.4021 1893.30 1821.45 46.50
6262 27.4058 1811.30 1821.36 45.30
6263 27.4096 1844.30 1821.26 45.50
6264 27.4134 1807.00 1821.17 44.40
6265 27.4171 1862.70 1821.08 45.30
6266 27.4209 1851.30 1820.99 45.90
6267 27.4246 1878.90 1820.90 46.10
6268 27.4284 1894.20 1820.81 46.50
6269 27.4321 1961.20 1820.72 47.30
6270 27.4359 1844.70 1820.63 45.50
6271 27.4396 1961.60 1820.54 47.00
6272 27.4434 1846.50 1820.45 45.90
6273 27.4471 1906.70 1820.36 45.80
6274 27.4509 1847.60 1820.27 45.50
6275 27.4547 1805.70 1820.18 44.90
6276 27.4584 1832.20 1820.10 45.60
6277 27.4622 1869.90 1820.01 46.10
6278 27.4659 1811.60 1819.92 45.10
6279 27.4697 1879.20 1819.83 45.80
6280 27.4734 1876.80 1819.74 45.50
6281 27.4772 1823.80 1819.65 45.20
6282 27.4809 1819.40 1819.56 45.20
6283 27.4847 1892.50 1819.47 45.80
6284 27.4884 1786.00 1819.39 44.70
6285 27.4922 1953.10 1819.30 47.30
6286 27.4960 1842.10 1819.21 45.80
6287 27.4997 1853.80 1819.12 45.30
6288 27.5035 1881.00 1819.03 46.10
6289 27.5072 1853.70 1818.95 45.60
6290 27.5110 1814.70 1818.86 45.30
6291 27.5147 1785.50 1818.77 44.20
6292 27.5185 1803.10 1818.68 45.10
6293 27.5222 1836.60 1818.60 45.70
6294 27.5260 1846.60 1818.51 45.50
6295 27.5298 1879.30 1818.42 45.80
6296 27.5335 1806.00 1818.33 45.40
6297 27.5373 1845.90 1818.25 45.40
6298 27.5410 1973.70 1818.16 47.00
6299 27.5448 1808.40 1818.07 44.50
6300 27.5485 1838.40 1817.99 45.30
6301 27.5523 1875.50 1817.90 46.20
6302 27.5560 1937.00 1817.82 46.50
6303 27.5598 1840.20 1817.73 45.60
6304 27.5636 1818.20 1817.64 45.30
6305 27.5673 1760.40 1817.56 44.70
6306 27.5711 1891.40 1817.47 46.60
6307 27.5748 1895.90 1817.39 45.80
6308 27.5786 1840.90 1817.30 45.30
6309 27.5823 1862.20 1817.21 45.40
6310 27.5861 1908.40 1817.13 46.60
6311 27.5898 1857.20 1817.04 45.70
6312 27.5936 1761.20 1816.96 44.50
6313 27.5973 1871.40 1816.87 46.00
6314 27.6011 1818.60 1816.79 45.40
6315 27.6049 1817.00 1816.70 45.50
6316 27.6086 1842.90 1816.62 45.90
6317 27.6124 1836.90 1816.53 45.30
6318 27.6161 1807.70 1816.45 45.10
6319 27.6199 1883.50 1816.37 46.30
6320 27.6236 1827.00 1816.28 44.80
6321 27.6274 1821.10 1816.20 45.40
6322 27.6311 1887.00 1816.11 46.40
6323 27.6349 1910.50 1816.03 45.80
6324 27.6387 1762.40 1815.95 44.40
6325 27.6424 1807.40 1815.86 45.10
6326 27.6462 1809.60 1815.78 45.50
6327 27.6499 1951.20 1815.69 47.30
6328 27.6537 1831.40 1815.61 44.50
6329 27.6574 1864.30 1815.53 45.60
6330 27.6612 1842.30 1815.44 46.10
6331 27.6649 1795.90 1815.36 45.10
6332 27.6687 1748.00 1815.28 44.30
6333 27.6725 1877.30 1815.20 45.80
6334 27.6762 1871.30 1815.11 45.90
6335 27.6800 1920.40 1815.03 46.90
6336 27.6837 1830.60 1814.95 45.70
6337 27.6875 1846.40 1814.87 44.80
6338 27.6912 1739.90 1814.78 43.80
6339 27.6950 1835.70 1814.70 44.30
6340 27.6987 1806.50 1814.62 44.50
6341 27.7025 1826.30 1814.54 44.60
6342 27.7063 1852.20 1814.45 45.00
6343 27.7100 1807.70 1814.37 44.30
6344 27.7138 1865.60 1814.29 45.20
6345 27.7175 1927.30 1814.21 46.00
6346 27.7213 1786.90 1814.13 44.10
6347 27.7250 1892.80 1814.05 45.50
6348 27.7288 1750.80 1813.96 43.40
6349 27.7325 1858.50 1813.88 45.30
6350 27.7363 1747.70 1813.80 43.60
6351 27.7401 1891.00 1813.72 45.00
6352 27.7438 1783.00 1813.64 44.20
6353 27.7476 1936.60 1813.56 46.10
6354 27.7513 1892.70 1813.48 45.50
6355 27.7551 1799.50 1813.40 44.70
6356 27.7588 1869.10 1813.32 45.90
6357 27.7626 1907.60 1813.24 45.50
6358 27.7663 1815.70 1813.16 44.10
6359 27.7701 1840.40 1813.08 45.00
6360 27.7739 1892.10 1813.00 45.90
6361 27.7776 1828.70 1812.92 44.80
6362 27.7814 1895.40 1812.84 45.50
6363 27.7851 1867.50 1812.76 45.60
6364 27.7889 1825.90 1812.68 44.50
6365 27.7926 1925.60 1812.60 46.10
6366 27.7964 1774.20 1812.52 44.60
6367 27.8002 1904.00 1812.44 46.00
6368 27.8039 1841.80 1812.36 45.20
6369 27.8077 1928.30 1812.28 46.30
6370 27.8114 1861.70 1812.20 45.60
6371 27.8152 1828.50 1812.12 44.60
6372 27.8189 1875.60 1812.04 45.20
6373 27.8227 1873.90 1811.96 45.20
6374 27.8265 1814.00 1811.89 44.30
6375 27.8302 1797.90 1811.81 44.30
6376 27.8340 1769.70 1811.73 44.10
6377 27.8377 1848.00 1811.65 45.10
6378 27.8415 1824.60 1811.57 45.10
6379 27.8452 1854.80 1811.49 45.50
6380 27.8490 1896.00 1811.41 45.80
6381 27.8528 1830.30 1811.34 45.00
6382 27.8565 1852.20 1811.26 45.50
6383 27.8603 1793.50 1811.18 45.00
6384 27.8640 1822.40 1811.10 44.40
6385 27.8678 1814.50 1811.03 44.40
6386 27.8715 1761.70 1810.95 44.20
6387 27.8753 1852.60 1810.87 45.10
6388 27.8790 1845.70 1810.79 44.90
6389 27.8828 1854.00 1810.72 45.10
6390 27.8866 1818.40 1810.64 44.60
6391 27.8903 1842.00 1810.56 44.90
6392 27.8941 1842.40 1810.48 45.20
6393 27.8978 1895.70 1810.41 46.00
6394 27.9016 1810.40 1810.33 44.50
6395 27.9053 1840.60 1810.25 45.00
6396 27.9091 1772.90 1810.18 44.50
6397 27.9128 1841.50 1810.10 44.90
6398 27.9166 1817.90 1810.02 44.90
6399 27.9204 1915.00 1809.95 46.20
6400 27.9241 1812.70 1809.87 44.90
6401 27.9279 1865.80 1809.79 45.40
6402 27.9316 1806.10 1809.72 44.20
6403 27.9354 1850.50 1809.64 45.40
6404 27.9391 1774.10 1809.57 44.10
6405 27.9429 1932.70 1809.49 46.00
6406 27.9467 1868.50 1809.41 45.60
6407 27.9504 1848.50 1809.34 45.40
6408 27.9542 1866.80 1809.26 45.40
6409 27.9579 1875.50 1809.19 45.40
6410 27.9617 1815.30 1809.11 44.40
6411 27.9654 1816.30 1809.04 44.50
6412 27.9692 1791.90 1808.96 43.80
6413 27.9730 1783.20 1808.89 44.30
6414 27.9767 1794.20 1808.81 44.40
6415 27.9805 1754.00 1808.74 43.90
6416 27.9842 1778.50 1808.66 44.20
6417 27.9880 1867.00 1808.59 45.30
6418 27.9917 1789.20 1808.51 44.10
6419 27.9955 1879.00 1808.44 45.60
6420 27.9993 1801.30 1808.36 44.40
6421 28.0030 1893.60 1808.29 45.50
6422 28.0068 1864.10 1808.21 45.30
6423 28.0105 1875.20 1808.14 45.50
6424 28.0143 1824.20 1808.07 44.60
6425 28.0180 1892.90 1807.99 46.30
6426 28.0218 1771.20 1807.92 44.00
6427 28.0256 1838.90 1807.84 45.20
6428 28.0293 1910.30 1807.77 45.50
6429 28.0331 1845.20 1807.70 45.10
6430 28.0368 1824.20 1807.62 44.70
6431 28.0406 1906.10 1807.55 45.20
6432 28.0443 1893.10 1807.48 45.80
6433 28.0481 1838.60 1807.40 45.10
6434 28.0518 1907.70 1807.33 45.70
6435 28.0556 1946.30 1807.26 46.00
6436 28.0594 1891.30 1807.18 45.60
6437 28.0631 1846.50 1807.11 45.00
6438 28.0669 1781.50 1807.04 44.30
6439 28.0706 1855.80 1806.96 44.80
6440 28.0744 1834.50 1806.89 45.30
6441 28.0781 1812.60 1806.82 44.40
6442 28.0819 1895.00 1806.75 45.90
6443 28.0857 1945.20 1806.67 46.30
6444 28.0894 1824.20 1806.60 44.90
6445 28.0932 1868.90 1806.53 45.90
6446 28.0969 1918.10 1806.46 46.40
6447 28.1007 1897.10 1806.38 45.60
6448 28.1045 1882.20 1806.31 45.70
6449 28.1082 1873.00 1806.24 46.00
6450 28.1120 1815.20 1806.17 45.00
6451 28.1157 1852.60 1806.09 45.00
6452 28.1195 1866.90 1806.02 45.50
6453 28.1232 1845.80 1805.95 45.10
6454 28.1270 1790.80 1805.88 44.20
6455 28.1308 1827.40 1805.81 44.90
6456 28.1345 1823.40 1805.74 44.70
6457 28.1383 1816.00 1805.67 44.40
6458 28.1420 1836.70 1805.59 45.00
6459 28.1458 1861.30 1805.52 45.40
6460 28.1495 1799.60 1805.45 44.60
6461 28.1533 1843.50 1805.38 45.10
6462 28.1571 1819.70 1805.31 44.40
6463 28.1608 1805.30 1805.24 44.70
6464 28.1646 1814.00 1805.17 45.40
6465 28.1683 1884.60 1805.10 45.00
6466 28.1721 1834.80 1805.03 44.60
6467 28.1758 1818.60 1804.95 44.20
6468 28.1796 1781.50 1804.88 44.00
6469 28.1834 1843.40 1804.81 45.10
6470 28.1871 1836.10 1804.74 45.40
6471 28.1909 1845.30 1804.67 45.20
6472 28.1946 1778.60 1804.60 44.10
6473 28.1984 1848.90 1804.53 44.90
6474 28.2022 1786.50 1804.46 44.30
6475 28.2059 1882.10 1804.39 44.80
6476 28.2097 1878.10 1804.32 45.30
6477 28.2134 1813.40 1804.25 44.70
6478 28.2172 1815.30 1804.18 44.20
6479 28.2209 1774.20 1804.11 43.80
6480 28.2247 1786.50 1804.04 43.80
6481 28.2285 1820.00 1803.97 44.50
6482 28.2322 1795.40 1803.90 44.30
6483 28.2360 1880.40 1803.83 45.50
6484 28.2397 1816.90 1803.77 44.10
6485 28.2435 1814.60 1803.70 44.50
6486 28.2472 1848.40 1803.63 45.10
6487 28.2510 1843.40 1803.56 44.60
6488 28.2548 1787.90 1803.49 44.00
6489 28.2585 1850.60 1803.42 45.50
6490 28.2623 1854.70 1803.35 45.00
6491 28.2660 1837.90 1803.28 44.90
6492 28.2698 1813.40 1803.21 44.80
6493 28.2736 1786.70 1803.14 44.40
6494 28.2773 1805.50 1803.08 44.90
6495 28.2811 1853.90 1803.01 45.00
6496 28.2848 1845.50 1802.94 45.50
6497 28.2886 1853.50 1802.87 45.30
6498 28.2923 1847.70 1802.80 45.50
6499 28.2961 1876.30 1802.73 45.50
6500 28.2999 1891.60 1802.67 45.30
6501 28.3036 1842.60 1802.60 44.80
6502 28.3074 1836.70 1802.53 44.70
6503 28.3111 1890.80 1802.46 45.60
6504 28.3149 1859.20 1802.39 45.10
6505 28.3186 1806.70 1802.33 44.30
6506 28.3224 1819.50 1802.26 44.50
6507 28.3262 1826.90 1802.19 44.90
6508 28.3299 1766.80 1802.12 44.10
6509 28.3337 1878.90 1802.05 45.30
6510 28.3374 1788.10 1801.99 44.20
6511 28.3412 1886.80 1801.92 45.50
6512 28.3449 1808.30 1801.85 44.70
6513 28.3487 1802.20 1801.79 44.20
6514 28.3525 1809.00 1801.72 44.50
6515 28.3562 1765.20 1801.65 44.20
6516 28.3600 1769.20 1801.58 43.60
6517 28.3637 1842.60 1801.52 44.90
6518 28.3675 1873.80 1801.45 45.10
6519 28.3713 1919.20 1801.38 45.60
6520 28.3750 1814.80 1801.32 44.10
6521 28.3788 1826.80 1801.25 44.50
6522 28.3825 1782.70 1801.18 44.20
6523 28.3863 1900.40 1801.12 45.50
6524 28.3901 1833.50 1801.05 45.50
6525 28.3938 1830.80 1800.98 44.70
6526 28.3976 1813.90 1800.92 44.60
6527 28.4013 1768.20 1800.85 43.50
6528 28.4051 1800.20 1800.78 44.30
6529 28.4088 1863.10 1800.72 45.30
6530 28.4126 1819.70 1800.65 44.80
6531 28.4164 1908.90 1800.59 46.20
6532 28.4201 1796.90 1800.52 44.30
6533 28.4239 1897.20 1800.45 46.00
6534 28.4276 1827.80 1800.39 45.00
6535 28.4314 1860.60 1800.32 44.80
6536 28.4352 1842.00 1800.26 45.00
6537 28.4389 1931.60 1800.19 46.50
6538 28.4427 1849.00 1800.12 44.90
6539 28.4464 1842.10 1800.06 44.60
6540 28.4502 1736.90 1799.99 43.40
6541 28.4539 1883.00 1799.93 45.90
6542 28.4577 1828.70 1799.86 44.50
6543 28.4615 1898.50 1799.80 46.00
6544 28.4652 1837.10 1799.73 45.40
6545 28.4690 1814.60 1799.67 44.90
6546 28.4727 1861.20 1799.60 45.00
6547 28.4765 1825.30 1799.54 45.00
6548 28.4802 1853.80 1799.47 45.10
6549 28.4840 1883.80 1799.41 45.40
6550 28.4878 1816.30 1799.34 44.80
6551 28.4915 1882.90 1799.28 45.70
6552 28.4953 1779.80 1799.21 44.30
6553 28.4990 1845.80 1799.15 45.20
6554 28.5028 1856.20 1799.08 45.10
6555 28.5066 1883.20 1799.02 45.90
6556 28.5103 1817.50 1798.95 44.60
6557 28.5141 1901.90 1798.89 45.50
6558 28.5178 1783.90 1798.83 44.00
6559 28.5216 1861.20 1798.76 45.50
6560 28.5254 1909.00 1798.70 45.80
6561 28.5291 1951.20 1798.63 46.10
6562 28.5329 1803.30 1798.57 44.30
6563 28.5366 1797.50 1798.50 44.00
6564 28.5404 1783.00 1798.44 44.50
6565 28.5441 1758.80 1798.38 44.20
6566 28.5479 1786.00 1798.31 44.80
6567 28.5517 1837.00 1798.25 45.30
6568 28.5554 1787.80 1798.18 44.30
6569 28.5592 1868.20 1798.12 45.20
6570 28.5629 1856.60 1798.06 45.30
6571 28.5667 1881.90 1797.99 45.30
6572 28.5704 1794.10 1797.93 44.70
6573 28.5742 1889.10 1797.87 45.70
6574 28.5780 1858.40 1797.80 45.10
6575 28.5817 1799.30 1797.74 44.90
6576 28.5855 1802.30 1797.68 44.60
6577 28.5893 1932.70 1797.61 46.20
6578 28.5930 1855.10 1797.55 44.70
6579 28.5968 1860.80 1797.49 44.80
6580 28.6005 1806.40 1797.42 44.30
6581 28.6043 1901.10 1797.36 45.60
6582 28.6080 1886.90 1797.30 45.50
6583 28.6118 1870.60 1797.23 45.20
6584 28.6156 1799.80 1797.17 44.20
6585 28.6193 1761.30 1797.11 44.20
6586 28.6231 1785.40 1797.05 44.40
6587 28.6268 1815.90 1796.98 44.80
6588 28.6306 1752.80 1796.92 43.60
6589 28.6343 1867.30 1796.86 45.50
6590 28.6381 1875.30 1796.80 45.40
6591 28.6419 1931.00 1796.73 46.30
6592 28.6456 1731.50 1796.67 44.10
6593 28.6494 1823.90 1796.61 44.50
6594 28.6532 1803.10 1796.55 43.50
6595 28.6569 1835.80 1796.48 44.60
6596 28.6607 1821.50 1796.42 44.60
6597 28.6644 1767.00 1796.36 43.50
6598 28.6682 1805.60 1796.30 44.40
6599 28.6719 1902.40 1796.23 45.10
6600 28.6757 1767.90 1796.17 43.60
6601 28.6795 1797.20 1796.11 44.20
6602 28.6832 1759.60 1796.05 44.00
6603 28.6870 1774.50 1795.99 43.40
6604 28.6907 1824.20 1795.93 44.10
6605 28.6945 1894.90 1795.86 45.20
6606 28.6982 1866.60 1795.80 45.10
6607 28.7020 1846.40 1795.74 44.30
6608 28.7058 1850.90 1795.68 44.50
6609 28.7095 1812.10 1795.62 44.10
6610 28.7133 1852.90 1795.56 44.80
6611 28.7171 1854.10 1795.49 45.00
6612 28.7208 1887.50 1795.43 45.20
6613 28.7246 1783.80 1795.37 44.20
6614 28.7283 1781.30 1795.31 43.90
6615 28.7321 1822.60 1795.25 44.40
6616 28.7358 1826.30 1795.19 44.30
6617 28.7396 1831.60 1795.13 44.70
6618 28.7434 1860.10 1795.07 45.00
6619 28.7471 1836.20 1795.00 44.60
6620 28.7509 1869.40 1794.94 45.30
6621 28.7546 1912.50 1794.88 45.90
6622 28.7584 1890.00 1794.82 45.20
6623 28.7622 1899.60 1794.76 45.30
6624 28.7659 1744.50 1794.70 43.50
6625 28.7697 1881.50 1794.64 45.00
6626 28.7734 1814.90 1794.58 44.20
6627 28.7772 1882.80 1794.52 45.30
6628 28.7810 1861.00 1794.46 45.00
6629 28.7847 1820.70 1794.40 44.70
6630 28.7885 1850.30 1794.34 45.20
6631 28.7922 1861.10 1794.28 45.00
6632 28.7960 1865.60 1794.21 44.80
6633 28.7997 1839.30 1794.15 44.40
6634 28.8035 1815.70 1794.09 44.40
6635 28.8073 1910.10 1794.03 45.50
6636 28.8110 1851.20 1793.97 45.00
6637 28.8148 1785.10 1793.91 43.90
6638 28.8185 1851.00 1793.85 44.50
6639 28.8223 1938.30 1793.79 45.90
6640 28.8261 1811.80 1793.73 44.70
6641 28.8298 1797.90 1793.67 44.60
6642 28.8336 1845.20 1793.61 44.80
6643 28.8373 1876.80 1793.55 45.00
6644 28.8411 1860.50 1793.49 45.30
6645 28.8449 1870.00 1793.43 45.10
6646 28.8486 1881.90 1793.37 45.50
6647 28.8524 1784.00 1793.31 44.20
6648 28.8561 1855.10 1793.25 45.00
6649 28.8599 1985.90 1793.19 46.50
6650 28.8637 1849.20 1793.13 44.70
6651 28.8674 1932.40 1793.07 45.10
6652 28.8712 1849.00 1793.02 44.60
6653 28.8749 1872.80 1792.96 45.60
6654 28.8787 1868.60 1792.90 45.30
6655 28.8825 1820.80 1792.84 44.00
6656 28.8862 1836.20 1792.78 44.80
6657 28.8900 1861.00 1792.72 45.30
6658 28.8937 1863.60 1792.66 44.80
6659 28.8975 1794.60 1792.60 44.20
6660 28.9013 1846.40 1792.54 44.90
6661 28.9050 1870.80 1792.48 45.40
6662 28.9088 1761.80 1792.42 43.50
6663 28.9125 1964.60 1792.36 46.60
6664 28.9163 1871.80 1792.30 45.50
6665 28.9200 1856.90 1792.25 45.20
6666 28.9238 1811.70 1792.19 44.30
6667 28.9276 1832.30 1792.13 44.60
6668 28.9313 1773.20 1792.07 43.60
6669 28.9351 1921.90 1792.01 46.40
6670 28.9388 1778.90 1791.95 44.40
6671 28.9426 1825.60 1791.89 44.80
6672 28.9464 1850.90 1791.83 45.20
6673 28.9501 1757.20 1791.77 43.60
6674 28.9539 1761.00 1791.72 44.00
6675 28.9576 1878.50 1791.66 45.10
6676 28.9614 1735.80 1791.60 43.60
6677 28.9652 1856.90 1791.54 45.30
6678 28.9689 1918.80 1791.48 45.60
6679 28.9727 1882.90 1791.42 45.30
6680 28.9764 1906.20 1791.36 45.90
6681 28.9802 1859.60 1791.31 44.70
6682 28.9840 1892.10 1791.25 45.90
6683 28.9877 1825.90 1791.19 44.50
6684 28.9915 1808.80 1791.13 44.50
6685 28.9952 1872.20 1791.07 45.70
6686 28.9990 1862.70 1791.02 45.30
6687 29.0028 1912.60 1790.96 46.60
6688 29.0065 1787.60 1790.90 44.00
6689 29.0103 1810.80 1790.84 44.70
6690 29.0140 1802.30 1790.78 44.10
6691 29.0178 1855.90 1790.73 45.00
6692 29.0215 1889.70 1790.67 45.70
6693 29.0253 1869.80 1790.61 45.00
6694 29.0291 1820.90 1790.55 45.20
6695 29.0328 1793.00 1790.49 44.20
6696 29.0366 1840.00 1790.44 45.30
6697 29.0403 1816.50 1790.38 44.50
6698 29.0441 1760.30 1790.32 44.00
6699 29.0479 1909.40 1790.26 46.00
6700 29.0516 1846.90 1790.20 45.10
6701 29.0554 1829.90 1790.15 45.10
6702 29.0592 1803.40 1790.09 45.00
6703 29.0629 1959.80 1790.03 46.40
6704 29.0667 1871.80 1789.97 45.40
6705 29.0704 1910.80 1789.92 46.20
6706 29.0742 1850.80 1789.86 45.50
6707 29.0779 1980.60 1789.80 46.50
6708 29.0817 1855.40 1789.74 45.60
6709 29.0855 1911.00 1789.69 45.60
6710 29.0892 1860.00 1789.63 45.20
6711 29.0930 1950.30 1789.57 46.60
6712 29.0967 1863.70 1789.52 45.10
6713 29.1005 1883.70 1789.46 45.80
6714 29.1043 1882.70 1789.40 45.90
6715 29.1080 1902.30 1789.34 45.70
6716 29.1118 1888.20 1789.29 45.80
6717 29.1155 1863.50 1789.23 45.30
6718 29.1193 1805.90 1789.17 44.90
6719 29.1231 1892.40 1789.12 45.30
6720 29.1268 1903.10 1789.06 46.30
6721 29.1306 1952.10 1789.00 47.20
6722 29.1343 1906.50 1788.94 46.20
6723 29.1381 1878.30 1788.89 46.00
6724 29.1419 1839.40 1788.83 45.10
6725 29.1456 1924.50 1788.77 46.50
6726 29.1494 1881.90 1788.72 46.10
6727 29.1531 1991.20 1788.66 46.50
6728 29.1569 1885.70 1788.60 45.60
6729 29.1607 1957.00 1788.55 46.90
6730 29.1644 1814.30 1788.49 45.30
6731 29.1682 1898.50 1788.43 45.50
6732 29.1719 1894.20 1788.38 46.10
6733 29.1757 1997.20 1788.32 46.60
6734 29.1794 1844.40 1788.26 45.10
6735 29.1832 1844.90 1788.21 44.50
6736 29.1870 1901.70 1788.15 46.40
6737 29.1907 1925.10 1788.09 46.00
6738 29.1945 1885.90 1788.04 45.60
6739 29.1982 1969.90 1787.98 46.70
6740 29.2020 1958.80 1787.93 46.60
6741 29.2058 1978.90 1787.87 45.80
6742 29.2095 1834.50 1787.81 44.60
6743 29.2133 1966.10 1787.76 47.10
6744 29.2171 1940.20 1787.70 47.00
6745 29.2208 1964.00 1787.64 46.90
6746 29.2246 1895.80 1787.59 46.00
6747 29.2283 1982.30 1787.53 47.20
6748 29.2321 1844.20 1787.47 45.70
6749 29.2358 1949.80 1787.42 47.00
6750 29.2396 1907.70 1787.36 46.30
6751 29.2434 2000.70 1787.31 47.50
6752 29.2471 2016.00 1787.25 47.90
6753 29.2509 2020.70 1911.81 47.60
6754 29.2547 1889.60 1914.44 45.60
6755 29.2584 1937.60 1917.16 45.60
6756 29.2622 1902.00 1919.97 46.70
6757 29.2659 1943.40 1922.87 46.30
6758 29.2697 1990.80 1925.88 47.40
6759 29.2735 2005.60 1929.00 47.70
6760 29.2772 1981.60 1932.21 46.80
6761 29.2810 2015.60 1935.55 48.10
6762 29.2847 1958.70 1939.01 46.90
6763 29.2885 2016.70 1942.59 46.70
6764 29.2922 2008.70 1946.30 47.80
6765 29.2960 1913.20 1950.15 46.70
6766 29.2998 1989.70 1954.15 47.50
6767 29.3035 2026.40 1958.30 47.50
6768 29.3073 1991.00 1962.61 47.20
6769 29.3111 2077.40 1967.08 47.90
6770 29.3148 2027.90 1971.74 47.50
6771 29.3186 2104.90 1976.58 49.30
6772 29.3223 2016.90 1981.62 47.30
6773 29.3261 2031.40 1986.86 47.50
6774 29.3298 2038.10 1992.32 47.50
6775 29.3336 2062.20 1998.02 48.20
6776 29.3374 2097.50 2003.95 49.00
6777 29.3411 2156.20 2010.15 49.20
6778 29.3449 2051.00 2016.60 47.20
6779 29.3486 2237.40 2023.37 50.60
6780 29.3524 2039.70 2030.43 46.70
6781 29.3562 2147.10 2037.80 48.20
6782 29.3599 2117.40 2045.53 48.20
6783 29.3637 2119.70 2053.64 49.60
6784 29.3675 2138.20 2062.13 48.70
6785 29.3712 2118.40 2071.01 49.60
6786 29.3750 2172.40 2080.34 49.10
6787 29.3787 2226.10 2090.18 49.20
6788 29.3825 2208.60 2100.47 49.20
6789 29.3862 2185.60 2111.31 49.90
6790 29.3900 2209.60 2122.74 50.50
6791 29.3938 2204.50 2134.79 48.90
6792 29.3975 2231.50 2147.48 50.00
6793 29.4013 2387.70 2160.90 52.50
6794 29.4050 2198.50 2175.09 50.30
6795 29.4088 2277.10 2190.07 50.80
6796 29.4126 2374.40 2205.96 50.90
6797 29.4163 2353.10 2222.82 52.70
6798 29.4201 2416.00 2240.69 53.40
6799 29.4238 2462.30 2259.69 53.40
6800 29.4276 2451.80 2279.94 52.80
6801 29.4314 2406.30 2301.47 52.80
6802 29.4351 2514.20 2324.46 53.20
6803 29.4389 2560.00 2349.02 53.10
6804 29.4426 2596.70 2375.31 54.70
6805 29.4464 2607.00 2403.48 54.30
6806 29.4502 2571.40 2433.71 53.10
6807 29.4539 2671.10 2466.22 54.80
6808 29.4577 2693.60 2501.24 55.20
6809 29.4614 2843.30 2539.02 58.30
6810 29.4652 2799.60 2579.88 56.80
6811 29.4690 2813.30 2624.14 57.90
6812 29.4727 2901.90 2672.20 58.10
6813 29.4765 3056.30 2724.50 59.80
6814 29.4802 3005.30 2781.56 58.40
6815 29.4840 3029.60 2843.96 60.00
6816 29.4878 3177.70 2912.39 60.40
6817 29.4915 3308.00 2987.66 62.00
6818 29.4953 3402.50 3070.69 61.90
6819 29.4990 3585.20 3162.60 65.30
6820 29.5028 3584.50 3264.67 65.20
6821 29.5066 3831.60 3378.47 67.10
6822 29.5103 3751.50 3505.84 66.40
6823 29.5141 4088.80 3649.02 69.60
6824 29.5178 4197.80 3810.71 71.20
6825 29.5216 4457.00 3994.24 73.10
6826 29.5254 4656.60 4203.68 74.90
6827 29.5291 4833.20 4444.10 75.30
6828 29.5329 5091.10 4721.87 79.10
6829 29.5366 5547.00 5045.06 81.20
6830 29.5404 6041.20 5423.99 85.00
6831 29.5442 6386.90 5872.08 86.00
6832 29.5479 6778.10 6406.98 90.90
6833 29.5517 7579.00 7052.24 96.10
6834 29.5554 8099.80 7839.97 100.50
6835 29.5592 9509.60 8815.48 111.30
6836 29.5630 10602.40 10046.70 114.60
6837 29.5667 12196.80 11646.40 128.10
6838 29.5705 14134.80 13825.00 137.70
6839 29.5742 17179.10 17000.80 153.90
6840 29.5780 21115.00 21984.00 166.80
6841 29.5818 27955.80 30178.50 202.20
6842 29.5855 37805.20 43607.70 241.10
6843 29.5893 56255.90 64471.10 305.30
6844 29.5930 85214.90 94029.10 398.80
6845 29.5968 127379.00 130668.00 502.50
6846 29.6006 163512.00 166592.00 603.80
6847 29.6043 186459.00 185522.00 647.00
6848 29.6081 181159.00 174413.00 645.30
6849 29.6118 157985.00 141328.00 585.10
6850 29.6156 116360.00 103734.00 477.10
6851 29.6194 77124.90 71846.90 367.30
6852 29.6231 49662.90 48602.60 281.50
6853 29.6269 34813.10 33304.50 227.20
6854 29.6306 25103.70 23872.40 189.00
6855 29.6344 19838.40 18162.30 164.70
6856 29.6382 15599.60 14585.40 142.30
6857 29.6419 13059.70 12183.10 128.30
6858 29.6457 10974.90 10449.00 117.20
6859 29.6494 9764.80 9128.90 108.40
6860 29.6532 8430.90 8090.03 101.20
6861 29.6570 7859.70 7255.02 98.80
6862 29.6607 6813.70 6573.53 91.50
6863 29.6645 6432.30 6010.37 88.40
6864 29.6682 5943.60 5539.90 84.60
6865 29.6720 5476.90 5143.04 80.90
6866 29.6758 5065.60 4805.32 77.90
6867 29.6795 4872.10 4515.65 76.40
6868 29.6833 4611.40 4265.38 73.10
6869 29.6870 4493.30 4047.73 72.10
6870 29.6908 4187.70 3857.30 69.90
6871 29.6946 4107.00 3689.75 69.90
6872 29.6983 3832.20 3541.58 67.10
6873 29.7021 3774.30 3409.93 66.60
6874 29.7058 3660.10 3292.43 66.20
6875 29.7096 3721.30 3187.13 65.80
6876 29.7134 3528.40 3092.42 63.70
6877 29.7171 3414.80 3006.91 63.00
6878 29.7209 3294.90 2929.47 61.30
6879 29.7246 3247.30 2859.10 60.30
6880 29.7284 2968.30 2794.97 58.70
6881 29.7321 2945.00 2736.53 58.40
6882 29.7359 2956.50 2682.69 57.90
6883 29.7397 2865.80 2633.38 57.60
6884 29.7434 2751.70 2588.10 56.60
6885 29.7472 2862.60 2546.21 56.80
6886 29.7510 2738.00 2507.38 56.60
6887 29.7547 2655.50 2471.51 55.40
6888 29.7585 2605.50 2438.30 55.20
6889 29.7622 2632.00 2407.33 55.30
6890 29.7660 2538.80 2378.42 54.40
6891 29.7698 2577.70 2351.58 54.80
6892 29.7735 2471.60 2326.44 53.20
6893 29.7773 2600.40 2302.84 54.50
6894 29.7810 2432.10 2280.85 52.80
6895 29.7848 2382.30 2260.15 52.00
6896 29.7885 2257.10 2240.70 50.80
6897 29.7923 2428.30 2222.40 53.20
6898 29.7961 2300.30 2205.16 51.80
6899 29.7998 2351.10 2188.90 52.10
6900 29.8036 2317.10 2173.55 51.50
6901 29.8074 2306.00 2159.03 51.20
6902 29.8111 2249.80 2145.30 49.90
6903 29.8149 2185.70 2132.29 49.80
6904 29.8186 2280.60 2119.96 50.80
6905 29.8224 2233.50 2108.25 50.40
6906 29.8262 2220.40 2097.14 50.20
6907 29.8299 2149.90 2086.57 49.90
6908 29.8337 2207.60 2076.51 49.00
6909 29.8374 2160.10 2066.94 49.80
6910 29.8412 2147.60 2057.80 48.40
6911 29.8449 2035.40 2049.09 48.30
6912 29.8487 2073.60 2040.79 47.90
6913 29.8525 2142.20 2032.84 49.60
6914 29.8562 1985.60 2025.25 46.60
6915 29.8600 2101.50 2018.00 49.60
6916 29.8638 1963.90 2011.04 47.00
6917 29.8675 2078.00 2004.39 48.70
6918 29.8713 2042.30 1998.01 47.70
6919 29.8750 2043.00 1991.89 48.20
6920 29.8788 2037.90 1986.02 48.20
6921 29.8825 1993.90 1980.39 46.90
6922 29.8863 1916.40 1974.97 47.60
6923 29.8901 1995.40 1969.77 47.90
6924 29.8938 2032.40 1964.77 47.60
6925 29.8976 1976.30 1959.95 47.00
6926 29.9014 1953.90 1955.31 47.90
6927 29.9051 1993.90 1950.85 46.70
6928 29.9089 1997.70 1946.54 47.20
6929 29.9126 1948.00 1942.39 47.40
6930 29.9164 1944.00 1938.40 47.60
6931 29.9202 1908.30 1934.53 46.90
6932 29.9239 1940.20 1930.80 47.40
6933 29.9277 1925.30 1927.21 47.10
6934 29.9314 1957.70 1923.72 47.60
6935 29.9352 1992.80 1920.36 47.20
6936 29.9389 1861.20 1917.11 46.00
6937 29.9427 1864.40 1913.96 45.90
6938 29.9465 1867.30 1910.92 45.60
6939 29.9502 1870.50 1907.97 45.90
6940 29.9540 1931.80 1905.12 46.50
6941 29.9578 1932.40 1902.35 46.40
6942 29.9615 1841.30 1776.90 45.40
6943 29.9653 1834.10 1776.85 45.30
6944 29.9690 1883.50 1776.79 45.50
6945 29.9728 1808.20 1776.74 44.60
6946 29.9765 1893.80 1776.69 46.80
6947 29.9803 1910.00 1776.63 46.60
6948 29.9841 1961.80 1776.58 47.30
6949 29.9878 1818.90 1776.53 45.80
6950 29.9916 1879.40 1776.47 46.20
6951 29.9953 1938.40 1776.42 46.80
6952 29.9991 1841.50 1776.36 44.60
6953 30.0029 1971.70 1776.31 47.30
6954 30.0066 1925.80 1776.26 47.10
6955 30.0104 1940.60 1776.20 47.20
6956 30.0141 1820.20 1776.15 45.00
6957 30.0179 1876.70 1776.10 45.30
6958 30.0217 1858.70 1776.04 45.80
6959 30.0254 1975.00 1775.99 47.70
6960 30.0292 1771.70 1775.93 44.60
6961 30.0329 1897.60 1775.88 46.60
6962 30.0367 1832.70 1775.83 45.80
6963 30.0405 1899.70 1775.77 46.70
6964 30.0442 1767.60 1775.72 44.70
6965 30.0480 1913.80 1775.67 46.90
6966 30.0517 1816.20 1775.61 45.30
6967 30.0555 1861.40 1775.56 46.30
6968 30.0593 1833.80 1775.50 46.60
6969 30.0630 1884.60 1775.45 45.90
6970 30.0668 1849.10 1775.40 45.70
6971 30.0705 1916.30 1775.34 47.10
6972 30.0743 1816.40 1775.29 45.90
6973 30.0781 1828.00 1775.23 44.80
6974 30.0818 1824.40 1775.18 45.90
6975 30.0856 1814.40 1775.13 44.50
6976 30.0893 1811.30 1775.07 46.30
6977 30.0931 1893.60 1775.02 45.70
6978 30.0969 1790.60 1774.97 43.90
6979 30.1006 1871.10 1774.91 45.10
6980 30.1044 1810.90 1774.86 44.80
6981 30.1081 1837.90 1774.80 44.90
6982 30.1119 1824.10 1774.75 44.70
6983 30.1157 1876.90 1774.70 45.40
6984 30.1194 1765.40 1774.64 44.40
6985 30.1232 1795.70 1774.59 43.90
6986 30.1269 1723.80 1774.53 43.30
6987 30.1307 1853.20 1774.48 44.90
6988 30.1345 1773.30 1774.43 43.90
6989 30.1382 1744.60 1774.37 43.40
6990 30.1420 1740.20 1774.32 43.20
6991 30.1457 1739.40 1774.26 43.70
6992 30.1495 1723.40 1774.21 43.50
6993 30.1532 1814.90 1774.16 44.00
6994 30.1570 1850.20 1774.10 44.90
6995 30.1608 1869.80 1774.05 44.80
6996 30.1645 1791.50 1773.99 44.60
6997 30.1683 1886.20 1773.94 45.10
6998 30.1721 1812.90 1773.89 44.10
6999 30.1758 1846.00 1773.83 43.90
7000 30.1796 1861.70 1773.78 45.70
7001 30.1833 1859.10 1773.72 45.00
7002 30.1871 1810.90 1773.67 43.70
7003 30.1908 1823.90 1773.62 44.10
7004 30.1946 1810.50 1773.56 43.80
7005 30.1984 1746.00 1773.51 43.20
7006 30.2021 1778.40 1773.45 43.30
7007 30.2059 1812.50 1773.40 44.10
7008 30.2096 1798.40 1773.35 44.40
7009 30.2134 1817.30 1773.29 44.40
7010 30.2172 1733.30 1773.24 43.60
7011 30.2209 1792.80 1773.18 44.30
7012 30.2247 1750.20 1773.13 43.50
7013 30.2284 1722.10 1773.07 43.40
7014 30.2322 1872.90 1773.02 45.80
7015 30.2360 1804.80 1772.97 44.90
7016 30.2397 1817.80 1772.91 44.70
7017 30.2435 1823.80 1772.86 44.80
7018 30.2472 1802.10 1772.80 44.90
7019 30.2510 1734.00 1772.75 43.80
7020 30.2548 1795.50 1772.69 43.60
7021 30.2585 1849.30 1772.64 45.00
7022 30.2623 1759.30 1772.59 43.10
7023 30.2660 1780.80 1772.53 44.00
7024 30.2698 1750.30 1772.48 44.20
7025 30.2736 1813.30 1772.42 43.60
7026 30.2773 1814.50 1772.37 45.00
7027 30.2811 1758.40 1772.31 44.10
7028 30.2848 1783.50 1772.26 44.00
7029 30.2886 1729.90 1772.21 43.20
7030 30.2924 1815.40 1772.15 44.30
7031 30.2961 1843.50 1772.10 44.80
7032 30.2999 1839.50 1772.04 45.00
7033 30.3036 1829.50 1771.99 44.60
7034 30.3074 1794.00 1771.93 44.10
7035 30.3111 1802.60 1771.88 44.40
7036 30.3149 1766.10 1771.83 43.60
7037 30.3187 1815.90 1771.77 44.10
7038 30.3224 1790.60 1771.72 44.50
7039 30.3262 1762.80 1771.66 43.70
7040 30.3299 1787.40 1771.61 44.40
7041 30.3337 1755.50 1771.55 44.00
7042 30.3375 1767.00 1771.50 43.80
7043 30.3412 1811.30 1771.44 44.40
7044 30.3450 1756.30 1771.39 43.70
7045 30.3487 1784.40 1771.33 43.00
7046 30.3525 1772.20 1771.28 43.50
7047 30.3563 1758.90 1771.23 43.40
7048 30.3600 1728.20 1771.17 43.50
7049 30.3638 1756.60 1771.12 44.10
7050 30.3675 1759.20 1771.06 43.50
7051 30.3713 1819.60 1771.01 44.50
7052 30.3751 1713.50 1770.95 43.10
7053 30.3788 1713.30 1770.90 42.70
7054 30.3826 1717.20 1770.84 43.50
7055 30.3863 1733.30 1770.79 43.00
7056 30.3901 1674.80 1770.73 41.80
7057 30.3939 1837.30 1770.68 44.50
7058 30.3976 1768.50 1770.62 43.60
7059 30.4014 1748.40 1770.57 43.30
7060 30.4051 1719.50 1770.51 43.30
7061 30.4089 1822.50 1770.46 44.30
7062 30.4126 1701.30 1770.40 43.00
7063 30.4164 1788.60 1770.35 44.30
7064 30.4202 1808.30 1770.30 43.90
7065 30.4239 1770.30 1770.24 44.20
7066 30.4277 1735.90 1770.19 43.10
7067 30.4314 1760.80 1770.13 43.30
7068 30.4352 1787.50 1770.08 44.40
7069 30.4390 1761.70 1770.02 43.30
7070 30.4427 1706.80 1769.97 42.60
7071 30.4465 1789.90 1769.91 44.20
7072 30.4502 1806.10 1769.86 43.60
7073 30.4540 1692.90 1769.80 43.90
7074 30.4578 1724.10 1769.75 42.90
7075 30.4615 1744.10 1769.69 42.30
7076 30.4653 1771.30 1769.64 44.00
7077 30.4690 1729.60 1769.58 43.40
7078 30.4728 1802.10 1769.53 44.80
7079 30.4765 1772.20 1769.47 43.80
7080 30.4803 1765.30 1769.42 43.60
7081 30.4841 1783.50 1769.36 43.50
7082 30.4878 1688.70 1769.30 42.20
7083 30.4916 1785.60 1769.25 44.40
7084 30.4953 1751.80 1769.19 43.80
7085 30.4991 1751.20 1769.14 43.70
7086 30.5029 1725.10 1769.08 43.30
7087 30.5066 1695.80 1769.03 42.90
7088 30.5104 1720.40 1768.97 42.80
7089 30.5141 1803.70 1768.92 44.50
7090 30.5179 1684.90 1768.86 42.70
7091 30.5217 1832.80 1768.81 44.10
7092 30.5254 1681.00 1768.75 42.80
7093 30.5292 1833.90 1768.70 44.30
7094 30.5329 1779.10 1768.64 43.60
7095 30.5367 1712.20 1768.59 43.20
7096 30.5405 1702.90 1768.53 42.90
7097 30.5442 1784.90 1768.48 44.00
7098 30.5480 1714.60 1768.42 43.30
7099 30.5517 1823.30 1768.36 44.70
7100 30.5555 1809.20 1768.31 44.50
7101 30.5592 1832.20 1768.25 43.90
7102 30.5630 1797.60 1768.20 44.50
7103 30.5668 1773.60 1768.14 44.30
7104 30.5705 1723.00 1768.09 44.00
7105 30.5743 1848.90 1768.03 44.90
7106 30.5780 1762.80 1767.98 43.20
7107 30.5818 1784.60 1767.92 43.60
7108 30.5856 1661.50 1767.86 42.40
7109 30.5893 1817.40 1767.81 44.10
7110 30.5931 1753.60 1767.75 43.50
7111 30.5968 1780.70 1767.70 43.40
7112 30.6006 1769.00 1767.64 43.80
7113 30.6044 1762.90 1767.59 44.00
7114 30.6081 1686.70 1767.53 42.70
7115 30.6119 1809.20 1767.47 44.20
7116 30.6156 1759.30 1767.42 42.90
7117 30.6194 1763.70 1767.36 43.40
7118 30.6231 1703.60 1767.31 42.90
7119 30.6269 1774.40 1767.25 42.80
7120 30.6307 1737.50 1767.19 43.20
7121 30.6344 1633.40 1767.14 42.00
7122 30.6382 1804.50 1767.08 44.20
7123 30.6419 1763.50 1767.03 42.80
7124 30.6457 1655.40 1766.97 42.70
7125 30.6495 1730.40 1766.91 43.30
7126 30.6532 1752.70 1766.86 43.50
7127 30.6570 1741.60 1766.80 42.70
7128 30.6607 1683.40 1766.75 43.00
7129 30.6645 1715.60 1766.69 43.10
7130 30.6682 1751.50 1766.63 43.30
7131 30.6720 1848.90 1766.58 44.10
7132 30.6758 1718.40 1766.52 43.20
7133 30.6795 1716.90 1766.46 43.00
7134 30.6833 1771.80 1766.41 43.90
7135 30.6870 1766.30 1766.35 44.00
7136 30.6908 1723.90 1766.30 43.60
7137 30.6946 1811.20 1766.24 43.80
7138 30.6983 1710.70 1766.18 43.10
7139 30.7021 1720.30 1766.13 43.50
7140 30.7058 1708.30 1766.07 43.00
7141 30.7096 1767.40 1766.01 44.00
7142 30.7134 1800.00 1765.96 44.80
7143 30.7171 1727.20 1765.90 43.00
7144 30.7209 1744.70 1765.84 43.90
7145 30.7246 1698.80 1765.79 42.90
7146 30.7284 1701.90 1765.73 43.10
7147 30.7321 1735.90 1765.67 43.20
7148 30.7359 1763.00 1765.62 43.70
7149 30.7397 1709.10 1765.56 42.80
7150 30.7434 1699.40 1765.50 42.50
7151 30.7472 1786.10 1765.45 43.70
7152 30.7509 1776.20 1765.39 44.00
7153 30.7547 1641.30 1765.33 42.40
7154 30.7585 1663.50 1765.28 41.30
7155 30.7622 1747.30 1765.22 43.60
7156 30.7660 1783.50 1765.16 44.20
7157 30.7697 1704.60 1765.11 43.00
7158 30.7735 1684.70 1765.05 42.60
7159 30.7773 1772.30 1764.99 43.30
7160 30.7810 1747.10 1764.94 42.70
7161 30.7848 1754.90 1764.88 43.20
7162 30.7885 1722.60 1764.82 43.00
7163 30.7923 1743.00 1764.77 43.10
7164 30.7960 1750.30 1764.71 43.50
7165 30.7998 1702.20 1764.65 43.00
7166 30.8036 1734.30 1764.59 43.30
7167 30.8073 1762.50 1764.54 42.80
7168 30.8111 1694.60 1764.48 42.50
7169 30.8148 1754.20 1764.42 43.60
7170 30.8186 1721.30 1764.37 42.90
7171 30.8223 1746.70 1764.31 44.00
7172 30.8261 1711.50 1764.25 42.50
7173 30.8299 1750.00 1764.19 43.50
7174 30.8336 1650.80 1764.14 42.90
7175 30.8374 1855.10 1764.08 45.10
7176 30.8411 1766.30 1764.02 43.70
7177 30.8449 1757.90 1763.97 43.60
7178 30.8487 1672.10 1763.91 42.50
7179 30.8524 1692.60 1763.85 42.90
7180 30.8562 1708.80 1763.79 43.50
7181 30.8599 1716.00 1763.74 42.80
7182 30.8637 1686.60 1763.68 43.20
7183 30.8675 1785.50 1763.62 44.20
7184 30.8712 1706.90 1763.56 42.90
7185 30.8750 1771.40 1763.51 44.20
7186 30.8787 1806.20 1763.45 44.60
7187 30.8825 1709.20 1763.39 43.60
7188 30.8862 1728.70 1763.33 43.60
7189 30.8900 1749.90 1763.27 44.00
7190 30.8938 1684.30 1763.22 42.30
7191 30.8975 1690.60 1763.16 43.10
7192 30.9013 1691.00 1763.10 43.20
7193 30.9050 1710.40 1763.04 42.70
7194 30.9088 1644.90 1762.99 42.20
7195 30.9125 1728.80 1762.93 43.20
7196 30.9163 1694.90 1762.87 43.30
7197 30.9201 1720.80 1762.81 43.00
7198 30.9238 1681.90 1762.75 43.00
7199 30.9276 1745.90 1762.70 43.10
7200 30.9313 1672.50 1762.64 42.30
7201 30.9351 1754.60 1762.58 44.00
7202 30.9389 1669.40 1762.52 42.70
7203 30.9426 1764.40 1762.46 43.80
7204 30.9464 1766.10 1762.40 43.70
7205 30.9501 1672.80 1762.35 42.60
7206 30.9539 1746.60 1762.29 43.70
7207 30.9576 1757.30 1762.23 44.10
7208 30.9614 1713.40 1762.17 43.10
7209 30.9652 1762.50 1762.11 43.90
7210 30.9689 1595.40 1762.06 41.70
7211 30.9727 1733.90 1762.00 43.00
7212 30.9764 1684.00 1761.94 42.80
7213 30.9802 1664.90 1761.88 42.60
7214 30.9839 1710.40 1761.82 42.90
7215 30.9877 1719.40 1761.76 43.10
7216 30.9915 1784.50 1761.70 44.00
7217 30.9952 1723.90 1761.65 43.40
7218 30.9990 1664.60 1761.59 42.60
7219 31.0027 1712.80 1761.53 43.50
7220 31.0065 1681.60 1761.47 43.00
7221 31.0103 1771.90 1761.41 44.50
7222 31.0140 1710.50 1761.35 43.60
7223 31.0178 1781.70 1761.29 43.80
7224 31.0215 1693.90 1761.23 42.90
7225 31.0253 1721.70 1761.18 43.60
7226 31.0290 1650.10 1761.12 42.30
7227 31.0328 1715.40 1761.06 42.70
7228 31.0366 1758.10 1761.00 43.50
7229 31.0403 1775.60 1760.94 44.40
7230 31.0441 1722.30 1760.88 43.40
7231 31.0478 1738.50 1760.82 43.50
7232 31.0516 1708.60 1760.76 43.40
7233 31.0553 1761.90 1760.70 43.80
7234 31.0591 1815.70 1760.64 44.10
7235 31.0629 1711.30 1760.59 43.20
7236 31.0666 1678.10 1760.53 41.90
7237 31.0704 1721.70 1760.47 42.90
7238 31.0741 1681.20 1760.41 42.40
7239 31.0779 1748.70 1760.35 43.20
7240 31.0816 1701.70 1760.29 43.10
7241 31.0854 1802.70 1760.23 44.20
7242 31.0892 1645.30 1760.17 41.80
7243 31.0929 1752.80 1760.11 43.30
7244 31.0967 1747.70 1760.05 43.70
7245 31.1004 1722.10 1759.99 42.80
7246 31.1042 1699.50 1759.93 43.40
7247 31.1079 1750.20 1759.87 43.10
7248 31.1117 1717.20 1759.81 43.50
7249 31.1155 1669.10 1759.75 42.20
7250 31.1192 1707.10 1759.69 42.80
7251 31.1230 1773.00 1759.63 43.90
7252 31.1267 1690.40 1759.57 42.50
7253 31.1305 1705.50 1759.51 42.80
7254 31.1342 1703.20 1759.45 43.10
7255 31.1380 1751.80 1759.39 43.40
7256 31.1418 1662.70 1759.33 42.30
7257 31.1455 1753.10 1759.27 43.70
7258 31.1493 1740.50 1759.21 43.20
7259 31.1530 1689.90 1759.15 42.50
7260 31.1568 1759.30 1759.09 43.50
7261 31.1605 1700.40 1759.03 42.60
7262 31.1643 1699.60 1758.97 42.80
7263 31.1681 1745.80 1758.91 43.80
7264 31.1718 1653.90 1758.85 42.40
7265 31.1756 1615.20 1758.79 42.20
7266 31.1793 1729.40 1758.73 43.50
7267 31.1831 1768.30 1758.67 43.50
7268 31.1868 1683.40 1758.61 42.80
7269 31.1906 1803.40 1758.55 44.80
7270 31.1944 1670.90 1758.49 41.70
7271 31.1981 1670.60 1758.43 42.70
7272 31.2019 1718.30 1758.37 42.50
7273 31.2056 1720.10 1758.31 43.20
7274 31.2094 1669.60 1758.25 42.60
7275 31.2131 1732.50 1758.19 42.80
7276 31.2169 1681.00 1758.13 42.50
7277 31.2207 1788.80 1758.07 43.60
7278 31.2244 1700.40 1758.01 42.70
7279 31.2282 1725.90 1757.95 43.00
7280 31.2319 1722.80 1757.89 43.20
7281 31.2357 1739.60 1757.83 43.80
7282 31.2394 1642.50 1757.76 42.10
7283 31.2432 1695.40 1757.70 42.70
7284 31.2470 1684.10 1757.64 42.60
7285 31.2507 1702.40 1757.58 43.00
7286 31.2545 1739.70 1757.52 43.80
7287 31.2582 1782.80 1757.46 43.70
7288 31.2620 1703.40 1757.40 42.70
7289 31.2657 1642.40 1757.34 42.70
7290 31.2695 1655.30 1757.28 42.00
7291 31.2733 1635.30 1757.22 42.50
7292 31.2770 1686.90 1757.15 42.60
7293 31.2808 1683.70 1757.09 42.70
7294 31.2845 1709.90 1757.03 43.20
7295 31.2883 1735.30 1756.97 43.00
7296 31.2920 1736.70 1756.91 43.70
7297 31.2958 1781.40 1756.85 44.40
7298 31.2995 1789.40 1756.79 43.70
7299 31.3033 1751.40 1756.72 43.80
7300 31.3071 1667.30 1756.66 42.50
7301 31.3108 1727.50 1756.60 43.00
7302 31.3146 1708.80 1756.54 43.50
7303 31.3183 1717.40 1756.48 43.50
7304 31.3221 1656.10 1756.42 42.70
7305 31.3258 1655.50 1756.35 42.10
7306 31.3296 1625.00 1756.29 42.10
7307 31.3334 1693.20 1756.23 43.60
7308 31.3371 1740.40 1756.17 44.00
7309 31.3409 1761.90 1756.11 44.00
7310 31.3446 1673.10 1756.05 42.40
7311 31.3484 1652.90 1755.98 42.90
7312 31.3521 1685.80 1755.92 43.10
7313 31.3559 1632.50 1755.86 42.30
7314 31.3597 1718.50 1755.80 42.80
7315 31.3634 1758.30 1755.74 44.10
7316 31.3672 1743.20 1755.67 43.90
7317 31.3709 1734.10 1755.61 43.40
7318 31.3747 1653.10 1755.55 42.70
7319 31.3784 1688.30 1755.49 43.20
7320 31.3822 1709.80 1755.42 43.70
7321 31.3860 1674.80 1755.36 42.00
7322 31.3897 1726.90 1755.30 43.90
7323 31.3935 1777.40 1755.24 43.90
7324 31.3972 1674.40 1755.17 42.60
7325 31.4010 1686.80 1755.11 42.90
7326 31.4047 1608.80 1755.05 42.20
7327 31.4085 1720.40 1754.99 44.00
7328 31.4122 1637.70 1754.92 42.60
7329 31.4160 1691.90 1754.86 42.80
7330 31.4198 1710.10 1754.80 42.80
7331 31.4235 1642.40 1754.74 41.90
7332 31.4273 1656.70 1754.67 43.30
7333 31.4310 1703.00 1754.61 43.00
7334 31.4348 1731.50 1754.55 43.80
7335 31.4385 1710.30 1754.48 43.50
7336 31.4423 1609.20 1754.42 42.50
7337 31.4461 1727.70 1754.36 43.60
7338 31.4498 1728.70 1754.29 43.40
7339 31.4536 1710.90 1754.23 43.10
7340 31.4573 1678.00 1754.17 43.20
7341 31.4611 1705.00 1754.11 42.90
7342 31.4648 1715.30 1754.04 43.60
7343 31.4686 1720.80 1753.98 42.50
7344 31.4723 1711.40 1753.92 42.70
7345 31.4761 1748.00 1753.85 44.10
7346 31.4799 1614.00 1753.79 42.00
7347 31.4836 1744.40 1753.73 43.60
7348 31.4874 1691.20 1753.66 43.00
7349 31.4911 1685.90 1753.60 43.00
7350 31.4949 1703.30 1753.53 42.80
7351 31.4986 1707.50 1753.47 43.10
7352 31.5024 1682.50 1753.41 43.10
7353 31.5061 1638.80 1753.34 42.50
7354 31.5099 1643.60 1753.28 42.10
7355 31.5137 1705.50 1753.22 43.00
7356 31.5174 1708.20 1753.15 43.20
7357 31.5212 1767.90 1753.09 44.50
7358 31.5249 1641.40 1753.02 42.70
7359 31.5287 1771.40 1752.96 44.20
7360 31.5324 1669.50 1752.90 43.90
7361 31.5362 1756.70 1752.83 44.50
7362 31.5399 1674.90 1752.77 42.60
7363 31.5437 1663.40 1752.70 42.50
7364 31.5475 1643.20 1752.64 43.00
7365 31.5512 1703.60 1752.58 43.50
7366 31.5550 1702.80 1752.51 42.50
7367 31.5587 1755.30 1752.45 44.40
7368 31.5625 1613.20 1752.38 41.20
7369 31.5662 1628.10 1752.32 42.30
7370 31.5700 1715.30 1752.25 43.60
7371 31.5737 1704.80 1752.19 42.90
7372 31.5775 1598.10 1752.12 41.80
7373 31.5813 1755.00 1752.06 44.70
7374 31.5850 1694.30 1752.00 43.10
7375 31.5888 1670.70 1751.93 43.60
7376 31.5925 1734.10 1751.87 43.50
7377 31.5963 1716.60 1751.80 43.30
7378 31.6000 1766.40 1751.74 44.10
7379 31.6038 1693.70 1751.67 43.30
7380 31.6075 1699.00 1751.61 43.10
7381 31.6113 1735.90 1751.54 43.60
7382 31.6151 1685.80 1751.48 43.00
7383 31.6188 1680.20 1751.41 42.20
7384 31.6226 1677.50 1751.35 43.40
7385 31.6263 1720.40 1751.28 44.10
7386 31.6301 1664.30 1751.22 43.30
7387 31.6338 1779.30 1751.15 44.60
7388 31.6376 1684.00 1751.09 43.50
7389 31.6413 1639.20 1751.02 41.90
7390 31.6451 1670.10 1750.96 43.20
7391 31.6488 1724.70 1750.89 42.80
7392 31.6526 1672.20 1750.82 43.10
7393 31.6564 1718.70 1750.76 44.00
7394 31.6601 1650.00 1750.69 42.30
7395 31.6639 1704.30 1750.63 43.80
7396 31.6676 1656.00 1750.56 42.90
7397 31.6714 1726.70 1750.50 43.40
7398 31.6751 1611.60 1750.43 42.20
7399 31.6789 1617.90 1750.37 42.40
7400 31.6826 1634.50 1750.30 42.50
7401 31.6864 1729.50 1750.23 44.20
7402 31.6902 1682.00 1750.17 43.30
7403 31.6939 1681.60 1750.10 43.50
7404 31.6977 1763.70 1750.04 43.90
7405 31.7014 1708.10 1749.97 43.60
7406 31.7052 1638.20 1749.90 41.90
7407 31.7089 1749.80 1749.84 44.40
7408 31.7127 1656.90 1749.77 42.70
7409 31.7164 1719.80 1749.71 43.30
7410 31.7202 1689.90 1749.64 43.60
7411 31.7239 1644.90 1749.57 42.80
7412 31.7277 1652.30 1749.51 42.90
7413 31.7315 1625.40 1749.44 42.60
7414 31.7352 1719.80 1749.37 43.60
7415 31.7390 1662.70 1749.31 42.30
7416 31.7427 1657.00 1749.24 42.90
7417 31.7465 1712.90 1749.17 43.80
7418 31.7502 1646.90 1749.11 42.30
7419 31.7540 1692.30 1749.04 43.40
7420 31.7577 1667.50 1748.97 43.20
7421 31.7615 1757.10 1748.91 44.10
7422 31.7652 1702.40 1748.84 43.50
7423 31.7690 1745.90 1748.77 44.30
7424 31.7728 1714.70 1748.71 43.70
7425 31.7765 1675.50 1748.64 43.40
7426 31.7803 1655.80 1748.57 41.90
7427 31.7840 1729.70 1748.51 44.00
7428 31.7878 1705.40 1748.44 43.70
7429 31.7915 1664.10 1748.37 43.10
7430 31.7953 1714.70 1748.30 42.50
7431 31.7990 1715.40 1748.24 44.00
7432 31.8028 1669.30 1748.17 42.70
7433 31.8065 1762.00 1748.10 44.20
7434 31.8103 1708.30 1748.03 43.50
7435 31.8141 1657.50 1747.97 42.90
7436 31.8178 1628.70 1747.90 42.30
7437 31.8216 1701.90 1747.83 43.60
7438 31.8253 1633.90 1747.76 42.50
7439 31.8291 1618.50 1747.70 42.00
7440 31.8328 1659.00 1747.63 42.60
7441 31.8366 1683.60 1747.56 43.30
7442 31.8403 1658.30 1747.49 43.10
7443 31.8441 1707.80 1747.43 43.50
7444 31.8479 1642.70 1747.36 43.10
7445 31.8516 1685.80 1747.29 42.90
7446 31.8554 1757.00 1747.22 43.30
7447 31.8591 1721.70 1747.15 44.10
7448 31.8629 1702.20 1747.09 42.70
7449 31.8666 1708.70 1747.02 43.90
7450 31.8704 1771.00 1746.95 44.30
7451 31.8741 1686.40 1746.88 43.70
7452 31.8779 1560.00 1746.81 41.50
7453 31.8816 1732.40 1746.74 43.50
7454 31.8854 1723.10 1746.68 43.40
7455 31.8891 1592.20 1746.61 42.00
7456 31.8929 1666.50 1746.54 42.80
7457 31.8967 1740.10 1746.47 43.10
7458 31.9004 1645.60 1746.40 42.00
7459 31.9042 1730.10 1746.33 43.80
7460 31.9079 1586.10 1746.27 41.10
7461 31.9117 1568.20 1746.20 41.10
7462 31.9154 1668.90 1746.13 42.40
7463 31.9192 1666.50 1746.06 42.90
7464 31.9229 1658.90 1745.99 42.90
7465 31.9267 1700.40 1745.92 42.90
7466 31.9304 1595.20 1745.85 42.50
7467 31.9342 1629.60 1745.78 42.60
7468 31.9379 1681.30 1745.71 42.70
7469 31.9417 1620.90 1745.64 42.30
7470 31.9454 1634.10 1745.58 42.60
7471 31.9492 1618.60 1745.51 41.30
7472 31.9530 1633.70 1745.44 42.20
7473 31.9567 1646.70 1745.37 42.40
7474 31.9605 1643.00 1745.30 42.10
7475 31.9642 1703.70 1745.23 43.70
7476 31.9680 1606.00 1745.16 42.00
7477 31.9717 1631.80 1745.09 42.50
7478 31.9755 1695.00 1745.02 43.20
7479 31.9792 1690.90 1744.95 43.10
7480 31.9830 1684.60 1744.88 42.80
7481 31.9867 1736.90 1744.81 43.00
7482 31.9905 1642.80 1744.74 42.70
7483 31.9942 1704.30 1744.67 42.80
7484 31.9961 1619.60 1744.64 42.30
7485 31.9999 1676.20 1744.57 42.50
7486 32.0037 1600.50 1744.50 41.60
7487 32.0074 1657.30 1744.43 42.50
7488 32.0112 1642.00 1744.36 42.80
7489 32.0149 1549.70 1744.29 41.50
7490 32.0187 1678.00 1744.22 42.90
7491 32.0224 1589.40 1744.15 42.70
7492 32.0262 1698.90 1744.08 43.80
7493 32.0299 1697.60 1744.00 42.90
7494 32.0337 1637.70 1743.93 42.10
7495 32.0375 1632.90 1743.86 42.80
7496 32.0412 1622.30 1743.79 42.40
7497 32.0450 1658.20 1743.72 41.90
7498 32.0487 1619.20 1743.65 42.50
7499 32.0525 1655.70 1743.58 41.80
7500 32.0562 1639.10 1743.51 42.50
7501 32.0600 1659.50 1743.44 42.90
7502 32.0638 1703.80 1743.37 42.90
7503 32.0675 1624.20 1743.30 42.20
7504 32.0713 1614.70 1743.23 42.80
7505 32.0750 1597.00 1743.16 41.80
7506 32.0788 1623.80 1743.09 43.00
7507 32.0825 1662.30 1743.01 42.60
7508 32.0863 1675.70 1742.94 42.70
7509 32.0900 1656.80 1742.87 42.70
7510 32.0938 1709.90 1742.80 43.50
7511 32.0975 1693.00 1742.73 43.00
7512 32.1013 1692.80 1742.66 43.10
7513 32.1051 1696.80 1742.59 43.20
7514 32.1088 1729.70 1742.52 42.90
7515 32.1126 1673.40 1742.44 43.40
7516 32.1163 1670.80 1742.37 43.40
7517 32.1201 1627.20 1742.30 42.80
7518 32.1238 1615.20 1742.23 42.40
7519 32.1276 1602.70 1742.16 42.40
7520 32.1314 1664.60 1742.09 42.20
7521 32.1351 1609.80 1742.01 42.40
7522 32.1389 1632.30 1741.94 41.60
7523 32.1426 1578.60 1741.87 41.90
7524 32.1464 1708.40 1741.80 43.90
7525 32.1501 1639.10 1741.73 42.10
7526 32.1539 1680.60 1741.65 43.50
7527 32.1576 1686.50 1741.58 43.30
7528 32.1614 1732.60 1741.51 43.40
7529 32.1651 1656.10 1741.44 42.80
7530 32.1689 1641.20 1741.36 42.70
7531 32.1726 1684.10 1741.29 43.20
7532 32.1764 1677.00 1741.22 43.50
7533 32.1802 1612.70 1741.15 42.30
7534 32.1839 1659.00 1741.07 43.20
7535 32.1877 1565.60 1741.00 41.20
7536 32.1914 1661.30 1740.93 43.00
7537 32.1952 1659.80 1740.86 42.20
7538 32.1989 1728.20 1740.78 44.10
7539 32.2027 1681.10 1740.71 43.00
7540 32.2065 1692.90 1740.64 43.00
7541 32.2102 1588.20 1740.57 42.20
7542 32.2140 1653.10 1740.49 42.90
7543 32.2177 1596.30 1740.42 42.10
7544 32.2215 1679.50 1740.35 43.30
7545 32.2252 1641.90 1740.27 42.60
7546 32.2282 1616.80 1740.22 42.00
7547 32.2319 1552.60 1740.14 41.00
7548 32.2357 1634.90 1740.07 41.60
7549 32.2394 1684.50 1740.00 43.30
7550 32.2432 1677.80 1739.92 43.10
7551 32.2469 1659.70 1739.85 42.60
7552 32.2507 1726.10 1739.78 44.00
7553 32.2544 1711.50 1739.70 43.40
7554 32.2582 1640.60 1739.63 42.40
7555 32.2619 1723.00 1739.56 43.70
7556 32.2657 1670.80 1739.48 43.00
7557 32.2695 1696.60 1739.41 43.20
7558 32.2732 1675.00 1739.33 43.30
7559 32.2770 1740.30 1739.26 43.90
7560 32.2807 1628.30 1739.19 42.60
7561 32.2845 1629.40 1739.11 42.30
7562 32.2882 1614.90 1739.04 42.40
7563 32.2920 1705.10 1738.96 43.50
7564 32.2957 1660.20 1738.89 43.00
7565 32.2995 1668.80 1738.82 43.10
7566 32.3032 1612.00 1738.74 42.40
7567 32.3070 1652.60 1738.67 42.70
7568 32.3107 1633.60 1738.59 42.80
7569 32.3145 1628.90 1738.52 42.50
7570 32.3182 1670.20 1738.44 42.70
7571 32.3220 1687.20 1738.37 42.90
7572 32.3258 1626.70 1738.30 42.20
7573 32.3295 1630.90 1738.22 42.80
7574 32.3333 1605.60 1738.15 42.40
7575 32.3370 1623.80 1738.07 42.80
7576 32.3408 1600.70 1738.00 42.10
7577 32.3445 1733.20 1737.92 43.40
7578 32.3483 1664.10 1737.85 43.10
7579 32.3520 1596.40 1737.77 42.20
7580 32.3558 1561.00 1737.70 41.90
7581 32.3595 1685.60 1737.62 43.20
7582 32.3633 1643.40 1737.55 42.60
7583 32.3671 1653.60 1737.47 43.00
7584 32.3708 1583.70 1737.40 42.00
7585 32.3746 1633.30 1737.32 42.60
7586 32.3783 1643.30 1737.25 42.70
7587 32.3821 1777.90 1737.17 44.50
7588 32.3858 1627.90 1737.10 42.70
7589 32.3896 1647.00 1737.02 42.40
7590 32.3933 1599.60 1736.94 42.00
7591 32.3971 1732.50 1736.87 44.10
7592 32.4008 1622.70 1736.79 42.30
7593 32.4046 1674.50 1736.72 43.00
7594 32.4084 1617.70 1736.64 42.40
7595 32.4121 1689.20 1736.57 43.50
7596 32.4159 1595.30 1736.49 42.00
7597 32.4196 1633.40 1736.41 42.50
7598 32.4234 1705.10 1736.34 43.50
7599 32.4271 1684.90 1736.26 43.80
7600 32.4309 1581.50 1736.18 42.20
7601 32.4346 1671.50 1736.11 42.80
7602 32.4384 1581.30 1736.03 42.00
7603 32.4421 1608.60 1735.96 42.60
7604 32.4459 1629.70 1735.88 42.90
7605 32.4496 1672.80 1735.80 43.30
7606 32.4534 1586.90 1735.73 42.50
7607 32.4572 1647.70 1735.65 43.10
7608 32.4609 1615.90 1735.57 41.70
7609 32.4647 1650.80 1735.50 42.90
7610 32.4684 1546.90 1735.42 41.30
7611 32.4722 1628.70 1735.34 42.40
7612 32.4759 1590.10 1735.27 41.90
7613 32.4797 1693.90 1735.19 43.50
7614 32.4834 1607.00 1735.11 42.70
7615 32.4872 1592.50 1735.04 42.00
7616 32.4910 1671.10 1734.96 43.50
7617 32.4947 1610.70 1734.88 42.20
7618 32.4985 1673.20 1734.80 43.10
7619 32.5022 1647.70 1734.73 42.30
7620 32.5060 1622.70 1734.65 42.90
7621 32.5097 1704.30 1734.57 43.10
7622 32.5135 1657.70 1734.50 43.10
7623 32.5172 1716.60 1734.42 43.50
7624 32.5210 1590.70 1734.34 41.60
7625 32.5247 1675.30 1734.26 43.10
7626 32.5285 1680.60 1734.19 43.70
7627 32.5323 1623.90 1734.11 42.80
7628 32.5360 1586.40 1734.03 41.70
7629 32.5398 1617.60 1733.95 42.70
7630 32.5435 1641.80 1733.87 42.90
7631 32.5473 1662.00 1733.80 42.90
7632 32.5510 1568.70 1733.72 41.30
7633 32.5548 1645.60 1733.64 42.10
7634 32.5585 1638.20 1733.56 42.70
7635 32.5623 1620.80 1733.48 42.30
7636 32.5661 1570.20 1733.41 42.20
7637 32.5698 1656.90 1733.33 42.70
7638 32.5736 1683.90 1733.25 43.20
7639 32.5773 1680.80 1733.17 43.10
7640 32.5811 1588.20 1733.09 42.10
7641 32.5848 1668.40 1733.01 42.60
7642 32.5886 1628.10 1732.94 41.90
7643 32.5923 1599.50 1732.86 42.70
7644 32.5961 1674.90 1732.78 43.80
7645 32.5998 1688.20 1732.70 43.20
7646 32.6036 1562.70 1732.62 42.20
7647 32.6074 1733.80 1732.54 44.20
7648 32.6111 1547.70 1732.46 41.50
7649 32.6149 1642.70 1732.38 42.90
7650 32.6186 1595.50 1732.30 42.10
7651 32.6224 1579.70 1732.22 42.10
7652 32.6261 1575.00 1732.15 42.10
7653 32.6299 1698.60 1732.07 43.50
7654 32.6337 1603.90 1731.99 41.80
7655 32.6374 1747.80 1731.91 44.30
7656 32.6412 1721.10 1731.83 44.20
7657 32.6449 1702.50 1731.75 43.70
7658 32.6487 1624.60 1731.67 42.30
7659 32.6524 1662.60 1731.59 42.90
7660 32.6562 1621.10 1731.51 42.30
7661 32.6599 1682.60 1731.43 43.30
7662 32.6637 1599.80 1731.35 42.60
7663 32.6674 1630.90 1731.27 42.70
7664 32.6712 1560.40 1731.19 42.00
7665 32.6750 1678.00 1731.11 43.60
7666 32.6787 1556.80 1731.03 41.40
7667 32.6825 1660.30 1730.95 42.90
7668 32.6862 1633.90 1730.87 43.70
7669 32.6900 1641.10 1730.79 42.40
7670 32.6937 1578.70 1730.71 41.30
7671 32.6975 1693.10 1730.63 42.80
7672 32.7013 1709.20 1730.55 43.30
7673 32.7050 1583.40 1730.47 41.20
7674 32.7088 1640.20 1730.39 41.70
7675 32.7125 1576.60 1730.31 41.50
7676 32.7163 1572.70 1730.23 41.40
7677 32.7200 1660.30 1730.15 42.50
7678 32.7238 1600.20 1730.07 41.50
7679 32.7276 1666.90 1729.99 42.70
7680 32.7313 1643.00 1729.91 42.20
7681 32.7351 1692.80 1729.82 43.00
7682 32.7388 1530.00 1729.74 40.90
7683 32.7426 1714.40 1729.66 42.50
7684 32.7463 1600.10 1729.58 41.70
7685 32.7501 1690.10 1729.50 42.90
7686 32.7538 1684.10 1729.42 43.20
7687 32.7576 1676.00 1729.34 43.00
7688 32.7613 1585.10 1729.26 42.10
7689 32.7651 1624.20 1729.18 42.00
7690 32.7689 1635.40 1729.09 41.70
7691 32.7726 1664.40 1729.01 42.60
7692 32.7764 1593.10 1728.93 42.20
7693 32.7801 1645.50 1728.85 42.00
7694 32.7839 1662.60 1728.77 42.90
7695 32.7876 1592.40 1728.69 42.00
7696 32.7914 1654.30 1728.60 42.30
7697 32.7952 1715.90 1728.52 43.40
7698 32.7989 1666.50 1728.44 42.50
7699 32.8027 1608.60 1728.36 41.50
7700 32.8064 1610.70 1728.28 42.20
7701 32.8102 1598.10 1728.19 41.70
7702 32.8139 1617.70 1728.11 42.50
7703 32.8177 1504.20 1728.03 40.60
7704 32.8214 1603.00 1727.95 42.10
7705 32.8252 1668.50 1727.87 42.40
7706 32.8290 1662.20 1727.78 42.60
7707 32.8327 1719.90 1727.70 43.30
7708 32.8365 1600.00 1727.62 41.70
7709 32.8402 1666.30 1727.54 42.90
7710 32.8440 1638.40 1727.45 42.30
7711 32.8477 1719.20 1727.37 43.40
7712 32.8515 1592.10 1727.29 41.80
7713 32.8553 1610.80 1727.20 41.70
7714 32.8590 1650.20 1727.12 42.10
7715 32.8628 1656.70 1727.04 42.30
7716 32.8665 1535.00 1726.96 40.60
7717 32.8703 1613.20 1726.87 41.90
7718 32.8740 1627.40 1726.79 42.50
7719 32.8778 1633.30 1726.71 42.30
7720 32.8815 1607.70 1726.62 41.80
7721 32.8853 1635.60 1726.54 42.10
7722 32.8891 1586.00 1726.46 41.60
7723 32.8928 1654.80 1726.37 42.80
7724 32.8966 1709.40 1726.29 43.30
7725 32.9003 1683.50 1726.21 43.40
7726 32.9041 1597.60 1726.12 42.20
7727 32.9078 1693.30 1726.04 42.70
7728 32.9116 1658.70 1725.96 42.00
7729 32.9154 1679.20 1725.87 42.80
7730 32.9191 1613.30 1725.79 42.20
7731 32.9229 1678.30 1725.70 43.00
7732 32.9266 1632.30 1725.62 42.30
7733 32.9304 1625.50 1725.54 42.60
7734 32.9342 1570.50 1725.45 41.40
7735 32.9379 1651.20 1725.37 42.30
7736 32.9417 1644.80 1725.28 41.70
7737 32.9454 1604.50 1725.20 41.70
7738 32.9492 1596.50 1725.11 41.60
7739 32.9529 1599.70 1725.03 41.70
7740 32.9567 1625.80 1724.95 42.40
7741 32.9604 1629.90 1724.86 42.10
7742 32.9642 1675.60 1724.78 42.30
7743 32.9680 1581.00 1724.69 41.80
7744 32.9717 1548.80 1724.61 41.20
7745 32.9755 1617.80 1724.52 42.40
7746 32.9792 1601.20 1724.44 42.20
7747 32.9830 1645.30 1724.35 42.20
7748 32.9867 1647.60 1724.27 42.80
7749 32.9905 1649.00 1724.18 42.70
7750 32.9943 1634.10 1724.10 42.90
7751 32.9980 1661.80 1724.01 42.90
7752 33.0018 1626.90 1723.93 41.80
7753 33.0055 1657.40 1723.84 43.20
7754 33.0093 1635.10 1723.76 42.80
7755 33.0131 1608.90 1723.67 41.90
7756 33.0168 1603.20 1723.59 42.50
7757 33.0206 1648.30 1723.50 42.80
7758 33.0243 1646.30 1723.42 42.50
7759 33.0281 1633.60 1723.33 42.70
7760 33.0318 1587.60 1723.24 41.80
7761 33.0356 1611.10 1723.16 41.80
7762 33.0393 1563.10 1723.07 41.40
7763 33.0431 1660.20 1722.99 42.70
7764 33.0469 1674.30 1722.90 43.20
7765 33.0506 1691.40 1722.81 43.30
7766 33.0544 1580.10 1722.73 42.00
7767 33.0581 1650.20 1722.64 43.10
7768 33.0619 1579.30 1722.56 42.10
7769 33.0657 1710.50 1722.47 43.70
7770 33.0694 1564.60 1722.38 41.70
7771 33.0732 1647.60 1722.30 42.90
7772 33.0769 1593.00 1722.21 41.80
7773 33.0807 1647.10 1722.12 42.20
7774 33.0844 1637.20 1722.04 42.60
7775 33.0882 1606.80 1721.95 42.20
7776 33.0919 1626.30 1721.86 42.40
7777 33.0957 1653.00 1721.78 42.00
7778 33.0995 1595.10 1721.69 42.50
7779 33.1032 1646.00 1721.60 42.50
7780 33.1070 1643.70 1721.52 43.20
7781 33.1107 1645.60 1721.43 43.00
7782 33.1145 1640.80 1721.34 42.90
7783 33.1183 1663.00 1721.26 42.70
7784 33.1220 1599.10 1721.17 42.10
7785 33.1258 1600.10 1721.08 42.00
7786 33.1295 1601.70 1720.99 42.30
7787 33.1333 1604.80 1720.91 41.90
7788 33.1370 1675.80 1720.82 43.00
7789 33.1408 1600.10 1720.73 42.10
7790 33.1446 1599.10 1720.65 41.70
7791 33.1483 1709.10 1720.56 43.30
7792 33.1521 1608.30 1720.47 42.30
7793 33.1558 1560.90 1720.38 41.40
7794 33.1596 1574.90 1720.29 42.00
7795 33.1633 1626.40 1720.21 42.60
7796 33.1671 1586.00 1720.12 42.70
7797 33.1709 1628.50 1720.03 42.80
7798 33.1746 1543.30 1719.94 41.70
7799 33.1784 1614.70 1719.85 41.90
7800 33.1821 1587.00 1719.77 41.90
7801 33.1859 1578.60 1719.68 40.80
7802 33.1896 1567.40 1719.59 41.60
7803 33.1934 1682.30 1719.50 43.30
7804 33.1972 1684.70 1719.41 43.80
7805 33.2009 1638.60 1719.32 42.40
7806 33.2047 1601.00 1719.24 42.30
7807 33.2084 1672.70 1719.15 43.30
7808 33.2122 1606.60 1719.06 42.40
7809 33.2160 1606.10 1718.97 41.20
7810 33.2197 1641.20 1718.88 41.90
7811 33.2235 1625.50 1718.79 42.40
7812 33.2272 1589.50 1718.70 41.70
7813 33.2310 1624.20 1718.61 41.90
7814 33.2347 1581.20 1718.53 41.80
7815 33.2385 1703.40 1718.44 42.50
7816 33.2422 1583.20 1718.35 41.80
7817 33.2460 1631.20 1718.26 43.00
7818 33.2498 1661.00 1718.17 42.70
7819 33.2535 1672.60 1718.08 43.10
7820 33.2573 1651.70 1717.99 42.90
7821 33.2610 1632.60 1717.90 42.40
7822 33.2648 1561.00 1717.81 41.40
7823 33.2686 1613.10 1717.72 42.20
7824 33.2723 1589.20 1717.63 41.80
7825 33.2761 1632.00 1717.54 42.70
7826 33.2798 1626.50 1717.45 42.00
7827 33.2836 1651.40 1717.36 42.40
7828 33.2873 1645.70 1717.27 42.90
7829 33.2911 1678.10 1717.18 42.20
7830 33.2949 1614.60 1717.09 42.50
7831 33.2986 1635.70 1717.00 42.20
7832 33.3024 1702.80 1716.91 43.10
7833 33.3061 1631.50 1716.82 42.50
7834 33.3099 1588.90 1716.73 41.80
7835 33.3137 1693.90 1716.64 43.50
7836 33.3174 1577.30 1716.55 41.90
7837 33.3212 1607.30 1716.46 42.20
7838 33.3249 1645.20 1716.37 42.80
7839 33.3287 1591.70 1716.28 42.10
7840 33.3325 1565.50 1716.19 41.80
7841 33.3362 1641.60 1716.10 42.40
7842 33.3400 1594.30 1716.01 42.20
7843 33.3437 1641.70 1715.92 42.50
7844 33.3475 1679.90 1715.83 43.80
7845 33.3512 1645.00 1715.73 42.30
7846 33.3550 1639.20 1715.64 42.60
7847 33.3587 1610.20 1715.55 42.10
7848 33.3625 1603.00 1715.46 42.50
7849 33.3663 1592.10 1715.37 41.90
7850 33.3700 1620.80 1715.28 42.50
7851 33.3738 1661.80 1715.19 43.10
7852 33.3775 1570.50 1715.10 41.60
7853 33.3813 1604.20 1715.00 42.10
7854 33.3851 1619.90 1714.91 42.40
7855 33.3888 1712.20 1714.82 43.60
7856 33.3926 1590.90 1714.73 41.80
7857 33.3963 1678.60 1714.64 43.10
7858 33.4001 1604.10 1714.55 42.20
7859 33.4039 1608.10 1714.45 42.50
7860 33.4076 1587.80 1714.36 41.80
7861 33.4114 1697.70 1714.27 43.70
7862 33.4151 1607.10 1714.18 42.30
7863 33.4189 1722.10 1714.09 43.90
7864 33.4226 1611.70 1713.99 42.50
7865 33.4264 1658.80 1713.90 42.70
7866 33.4302 1644.40 1713.81 42.90
7867 33.4339 1664.40 1713.72 43.10
7868 33.4377 1609.10 1713.63 42.20
7869 33.4414 1674.20 1713.53 42.90
7870 33.4452 1633.10 1713.44 42.60
7871 33.4490 1574.50 1713.35 41.90
7872 33.4527 1561.70 1713.26 41.70
7873 33.4565 1710.80 1713.16 43.70
7874 33.4602 1649.90 1713.07 42.80
7875 33.4640 1642.80 1712.98 43.20
7876 33.4678 1617.60 1712.88 42.40
7877 33.4715 1636.60 1712.79 42.90
7878 33.4753 1586.50 1712.70 42.00
7879 33.4790 1609.00 1712.60 42.00
7880 33.4828 1605.30 1712.51 42.30
7881 33.4865 1672.60 1712.42 42.70
7882 33.4903 1585.60 1712.32 42.00
7883 33.4941 1725.40 1712.23 43.20
7884 33.4978 1597.50 1712.14 42.30
7885 33.5016 1609.40 1712.04 42.30
7886 33.5053 1674.00 1711.95 42.80
7887 33.5091 1604.70 1711.86 42.00
7888 33.5129 1566.00 1711.76 41.60
7889 33.5166 1609.40 1711.67 42.00
7890 33.5204 1613.90 1711.58 42.80
7891 33.5241 1585.20 1711.48 41.80
7892 33.5279 1542.80 1711.39 41.20
7893 33.5316 1636.20 1711.29 42.60
7894 33.5354 1572.20 1711.20 41.90
7895 33.5392 1571.40 1711.11 42.10
7896 33.5429 1562.70 1711.01 41.50
7897 33.5467 1630.70 1710.92 42.30
7898 33.5504 1565.10 1710.82 42.00
7899 33.5542 1621.30 1710.73 42.70
7900 33.5579 1582.60 1710.64 41.50
7901 33.5617 1611.20 1710.54 41.90
7902 33.5655 1648.20 1710.45 43.10
7903 33.5692 1662.40 1710.35 42.70
7904 33.5730 1645.50 1710.26 43.00
7905 33.5768 1605.40 1710.16 41.80
7906 33.5805 1665.60 1710.07 43.10
7907 33.5843 1706.30 1709.97 43.60
7908 33.5880 1590.60 1709.88 42.20
7909 33.5918 1539.90 1709.78 41.60
7910 33.5955 1672.30 1709.69 42.90
7911 33.5993 1593.20 1709.59 41.70
7912 33.6031 1608.70 1709.50 41.60
7913 33.6068 1666.20 1709.40 43.40
7914 33.6106 1610.60 1709.31 42.50
7915 33.6143 1656.50 1709.21 42.90
7916 33.6181 1586.60 1709.12 41.90
7917 33.6218 1642.50 1709.02 42.90
7918 33.6256 1640.50 1708.92 43.00
7919 33.6294 1624.10 1708.83 42.40
7920 33.6331 1535.30 1708.73 41.20
7921 33.6369 1687.00 1708.64 43.50
7922 33.6407 1583.60 1708.54 41.80
7923 33.6444 1558.00 1708.45 41.50
7924 33.6482 1681.90 1708.35 44.50
7925 33.6519 1615.40 1708.25 40.30
7926 33.6557 1634.40 1708.16 40.60
7927 33.6594 1600.80 1708.06 40.60
7928 33.6632 1612.40 1707.97 41.00
7929 33.6670 1630.50 1707.87 41.10
7930 33.6707 1583.30 1707.77 40.00
7931 33.6745 1668.20 1707.68 41.10
7932 33.6782 1614.30 1707.58 40.60
7933 33.6820 1664.80 1707.48 41.40
7934 33.6858 1664.20 1707.39 41.30
7935 33.6895 1734.30 1707.29 42.40
7936 33.6933 1658.80 1707.19 41.50
7937 33.6970 1658.00 1707.10 41.50
7938 33.7008 1644.60 1707.00 41.00
7939 33.7046 1713.60 1706.90 42.20
7940 33.7083 1573.20 1706.81 40.30
7941 33.7121 1732.80 1706.71 42.30
7942 33.7158 1539.90 1706.61 40.00
7943 33.7196 1635.10 1706.51 41.00
7944 33.7234 1618.30 1706.42 40.60
7945 33.7271 1652.30 1706.32 41.30
7946 33.7309 1637.60 1706.22 41.00
7947 33.7346 1663.70 1706.13 41.50
7948 33.7384 1627.50 1706.03 41.30
7949 33.7421 1717.30 1705.93 42.20
7950 33.7459 1618.90 1705.83 41.00
7951 33.7497 1696.20 1705.74 42.00
7952 33.7534 1632.50 1705.64 41.00
7953 33.7572 1622.90 1705.54 41.20
7954 33.7609 1627.00 1705.44 41.20
7955 33.7647 1700.30 1705.34 42.20
7956 33.7685 1627.40 1705.25 41.00
7957 33.7722 1684.40 1705.15 41.90
7958 33.7760 1621.60 1705.05 41.20
7959 33.7797 1605.70 1704.95 41.00
7960 33.7835 1691.20 1704.85 41.80
7961 33.7873 1655.10 1704.76 41.60
7962 33.7910 1646.50 1704.66 41.20
7963 33.7948 1604.50 1704.56 40.90
7964 33.7985 1672.20 1704.46 42.10
7965 33.8023 1692.70 1704.36 42.00
7966 33.8060 1621.90 1704.26 40.80
7967 33.8098 1639.70 1704.16 41.40
7968 33.8136 1621.00 1704.07 40.80
7969 33.8173 1632.70 1703.97 41.50
7970 33.8211 1610.10 1703.87 41.00
7971 33.8248 1692.00 1703.77 41.90
7972 33.8286 1615.80 1703.67 41.00
7973 33.8324 1673.50 1703.57 41.90
7974 33.8361 1600.70 1703.47 40.90
7975 33.8399 1642.10 1703.37 41.50
7976 33.8436 1653.30 1703.27 41.20
7977 33.8474 1695.70 1703.17 42.00
7978 33.8512 1675.20 1703.08 41.90
7979 33.8549 1658.90 1702.98 41.80
7980 33.8587 1661.70 1702.88 41.50
7981 33.8624 1645.60 1702.78 41.60
7982 33.8662 1683.20 1702.68 41.60
7983 33.8700 1683.00 1702.58 41.80
7984 33.8737 1600.10 1702.48 41.00
7985 33.8775 1681.50 1702.38 42.10
7986 33.8812 1670.30 1702.28 41.60
7987 33.8850 1711.10 1702.18 42.10
7988 33.8888 1687.60 1702.08 41.80
7989 33.8925 1671.50 1701.98 41.90
7990 33.8963 1624.00 1701.88 41.20
7991 33.9000 1709.70 1701.78 42.30
7992 33.9038 1544.70 1701.68 40.20
7993 33.9076 1737.00 1701.58 42.50
7994 33.9113 1644.70 1701.48 41.40
7995 33.9151 1639.80 1701.38 41.40
7996 33.9188 1639.80 1701.28 41.50
7997 33.9226 1781.40 1701.18 43.40
7998 33.9263 1681.60 1701.08 41.40
7999 33.9301 1724.90 1700.97 42.80
8000 33.9339 1639.00 1700.87 41.00
8001 33.9376 1703.20 1700.77 42.30
8002 33.9414 1730.40 1700.67 42.30
8003 33.9451 1753.70 1781.28 43.00
8004 33.9489 1609.40 1782.83 41.10
8005 33.9527 1708.30 1784.44 42.60
8006 33.9564 1639.40 1786.10 41.50
8007 33.9602 1749.60 1787.83 42.90
8008 33.9640 1616.70 1789.60 41.10
8009 33.9677 1694.10 1791.44 42.60
8010 33.9715 1675.10 1793.34 42.00
8011 33.9752 1800.10 1795.31 43.50
8012 33.9790 1631.70 1797.34 41.50
8013 33.9827 1784.90 1799.46 43.20
8014 33.9865 1722.10 1801.64 42.40
8015 33.9903 1771.30 1803.90 43.00
8016 33.9940 1767.40 1806.25 43.30
8017 33.9978 1804.50 1808.69 43.80
8018 34.0015 1765.10 1811.21 43.20
8019 34.0053 1695.30 1813.83 42.20
8020 34.0091 1688.70 1816.56 42.30
8021 34.0128 1734.30 1819.38 42.30
8022 34.0166 1635.50 1822.32 41.50
8023 34.0203 1775.00 1825.38 43.40
8024 34.0241 1696.90 1828.55 42.40
8025 34.0279 1752.00 1831.85 43.10
8026 34.0316 1761.20 1835.30 42.80
8027 34.0354 1802.50 1838.88 43.40
8028 34.0391 1785.20 1842.61 43.60
8029 34.0429 1784.80 1846.51 43.70
8030 34.0467 1710.00 1850.57 42.30
8031 34.0504 1803.30 1854.80 44.00
8032 34.0542 1835.00 1859.23 44.00
8033 34.0579 1815.70 1863.86 43.50
8034 34.0617 1846.60 1868.69 44.00
8035 34.0655 1892.50 1873.75 44.80
8036 34.0692 1800.80 1879.04 43.60
8037 34.0730 1821.10 1884.58 44.20
8038 34.0767 1810.70 1890.40 43.50
8039 34.0805 1855.70 1896.48 44.30
8040 34.0843 1898.50 1902.89 44.80
8041 34.0880 1889.50 1909.61 44.90
8042 34.0918 1901.50 1916.66 45.00
8043 34.0955 1946.80 1924.10 45.70
8044 34.0993 1890.60 1931.90 44.50
8045 34.1031 1861.80 1940.16 44.70
8046 34.1068 1953.70 1948.87 45.20
8047 34.1106 1903.10 1958.03 44.90
8048 34.1143 1925.90 1967.74 46.10
8049 34.1181 1994.90 1978.00 45.80
8050 34.1218 1898.50 1988.85 44.80
8051 34.1256 1985.00 2000.38 45.70
8052 34.1294 1982.00 2012.60 46.10
8053 34.1331 2080.50 2025.57 47.60
8054 34.1369 1996.70 2039.39 46.80
8055 34.1407 2150.80 2054.10 48.60
8056 34.1444 2027.50 2069.76 47.00
8057 34.1482 2093.60 2086.52 47.70
8058 34.1519 2105.30 2104.42 47.90
8059 34.1557 2172.20 2123.58 48.70
8060 34.1595 2203.00 2144.16 48.80
8061 34.1632 2238.00 2166.25 49.70
8062 34.1670 2262.90 2190.00 50.10
8063 34.1707 2323.20 2215.65 50.70
8064 34.1745 2248.10 2243.30 49.80
8065 34.1782 2328.10 2273.26 50.50
8066 34.1820 2348.70 2305.77 50.60
8067 34.1858 2436.00 2341.04 51.60
8068 34.1895 2456.40 2379.50 52.10
8069 34.1933 2564.00 2421.54 53.20
8070 34.1970 2481.40 2467.49 52.60
8071 34.2008 2650.20 2517.98 53.90
8072 34.2046 2649.70 2573.63 54.50
8073 34.2083 2706.40 2634.99 54.40
8074 34.2121 2900.60 2703.05 56.50
8075 34.2159 2996.30 2778.83 56.20
8076 34.2196 2968.50 2863.27 57.50
8077 34.2234 3151.00 2958.02 59.20
8078 34.2271 3186.40 3064.81 60.00
8079 34.2309 3344.10 3185.40 61.10
8080 34.2346 3406.30 3322.64 62.30
8081 34.2384 3627.50 3479.73 63.50
8082 34.2422 3855.90 3660.12 66.40
8083 34.2459 4050.30 3869.18 67.80
8084 34.2497 4204.20 4113.26 68.30
8085 34.2534 4435.30 4399.70 71.80
8086 34.2572 4828.40 4739.68 75.10
8087 34.2610 5449.20 5147.21 78.70
8088 34.2647 5680.70 5638.73 81.30
8089 34.2685 6211.50 6244.25 86.20
8090 34.2723 6909.50 6998.85 90.60
8091 34.2760 7934.60 7958.69 97.60
8092 34.2798 9044.40 9234.99 104.60
8093 34.2835 10641.50 11012.30 113.90
8094 34.2873 12629.90 13627.40 126.40
8095 34.2910 16151.50 17690.20 143.50
8096 34.2948 20860.90 24053.80 168.10
8097 34.2986 29423.30 33722.90 204.00
8098 34.3023 41806.80 47665.70 246.90
8099 34.3061 62559.10 65825.60 321.10
8100 34.3098 83022.70 86366.30 377.40
8101 34.3136 100800.00 103020.00 426.00
8102 34.3174 104595.00 106777.00 439.20
8103 34.3211 99754.60 94959.30 421.40
8104 34.3249 80521.60 75161.30 369.80
8105 34.3286 59891.50 55514.60 308.80
8106 34.3324 40216.90 39515.10 243.90
8107 34.3362 27684.20 27977.60 195.90
8108 34.3399 19709.40 20249.40 161.80
8109 34.3437 15423.00 15252.60 141.40
8110 34.3475 11894.60 12067.20 122.10
8111 34.3512 10179.60 9966.64 111.00
8112 34.3550 8425.90 8490.57 100.70
8113 34.3587 7511.60 7402.69 94.30
8114 34.3625 6579.20 6565.05 86.90
8115 34.3662 6089.70 5896.05 84.80
8116 34.3700 5143.50 5355.95 76.90
8117 34.3738 5003.30 4913.37 76.10
8118 34.3775 4563.10 4543.51 71.70
8119 34.3813 4263.80 4234.64 70.20
8120 34.3850 3934.20 3972.11 67.70
8121 34.3888 3859.70 3747.23 66.10
8122 34.3926 3711.20 3554.68 64.70
8123 34.3963 3635.40 3387.27 64.10
8124 34.4001 3366.50 3240.87 61.50
8125 34.4038 3190.60 3113.11 60.10
8126 34.4076 3041.20 3000.08 58.30
8127 34.4114 3110.80 2899.63 58.70
8128 34.4151 2851.10 2810.67 56.20
8129 34.4189 2914.80 2730.88 56.90
8130 34.4226 2728.70 2659.06 55.10
8131 34.4264 2694.60 2594.68 54.50
8132 34.4302 2600.40 2536.30 53.40
8133 34.4339 2582.10 2483.21 52.80
8134 34.4377 2562.50 2435.15 53.00
8135 34.4414 2587.90 2391.17 53.40
8136 34.4452 2394.70 2350.82 51.50
8137 34.4490 2385.60 2314.01 51.40
8138 34.4527 2293.40 2280.06 50.10
8139 34.4565 2325.50 2248.68 50.20
8140 34.4602 2262.00 2219.86 50.10
8141 34.4640 2263.80 2193.11 50.00
8142 34.4678 2102.50 2168.23 47.80
8143 34.4715 2125.10 2145.24 47.80
8144 34.4753 2078.70 2123.79 47.70
8145 34.4790 2147.80 2103.73 48.40
8146 34.4828 2140.00 2085.10 48.20
8147 34.4866 2167.40 2067.62 48.30
8148 34.4903 2037.90 2051.21 47.20
8149 34.4941 2031.80 2035.90 46.90
8150 34.4978 1993.60 2021.48 46.30
8151 34.5016 1918.20 2007.87 45.20
8152 34.5054 1962.80 1995.13 45.70
8153 34.5091 2001.00 1983.09 46.80
8154 34.5129 1887.90 1971.69 45.40
8155 34.5166 1967.90 1960.97 46.30
8156 34.5204 1919.10 1950.80 45.60
8157 34.5242 1903.00 1941.15 45.30
8158 34.5279 1908.50 1932.05 45.50
8159 34.5317 1968.20 1923.39 46.50
8160 34.5354 1785.60 1915.14 43.40
8161 34.5392 1909.90 1907.34 45.00
8162 34.5430 1827.10 1899.89 44.50
8163 34.5467 1821.00 1892.79 44.00
8164 34.5505 1831.90 1886.05 44.50
8165 34.5542 1886.60 1879.59 45.00
8166 34.5580 1723.50 1873.43 43.10
8167 34.5618 1822.50 1867.57 44.60
8168 34.5655 1794.30 1861.94 43.90
8169 34.5693 1785.50 1856.56 43.60
8170 34.5730 1773.70 1851.43 43.70
8171 34.5768 1756.40 1846.48 43.50
8172 34.5806 1687.70 1841.75 42.60
8173 34.5843 1772.40 1837.23 43.90
8174 34.5881 1711.90 1832.87 42.70
8175 34.5919 1788.50 1828.68 43.70
8176 34.5956 1731.70 1824.67 43.00
8177 34.5994 1779.70 1820.80 43.80
8178 34.6031 1754.30 1817.08 43.10
8179 34.6069 1769.70 1813.51 43.30
8180 34.6106 1686.20 1810.05 43.00
8181 34.6144 1734.30 1806.73 43.70
8182 34.6182 1690.60 1803.53 43.10
8183 34.6219 1760.10 1800.43 43.90
8184 34.6257 1667.80 1797.45 42.40
8185 34.6294 1788.40 1794.58 44.40
8186 34.6332 1762.70 1791.79 44.00
8187 34.6370 1769.70 1789.10 44.20
8188 34.6407 1689.50 1786.50 43.20
8189 34.6445 1803.10 1783.98 44.40
8190 34.6483 1734.90 1781.54 43.40
8191 34.6520 1761.30 1779.19 43.90
8192 34.6558 1710.90 1776.90 43.50
8193 34.6595 1633.40 1774.69 42.20
8194 34.6633 1638.70 1772.55 41.60
8195 34.6670 1736.50 1770.46 43.60
8196 34.6708 1696.30 1768.45 43.00
8197 34.6746 1715.20 1766.49 43.10
8198 34.6783 1681.60 1764.59 43.40
8199 34.6821 1681.70 1762.74 43.30
8200 34.6858 1722.70 1760.95 43.60
8201 34.6896 1750.80 1759.20 43.70
8202 34.6934 1650.00 1679.26 42.20
8203 34.6971 1720.50 1679.14 43.30
8204 34.7009 1709.40 1679.03 43.30
8205 34.7047 1719.90 1678.92 43.40
8206 34.7084 1653.10 1678.80 42.70
8207 34.7122 1734.70 1678.69 43.50
8208 34.7159 1640.40 1678.58 42.50
8209 34.7197 1685.10 1678.46 43.20
8210 34.7234 1560.00 1678.35 41.70
8211 34.7272 1711.50 1678.24 43.50
8212 34.7310 1606.90 1678.12 41.80
8213 34.7347 1696.80 1678.01 43.00
8214 34.7385 1633.20 1677.90 42.10
8215 34.7422 1674.00 1677.78 43.30
8216 34.7460 1567.70 1677.67 41.80
8217 34.7498 1733.00 1677.55 44.00
8218 34.7535 1538.10 1677.44 40.80
8219 34.7573 1671.30 1677.33 43.00
8220 34.7611 1650.20 1677.21 42.30
8221 34.7648 1673.80 1677.10 42.80
8222 34.7686 1619.50 1676.98 42.00
8223 34.7723 1703.30 1676.87 43.60
8224 34.7761 1585.60 1676.75 41.90
8225 34.7799 1668.30 1676.64 42.90
8226 34.7836 1577.70 1676.52 41.30
8227 34.7874 1610.60 1676.41 42.10
8228 34.7911 1764.50 1676.30 44.00
8229 34.7949 1638.70 1676.18 42.80
8230 34.7986 1588.90 1676.07 41.80
8231 34.8024 1653.70 1675.95 41.70
8232 34.8062 1602.10 1675.84 41.60
8233 34.8099 1616.90 1675.72 42.00
8234 34.8137 1622.10 1675.61 42.20
8235 34.8175 1611.30 1675.49 42.30
8236 34.8212 1640.30 1675.38 42.60
8237 34.8250 1598.80 1675.26 41.50
8238 34.8287 1596.00 1675.15 41.70
8239 34.8325 1642.10 1675.03 42.70
8240 34.8363 1589.10 1674.92 42.30
8241 34.8400 1712.20 1674.80 42.70
8242 34.8438 1619.50 1674.68 42.30
8243 34.8475 1684.30 1674.57 42.80
8244 34.8513 1623.70 1674.45 42.60
8245 34.8550 1608.00 1674.34 42.00
8246 34.8588 1641.10 1674.22 42.60
8247 34.8626 1722.80 1674.11 43.70
8248 34.8663 1632.70 1673.99 43.00
8249 34.8701 1653.50 1673.87 42.80
8250 34.8739 1711.20 1673.76 43.60
8251 34.8776 1619.00 1673.64 42.90
8252 34.8814 1602.10 1673.53 42.00
8253 34.8851 1646.60 1673.41 41.80
8254 34.8889 1586.00 1673.29 41.70
8255 34.8927 1656.80 1673.18 42.80
8256 34.8964 1628.30 1673.06 42.20
8257 34.9002 1678.90 1672.95 43.20
8258 34.9039 1617.00 1672.83 42.40
8259 34.9077 1683.40 1672.71 42.60
8260 34.9114 1601.60 1672.60 42.00
8261 34.9152 1634.10 1672.48 42.60
8262 34.9190 1591.50 1672.36 41.90
8263 34.9227 1632.90 1672.25 42.70
8264 34.9265 1614.20 1672.13 41.90
8265 34.9302 1679.00 1672.01 43.10
8266 34.9340 1636.30 1671.90 42.30
8267 34.9378 1609.10 1671.78 41.80
8268 34.9415 1560.20 1671.66 41.40
8269 34.9453 1546.90 1671.54 41.20
8270 34.9490 1676.00 1671.43 43.10
8271 34.9528 1612.50 1671.31 41.40
8272 34.9566 1547.20 1671.19 41.40
8273 34.9603 1623.10 1671.08 42.30
8274 34.9641 1628.60 1670.96 42.60
8275 34.9678 1625.70 1670.84 42.50
8276 34.9716 1579.70 1670.72 41.60
8277 34.9754 1617.00 1670.61 42.10
8278 34.9791 1640.10 1670.49 42.60
8279 34.9829 1699.90 1670.37 43.30
8280 34.9866 1528.20 1670.25 41.10
8281 34.9904 1586.10 1670.14 41.90
8282 34.9942 1606.50 1670.02 42.50
8283 34.9979 1631.40 1669.90 42.60
8284 35.0017 1567.30 1669.78 41.70
8285 35.0054 1641.70 1669.66 43.10
8286 35.0092 1604.90 1669.55 41.90
8287 35.0130 1588.50 1669.43 41.70
8288 35.0167 1577.50 1669.31 41.70
8289 35.0205 1623.50 1669.19 42.80
8290 35.0242 1602.00 1669.07 42.30
8291 35.0280 1660.80 1668.96 42.90
8292 35.0318 1593.10 1668.84 42.30
8293 35.0355 1579.30 1668.72 41.70
8294 35.0393 1611.50 1668.60 42.10
8295 35.0430 1601.70 1668.48 42.70
8296 35.0468 1543.80 1668.36 41.70
8297 35.0506 1607.30 1668.24 42.30
8298 35.0543 1563.30 1668.13 41.60
8299 35.0581 1590.30 1668.01 41.80
8300 35.0618 1595.70 1667.89 42.30
8301 35.0656 1604.00 1667.77 42.30
8302 35.0694 1492.30 1667.65 40.80
8303 35.0731 1630.30 1667.53 42.60
8304 35.0769 1586.50 1667.41 41.50
8305 35.0806 1629.30 1667.29 42.40
8306 35.0844 1551.40 1667.17 41.70
8307 35.0882 1587.50 1667.06 41.30
8308 35.0919 1646.90 1666.94 43.00
8309 35.0957 1625.60 1666.82 42.50
8310 35.0994 1595.40 1666.70 42.20
8311 35.1032 1579.50 1666.58 41.70
8312 35.1070 1562.50 1666.46 41.10
8313 35.1107 1579.80 1666.34 41.30
8314 35.1145 1541.30 1666.22 41.10
8315 35.1182 1546.10 1666.10 40.80
8316 35.1220 1555.00 1665.98 41.40
8317 35.1258 1621.60 1665.86 42.20
8318 35.1295 1544.90 1665.74 40.80
8319 35.1333 1578.00 1665.62 41.90
8320 35.1370 1524.90 1665.50 41.30
8321 35.1408 1537.60 1665.38 40.70
8322 35.1446 1540.40 1665.26 41.30
8323 35.1483 1557.30 1665.14 41.50
8324 35.1521 1531.50 1665.02 41.10
8325 35.1558 1631.30 1664.90 42.70
8326 35.1596 1538.90 1664.78 41.10
8327 35.1633 1582.30 1664.66 41.60
8328 35.1671 1564.10 1664.54 41.90
8329 35.1709 1594.10 1664.42 41.40
8330 35.1746 1554.40 1664.30 41.50
8331 35.1784 1654.30 1664.18 42.70
8332 35.1822 1551.10 1664.06 41.40
8333 35.1859 1563.20 1663.94 41.20
8334 35.1897 1613.70 1663.82 42.20
8335 35.1934 1632.10 1663.70 42.20
8336 35.1972 1600.00 1663.57 41.80
8337 35.2010 1609.10 1663.45 42.40
8338 35.2047 1597.50 1663.33 41.50
8339 35.2085 1570.70 1663.21 42.10
8340 35.2122 1567.00 1663.09 41.90
8341 35.2160 1594.90 1662.97 41.50
8342 35.2197 1609.20 1662.85 42.10
8343 35.2235 1613.10 1662.73 42.40
8344 35.2273 1611.90 1662.61 42.10
8345 35.2310 1536.90 1662.49 40.80
8346 35.2348 1639.00 1662.36 42.40
8347 35.2385 1564.60 1662.24 41.80
8348 35.2423 1585.80 1662.12 41.80
8349 35.2461 1576.20 1662.00 41.60
8350 35.2498 1526.10 1661.88 41.10
8351 35.2536 1597.60 1661.76 41.50
8352 35.2573 1615.10 1661.63 42.50
8353 35.2611 1536.30 1661.51 40.80
8354 35.2649 1569.40 1661.39 41.80
8355 35.2686 1579.60 1661.27 41.70
8356 35.2724 1525.90 1661.15 41.20
8357 35.2761 1596.40 1661.03 42.10
8358 35.2799 1571.40 1660.90 41.70
8359 35.2837 1631.80 1660.78 42.80
8360 35.2874 1663.00 1660.66 43.10
8361 35.2912 1585.00 1660.54 42.50
8362 35.2949 1604.10 1660.41 42.40
8363 35.2987 1686.70 1660.29 43.40
8364 35.3025 1663.50 1660.17 43.20
8365 35.3062 1539.70 1660.05 41.30
8366 35.3100 1519.20 1659.93 41.10
8367 35.3137 1634.70 1659.80 42.30
8368 35.3175 1599.40 1659.68 41.70
8369 35.3213 1652.60 1659.56 43.00
8370 35.3250 1483.70 1659.44 40.70
8371 35.3288 1633.50 1659.31 42.70
8372 35.3325 1565.40 1659.19 41.00
8373 35.3363 1581.80 1659.07 41.20
8374 35.3400 1621.80 1658.94 43.00
8375 35.3438 1606.30 1658.82 41.90
8376 35.3476 1506.50 1658.70 41.00
8377 35.3513 1584.20 1658.58 41.80
8378 35.3551 1508.70 1658.45 41.40
8379 35.3588 1595.90 1658.33 42.30
8380 35.3626 1559.00 1658.21 41.70
8381 35.3664 1527.70 1658.08 40.80
8382 35.3701 1569.40 1657.96 41.90
8383 35.3739 1560.20 1657.84 41.70
8384 35.3777 1553.10 1657.71 40.60
8385 35.3814 1659.50 1657.59 42.80
8386 35.3852 1518.20 1657.47 41.20
8387 35.3889 1564.30 1657.34 41.50
8388 35.3927 1545.90 1657.22 41.40
8389 35.3964 1621.30 1657.09 42.50
8390 35.4002 1559.20 1656.97 42.20
8391 35.4040 1578.30 1656.85 42.00
8392 35.4077 1571.80 1656.72 42.20
8393 35.4115 1630.90 1656.60 43.30
8394 35.4152 1541.70 1656.48 41.70
8395 35.4190 1663.90 1656.35 43.10
8396 35.4228 1546.90 1656.23 41.80
8397 35.4265 1640.00 1656.10 42.90
8398 35.4303 1526.60 1655.98 41.40
8399 35.4340 1593.20 1655.86 42.60
8400 35.4378 1551.00 1655.73 41.60
8401 35.4416 1617.80 1655.61 42.50
8402 35.4453 1611.20 1655.48 42.20
8403 35.4491 1521.50 1655.36 41.40
8404 35.4528 1540.20 1655.23 41.40
8405 35.4566 1633.30 1655.11 43.10
8406 35.4604 1592.60 1654.98 42.00
8407 35.4641 1571.60 1654.86 42.50
8408 35.4679 1560.30 1654.74 41.80
8409 35.4716 1571.30 1654.61 42.10
8410 35.4754 1554.30 1654.49 42.10
8411 35.4791 1551.50 1654.36 41.50
8412 35.4829 1555.10 1654.24 41.30
8413 35.4867 1569.60 1654.11 42.10
8414 35.4904 1551.50 1653.99 41.50
8415 35.4942 1653.80 1653.86 43.40
8416 35.4979 1580.40 1653.74 42.00
8417 35.5017 1651.30 1653.61 43.20
8418 35.5055 1587.40 1653.49 42.60
8419 35.5092 1625.20 1653.36 42.60
8420 35.5130 1501.20 1653.23 40.60
8421 35.5167 1560.90 1653.11 42.10
8422 35.5205 1598.40 1652.98 42.30
8423 35.5243 1609.90 1652.86 42.60
8424 35.5280 1601.60 1652.73 42.30
8425 35.5318 1599.50 1652.61 42.30
8426 35.5355 1598.00 1652.48 42.10
8427 35.5393 1610.50 1652.36 42.50
8428 35.5430 1588.10 1652.23 43.10
8429 35.5468 1602.90 1652.11 42.80
8430 35.5506 1591.60 1651.98 42.70
8431 35.5543 1516.60 1651.85 41.80
8432 35.5581 1579.70 1651.73 42.20
8433 35.5619 1635.70 1651.60 42.70
8434 35.5656 1577.30 1651.48 42.20
8435 35.5694 1637.50 1651.35 42.80
8436 35.5731 1543.20 1651.22 41.50
8437 35.5769 1552.80 1651.10 41.30
8438 35.5806 1558.20 1650.97 40.90
8439 35.5844 1571.50 1650.84 41.10
8440 35.5882 1561.50 1650.72 41.00
8441 35.5919 1474.30 1650.59 39.80
8442 35.5957 1583.90 1650.47 41.60
8443 35.5994 1581.10 1650.34 41.10
8444 35.6032 1500.70 1650.21 40.20
8445 35.6069 1641.50 1650.09 42.40
8446 35.6107 1557.00 1649.96 41.10
8447 35.6145 1651.40 1649.83 42.60
8448 35.6182 1626.70 1649.71 42.30
8449 35.6220 1576.90 1649.58 41.40
8450 35.6258 1503.90 1649.45 40.70
8451 35.6295 1594.10 1649.33 41.80
8452 35.6333 1592.70 1649.20 41.90
8453 35.6370 1663.50 1649.07 42.70
8454 35.6408 1602.70 1648.94 42.30
8455 35.6445 1652.60 1648.82 42.50
8456 35.6483 1544.50 1648.69 41.30
8457 35.6521 1659.40 1648.56 42.50
8458 35.6558 1500.30 1648.44 40.50
8459 35.6596 1530.80 1648.31 40.90
8460 35.6633 1612.20 1648.18 42.00
8461 35.6671 1629.40 1648.05 42.30
8462 35.6708 1561.80 1647.93 41.40
8463 35.6746 1619.50 1647.80 42.00
8464 35.6784 1557.20 1647.67 41.70
8465 35.6821 1589.60 1647.54 41.80
8466 35.6859 1593.80 1647.42 41.20
8467 35.6897 1598.50 1647.29 41.60
8468 35.6934 1590.20 1647.16 41.70
8469 35.6972 1636.10 1647.03 42.60
8470 35.7009 1522.40 1646.91 40.90
8471 35.7047 1574.60 1646.78 41.70
8472 35.7084 1489.90 1646.65 40.50
8473 35.7122 1587.60 1646.52 41.50
8474 35.7160 1570.80 1646.39 41.90
8475 35.7197 1545.70 1646.27 41.10
8476 35.7235 1559.90 1646.14 41.00
8477 35.7272 1586.20 1646.01 41.90
8478 35.7310 1540.40 1645.88 41.00
8479 35.7347 1537.50 1645.75 41.30
8480 35.7385 1575.80 1645.62 41.90
8481 35.7423 1617.30 1645.50 42.40
8482 35.7460 1539.30 1645.37 41.40
8483 35.7498 1544.60 1645.24 41.10
8484 35.7535 1564.70 1645.11 41.80
8485 35.7573 1584.00 1644.98 41.70
8486 35.7611 1506.90 1644.85 40.50
8487 35.7648 1585.50 1644.72 41.80
8488 35.7686 1572.20 1644.60 41.60
8489 35.7723 1580.10 1644.47 41.60
8490 35.7761 1572.90 1644.34 41.40
8491 35.7799 1572.70 1644.21 42.00
8492 35.7836 1572.40 1644.08 41.40
8493 35.7874 1594.10 1643.95 42.40
8494 35.7911 1538.60 1643.82 41.50
8495 35.7949 1572.80 1643.69 41.30
8496 35.7986 1521.50 1643.56 40.80
8497 35.8024 1579.40 1643.44 41.70
8498 35.8062 1556.60 1643.31 41.10
8499 35.8099 1610.20 1643.18 42.50
8500 35.8137 1532.00 1643.05 41.00
8501 35.8174 1544.30 1642.92 41.20
8502 35.8212 1564.80 1642.79 41.90
8503 35.8250 1533.30 1642.66 41.40
8504 35.8287 1586.90 1642.53 42.10
8505 35.8325 1539.70 1642.40 41.10
8506 35.8362 1500.90 1642.27 41.10
8507 35.8400 1618.50 1642.14 42.20
8508 35.8438 1434.70 1642.01 39.90
8509 35.8475 1541.20 1641.88 41.70
8510 35.8513 1584.80 1641.75 42.30
8511 35.8550 1585.10 1641.62 42.10
8512 35.8588 1594.80 1641.49 42.10
8513 35.8625 1553.80 1641.36 40.80
8514 35.8663 1484.50 1641.23 40.50
8515 35.8701 1523.70 1641.10 40.20
8516 35.8738 1540.00 1640.97 41.00
8517 35.8776 1607.60 1640.84 42.40
8518 35.8813 1571.80 1640.71 41.70
8519 35.8851 1537.40 1640.58 40.90
8520 35.8889 1572.90 1640.45 41.70
8521 35.8926 1682.30 1640.32 43.40
8522 35.8964 1557.50 1640.19 41.80
8523 35.9001 1620.20 1640.06 42.50
8524 35.9039 1645.40 1639.93 43.10
8525 35.9076 1533.90 1639.80 40.90
8526 35.9114 1612.40 1639.67 42.50
8527 35.9151 1599.80 1639.54 42.30
8528 35.9189 1550.50 1639.41 40.40
8529 35.9227 1585.80 1639.28 42.40
8530 35.9264 1599.20 1639.15 42.50
8531 35.9302 1523.30 1639.02 40.70
8532 35.9339 1509.80 1638.89 41.30
8533 35.9377 1607.20 1638.75 42.50
8534 35.9415 1608.20 1638.62 42.50
8535 35.9452 1635.00 1638.49 42.30
8536 35.9490 1545.60 1638.36 41.50
8537 35.9527 1501.90 1638.23 41.00
8538 35.9565 1548.40 1638.10 41.50
8539 35.9603 1589.30 1637.97 42.50
8540 35.9640 1529.00 1637.84 40.90
8541 35.9678 1576.50 1637.71 41.70
8542 35.9715 1571.20 1637.57 42.10
8543 35.9753 1613.00 1637.44 42.00
8544 35.9790 1549.90 1637.31 40.60
8545 35.9828 1557.60 1637.18 41.70
8546 35.9865 1555.70 1637.05 42.20
8547 35.9903 1545.20 1636.92 41.60
8548 35.9941 1608.10 1636.79 42.40
8549 35.9978 1561.10 1636.65 42.00
8550 36.0016 1545.60 1636.52 41.70
8551 36.0053 1607.90 1636.39 41.90
8552 36.0091 1568.80 1636.26 41.60
8553 36.0129 1569.40 1636.13 41.80
8554 36.0166 1576.60 1636.00 42.40
8555 36.0204 1630.50 1635.86 42.80
8556 36.0241 1573.80 1635.73 41.70
8557 36.0279 1574.80 1635.60 42.00
8558 36.0317 1531.30 1635.47 41.20
8559 36.0354 1594.80 1635.34 42.30
8560 36.0392 1599.50 1635.20 42.30
8561 36.0429 1548.30 1635.07 40.70
8562 36.0467 1536.60 1634.94 41.30
8563 36.0504 1591.80 1634.81 41.90
8564 36.0542 1582.50 1634.67 42.50
8565 36.0579 1576.50 1634.54 41.30
8566 36.0617 1596.50 1634.41 41.40
8567 36.0655 1615.70 1634.28 41.90
8568 36.0692 1530.70 1634.15 40.50
8569 36.0730 1618.30 1634.01 41.50
8570 36.0767 1520.30 1633.88 40.70
8571 36.0805 1549.50 1633.75 41.20
8572 36.0843 1572.60 1633.61 41.30
8573 36.0880 1542.40 1634.93 41.10
8574 36.0918 1497.90 1634.82 40.40
8575 36.0955 1554.60 1634.72 40.60
8576 36.0993 1479.40 1634.62 40.10
8577 36.1030 1594.70 1634.51 41.20
8578 36.1068 1621.70 1634.41 42.00
8579 36.1106 1571.10 1634.31 41.10
8580 36.1143 1592.40 1634.22 41.40
8581 36.1181 1596.40 1634.12 41.30
8582 36.1218 1585.00 1634.02 41.40
8583 36.1256 1613.70 1633.93 42.10
8584 36.1293 1547.40 1633.83 40.70
8585 36.1331 1602.10 1633.74 41.40
8586 36.1369 1545.90 1633.65 40.40
8587 36.1406 1643.30 1633.56 41.80
8588 36.1444 1631.90 1633.47 42.10
8589 36.1481 1533.20 1633.39 40.90
8590 36.1519 1571.20 1633.30 41.20
8591 36.1557 1555.70 1633.22 41.00
8592 36.1594 1556.80 1633.14 41.50
8593 36.1632 1603.80 1633.06 41.80
8594 36.1669 1557.90 1632.98 41.10
8595 36.1707 1597.80 1632.90 41.60
8596 36.1744 1494.60 1632.83 40.10
8597 36.1782 1614.80 1632.76 42.00
8598 36.1819 1555.70 1632.69 41.20
8599 36.1857 1598.30 1632.62 42.00
8600 36.1895 1609.40 1632.56 42.10
8601 36.1932 1534.20 1632.50 40.60
8602 36.1970 1576.50 1632.44 41.30
8603 36.2007 1590.90 1632.39 41.60
8604 36.2045 1563.00 1632.34 41.30
8605 36.2082 1582.50 1632.29 41.70
8606 36.2120 1610.90 1632.25 42.20
8607 36.2158 1581.70 1632.21 41.40
8608 36.2195 1638.20 1632.17 42.30
8609 36.2233 1649.90 1632.14 42.50
8610 36.2270 1574.20 1632.11 41.30
8611 36.2308 1518.20 1632.09 40.60
8612 36.2346 1608.00 1632.08 42.00
8613 36.2383 1620.10 1632.07 41.70
8614 36.2421 1594.70 1632.06 41.60
8615 36.2458 1610.40 1632.07 42.00
8616 36.2496 1625.40 1632.08 42.00
8617 36.2533 1558.50 1632.09 41.30
8618 36.2571 1594.20 1632.12 41.50
8619 36.2608 1535.70 1632.15 40.80
8620 36.2646 1582.50 1632.20 41.20
8621 36.2684 1622.60 1632.25 42.20
8622 36.2721 1587.30 1632.32 41.20
8623 36.2759 1565.40 1632.39 40.90
8624 36.2796 1581.20 1632.48 41.30
8625 36.2834 1611.60 1632.58 41.80
8626 36.2871 1516.60 1632.70 40.90
8627 36.2909 1610.50 1632.83 42.10
8628 36.2947 1613.70 1632.98 41.90
8629 36.2984 1632.10 1633.15 42.40
8630 36.3022 1541.90 1633.34 41.10
8631 36.3059 1627.20 1633.55 42.20
8632 36.3097 1589.90 1633.79 41.40
8633 36.3134 1542.40 1634.05 40.80
8634 36.3172 1574.70 1634.35 41.40
8635 36.3209 1629.60 1634.67 42.30
8636 36.3247 1583.70 1635.04 41.50
8637 36.3285 1569.60 1635.44 41.10
8638 36.3322 1554.50 1635.88 41.20
8639 36.3360 1576.40 1636.38 41.50
8640 36.3397 1630.70 1636.93 42.10
8641 36.3435 1590.20 1637.55 41.50
8642 36.3473 1612.70 1638.23 41.20
8643 36.3510 1613.50 1638.99 41.50
8644 36.3548 1567.90 1639.84 41.00
8645 36.3585 1615.70 1640.79 41.90
8646 36.3623 1545.00 1641.85 40.90
8647 36.3660 1599.80 1643.05 41.60
8648 36.3698 1568.00 1644.39 41.00
8649 36.3736 1584.00 1645.92 41.60
8650 36.3773 1620.30 1647.64 42.10
8651 36.3811 1581.20 1649.60 41.60
8652 36.3848 1576.80 1651.84 41.40
8653 36.3886 1605.90 1654.40 41.90
8654 36.3923 1592.20 1657.37 41.50
8655 36.3961 1611.30 1660.80 42.10
8656 36.3998 1637.30 1664.81 42.40
8657 36.4036 1610.30 1669.52 42.00
8658 36.4073 1637.70 1675.08 42.20
8659 36.4111 1681.20 1681.74 43.00
8660 36.4149 1699.40 1689.77 43.60
8661 36.4186 1580.60 1699.52 41.30
8662 36.4224 1677.90 1711.60 42.70
8663 36.4261 1680.70 1726.81 42.80
8664 36.4299 1644.60 1746.45 42.10
8665 36.4337 1677.10 1772.99 42.90
8666 36.4374 1787.50 1810.44 44.50
8667 36.4412 1713.40 1866.25 43.30
8668 36.4449 1813.10 1951.80 44.90
8669 36.4487 1956.70 2081.84 46.40
8670 36.4524 2094.50 2273.50 47.80
8671 36.4562 2489.00 2535.91 52.90
8672 36.4599 2775.00 2862.26 55.70
8673 36.4637 3138.20 3197.56 59.30
8674 36.4674 3439.70 3415.13 62.30
8675 36.4712 3486.70 3383.06 63.20
8676 36.4750 3282.50 3123.64 60.60
8677 36.4787 2972.20 2781.32 57.60
8678 36.4825 2506.10 2467.19 52.40
8679 36.4862 2202.60 2221.42 48.20
8680 36.4900 1937.50 2045.05 45.70
8681 36.4937 1883.00 1926.65 45.70
8682 36.4975 1722.30 1848.99 43.10
8683 36.5013 1742.60 1798.03 43.00
8684 36.5050 1666.70 1763.39 42.40
8685 36.5088 1699.40 1738.46 42.80
8686 36.5125 1641.50 1719.75 42.60
8687 36.5163 1575.70 1705.08 41.60
8688 36.5200 1563.70 1693.35 41.30
8689 36.5238 1671.50 1683.75 42.60
8690 36.5275 1606.60 1675.80 41.70
8691 36.5313 1640.80 1669.16 42.20
8692 36.5351 1597.50 1663.53 41.70
8693 36.5388 1613.70 1658.73 42.30
8694 36.5426 1613.00 1654.59 41.90
8695 36.5463 1564.40 1650.99 41.30
8696 36.5501 1569.70 1647.86 41.20
8697 36.5538 1669.90 1645.09 42.60
8698 36.5576 1541.00 1642.66 41.10
8699 36.5614 1632.00 1640.47 42.20
8700 36.5651 1609.10 1638.53 42.30
8701 36.5689 1700.20 1636.78 42.50
8702 36.5726 1580.60 1635.19 41.30
8703 36.5764 1593.40 1633.76 41.70
8704 36.5801 1565.90 1632.45 41.30
8705 36.5839 1645.60 1631.25 42.30
8706 36.5876 1571.00 1630.15 40.70
8707 36.5914 1605.10 1629.13 42.50
8708 36.5951 1566.60 1628.19 41.60
8709 36.5989 1599.70 1627.32 42.20
8710 36.6027 1628.60 1626.51 42.50
8711 36.6064 1615.00 1625.75 42.20
8712 36.6102 1545.90 1625.04 40.50
8713 36.6139 1585.00 1624.37 41.20
8714 36.6177 1575.60 1623.75 41.50
8715 36.6214 1581.80 1623.15 41.60
8716 36.6252 1588.40 1622.59 42.10
8717 36.6289 1580.50 1622.06 41.20
8718 36.6327 1503.00 1621.56 40.90
8719 36.6365 1673.30 1621.08 43.00
8720 36.6402 1515.60 1620.62 40.50
8721 36.6440 1567.00 1620.18 41.40
8722 36.6477 1576.30 1619.76 41.50
8723 36.6515 1594.00 1619.36 41.20
8724 36.6552 1545.90 1618.97 40.40
8725 36.6590 1568.30 1618.60 41.50
8726 36.6628 1511.30 1618.24 41.10
8727 36.6665 1585.50 1617.89 42.00
8728 36.6703 1576.30 1617.55 41.80
8729 36.6740 1589.20 1617.23 41.80
8730 36.6778 1504.50 1616.91 40.30
8731 36.6815 1537.30 1616.61 41.30
8732 36.6853 1489.50 1616.31 40.00
8733 36.6890 1568.30 1616.02 41.30
8734 36.6928 1543.30 1615.74 41.00
8735 36.6965 1603.70 1615.46 42.00
8736 36.7003 1671.30 1615.20 42.80
8737 36.7040 1553.50 1614.93 41.20
8738 36.7078 1583.30 1614.68 41.70
8739 36.7116 1478.60 1614.42 40.00
8740 36.7153 1538.60 1614.18 40.90
8741 36.7191 1542.10 1613.94 40.00
8742 36.7228 1525.00 1613.70 40.50
8743 36.7266 1586.30 1613.47 40.70
8744 36.7303 1603.80 1613.24 41.60
8745 36.7341 1540.00 1613.01 41.10
8746 36.7379 1522.10 1612.79 40.70
8747 36.7416 1561.70 1612.57 41.50
8748 36.7454 1565.50 1612.35 41.10
8749 36.7491 1579.60 1612.14 41.20
8750 36.7529 1620.80 1611.93 41.80
8751 36.7566 1518.60 1611.73 40.60
8752 36.7604 1512.90 1611.52 39.80
8753 36.7641 1539.80 1611.32 40.60
8754 36.7679 1545.10 1611.12 40.60
8755 36.7716 1585.10 1610.92 41.80
8756 36.7754 1575.40 1610.73 41.60
8757 36.7791 1594.50 1610.53 42.10
8758 36.7829 1501.60 1610.34 40.20
8759 36.7867 1573.10 1610.15 41.50
8760 36.7904 1578.90 1609.96 41.30
8761 36.7942 1558.10 1609.78 41.00
8762 36.7979 1528.10 1609.59 41.20
8763 36.8017 1608.30 1609.41 42.00
8764 36.8054 1536.30 1609.23 40.80
8765 36.8092 1574.30 1609.05 41.20
8766 36.8129 1537.10 1608.87 40.90
8767 36.8167 1546.90 1608.69 41.20
8768 36.8204 1524.70 1608.51 40.80
8769 36.8242 1578.60 1608.33 41.30
8770 36.8280 1636.90 1608.16 42.00
8771 36.8317 1451.50 1607.99 39.90
8772 36.8355 1554.40 1607.81 40.90
8773 36.8392 1554.20 1607.64 41.10
8774 36.8430 1552.30 1607.47 41.00
8775 36.8467 1595.80 1607.30 42.00
8776 36.8505 1547.50 1607.13 41.30
8777 36.8542 1569.40 1605.55 41.20
8778 36.8580 1471.60 1605.41 40.10
8779 36.8618 1564.00 1605.27 41.00
8780 36.8655 1511.40 1605.13 40.60
8781 36.8693 1636.10 1604.99 42.00
8782 36.8730 1500.30 1604.85 40.10
8783 36.8768 1526.20 1604.71 40.70
8784 36.8805 1518.10 1604.57 40.60
8785 36.8843 1542.30 1604.43 40.80
8786 36.8880 1539.80 1604.28 40.90
8787 36.8918 1578.10 1604.14 41.70
8788 36.8955 1490.10 1604.00 40.40
8789 36.8993 1588.50 1603.86 41.80
8790 36.9030 1508.10 1603.72 40.40
8791 36.9068 1587.20 1603.58 41.90
8792 36.9105 1544.90 1603.44 40.50
8793 36.9143 1611.50 1603.30 41.90
8794 36.9181 1520.50 1603.15 40.40
8795 36.9218 1644.60 1603.01 42.40
8796 36.9256 1471.20 1602.87 40.00
8797 36.9293 1603.10 1602.73 41.60
8798 36.9331 1535.40 1602.59 40.80
8799 36.9368 1477.50 1602.45 39.80
8800 36.9406 1500.20 1602.31 40.40
8801 36.9443 1592.90 1602.16 41.50
8802 36.9481 1530.60 1602.02 40.90
8803 36.9518 1552.00 1601.88 41.30
8804 36.9556 1652.80 1601.74 42.60
8805 36.9594 1638.00 1601.60 42.10
8806 36.9631 1565.00 1601.46 41.80
8807 36.9669 1621.60 1601.31 41.90
8808 36.9706 1486.60 1601.17 40.10
8809 36.9744 1614.10 1601.03 41.10
8810 36.9781 1520.80 1600.89 40.70
8811 36.9819 1577.40 1600.75 41.50
8812 36.9856 1556.20 1600.61 41.40
8813 36.9894 1641.20 1600.46 42.30
8814 36.9931 1526.30 1600.32 40.80
8815 36.9969 1558.70 1600.18 41.00
8816 36.9988 1617.50 1600.11 41.70
8817 37.0025 1501.80 1599.97 40.70
8818 37.0063 1517.40 1599.82 40.80
8819 37.0100 1559.70 1599.68 41.30
8820 37.0138 1555.50 1599.54 41.00
8821 37.0176 1512.50 1599.40 40.40
8822 37.0213 1542.60 1599.26 40.80
8823 37.0251 1616.50 1599.11 42.00
8824 37.0288 1591.40 1598.97 42.00
8825 37.0326 1559.00 1598.83 41.20
8826 37.0363 1564.40 1598.69 41.30
8827 37.0401 1517.10 1598.54 40.50
8828 37.0438 1668.90 1598.40 42.60
8829 37.0476 1565.10 1598.26 41.50
8830 37.0514 1544.10 1598.12 41.00
8831 37.0551 1614.10 1597.97 42.30
8832 37.0589 1546.00 1597.83 40.40
8833 37.0626 1539.10 1597.69 40.70
8834 37.0664 1554.30 1597.55 41.20
8835 37.0701 1550.90 1597.40 41.10
8836 37.0739 1530.30 1597.26 40.70
8837 37.0776 1505.10 1597.12 39.80
8838 37.0814 1629.90 1596.98 42.90
8839 37.0852 1469.20 1596.83 40.30
8840 37.0889 1597.70 1596.69 42.10
8841 37.0927 1558.50 1596.55 41.50
8842 37.0964 1506.00 1596.40 40.70
8843 37.1002 1555.60 1596.26 40.70
8844 37.1039 1607.60 1596.12 41.50
8845 37.1077 1562.60 1595.97 41.30
8846 37.1114 1538.70 1595.83 41.00
8847 37.1152 1566.00 1595.69 41.70
8848 37.1189 1554.90 1595.55 40.90
8849 37.1227 1492.80 1595.40 40.70
8850 37.1265 1597.60 1595.26 42.00
8851 37.1302 1494.80 1595.12 40.20
8852 37.1340 1626.30 1594.97 42.20
8853 37.1377 1500.30 1594.83 40.40
8854 37.1415 1592.00 1594.69 41.20
8855 37.1452 1577.80 1594.54 40.80
8856 37.1490 1547.20 1594.40 41.20
8857 37.1527 1517.50 1594.26 41.20
8858 37.1565 1565.10 1594.11 41.70
8859 37.1603 1526.40 1593.97 41.20
8860 37.1640 1571.00 1593.83 41.50
8861 37.1678 1548.30 1593.68 40.90
8862 37.1715 1556.60 1593.54 41.60
8863 37.1753 1520.10 1593.40 40.40
8864 37.1790 1600.20 1593.25 41.70
8865 37.1828 1584.40 1593.11 41.60
8866 37.1866 1546.30 1592.97 41.20
8867 37.1903 1531.10 1592.82 40.90
8868 37.1941 1527.50 1592.68 40.80
8869 37.1978 1489.70 1592.54 40.40
8870 37.2016 1605.10 1592.39 41.80
8871 37.2053 1499.70 1592.25 40.40
8872 37.2091 1570.70 1592.10 40.40
8873 37.2128 1507.20 1591.96 40.20
8874 37.2166 1537.30 1591.82 40.10
8875 37.2203 1539.60 1591.67 40.70
8876 37.2241 1589.40 1591.53 41.80
8877 37.2256 1511.30 1591.47 40.20
8878 37.2293 1591.60 1591.33 40.40
8879 37.2331 1518.80 1591.19 39.90
8880 37.2368 1545.40 1591.04 40.10
8881 37.2406 1497.90 1590.90 39.70
8882 37.2443 1585.70 1590.75 40.90
8883 37.2481 1448.80 1590.61 38.80
8884 37.2518 1616.60 1590.47 41.20
8885 37.2556 1479.80 1590.32 39.40
8886 37.2593 1551.80 1590.18 40.50
8887 37.2631 1558.10 1590.03 40.70
8888 37.2668 1556.60 1589.89 40.70
8889 37.2706 1481.30 1589.74 39.90
8890 37.2743 1558.50 1589.60 40.60
8891 37.2781 1510.30 1589.46 40.00
8892 37.2818 1533.30 1589.31 40.30
8893 37.2856 1474.50 1589.17 39.50
8894 37.2894 1453.00 1589.02 39.30
8895 37.2931 1588.10 1588.88 40.70
8896 37.2969 1506.60 1588.73 39.30
8897 37.3006 1530.30 1588.59 40.60
8898 37.3044 1501.80 1588.45 39.80
8899 37.3081 1564.60 1588.30 40.70
8900 37.3119 1556.20 1588.16 40.60
8901 37.3156 1519.90 1588.01 39.80
8902 37.3194 1498.70 1587.87 39.60
8903 37.3231 1591.70 1587.72 41.70
8904 37.3269 1548.00 1587.58 40.90
8905 37.3307 1546.40 1587.43 40.60
8906 37.3344 1592.20 1587.29 41.00
8907 37.3382 1606.40 1587.14 41.10
8908 37.3419 1561.30 1587.00 40.90
8909 37.3457 1538.70 1586.86 40.40
8910 37.3494 1539.20 1586.71 40.40
8911 37.3532 1531.20 1586.57 40.40
8912 37.3569 1553.40 1586.42 40.70
8913 37.3607 1540.60 1586.28 40.50
8914 37.3644 1487.20 1586.13 39.80
8915 37.3682 1453.00 1585.99 39.20
8916 37.3719 1565.50 1585.84 40.90
8917 37.3757 1564.80 1585.70 40.90
8918 37.3795 1506.80 1585.55 40.10
8919 37.3832 1543.80 1585.41 39.90
8920 37.3870 1536.40 1585.26 40.10
8921 37.3907 1489.00 1585.12 39.60
8922 37.3945 1599.70 1584.97 40.70
8923 37.3982 1531.70 1584.83 40.30
8924 37.4020 1553.20 1584.68 40.30
8925 37.4057 1500.40 1584.54 40.00
8926 37.4095 1560.70 1584.39 40.70
8927 37.4132 1488.70 1584.25 39.70
8928 37.4170 1536.40 1584.10 39.40
8929 37.4207 1478.60 1583.95 39.70
8930 37.4245 1573.40 1583.81 41.10
8931 37.4283 1555.10 1583.66 40.70
8932 37.4320 1518.50 1583.52 39.60
8933 37.4358 1500.00 1583.37 39.60
8934 37.4395 1554.90 1583.23 40.60
8935 37.4433 1485.30 1583.08 39.40
8936 37.4470 1550.90 1582.94 40.80
8937 37.4508 1496.70 1582.79 39.80
8938 37.4545 1543.90 1582.65 40.40
8939 37.4583 1574.90 1582.50 40.60
8940 37.4621 1579.50 1582.35 40.80
8941 37.4658 1540.20 1582.21 40.20
8942 37.4696 1546.90 1582.06 40.40
8943 37.4733 1515.90 1581.92 40.10
8944 37.4771 1591.50 1581.77 40.90
8945 37.4808 1490.70 1581.63 39.40
8946 37.4846 1566.10 1581.48 40.90
8947 37.4883 1482.90 1581.34 39.60
8948 37.4921 1548.90 1581.19 40.50
8949 37.4958 1498.50 1581.04 39.60
8950 37.4996 1596.50 1580.90 41.20
8951 37.5033 1590.10 1580.75 40.80
8952 37.5071 1491.90 1580.61 39.40
8953 37.5109 1539.40 1580.46 40.50
8954 37.5146 1563.70 1580.31 40.90
8955 37.5184 1485.80 1580.17 39.30
8956 37.5221 1538.50 1580.02 40.70
8957 37.5259 1491.50 1579.88 39.60
8958 37.5296 1573.20 1579.73 40.60
8959 37.5334 1558.00 1579.58 40.10
8960 37.5371 1474.70 1579.44 39.20
8961 37.5409 1521.90 1579.29 40.10
8962 37.5447 1626.10 1579.15 41.40
8963 37.5484 1469.10 1579.00 39.30
8964 37.5522 1523.90 1578.85 40.00
8965 37.5559 1475.80 1578.71 39.30
8966 37.5597 1512.30 1578.56 40.10
8967 37.5634 1492.40 1578.42 39.80
8968 37.5672 1570.30 1578.27 41.40
8969 37.5709 1540.10 1578.12 40.40
8970 37.5747 1550.30 1577.98 40.60
8971 37.5784 1498.30 1577.83 39.60
8972 37.5822 1509.10 1577.68 40.30
8973 37.5860 1565.60 1577.54 40.80
8974 37.5897 1607.10 1577.39 41.40
8975 37.5935 1560.20 1577.24 40.30
8976 37.5972 1496.90 1577.10 39.70
8977 37.6010 1587.70 1576.95 41.30
8978 37.6047 1547.40 1576.80 40.60
8979 37.6085 1562.30 1576.66 40.90
8980 37.6122 1577.80 1576.51 41.00
8981 37.6160 1584.70 1576.37 40.90
8982 37.6198 1548.60 1576.22 40.30
8983 37.6235 1486.90 1576.07 40.30
8984 37.6273 1555.70 1575.93 40.30
8985 37.6310 1517.60 1575.78 40.00
8986 37.6348 1593.30 1575.63 40.50
8987 37.6385 1493.00 1575.49 39.40
8988 37.6423 1538.00 1575.34 40.30
8989 37.6460 1536.00 1575.19 40.40
8990 37.6498 1560.50 1575.04 40.40
8991 37.6536 1525.90 1574.90 40.10
8992 37.6573 1567.40 1574.75 40.80
8993 37.6611 1484.10 1574.60 39.90
8994 37.6648 1593.70 1574.46 41.50
8995 37.6686 1520.40 1574.31 40.40
8996 37.6723 1497.70 1574.16 39.80
8997 37.6761 1537.30 1574.02 40.60
8998 37.6798 1637.80 1573.87 41.70
8999 37.6836 1545.30 1573.72 41.10
9000 37.6874 1570.00 1573.58 40.80
9001 37.6911 1482.50 1573.43 38.80
9002 37.6949 1602.60 1573.28 41.20
9003 37.6986 1586.80 1573.13 41.30
9004 37.7024 1596.20 1572.99 41.50
9005 37.7061 1540.30 1572.84 40.60
9006 37.7099 1523.90 1572.69 40.10
9007 37.7136 1478.60 1572.55 39.40
9008 37.7174 1555.30 1572.40 40.20
9009 37.7212 1572.50 1572.25 40.60
9010 37.7249 1623.40 1572.10 42.10
9011 37.7287 1565.40 1571.96 40.60
9012 37.7324 1579.00 1571.81 40.90
9013 37.7362 1547.00 1571.66 40.50
9014 37.7399 1571.20 1571.52 40.90
9015 37.7437 1554.50 1571.37 40.50
9016 37.7475 1585.20 1571.22 41.00
9017 37.7512 1547.30 1571.07 40.70
9018 37.7550 1558.10 1570.93 39.90
9019 37.7587 1535.00 1570.78 40.60
9020 37.7625 1516.30 1570.63 39.90
9021 37.7662 1493.40 1570.48 40.20
9022 37.7700 1542.60 1570.34 40.50
9023 37.7737 1496.40 1570.19 39.90
9024 37.7775 1565.30 1570.04 40.70
9025 37.7812 1508.10 1569.89 40.10
9026 37.7850 1593.40 1569.75 41.20
9027 37.7888 1454.90 1569.60 39.30
9028 37.7925 1527.30 1569.45 40.40
9029 37.7963 1579.20 1569.30 41.50
9030 37.8000 1571.50 1569.16 41.10
9031 37.8038 1584.60 1569.01 41.50
9032 37.8075 1543.60 1568.86 40.50
9033 37.8113 1584.10 1568.71 41.10
9034 37.8151 1557.70 1568.56 40.70
9035 37.8188 1520.60 1568.42 40.00
9036 37.8226 1608.50 1568.27 42.00
9037 37.8263 1558.90 1568.12 41.20
9038 37.8301 1500.90 1567.97 39.80
9039 37.8338 1548.40 1567.83 40.40
9040 37.8376 1500.20 1567.68 39.70
9041 37.8414 1516.80 1567.53 40.50
9042 37.8451 1612.60 1567.38 41.10
9043 37.8489 1563.20 1567.23 40.90
9044 37.8526 1487.70 1567.09 40.00
9045 37.8564 1609.40 1566.94 41.60
9046 37.8601 1598.20 1566.79 41.70
9047 37.8639 1531.10 1566.64 40.50
9048 37.8676 1533.50 1566.49 40.80
9049 37.8714 1584.20 1566.35 41.10
9050 37.8752 1589.50 1566.20 41.30
9051 37.8789 1522.60 1566.05 40.60
9052 37.8827 1530.70 1565.90 40.30
9053 37.8864 1523.90 1565.75 40.00
9054 37.8902 1522.30 1565.61 39.80
9055 37.8939 1579.80 1565.46 40.90
9056 37.8977 1512.60 1565.31 40.20
9057 37.9015 1574.10 1565.16 40.50
9058 37.9052 1622.50 1565.01 41.70
9059 37.9090 1530.90 1564.86 39.80
9060 37.9127 1516.20 1564.72 40.10
9061 37.9165 1514.90 1564.57 40.10
9062 37.9202 1509.50 1564.42 39.80
9063 37.9240 1580.90 1564.27 41.80
9064 37.9277 1489.90 1564.12 40.30
9065 37.9315 1520.30 1563.98 40.10
9066 37.9353 1557.30 1563.83 40.70
9067 37.9390 1543.50 1563.68 40.70
9068 37.9428 1523.10 1563.53 40.40
9069 37.9465 1535.20 1563.38 40.50
9070 37.9503 1514.20 1563.23 40.20
9071 37.9540 1520.30 1563.08 39.90
9072 37.9578 1639.20 1562.94 41.20
9073 37.9616 1521.80 1562.79 40.20
9074 37.9653 1517.40 1562.64 40.50
9075 37.9691 1571.70 1562.49 41.40
9076 37.9728 1551.10 1562.34 41.00
9077 37.9766 1576.40 1562.19 41.50
9078 37.9803 1500.80 1562.05 40.20
9079 37.9841 1552.20 1561.90 40.20
9080 37.9879 1573.80 1561.75 40.70
9081 37.9916 1581.00 1561.60 41.30
9082 37.9954 1615.30 1561.45 41.70
9083 37.9991 1610.80 1561.30 41.40
9084 38.0029 1610.10 1561.15 41.90
9085 38.0066 1520.90 1561.00 40.50
9086 38.0104 1545.30 1560.86 41.00
9087 38.0142 1550.90 1560.71 40.60
9088 38.0179 1612.30 1560.56 41.10
9089 38.0217 1532.60 1560.41 40.90
9090 38.0254 1563.70 1560.26 40.80
9091 38.0292 1555.30 1560.11 41.30
9092 38.0329 1566.60 1559.96 41.20
9093 38.0367 1544.80 1559.81 40.70
9094 38.0405 1644.30 1559.67 42.20
9095 38.0442 1598.90 1559.52 41.30
9096 38.0480 1585.10 1559.37 40.70
9097 38.0517 1561.90 1559.22 41.00
9098 38.0555 1553.90 1559.07 40.80
9099 38.0592 1597.60 1558.92 41.80
9100 38.0630 1583.30 1558.77 41.00
9101 38.0667 1542.80 1558.62 40.50
9102 38.0705 1550.90 1558.47 41.30
9103 38.0743 1605.50 1558.33 41.60
9104 38.0780 1603.70 1558.18 41.50
9105 38.0818 1552.20 1558.03 41.30
9106 38.0855 1558.10 1557.88 41.10
9107 38.0893 1617.60 1557.73 41.60
9108 38.0930 1604.50 1557.58 41.60
9109 38.0968 1603.40 1557.43 41.20
9110 38.1006 1620.40 1557.28 42.20
9111 38.1043 1597.10 1557.13 41.70
9112 38.1081 1584.70 1556.98 41.70
9113 38.1118 1547.20 1556.83 40.90
9114 38.1156 1646.80 1556.69 41.80
9115 38.1194 1578.60 1556.54 40.60
9116 38.1231 1615.80 1556.39 42.40
9117 38.1269 1562.60 1613.29 41.70
9118 38.1306 1630.00 1614.25 41.90
9119 38.1344 1627.00 1615.25 41.40
9120 38.1381 1573.90 1616.28 40.90
9121 38.1419 1643.00 1617.34 42.40
9122 38.1457 1657.40 1618.45 42.60
9123 38.1494 1517.00 1619.59 40.20
9124 38.1532 1643.20 1620.77 42.00
9125 38.1569 1649.50 1622.00 42.50
9126 38.1607 1633.20 1623.27 42.40
9127 38.1644 1566.70 1624.58 42.20
9128 38.1682 1638.80 1625.94 42.10
9129 38.1720 1598.40 1627.35 42.00
9130 38.1757 1649.90 1628.81 42.00
9131 38.1795 1646.60 1630.32 42.20
9132 38.1832 1625.60 1631.90 42.00
9133 38.1870 1639.20 1633.53 42.10
9134 38.1908 1702.30 1635.22 43.10
9135 38.1945 1654.60 1636.98 42.60
9136 38.1983 1698.90 1638.81 42.60
9137 38.2020 1679.80 1640.70 42.80
9138 38.2058 1627.80 1642.67 42.10
9139 38.2095 1720.20 1644.72 43.20
9140 38.2133 1701.40 1646.85 42.90
9141 38.2170 1699.90 1649.07 42.50
9142 38.2208 1726.90 1651.37 43.50
9143 38.2246 1678.00 1653.77 43.60
9144 38.2283 1673.70 1656.28 42.20
9145 38.2321 1741.30 1658.88 43.30
9146 38.2358 1626.60 1661.60 41.90
9147 38.2396 1699.10 1664.44 42.90
9148 38.2434 1711.10 1667.39 43.00
9149 38.2471 1670.50 1670.48 42.80
9150 38.2509 1686.20 1673.70 43.40
9151 38.2546 1730.60 1677.08 43.50
9152 38.2584 1725.00 1680.60 43.20
9153 38.2621 1749.00 1684.29 43.50
9154 38.2659 1769.90 1688.15 44.10
9155 38.2697 1670.70 1692.20 42.70
9156 38.2734 1748.80 1696.43 43.70
9157 38.2772 1723.20 1700.87 43.60
9158 38.2809 1736.50 1705.54 43.40
9159 38.2847 1718.20 1710.45 43.30
9160 38.2884 1784.50 1715.60 44.40
9161 38.2922 1754.50 1721.02 44.10
9162 38.2960 1766.30 1726.71 43.40
9163 38.2997 1759.20 1732.72 43.60
9164 38.3035 1717.50 1739.05 43.50
9165 38.3072 1776.40 1745.74 43.80
9166 38.3110 1795.10 1752.79 44.50
9167 38.3148 1828.60 1760.25 44.80
9168 38.3185 1823.10 1768.14 43.70
9169 38.3223 1734.20 1776.52 43.40
9170 38.3260 1850.40 1785.39 45.50
9171 38.3298 1862.50 1794.78 45.10
9172 38.3335 1905.30 1804.77 44.80
9173 38.3373 1915.40 1815.42 45.90
9174 38.3411 1898.80 1826.76 45.60
9175 38.3448 1827.30 1838.81 45.40
9176 38.3486 1865.00 1851.76 44.90
9177 38.3523 1946.40 1865.53 46.00
9178 38.3561 1938.30 1880.31 45.70
9179 38.3599 1945.90 1896.17 46.30
9180 38.3636 1974.10 1913.21 46.90
9181 38.3674 1972.90 1931.50 46.40
9182 38.3711 2064.50 1951.26 47.60
9183 38.3749 2034.20 1972.61 47.60
9184 38.3786 2161.20 1995.71 49.20
9185 38.3824 2086.60 2020.76 48.00
9186 38.3862 2110.00 2047.91 48.50
9187 38.3899 2129.20 2077.55 49.00
9188 38.3937 2238.00 2109.92 49.70
9189 38.3974 2230.30 2145.35 48.40
9190 38.4012 2282.20 2184.24 50.70
9191 38.4049 2317.30 2227.05 50.70
9192 38.4087 2473.40 2274.18 52.60
9193 38.4125 2466.50 2326.53 52.10
9194 38.4162 2558.10 2384.73 53.10
9195 38.4200 2587.60 2449.68 53.50
9196 38.4237 2725.10 2522.43 55.60
9197 38.4275 2695.60 2604.07 55.20
9198 38.4313 2839.80 2696.85 56.40
9199 38.4350 2869.20 2801.70 56.60
9200 38.4388 2985.30 2921.77 57.90
9201 38.4425 3176.60 3059.75 59.70
9202 38.4463 3340.00 3219.33 61.80
9203 38.4501 3527.90 3405.20 63.60
9204 38.4538 3774.10 3622.71 66.10
9205 38.4576 3886.00 3880.84 67.00
9206 38.4613 4265.80 4189.30 70.50
9207 38.4651 4583.40 4561.90 72.60
9208 38.4688 4960.50 5017.78 76.60
9209 38.4726 5499.60 5584.90 80.20
9210 38.4763 6362.90 6304.75 86.90
9211 38.4801 6948.60 7254.54 91.40
9212 38.4839 8246.80 8560.57 98.00
9213 38.4876 9781.40 10442.20 109.00
9214 38.4914 11998.60 13248.60 122.90
9215 38.4952 15284.90 17470.40 140.30
9216 38.4989 21420.60 23684.80 171.10
9217 38.5027 29273.20 32364.60 206.60
9218 38.5064 41789.10 43639.20 251.10
9219 38.5102 54691.30 56420.80 294.20
9220 38.5139 66364.20 67279.50 331.70
9221 38.5177 69967.70 70769.60 343.60
9222 38.5215 67645.40 64587.30 334.00
9223 38.5252 57612.90 52595.10 308.40
9224 38.5290 44640.30 40066.70 261.00
9225 38.5327 30287.10 29513.90 208.40
9226 38.5365 21529.00 21586.90 171.00
9227 38.5402 15402.90 16027.10 142.00
9228 38.5440 12218.40 12285.90 124.40
9229 38.5478 9894.50 9805.84 111.40
9230 38.5515 8398.00 8120.15 101.00
9231 38.5553 7028.50 6940.86 92.00
9232 38.5590 6258.20 6068.49 86.20
9233 38.5628 5360.60 5397.77 79.70
9234 38.5666 4953.00 4867.74 75.60
9235 38.5703 4465.00 4438.83 71.30
9236 38.5741 4236.70 4087.66 70.30
9237 38.5778 3904.70 3794.29 66.70
9238 38.5816 3561.50 3549.38 63.80
9239 38.5854 3388.20 3341.27 61.30
9240 38.5891 3253.70 3163.36 60.00
9241 38.5929 3024.40 3010.51 58.20
9242 38.5966 3028.10 2877.91 58.20
9243 38.6004 2842.20 2762.18 56.70
9244 38.6041 2844.50 2660.85 56.40
9245 38.6079 2756.70 2571.62 56.00
9246 38.6117 2551.10 2492.32 53.80
9247 38.6154 2590.30 2421.65 52.80
9248 38.6192 2513.20 2358.58 52.70
9249 38.6229 2395.60 2301.91 52.40
9250 38.6267 2427.90 2250.81 51.90
9251 38.6305 2301.90 2204.69 50.30
9252 38.6342 2229.50 2162.81 49.20
9253 38.6380 2223.80 2124.80 49.20
9254 38.6417 2323.70 2089.99 50.70
9255 38.6455 2197.70 2058.20 49.40
9256 38.6493 2172.60 2029.00 49.10
9257 38.6530 2125.80 2002.14 48.50
9258 38.6568 2255.10 1977.42 49.90
9259 38.6605 2039.40 1954.56 47.30
9260 38.6643 2012.50 1933.46 46.60
9261 38.6680 2054.40 1913.79 47.10
9262 38.6718 1923.90 1895.60 45.70
9263 38.6756 1976.60 1878.63 46.20
9264 38.6793 1993.50 1862.79 46.60
9265 38.6831 1887.20 1848.02 44.90
9266 38.6868 1899.20 1834.19 45.00
9267 38.6906 1908.40 1821.22 45.30
9268 38.6944 1941.40 1809.08 45.60
9269 38.6981 1840.80 1797.66 44.20
9270 38.7019 1900.80 1786.94 45.40
9271 38.7056 1811.20 1776.81 43.80
9272 38.7094 1913.00 1767.27 45.10
9273 38.7132 1755.50 1758.26 43.60
9274 38.7169 1790.40 1749.73 43.60
9275 38.7207 1761.30 1741.67 43.00
9276 38.7244 1844.60 1734.03 45.50
9277 38.7282 1808.60 1726.78 44.60
9278 38.7319 1843.30 1719.91 44.60
9279 38.7357 1828.90 1713.38 43.30
9280 38.7395 1791.10 1707.18 43.90
9281 38.7432 1712.80 1701.25 42.70
9282 38.7470 1769.70 1695.62 43.60
9283 38.7507 1684.80 1690.24 43.00
9284 38.7545 1739.70 1685.11 43.20
9285 38.7583 1658.00 1680.21 42.20
9286 38.7620 1713.30 1675.53 43.30
9287 38.7658 1707.40 1671.04 43.00
9288 38.7695 1761.50 1666.76 43.90
9289 38.7733 1684.20 1662.65 42.30
9290 38.7771 1675.40 1658.72 42.50
9291 38.7808 1649.50 1654.93 41.80
9292 38.7846 1663.20 1651.31 42.00
9293 38.7883 1628.70 1647.82 41.10
9294 38.7921 1686.30 1644.47 43.00
9295 38.7958 1609.90 1641.25 41.20
9296 38.7996 1639.60 1638.15 41.80
9297 38.8034 1722.90 1635.17 42.50
9298 38.8071 1690.70 1632.29 42.50
9299 38.8109 1645.50 1629.52 42.10
9300 38.8146 1671.40 1626.85 42.00
9301 38.8184 1617.30 1624.27 41.10
9302 38.8222 1674.60 1621.78 42.30
9303 38.8259 1724.40 1619.38 43.80
9304 38.8297 1714.00 1617.05 43.00
9305 38.8334 1675.70 1614.80 42.30
9306 38.8372 1638.60 1612.63 41.50
9307 38.8410 1551.10 1610.52 40.70
9308 38.8447 1604.10 1608.48 41.30
9309 38.8485 1566.20 1606.51 41.00
9310 38.8522 1606.50 1604.59 41.30
9311 38.8560 1579.10 1602.74 41.00
9312 38.8598 1583.70 1600.94 40.30
9313 38.8635 1607.10 1599.20 41.70
9314 38.8673 1645.60 1597.50 42.60
9315 38.8710 1612.80 1595.85 41.70
9316 38.8748 1583.80 1594.25 40.80
9317 38.8786 1620.30 1592.70 42.00
9318 38.8823 1675.00 1591.19 42.50
9319 38.8861 1603.80 1589.72 41.40
9320 38.8898 1584.60 1588.28 41.20
9321 38.8936 1532.40 1586.89 40.20
9322 38.8974 1643.10 1585.54 41.90
9323 38.9011 1597.00 1584.21 41.70
9324 38.9049 1572.70 1582.93 41.40
9325 38.9086 1501.30 1581.67 40.30
9326 38.9124 1557.80 1524.82 40.20
9327 38.9161 1543.10 1524.66 39.80
9328 38.9199 1584.80 1524.51 40.80
9329 38.9237 1543.90 1524.36 40.80
9330 38.9274 1640.60 1524.21 42.50
9331 38.9312 1468.60 1524.06 40.00
9332 38.9349 1538.80 1523.91 40.30
9333 38.9387 1568.30 1523.76 41.10
9334 38.9425 1631.40 1523.61 41.50
9335 38.9462 1549.80 1523.46 41.00
9336 38.9500 1603.90 1523.30 41.90
9337 38.9537 1536.70 1523.15 40.60
9338 38.9575 1500.20 1523.00 39.90
9339 38.9613 1544.50 1522.85 40.70
9340 38.9650 1592.40 1522.70 41.50
9341 38.9688 1535.10 1522.55 40.70
9342 38.9725 1563.90 1522.40 40.80
9343 38.9763 1617.70 1522.25 41.80
9344 38.9800 1618.70 1522.10 42.00
9345 38.9838 1528.10 1521.94 40.40
9346 38.9876 1612.30 1521.79 41.80
9347 38.9913 1577.00 1521.64 40.90
9348 38.9951 1507.90 1521.49 40.10
9349 38.9989 1497.40 1521.34 40.00
9350 39.0026 1566.20 1521.19 40.80
9351 39.0064 1621.80 1521.04 42.20
9352 39.0101 1595.70 1520.89 41.70
9353 39.0139 1522.80 1520.74 40.20
9354 39.0177 1637.00 1520.58 41.30
9355 39.0214 1576.30 1520.43 40.60
9356 39.0252 1550.90 1520.28 41.00
9357 39.0289 1525.40 1520.13 40.80
9358 39.0327 1505.20 1519.98 40.20
9359 39.0364 1645.70 1519.83 41.90
9360 39.0402 1565.20 1519.68 41.10
9361 39.0440 1507.20 1519.53 40.30
9362 39.0477 1598.60 1519.38 41.90
9363 39.0515 1563.50 1519.23 41.20
9364 39.0552 1565.10 1519.07 40.80
9365 39.0590 1590.20 1518.92 41.90
9366 39.0628 1556.30 1518.77 41.80
9367 39.0665 1587.50 1518.62 41.20
9368 39.0703 1589.90 1518.47 40.90
9369 39.0740 1477.20 1518.32 39.50
9370 39.0778 1577.40 1518.17 41.80
9371 39.0816 1575.20 1518.02 41.90
9372 39.0853 1551.40 1517.87 40.50
9373 39.0891 1616.60 1517.71 41.90
9374 39.0928 1562.60 1517.56 41.30
9375 39.0966 1529.00 1517.41 40.10
9376 39.1004 1549.60 1517.26 40.70
9377 39.1041 1595.90 1517.11 42.10
9378 39.1079 1636.50 1516.96 42.20
9379 39.1116 1525.30 1516.81 40.80
9380 39.1154 1520.80 1516.66 40.70
9381 39.1192 1523.90 1516.51 40.30
9382 39.1229 1578.20 1516.35 41.40
9383 39.1267 1543.50 1516.20 41.10
9384 39.1304 1567.30 1516.05 41.50
9385 39.1342 1567.30 1515.90 41.00
9386 39.1380 1540.00 1515.75 41.00
9387 39.1417 1524.70 1515.60 40.70
9388 39.1455 1543.70 1515.45 41.00
9389 39.1492 1520.60 1515.30 40.10
9390 39.1530 1482.10 1515.15 40.30
9391 39.1567 1532.50 1515.00 40.90
9392 39.1605 1609.50 1514.84 41.90
9393 39.1643 1533.80 1514.69 41.00
9394 39.1680 1523.60 1514.54 40.80
9395 39.1718 1547.80 1514.39 41.10
9396 39.1755 1639.30 1514.24 42.50
9397 39.1793 1609.60 1514.09 42.30
9398 39.1831 1567.20 1513.94 41.40
9399 39.1868 1566.40 1513.79 41.60
9400 39.1906 1567.90 1513.64 41.10
9401 39.1944 1530.30 1513.48 40.80
9402 39.1981 1600.10 1513.33 41.60
9403 39.2019 1493.90 1513.18 40.50
9404 39.2056 1507.60 1513.03 40.20
9405 39.2094 1555.10 1512.88 41.40
9406 39.2132 1523.10 1512.73 40.70
9407 39.2169 1617.40 1512.58 41.90
9408 39.2207 1559.10 1512.43 40.50
9409 39.2244 1589.80 1512.28 43.00
9410 39.2282 1557.60 1512.13 41.70
9411 39.2319 1557.90 1511.97 40.90
9412 39.2357 1536.80 1511.82 40.60
9413 39.2395 1484.50 1511.67 40.30
9414 39.2432 1589.90 1511.52 42.10
9415 39.2470 1449.90 1511.37 39.60
9416 39.2507 1531.90 1511.22 40.90
9417 39.2545 1529.80 1511.07 41.10
9418 39.2583 1512.60 1510.92 40.90
9419 39.2620 1557.90 1510.77 41.50
9420 39.2658 1558.20 1510.61 41.10
9421 39.2695 1560.50 1510.46 41.20
9422 39.2733 1471.40 1510.31 39.90
9423 39.2771 1445.00 1510.16 40.20
9424 39.2808 1525.20 1510.01 40.80
9425 39.2846 1534.50 1509.86 41.20
9426 39.2883 1450.70 1509.71 39.70
9427 39.2921 1511.20 1509.56 40.70
9428 39.2959 1602.20 1509.41 41.80
9429 39.2996 1517.10 1509.26 40.30
9430 39.3034 1538.00 1509.11 40.90
9431 39.3071 1520.50 1508.95 40.60
9432 39.3109 1570.00 1508.80 40.90
9433 39.3147 1533.90 1508.65 40.50
9434 39.3184 1530.40 1508.50 40.70
9435 39.3222 1478.10 1508.35 39.80
9436 39.3259 1669.30 1508.20 43.50
9437 39.3297 1498.80 1508.05 39.60
9438 39.3335 1534.10 1507.90 40.60
9439 39.3372 1488.60 1507.75 40.20
9440 39.3410 1516.70 1507.60 41.00
9441 39.3447 1443.10 1507.44 39.10
9442 39.3485 1542.30 1507.29 41.10
9443 39.3523 1510.80 1507.14 40.40
9444 39.3560 1510.70 1506.99 40.50
9445 39.3598 1541.20 1506.84 41.40
9446 39.3635 1540.50 1506.69 40.90
9447 39.3673 1461.30 1506.54 39.20
9448 39.3711 1565.20 1506.39 40.90
9449 39.3748 1509.90 1506.24 40.40
9450 39.3786 1585.90 1506.09 41.50
9451 39.3823 1535.60 1505.94 40.70
9452 39.3861 1555.00 1505.79 40.90
9453 39.3899 1537.30 1505.63 41.20
9454 39.3936 1530.50 1505.48 40.80
9455 39.3974 1559.50 1505.33 41.20
9456 39.4011 1509.10 1505.18 40.60
9457 39.4049 1522.40 1505.03 40.90
9458 39.4086 1538.50 1504.88 40.90
9459 39.4124 1538.50 1504.73 40.80
9460 39.4162 1659.20 1504.58 42.20
9461 39.4199 1467.30 1504.43 39.10
9462 39.4237 1616.00 1504.28 42.40
9463 39.4274 1504.30 1504.13 40.50
9464 39.4312 1577.30 1503.97 41.30
9465 39.4350 1430.10 1503.82 39.10
9466 39.4387 1546.60 1503.67 41.30
9467 39.4425 1560.90 1503.52 40.50
9468 39.4463 1517.20 1503.37 40.50
9469 39.4500 1539.40 1503.22 40.90
9470 39.4538 1652.30 1503.07 41.80
9471 39.4575 1494.10 1502.92 39.80
9472 39.4613 1484.60 1502.77 39.90
9473 39.4650 1453.90 1502.62 39.80
9474 39.4688 1517.90 1502.47 40.30
9475 39.4726 1584.00 1502.32 41.30
9476 39.4763 1579.50 1502.17 41.10
9477 39.4801 1546.20 1502.01 41.00
9478 39.4838 1506.90 1501.86 40.10
9479 39.4876 1490.20 1501.71 39.70
9480 39.4914 1600.80 1501.56 41.20
9481 39.4951 1468.10 1501.41 40.30
9482 39.4989 1494.30 1501.26 40.30
9483 39.5027 1517.30 1501.11 40.20
9484 39.5064 1550.00 1500.96 41.10
9485 39.5102 1507.10 1500.81 40.70
9486 39.5139 1503.10 1500.66 39.40
9487 39.5177 1487.80 1500.51 40.10
9488 39.5215 1566.90 1500.36 40.70
9489 39.5252 1546.30 1500.21 41.40
9490 39.5290 1497.30 1500.06 40.50
9491 39.5327 1543.60 1499.91 41.50
9492 39.5365 1553.20 1499.75 40.40
9493 39.5402 1483.80 1499.60 39.70
9494 39.5440 1480.90 1499.45 39.50
9495 39.5478 1439.30 1499.30 39.70
9496 39.5515 1590.30 1499.15 41.30
9497 39.5553 1500.10 1499.00 39.60
9498 39.5591 1509.80 1498.85 40.00
9499 39.5628 1499.70 1498.70 39.70
9500 39.5666 1609.60 1498.55 41.70
9501 39.5703 1479.80 1498.40 40.00
9502 39.5741 1518.70 1498.25 40.80
9503 39.5779 1524.60 1498.10 40.60
9504 39.5816 1510.80 1497.95 40.30
9505 39.5854 1446.30 1497.80 39.60
9506 39.5891 1555.60 1497.65 40.50
9507 39.5929 1490.10 1497.50 39.90
9508 39.5966 1495.90 1497.35 40.30
9509 39.6004 1544.70 1497.19 41.10
9510 39.6042 1574.10 1497.04 40.60
9511 39.6079 1531.50 1496.89 41.00
9512 39.6117 1536.60 1496.74 40.70
9513 39.6154 1501.50 1496.59 40.00
9514 39.6192 1576.20 1496.44 40.70
9515 39.6230 1527.60 1496.29 40.00
9516 39.6267 1545.40 1496.14 41.00
9517 39.6305 1501.40 1495.99 40.00
9518 39.6342 1546.30 1495.84 40.30
9519 39.6380 1574.50 1495.69 40.30
9520 39.6418 1493.80 1495.54 39.50
9521 39.6455 1541.70 1495.39 40.40
9522 39.6493 1501.20 1495.24 39.80
9523 39.6530 1542.80 1495.09 40.60
9524 39.6568 1552.00 1494.94 40.20
9525 39.6606 1585.30 1494.79 41.20
9526 39.6643 1584.70 1494.64 40.00
9527 39.6681 1463.40 1494.49 39.30
9528 39.6718 1540.60 1494.34 40.60
9529 39.6756 1551.70 1494.19 40.10
9530 39.6794 1516.00 1494.04 40.20
9531 39.6831 1441.40 1493.89 38.70
9532 39.6869 1508.20 1493.74 40.00
9533 39.6906 1470.60 1493.59 39.60
9534 39.6944 1521.60 1493.44 40.40
9535 39.6982 1560.70 1493.29 40.70
9536 39.7019 1573.40 1493.14 40.80
9537 39.7057 1489.30 1492.98 39.50
9538 39.7094 1555.70 1492.83 40.70
9539 39.7132 1488.30 1492.68 40.20
9540 39.7170 1532.90 1492.53 40.10
9541 39.7207 1541.50 1492.38 40.20
9542 39.7245 1508.50 1492.23 40.70
9543 39.7282 1549.90 1492.08 41.10
9544 39.7320 1557.10 1491.93 40.80
9545 39.7358 1532.10 1491.78 40.30
9546 39.7395 1465.30 1491.63 39.20
9547 39.7433 1523.70 1491.48 40.10
9548 39.7470 1616.20 1491.33 41.70
9549 39.7508 1503.20 1491.18 39.90
9550 39.7546 1546.60 1491.03 40.60
9551 39.7583 1534.90 1490.88 40.60
9552 39.7621 1625.80 1490.73 41.90
9553 39.7658 1542.80 1490.58 41.20
9554 39.7696 1512.60 1490.43 40.50
9555 39.7734 1508.30 1490.28 40.20
9556 39.7771 1528.80 1490.13 40.20
9557 39.7809 1503.60 1489.98 40.10
9558 39.7846 1547.50 1489.83 41.00
9559 39.7884 1557.70 1489.68 40.90
9560 39.7922 1544.20 1489.53 40.20
9561 39.7959 1483.70 1489.38 39.90
9562 39.7997 1574.90 1489.23 40.90
9563 39.8034 1581.60 1489.08 40.50
9564 39.8072 1529.90 1488.93 40.30
9565 39.8110 1510.00 1488.78 40.20
9566 39.8147 1513.30 1488.63 39.60
9567 39.8185 1472.90 1488.48 39.80
9568 39.8222 1527.00 1488.33 39.90
9569 39.8260 1498.50 1488.18 40.70
9570 39.8298 1519.10 1488.03 40.40
9571 39.8335 1493.50 1487.88 39.20
9572 39.8373 1566.00 1487.73 40.80
9573 39.8410 1520.00 1487.58 40.40
9574 39.8448 1530.50 1487.43 40.00
9575 39.8486 1513.30 1487.28 40.10
9576 39.8523 1516.30 1487.13 39.70
9577 39.8561 1533.10 1486.98 40.50
9578 39.8598 1530.10 1486.83 40.50
9579 39.8636 1481.90 1486.68 39.60
9580 39.8674 1497.90 1486.53 39.90
9581 39.8711 1537.50 1486.38 40.50
9582 39.8749 1566.20 1486.24 40.30
9583 39.8786 1508.40 1486.08 40.40
9584 39.8824 1485.00 1485.94 39.00
9585 39.8862 1544.00 1485.79 41.00
9586 39.8899 1519.80 1485.64 40.50
9587 39.8937 1441.40 1485.49 38.40
9588 39.8974 1528.00 1485.34 40.40
9589 39.9012 1534.00 1485.19 40.50
9590 39.9049 1573.10 1485.04 41.50
9591 39.9087 1486.90 1484.89 39.40
9592 39.9125 1512.10 1484.74 39.80
9593 39.9162 1536.10 1484.59 40.80
9594 39.9200 1520.80 1484.44 40.10
9595 39.9238 1585.00 1484.29 41.20
9596 39.9275 1572.00 1484.14 41.50
9597 39.9313 1488.00 1483.99 40.30
9598 39.9350 1591.70 1483.84 40.90
9599 39.9388 1476.80 1483.69 40.00
9600 39.9426 1548.10 1483.54 40.70
9601 39.9463 1521.50 1483.39 40.30
9602 39.9501 1520.80 1483.24 40.70
9603 39.9538 1466.40 1483.09 40.10
9604 39.9576 1585.40 1482.94 41.30
9605 39.9613 1529.20 1482.79 40.30
9606 39.9651 1476.60 1482.64 39.30
9607 39.9689 1532.80 1482.50 40.70
9608 39.9726 1583.50 1482.35 41.10
9609 39.9764 1505.20 1482.20 40.20
9610 39.9801 1611.00 1482.05 41.40
9611 39.9839 1471.80 1481.90 38.80
9612 39.9877 1527.90 1481.75 40.10
9613 39.9914 1508.20 1481.60 40.00
9614 39.9952 1502.40 1481.45 39.30
9615 39.9990 1540.20 1481.30 40.20
9616 40.0027 1526.60 1481.15 40.20
9617 40.0065 1474.60 1481.00 39.80
9618 40.0102 1540.30 1480.85 40.60
9619 40.0140 1542.30 1480.70 40.50
9620 40.0177 1437.70 1480.55 39.10
9621 40.0215 1490.50 1480.41 39.40
9622 40.0253 1485.20 1480.26 40.20
9623 40.0290 1443.00 1480.11 39.00
9624 40.0328 1519.80 1479.96 39.70
9625 40.0365 1499.10 1479.81 40.10
9626 40.0403 1517.10 1479.66 40.00
9627 40.0441 1524.30 1479.51 40.50
9628 40.0478 1491.10 1479.36 39.70
9629 40.0516 1518.60 1479.21 40.40
9630 40.0553 1499.40 1479.06 39.70
9631 40.0591 1547.00 1478.91 40.20
9632 40.0629 1519.10 1478.76 40.40
9633 40.0666 1562.90 1478.62 40.80
9634 40.0704 1551.50 1478.47 40.70
9635 40.0741 1556.90 1478.32 41.00
9636 40.0779 1521.80 1480.87 40.10
9637 40.0817 1556.80 1480.77 40.70
9638 40.0854 1575.60 1480.68 40.80
9639 40.0892 1471.50 1480.58 40.20
9640 40.0929 1489.00 1480.49 39.80
9641 40.0967 1562.50 1480.40 40.50
9642 40.1005 1516.20 1480.31 39.50
9643 40.1042 1505.20 1480.22 39.70
9644 40.1080 1441.40 1480.14 38.80
9645 40.1117 1513.10 1480.05 39.80
9646 40.1155 1529.90 1479.97 39.70
9647 40.1193 1483.60 1479.89 39.10
9648 40.1230 1485.70 1479.81 39.40
9649 40.1268 1481.50 1479.74 39.90
9650 40.1305 1567.90 1479.67 40.40
9651 40.1343 1482.50 1479.60 39.00
9652 40.1381 1504.90 1479.53 39.60
9653 40.1418 1554.90 1479.47 40.40
9654 40.1456 1455.70 1479.40 39.00
9655 40.1493 1550.10 1479.35 40.50
9656 40.1531 1571.30 1479.29 40.30
9657 40.1568 1481.00 1479.24 39.40
9658 40.1606 1497.20 1479.19 39.70
9659 40.1644 1459.80 1479.14 39.20
9660 40.1681 1534.80 1479.10 40.20
9661 40.1719 1403.30 1479.07 38.30
9662 40.1757 1523.80 1479.03 39.80
9663 40.1794 1440.40 1479.00 38.90
9664 40.1832 1568.30 1478.98 40.60
9665 40.1869 1454.60 1478.96 39.10
9666 40.1907 1589.30 1478.95 41.00
9667 40.1944 1484.60 1478.94 38.60
9668 40.1982 1596.40 1478.94 41.00
9669 40.2020 1463.80 1478.94 39.30
9670 40.2057 1549.10 1478.95 40.80
9671 40.2095 1486.60 1478.97 39.00
9672 40.2132 1519.30 1478.99 39.70
9673 40.2170 1526.60 1479.02 39.60
9674 40.2208 1588.00 1479.06 40.70
9675 40.2245 1376.10 1479.11 37.90
9676 40.2283 1531.60 1479.16 40.60
9677 40.2320 1471.80 1479.23 38.90
9678 40.2358 1506.40 1479.30 39.60
9679 40.2396 1506.10 1479.39 39.60
9680 40.2433 1542.50 1479.49 39.90
9681 40.2471 1575.30 1479.60 40.80
9682 40.2508 1505.30 1479.72 39.70
9683 40.2546 1533.40 1479.85 40.20
9684 40.2584 1513.00 1480.01 40.10
9685 40.2621 1539.40 1480.17 40.40
9686 40.2659 1588.90 1480.36 40.40
9687 40.2696 1513.20 1480.56 39.90
9688 40.2734 1528.50 1480.78 40.30
9689 40.2771 1536.70 1481.02 40.60
9690 40.2809 1530.30 1481.29 40.00
9691 40.2847 1497.70 1481.58 40.00
9692 40.2884 1484.70 1481.89 39.50
9693 40.2922 1476.40 1482.24 39.40
9694 40.2960 1516.60 1482.61 40.00
9695 40.2997 1497.40 1483.02 39.70
9696 40.3035 1503.00 1483.46 40.00
9697 40.3072 1514.60 1483.94 40.40
9698 40.3110 1586.40 1484.47 41.30
9699 40.3147 1531.10 1485.04 40.40
9700 40.3185 1490.70 1485.67 39.20
9701 40.3223 1477.90 1486.35 39.00
9702 40.3260 1574.20 1487.09 40.90
9703 40.3298 1564.30 1487.90 40.60
9704 40.3335 1588.50 1488.79 40.90
9705 40.3373 1483.50 1489.76 39.70
9706 40.3411 1530.30 1490.82 40.30
9707 40.3448 1517.00 1491.99 39.90
9708 40.3486 1545.50 1493.27 40.40
9709 40.3523 1517.40 1494.68 40.20
9710 40.3561 1601.50 1496.23 41.30
9711 40.3599 1523.60 1497.95 40.40
9712 40.3636 1559.10 1499.85 40.70
9713 40.3674 1570.90 1501.97 40.50
9714 40.3711 1560.30 1504.32 41.00
9715 40.3749 1621.90 1506.95 41.70
9716 40.3787 1519.50 1509.89 40.30
9717 40.3824 1456.30 1513.20 38.50
9718 40.3862 1548.60 1516.93 40.50
9719 40.3899 1564.90 1521.17 41.00
9720 40.3937 1611.10 1525.98 41.00
9721 40.3974 1539.80 1531.49 40.10
9722 40.4012 1523.00 1537.82 40.10
9723 40.4050 1581.70 1545.13 40.40
9724 40.4087 1579.60 1553.68 41.00
9725 40.4125 1579.00 1563.66 40.50
9726 40.4162 1619.10 1575.48 41.40
9727 40.4200 1593.20 1589.57 40.80
9728 40.4238 1608.50 1606.55 40.50
9729 40.4275 1599.50 1627.23 41.60
9730 40.4313 1700.20 1652.82 42.00
9731 40.4350 1684.10 1685.11 42.10
9732 40.4388 1775.40 1727.05 43.60
9733 40.4426 1737.80 1783.63 42.60
9734 40.4463 1858.30 1863.25 44.10
9735 40.4501 1862.30 1978.94 43.80
9736 40.4538 2005.50 2150.58 46.50
9737 40.4576 2229.60 2401.83 49.10
9738 40.4613 2528.30 2756.30 52.60
9739 40.4651 2901.30 3226.19 56.30
9740 40.4689 3601.90 3787.52 62.30
9741 40.4726 4003.50 4331.11 67.10
9742 40.4764 4353.30 4634.10 70.80
9743 40.4801 4352.40 4510.57 69.80
9744 40.4839 3975.50 4041.92 65.70
9745 40.4877 3395.40 3469.02 61.80
9746 40.4914 2961.20 2951.30 56.40
9747 40.4952 2452.00 2545.07 51.90
9748 40.4989 2179.00 2249.94 47.70
9749 40.5027 1922.90 2045.50 44.50
9750 40.5065 1906.80 1907.07 44.40
9751 40.5102 1839.60 1812.94 44.30
9752 40.5140 1789.80 1747.13 43.70
9753 40.5177 1714.70 1699.28 42.50
9754 40.5215 1695.30 1662.75 42.30
9755 40.5252 1670.00 1634.23 42.60
9756 40.5290 1652.10 1611.24 42.40
9757 40.5328 1592.70 1592.43 41.10
9758 40.5365 1619.20 1576.84 41.00
9759 40.5403 1584.40 1563.77 41.00
9760 40.5440 1521.40 1552.71 40.10
9761 40.5478 1565.60 1543.26 40.90
9762 40.5516 1617.70 1535.14 41.00
9763 40.5553 1502.60 1528.11 39.80
9764 40.5591 1591.90 1521.95 41.10
9765 40.5628 1513.00 1516.55 40.00
9766 40.5666 1594.30 1511.77 41.00
9767 40.5704 1556.50 1507.53 41.00
9768 40.5741 1603.00 1503.74 41.10
9769 40.5779 1482.20 1500.35 39.40
9770 40.5816 1540.60 1497.29 40.10
9771 40.5854 1457.30 1494.53 38.60
9772 40.5891 1552.40 1492.02 39.90
9773 40.5929 1490.10 1489.73 39.20
9774 40.5967 1590.00 1487.64 40.40
9775 40.6004 1457.30 1485.72 39.10
9776 40.6042 1449.50 1483.95 39.00
9777 40.6079 1497.70 1482.32 39.80
9778 40.6117 1582.20 1480.81 40.60
9779 40.6155 1474.80 1479.41 39.20
9780 40.6192 1555.80 1478.11 40.50
9781 40.6230 1467.80 1476.89 38.90
9782 40.6267 1604.20 1475.75 41.90
9783 40.6305 1521.20 1474.68 39.80
9784 40.6343 1523.20 1473.68 40.10
9785 40.6380 1518.10 1472.74 39.70
9786 40.6418 1492.00 1471.85 39.50
9787 40.6455 1525.50 1471.01 40.10
9788 40.6493 1463.40 1470.21 39.00
9789 40.6530 1539.10 1469.46 40.30
9790 40.6568 1543.90 1468.74 40.60
9791 40.6606 1478.80 1468.06 39.20
9792 40.6643 1487.90 1467.40 39.50
9793 40.6681 1549.70 1466.78 40.50
9794 40.6718 1519.80 1466.19 39.90
9795 40.6756 1526.80 1465.62 39.80
9796 40.6794 1511.70 1465.07 39.10
9797 40.6831 1441.40 1464.55 38.80
9798 40.6869 1510.20 1464.04 40.00
9799 40.6906 1509.40 1463.56 39.90
9800 40.6944 1521.70 1463.09 39.50
9801 40.6982 1527.50 1462.64 39.60
9802 40.7019 1461.50 1462.20 38.80
9803 40.7057 1466.30 1461.78 39.50
9804 40.7094 1429.20 1461.37 38.80
9805 40.7132 1475.80 1460.97 39.50
9806 40.7169 1486.30 1460.59 39.30
9807 40.7207 1524.20 1460.21 39.70
9808 40.7245 1457.50 1459.85 38.80
9809 40.7282 1517.20 1459.49 40.50
9810 40.7320 1449.40 1459.15 39.10
9811 40.7357 1461.10 1458.81 39.20
9812 40.7395 1524.00 1458.48 40.00
9813 40.7433 1509.80 1458.16 39.60
9814 40.7470 1426.70 1457.85 38.80
9815 40.7508 1431.90 1457.54 38.30
9816 40.7545 1474.60 1457.24 39.00
9817 40.7583 1449.50 1456.95 39.00
9818 40.7621 1454.90 1456.66 38.90
9819 40.7658 1429.20 1456.38 38.80
9820 40.7696 1525.70 1456.10 40.20
9821 40.7733 1490.20 1455.83 39.70
9822 40.7771 1500.90 1455.56 40.00
9823 40.7808 1496.40 1455.30 39.70
9824 40.7846 1514.00 1455.04 40.30
9825 40.7884 1558.30 1454.79 40.10
9826 40.7921 1497.90 1454.54 39.80
9827 40.7959 1420.30 1454.29 38.80
9828 40.7996 1504.80 1454.05 40.10
9829 40.8034 1478.70 1453.81 39.70
9830 40.8072 1516.90 1453.57 40.10
9831 40.8109 1452.80 1453.34 39.40
9832 40.8147 1519.00 1453.11 39.60
9833 40.8184 1481.80 1452.88 39.60
9834 40.8222 1532.70 1452.65 40.00
9835 40.8259 1462.10 1452.43 39.30
9836 40.8297 1494.70 1452.21 40.20
9837 40.8335 1465.10 1451.99 38.90
9838 40.8372 1476.10 1451.78 39.60
9839 40.8410 1510.40 1451.56 40.00
9840 40.8447 1541.90 1451.35 40.20
9841 40.8485 1502.00 1451.14 39.80
9842 40.8522 1518.40 1450.94 40.20
9843 40.8560 1496.10 1450.73 40.00
9844 40.8598 1473.50 1450.53 39.90
9845 40.8635 1545.30 1450.33 40.10
9846 40.8673 1493.00 1450.13 39.80
9847 40.8710 1426.00 1449.93 38.90
9848 40.8748 1528.50 1449.73 39.50
9849 40.8786 1419.50 1449.54 38.80
9850 40.8823 1515.10 1446.71 40.30
9851 40.8861 1482.20 1446.57 39.50
9852 40.8898 1497.40 1446.43 39.80
9853 40.8936 1483.10 1446.28 39.10
9854 40.8973 1526.10 1446.14 40.30
9855 40.9011 1499.70 1445.99 39.90
9856 40.9049 1464.20 1445.85 40.00
9857 40.9086 1485.30 1445.70 39.80
9858 40.9124 1483.30 1445.56 40.00
9859 40.9161 1431.60 1445.41 39.10
9860 40.9199 1538.40 1445.27 40.30
9861 40.9236 1488.30 1445.13 39.30
9862 40.9274 1512.60 1444.98 40.80
9863 40.9312 1507.90 1444.84 40.40
9864 40.9349 1541.90 1444.69 40.40
9865 40.9387 1538.30 1444.55 39.80
9866 40.9424 1502.40 1444.40 39.90
9867 40.9462 1490.70 1444.26 39.90
9868 40.9500 1495.80 1444.12 40.20
9869 40.9537 1437.90 1443.97 39.30
9870 40.9575 1542.20 1443.83 40.60
9871 40.9612 1498.20 1443.68 40.00
9872 40.9650 1529.70 1443.54 40.40
9873 40.9687 1443.60 1443.40 39.20
9874 40.9725 1484.90 1443.25 40.00
9875 40.9763 1512.00 1443.11 40.00
9876 40.9800 1469.50 1442.96 39.60
9877 40.9838 1457.70 1442.82 39.50
9878 40.9875 1552.20 1442.68 41.00
9879 40.9913 1418.10 1442.53 38.90
9880 40.9950 1437.80 1442.39 39.30
9881 40.9988 1528.90 1442.25 40.40
9882 41.0026 1610.40 1442.10 41.00
9883 41.0063 1465.60 1441.96 39.20
9884 41.0101 1477.10 1441.81 39.50
9885 41.0138 1490.50 1441.67 40.00
9886 41.0176 1522.90 1441.53 40.50
9887 41.0214 1515.20 1441.38 39.90
9888 41.0251 1532.30 1441.24 40.00
9889 41.0289 1428.40 1441.10 39.70
9890 41.0326 1453.30 1440.95 39.30
9891 41.0364 1505.40 1440.81 39.80
9892 41.0401 1453.50 1440.67 39.10
9893 41.0439 1465.00 1440.52 39.30
9894 41.0476 1490.10 1440.38 39.80
9895 41.0514 1428.70 1440.23 39.10
9896 41.0552 1534.10 1440.09 40.50
9897 41.0589 1538.70 1439.95 40.60
9898 41.0627 1487.00 1439.80 39.40
9899 41.0664 1391.70 1439.66 38.40
9900 41.0702 1563.50 1439.52 40.20
9901 41.0740 1524.30 1439.38 40.00
9902 41.0777 1511.40 1439.23 40.00
9903 41.0815 1452.80 1439.09 39.10
9904 41.0852 1525.40 1438.95 40.00
9905 41.0890 1459.90 1438.80 39.20
9906 41.0927 1539.20 1438.66 40.50
9907 41.0965 1447.40 1438.52 39.10
9908 41.1003 1497.60 1438.37 39.80
9909 41.1040 1492.90 1438.23 39.80
9910 41.1078 1565.10 1438.09 41.10
9911 41.1115 1512.10 1437.94 40.10
9912 41.1153 1580.30 1437.80 40.70
9913 41.1190 1500.20 1437.66 40.30
9914 41.1228 1510.80 1437.52 39.50
9915 41.1266 1512.00 1437.37 40.50
9916 41.1303 1554.10 1437.23 40.50
9917 41.1341 1442.40 1437.09 39.10
9918 41.1378 1516.00 1436.94 39.90
9919 41.1416 1492.90 1436.80 40.00
9920 41.1453 1511.80 1436.66 40.00
9921 41.1491 1419.70 1436.52 38.90
9922 41.1529 1496.00 1436.37 40.50
9923 41.1566 1453.60 1436.23 39.30
9924 41.1604 1521.90 1436.09 39.60
9925 41.1641 1403.70 1435.95 38.90
9926 41.1679 1529.30 1435.80 40.80
9927 41.1716 1524.10 1435.66 40.70
9928 41.1754 1474.90 1435.52 39.70
9929 41.1791 1379.00 1435.38 38.10
9930 41.1829 1517.50 1435.23 40.30
9931 41.1867 1425.00 1435.09 39.00
9932 41.1904 1545.40 1434.95 40.40
9933 41.1942 1447.80 1434.81 39.40
9934 41.1979 1508.00 1434.66 40.00
9935 41.2017 1459.70 1434.52 39.30
9936 41.2054 1562.30 1434.38 41.20
9937 41.2092 1444.00 1434.24 39.40
9938 41.2130 1496.80 1434.09 40.40
9939 41.2167 1485.20 1433.95 39.90
9940 41.2205 1470.90 1433.81 39.20
9941 41.2242 1416.10 1433.67 38.30
9942 41.2280 1498.00 1433.53 40.90
9943 41.2318 1432.60 1433.38 38.90
9944 41.2355 1471.50 1433.24 39.40
9945 41.2393 1462.20 1433.10 39.20
9946 41.2430 1471.00 1432.96 39.80
9947 41.2468 1490.50 1432.82 39.60
9948 41.2505 1439.00 1432.68 39.10
9949 41.2543 1483.70 1432.53 39.90
9950 41.2580 1446.10 1432.39 39.60
9951 41.2618 1537.10 1432.25 40.80
9952 41.2656 1496.50 1432.11 40.10
9953 41.2693 1452.70 1431.97 39.50
9954 41.2731 1495.80 1431.82 39.60
9955 41.2768 1448.90 1431.68 39.20
9956 41.2806 1522.50 1431.54 40.10
9957 41.2844 1457.20 1431.40 39.30
9958 41.2881 1546.30 1431.26 40.10
9959 41.2919 1498.20 1431.12 40.00
9960 41.2956 1523.50 1430.97 40.10
9961 41.2994 1441.00 1430.83 39.30
9962 41.3031 1445.80 1430.69 39.60
9963 41.3069 1384.70 1430.55 38.50
9964 41.3106 1433.00 1430.41 39.00
9965 41.3144 1513.90 1430.27 39.90
9966 41.3182 1403.20 1430.13 38.80
9967 41.3219 1443.70 1429.98 38.80
9968 41.3257 1483.50 1429.84 39.20
9969 41.3294 1482.10 1429.70 40.20
9970 41.3332 1495.10 1429.56 39.80
9971 41.3369 1429.50 1429.42 38.80
9972 41.3407 1545.30 1429.28 40.60
9973 41.3445 1461.60 1429.14 39.40
9974 41.3482 1389.50 1429.00 38.40
9975 41.3520 1493.30 1428.86 40.40
9976 41.3557 1449.20 1428.71 39.30
9977 41.3595 1514.20 1428.57 40.30
9978 41.3632 1499.70 1428.43 39.90
9979 41.3670 1527.20 1428.29 39.90
9980 41.3708 1540.90 1428.15 40.40
9981 41.3745 1380.70 1428.01 38.30
9982 41.3783 1459.80 1427.87 39.50
9983 41.3820 1403.80 1427.73 38.30
9984 41.3858 1481.20 1427.59 39.80
9985 41.3895 1486.00 1427.45 39.80
9986 41.3933 1550.10 1427.31 40.70
9987 41.3970 1447.00 1427.17 38.70
9988 41.4008 1546.20 1427.02 40.40
9989 41.4045 1411.30 1426.88 38.60
9990 41.4083 1418.80 1426.74 38.80
9991 41.4121 1458.30 1426.60 39.60
9992 41.4158 1454.50 1426.46 39.30
9993 41.4196 1457.40 1426.32 39.30
9994 41.4233 1501.20 1426.18 39.50
9995 41.4271 1427.50 1426.04 39.60
9996 41.4308 1516.30 1425.90 40.80
9997 41.4346 1478.70 1425.76 39.40
9998 41.4384 1435.00 1425.62 38.60
9999 41.4421 1447.20 1425.48 38.90
10000 41.4459 1528.80 1425.34 40.60
10001 41.4496 1440.00 1425.20 38.80
10002 41.4534 1515.70 1425.06 40.40
10003 41.4571 1438.70 1424.92 38.90
10004 41.4609 1479.70 1424.78 39.40
10005 41.4646 1403.90 1424.64 38.60
10006 41.4684 1537.80 1424.50 40.60
10007 41.4722 1432.80 1424.36 38.80
10008 41.4759 1500.40 1424.22 39.90
10009 41.4797 1480.60 1424.08 39.80
10010 41.4834 1418.20 1423.94 38.70
10011 41.4872 1418.70 1423.80 39.20
10012 41.4909 1421.10 1423.66 38.70
10013 41.4947 1430.90 1423.52 39.10
10014 41.4985 1451.20 1423.38 39.00
10015 41.5022 1424.50 1423.24 38.60
10016 41.5060 1419.80 1423.10 38.80
10017 41.5097 1468.90 1422.96 39.50
10018 41.5135 1515.30 1422.82 39.50
10019 41.5172 1443.50 1422.68 39.20
10020 41.5210 1462.90 1422.54 39.10
10021 41.5247 1434.10 1422.40 38.50
10022 41.5285 1547.80 1422.26 41.40
10023 41.5322 1470.90 1422.12 40.00
10024 41.5360 1491.10 1421.98 40.20
10025 41.5398 1443.80 1421.84 39.10
10026 41.5435 1499.40 1421.70 39.80
10027 41.5473 1457.70 1421.56 39.60
10028 41.5510 1437.00 1421.42 39.00
10029 41.5548 1553.40 1421.28 40.90
10030 41.5585 1471.70 1421.15 38.50
10031 41.5623 1512.00 1421.01 40.60
10032 41.5661 1520.00 1420.87 40.00
10033 41.5698 1514.10 1420.73 40.80
10034 41.5736 1512.90 1420.59 40.10
10035 41.5773 1455.40 1420.45 39.40
10036 41.5811 1411.30 1420.31 38.40
10037 41.5848 1433.40 1420.17 39.00
10038 41.5886 1471.90 1420.03 39.70
10039 41.5923 1603.10 1419.89 41.70
10040 41.5961 1516.60 1419.75 40.70
10041 41.5998 1415.10 1419.62 38.90
10042 41.6036 1456.30 1419.48 39.10
10043 41.6074 1500.90 1419.34 40.30
10044 41.6111 1547.70 1419.20 40.60
10045 41.6149 1466.20 1419.06 39.50
10046 41.6186 1608.70 1418.92 41.80
10047 41.6224 1488.10 1418.78 39.90
10048 41.6261 1489.50 1418.64 39.90
10049 41.6299 1457.10 1418.51 39.80
10050 41.6337 1479.80 1418.37 40.00
10051 41.6374 1421.20 1418.23 39.10
10052 41.6412 1439.20 1418.09 39.10
10053 41.6449 1489.40 1417.95 39.80
10054 41.6487 1480.10 1417.81 39.80
10055 41.6524 1426.40 1417.67 39.30
10056 41.6562 1516.40 1417.54 40.60
10057 41.6599 1421.40 1417.40 39.30
10058 41.6637 1493.60 1417.26 40.10
10059 41.6674 1376.10 1417.12 38.70
10060 41.6712 1538.40 1416.98 40.90
10061 41.6749 1405.50 1416.84 38.50
10062 41.6787 1491.30 1416.71 39.90
10063 41.6825 1505.70 1416.57 40.60
10064 41.6862 1513.00 1416.43 40.40
10065 41.6900 1456.00 1416.29 39.50
10066 41.6937 1525.50 1416.15 40.90
10067 41.6975 1436.00 1416.02 39.20
10068 41.7012 1534.60 1415.88 40.90
10069 41.7050 1341.70 1415.74 38.00
10070 41.7088 1475.70 1415.60 40.00
10071 41.7125 1413.60 1415.46 38.50
10072 41.7163 1507.70 1415.33 40.30
10073 41.7200 1478.10 1415.19 40.10
10074 41.7238 1489.70 1415.05 39.60
10075 41.7275 1466.00 1414.91 39.90
10076 41.7313 1539.30 1414.77 41.40
10077 41.7350 1496.10 1414.64 40.50
10078 41.7388 1495.00 1414.50 39.90
10079 41.7425 1384.30 1414.36 38.50
10080 41.7463 1552.40 1414.22 40.90
10081 41.7500 1554.50 1414.09 41.00
10082 41.7538 1572.10 1413.95 41.10
10083 41.7576 1483.40 1413.81 39.90
10084 41.7613 1500.10 1413.67 40.20
10085 41.7651 1412.80 1413.54 39.30
10086 41.7688 1457.80 1413.40 40.00
10087 41.7726 1419.80 1413.26 39.10
10088 41.7763 1485.70 1413.12 40.30
10089 41.7801 1490.90 1412.99 39.40
10090 41.7838 1490.00 1412.85 40.20
10091 41.7876 1452.80 1412.71 39.70
10092 41.7914 1473.40 1412.57 40.50
10093 41.7951 1523.90 1412.44 41.20
10094 41.7989 1527.50 1412.30 40.80
10095 41.8026 1487.50 1412.16 40.10
10096 41.8064 1488.60 1412.03 40.30
10097 41.8101 1488.90 1411.89 40.40
10098 41.8139 1475.70 1411.75 40.30
10099 41.8176 1464.00 1411.62 40.10
10100 41.8214 1500.10 1411.48 40.70
10101 41.8251 1425.10 1411.34 39.00
10102 41.8289 1480.40 1411.21 40.60
10103 41.8326 1410.90 1411.07 39.40
10104 41.8364 1582.50 1410.93 41.40
10105 41.8401 1443.20 1410.79 39.30
10106 41.8439 1516.50 1410.66 40.50
10107 41.8477 1538.00 1410.52 40.70
10108 41.8514 1472.20 1410.38 39.90
10109 41.8552 1475.20 1410.25 40.60
10110 41.8589 1556.60 1410.11 41.30
10111 41.8627 1517.20 1409.98 41.00
10112 41.8664 1498.80 1409.84 40.50
10113 41.8702 1455.60 1409.70 39.30
10114 41.8739 1450.20 1409.57 39.70
10115 41.8777 1506.30 1409.43 41.00
10116 41.8815 1513.90 1409.29 40.70
10117 41.8852 1491.50 1409.16 40.60
10118 41.8890 1473.90 1409.02 39.50
10119 41.8927 1464.00 1408.88 40.10
10120 41.8965 1535.70 1408.75 41.00
10121 41.9002 1466.90 1408.61 39.50
10122 41.9040 1423.80 1408.48 38.90
10123 41.9077 1496.40 1408.34 41.00
10124 41.9115 1391.80 1408.20 39.10
10125 41.9152 1456.00 1408.07 40.40
10126 41.9190 1515.70 1407.93 40.80
10127 41.9227 1447.50 1407.80 39.40
10128 41.9265 1565.00 1407.66 40.90
10129 41.9302 1447.50 1407.52 40.80
10130 41.9340 1533.10 1407.39 41.00
10131 41.9378 1437.70 1407.25 39.60
10132 41.9415 1450.40 1407.12 39.50
10133 41.9453 1448.70 1406.98 40.20
10134 41.9490 1473.40 1406.85 40.20
10135 41.9528 1516.60 1431.78 41.10
10136 41.9565 1558.40 1432.11 40.90
10137 41.9603 1503.70 1432.45 40.70
10138 41.9640 1483.80 1432.81 40.60
10139 41.9678 1453.90 1433.18 39.90
10140 41.9715 1514.70 1433.57 41.00
10141 41.9753 1467.70 1433.97 39.70
10142 41.9790 1532.60 1434.39 41.00
10143 41.9828 1430.10 1434.82 39.20
10144 41.9865 1502.70 1435.27 40.80
10145 41.9903 1449.70 1435.74 39.90
10146 41.9941 1525.80 1436.23 40.90
10147 41.9960 1552.80 1436.49 40.70
10148 41.9997 1500.20 1437.00 40.00
10149 42.0035 1581.50 1437.54 40.40
10150 42.0072 1456.20 1438.10 39.40
10151 42.0110 1495.60 1438.68 39.60
10152 42.0148 1472.10 1439.29 39.00
10153 42.0185 1512.20 1439.92 40.90
10154 42.0223 1500.80 1440.57 40.40
10155 42.0260 1449.40 1441.25 39.60
10156 42.0298 1531.70 1441.97 40.40
10157 42.0335 1483.90 1442.70 39.60
10158 42.0373 1489.30 1443.47 40.00
10159 42.0410 1487.70 1444.27 39.70
10160 42.0448 1506.00 1445.11 40.20
10161 42.0485 1514.30 1445.98 39.10
10162 42.0523 1446.90 1446.89 39.70
10163 42.0561 1532.60 1447.83 40.10
10164 42.0598 1537.40 1448.82 41.10
10165 42.0636 1542.20 1449.85 40.50
10166 42.0673 1518.10 1450.92 40.20
10167 42.0711 1455.50 1452.04 39.00
10168 42.0748 1472.60 1453.21 39.60
10169 42.0786 1513.30 1454.43 40.30
10170 42.0823 1539.50 1455.71 40.80
10171 42.0861 1525.60 1457.04 40.90
10172 42.0899 1487.00 1458.44 39.90
10173 42.0936 1466.00 1459.90 39.30
10174 42.0974 1558.60 1461.43 41.10
10175 42.1011 1583.80 1463.03 41.10
10176 42.1049 1488.70 1464.71 39.80
10177 42.1086 1553.90 1466.46 41.10
10178 42.1124 1537.30 1468.31 40.60
10179 42.1161 1570.80 1470.24 41.00
10180 42.1199 1615.30 1472.27 42.00
10181 42.1236 1594.10 1474.40 41.60
10182 42.1274 1501.30 1476.65 40.20
10183 42.1312 1510.50 1479.01 40.10
10184 42.1349 1616.80 1481.50 41.60
10185 42.1387 1575.40 1484.11 41.10
10186 42.1424 1549.20 1486.88 41.10
10187 42.1462 1558.40 1489.78 41.20
10188 42.1499 1471.30 1492.86 40.00
10189 42.1537 1617.50 1496.10 41.80
10190 42.1575 1552.00 1499.55 41.20
10191 42.1612 1659.00 1503.19 42.50
10192 42.1650 1533.50 1507.04 40.20
10193 42.1687 1615.00 1511.12 41.60
10194 42.1725 1537.80 1515.46 41.00
10195 42.1762 1605.40 1520.07 41.70
10196 42.1800 1577.40 1524.98 41.20
10197 42.1837 1624.40 1530.20 42.30
10198 42.1875 1600.80 1535.78 41.50
10199 42.1912 1590.80 1541.72 41.70
10200 42.1950 1562.10 1548.10 41.10
10201 42.1987 1667.40 1554.90 42.70
10202 42.2025 1616.10 1562.23 41.20
10203 42.2063 1738.80 1570.07 43.50
10204 42.2100 1639.00 1578.51 42.30
10205 42.2138 1567.30 1587.60 40.70
10206 42.2175 1664.30 1597.43 42.70
10207 42.2213 1737.60 1608.03 44.10
10208 42.2250 1691.70 1619.56 43.20
10209 42.2288 1761.70 1632.03 43.40
10210 42.2313 1729.30 1641.16 43.60
10211 42.2351 1762.90 1655.56 44.10
10212 42.2388 1717.40 1671.28 43.10
10213 42.2426 1859.70 1688.50 45.30
10214 42.2464 1809.40 1707.48 44.30
10215 42.2501 1857.20 1728.31 45.20
10216 42.2539 1892.90 1751.37 45.70
10217 42.2576 1911.90 1776.89 45.90
10218 42.2614 1929.50 1805.31 46.30
10219 42.2651 1959.80 1836.98 45.90
10220 42.2689 1981.30 1872.48 46.50
10221 42.2726 2059.90 1912.58 47.80
10222 42.2764 2046.80 1957.78 47.20
10223 42.2801 2091.60 2009.14 48.20
10224 42.2839 2075.80 2068.00 48.20
10225 42.2877 2195.50 2135.49 49.40
10226 42.2914 2340.20 2213.57 51.30
10227 42.2952 2448.90 2304.79 52.40
10228 42.2989 2462.00 2411.61 52.50
10229 42.3027 2725.10 2538.47 56.20
10230 42.3064 2731.60 2689.72 55.60
10231 42.3102 2948.10 2872.51 58.50
10232 42.3139 3042.40 3097.06 59.20
10233 42.3177 3428.60 3376.28 62.80
10234 42.3214 3713.80 3734.24 65.60
10235 42.3252 4030.80 4204.65 67.00
10236 42.3289 4619.60 4850.12 74.20
10237 42.3327 5464.70 5764.65 80.10
10238 42.3364 6567.20 7091.49 88.20
10239 42.3402 8446.80 9023.79 101.00
10240 42.3440 10770.50 11758.60 115.00
10241 42.3477 15223.60 15480.00 141.00
10242 42.3515 20245.60 20137.70 166.10
10243 42.3552 26115.10 25207.40 192.00
10244 42.3590 29379.40 29199.80 205.80
10245 42.3627 30796.70 30049.00 211.00
10246 42.3665 28859.00 27199.10 205.10
10247 42.3702 23944.30 22353.50 180.60
10248 42.3740 18428.60 17390.20 158.00
10249 42.3778 13541.80 13247.90 132.40
10250 42.3815 9812.80 10103.50 110.60
10251 42.3853 7429.90 7843.47 94.70
10252 42.3890 5973.40 6280.29 84.80
10253 42.3928 5064.90 5203.73 76.70
10254 42.3965 4259.90 4456.39 69.80
10255 42.4003 3768.00 3918.13 65.90
10256 42.4040 3344.00 3517.53 62.50
10257 42.4078 3083.20 3207.74 59.40
10258 42.4115 2893.70 2960.90 57.80
10259 42.4153 2793.00 2761.32 56.30
10260 42.4190 2580.40 2596.62 53.40
10261 42.4228 2485.20 2459.83 52.10
10262 42.4266 2274.40 2344.42 52.10
10263 42.4303 2338.20 2246.71 51.20
10264 42.4341 2115.20 2162.86 48.60
10265 42.4378 2208.20 2090.71 49.80
10266 42.4416 2043.90 2027.97 47.80
10267 42.4453 2053.90 1973.34 48.10
10268 42.4491 1986.00 1925.26 46.80
10269 42.4528 1953.50 1882.88 47.10
10270 42.4566 1995.80 1845.14 47.00
10271 42.4604 1931.50 1811.63 46.40
10272 42.4641 1840.80 1781.64 44.90
10273 42.4679 1870.40 1754.61 45.40
10274 42.4716 1759.90 1730.30 44.60
10275 42.4754 1803.90 1708.26 45.60
10276 42.4791 1802.20 1688.22 45.10
10277 42.4829 1781.10 1670.04 45.10
10278 42.4866 1752.20 1653.43 44.60
10279 42.4904 1750.90 1638.18 43.60
10280 42.4941 1669.60 1624.21 43.60
10281 42.4979 1727.10 1611.34 43.30
10282 42.5017 1681.30 1599.44 43.00
10283 42.5054 1707.40 1588.48 43.30
10284 42.5092 1724.30 1578.33 43.60
10285 42.5129 1713.30 1568.89 43.50
10286 42.5167 1624.10 1560.12 42.60
10287 42.5204 1670.40 1551.94 42.70
10288 42.5242 1564.80 1544.30 41.10
10289 42.5279 1601.00 1537.18 42.70
10290 42.5317 1650.00 1530.50 42.80
10291 42.5354 1655.40 1524.25 43.00
10292 42.5392 1565.60 1518.38 41.60
10293 42.5430 1627.10 1512.84 42.60
10294 42.5467 1657.00 1507.64 43.30
10295 42.5505 1579.30 1502.74 42.50
10296 42.5542 1677.10 1498.10 43.70
10297 42.5580 1634.10 1493.73 42.50
10298 42.5617 1595.10 1489.58 42.00
10299 42.5655 1627.80 1485.66 43.20
10300 42.5692 1594.10 1481.94 41.90
10301 42.5730 1630.40 1478.41 43.10
10302 42.5768 1549.70 1475.05 41.80
10303 42.5805 1463.80 1471.86 40.60
10304 42.5843 1525.40 1468.82 40.80
10305 42.5880 1527.00 1465.93 41.10
10306 42.5918 1566.70 1463.16 41.90
10307 42.5955 1539.60 1460.52 41.90
10308 42.5993 1552.00 1458.01 41.50
10309 42.6031 1545.30 1455.59 41.80
10310 42.6068 1607.40 1453.29 42.90
10311 42.6106 1532.00 1451.08 41.40
10312 42.6143 1514.00 1448.97 41.40
10313 42.6181 1543.70 1446.94 41.80
10314 42.6218 1530.60 1444.99 41.30
10315 42.6256 1615.30 1443.11 42.10
10316 42.6293 1597.10 1441.32 43.30
10317 42.6331 1474.80 1439.58 40.60
10318 42.6368 1543.80 1437.92 41.30
10319 42.6406 1486.70 1436.32 40.70
10320 42.6444 1436.70 1434.77 40.20
10321 42.6481 1502.10 1433.28 40.90
10322 42.6519 1475.80 1431.84 40.80
10323 42.6556 1540.30 1430.45 41.80
10324 42.6594 1470.10 1429.11 40.70
10325 42.6631 1472.10 1427.81 40.90
10326 42.6669 1462.00 1426.56 40.70
10327 42.6707 1478.80 1425.35 40.50
10328 42.6744 1473.70 1424.17 41.00
10329 42.6782 1470.70 1423.04 40.20
10330 42.6819 1342.00 1421.93 38.80
10331 42.6857 1509.70 1420.87 41.30
10332 42.6894 1521.20 1419.83 42.10
10333 42.6932 1536.70 1418.83 41.20
10334 42.6969 1502.80 1417.85 40.80
10335 42.7007 1512.20 1416.90 40.30
10336 42.7044 1396.10 1415.98 38.70
10337 42.7082 1461.40 1415.08 40.30
10338 42.7120 1454.90 1414.21 39.40
10339 42.7157 1479.50 1413.36 39.90
10340 42.7195 1426.40 1412.54 39.20
10341 42.7232 1483.20 1411.74 39.50
10342 42.7270 1460.00 1410.95 39.50
10343 42.7307 1482.10 1410.19 40.30
10344 42.7345 1428.30 1409.45 39.10
10345 42.7383 1453.20 1408.72 39.70
10346 42.7420 1442.20 1408.01 39.70
10347 42.7458 1464.40 1407.32 39.70
10348 42.7495 1409.70 1406.65 39.40
10349 42.7533 1526.30 1405.99 40.90
10350 42.7570 1454.40 1405.35 39.30
10351 42.7608 1430.80 1404.72 39.40
10352 42.7645 1399.00 1404.10 39.10
10353 42.7683 1438.30 1403.50 39.60
10354 42.7721 1391.10 1378.01 38.80
10355 42.7758 1430.50 1377.89 39.30
10356 42.7796 1467.30 1377.76 40.10
10357 42.7833 1461.00 1377.63 40.10
10358 42.7871 1422.40 1377.51 39.30
10359 42.7908 1517.90 1377.38 41.00
10360 42.7946 1481.00 1377.25 40.60
10361 42.7984 1541.40 1377.12 41.10
10362 42.8021 1433.70 1377.00 39.40
10363 42.8059 1482.80 1376.87 40.00
10364 42.8096 1410.00 1376.74 39.20
10365 42.8134 1420.40 1376.62 39.70
10366 42.8171 1460.80 1376.49 40.00
10367 42.8209 1494.90 1376.36 40.70
10368 42.8246 1473.50 1376.24 39.30
10369 42.8284 1528.50 1376.11 41.70
10370 42.8322 1476.50 1375.98 39.80
10371 42.8359 1403.50 1375.86 39.00
10372 42.8397 1362.30 1375.73 38.50
10373 42.8434 1529.50 1375.60 41.20
10374 42.8472 1468.10 1375.48 39.50
10375 42.8509 1452.10 1375.35 39.80
10376 42.8547 1391.20 1375.23 39.20
10377 42.8585 1439.50 1375.10 40.00
10378 42.8622 1450.90 1374.97 39.80
10379 42.8660 1493.90 1374.85 40.20
10380 42.8697 1389.10 1374.72 39.10
10381 42.8735 1474.40 1374.59 40.30
10382 42.8772 1464.40 1374.47 40.30
10383 42.8810 1413.80 1374.34 38.80
10384 42.8848 1440.40 1374.22 40.30
10385 42.8885 1473.10 1374.09 40.50
10386 42.8923 1422.10 1373.96 38.90
10387 42.8960 1402.30 1373.84 39.20
10388 42.8998 1426.70 1373.71 38.90
10389 42.9035 1431.90 1373.59 39.70
10390 42.9073 1476.70 1373.46 40.70
10391 42.9110 1487.70 1373.34 40.50
10392 42.9148 1466.00 1373.21 40.20
10393 42.9186 1365.20 1373.08 38.50
10394 42.9223 1398.20 1372.96 38.60
10395 42.9261 1389.80 1372.83 39.00
10396 42.9298 1530.20 1372.71 41.30
10397 42.9336 1381.80 1372.58 39.20
10398 42.9374 1406.40 1372.46 39.30
10399 42.9411 1425.20 1372.33 39.40
10400 42.9449 1385.10 1372.21 39.20
10401 42.9486 1439.80 1372.08 39.70
10402 42.9524 1414.20 1371.96 39.30
10403 42.9561 1397.90 1371.83 38.70
10404 42.9599 1398.00 1371.71 39.20
10405 42.9636 1378.70 1371.58 38.80
10406 42.9674 1411.20 1371.46 39.20
10407 42.9712 1464.00 1371.33 40.00
10408 42.9749 1475.60 1371.21 40.50
10409 42.9787 1504.50 1371.08 41.30
10410 42.9824 1424.20 1370.96 38.70
10411 42.9862 1480.20 1370.83 40.10
10412 42.9899 1396.40 1370.71 39.30
10413 42.9937 1492.60 1370.58 39.90
10414 42.9975 1397.50 1370.46 39.50
10415 43.0012 1448.20 1370.33 39.20
10416 43.0050 1402.50 1370.21 39.30
10417 43.0087 1471.90 1370.08 39.90
10418 43.0125 1378.80 1369.96 39.00
10419 43.0162 1383.80 1369.83 39.10
10420 43.0200 1404.00 1369.71 39.50
10421 43.0238 1387.60 1369.58 37.70
10422 43.0275 1343.50 1369.46 38.50
10423 43.0313 1428.30 1369.34 40.10
10424 43.0350 1403.30 1369.21 39.10
10425 43.0388 1468.70 1369.09 39.50
10426 43.0425 1335.60 1368.96 38.20
10427 43.0463 1469.60 1368.84 40.50
10428 43.0501 1415.40 1368.71 39.40
10429 43.0538 1411.60 1368.59 39.70
10430 43.0576 1425.10 1368.47 39.20
10431 43.0613 1419.70 1368.34 39.70
10432 43.0651 1413.40 1368.22 38.90
10433 43.0688 1391.50 1368.10 38.80
10434 43.0726 1341.10 1367.97 38.50
10435 43.0764 1454.70 1367.85 40.10
10436 43.0801 1359.20 1367.72 38.70
10437 43.0839 1419.10 1367.60 39.00
10438 43.0876 1460.70 1367.48 40.30
10439 43.0914 1415.80 1367.35 39.30
10440 43.0951 1458.60 1367.23 40.40
10441 43.0989 1410.20 1367.11 40.00
10442 43.1027 1395.60 1366.98 39.30
10443 43.1064 1466.20 1366.86 40.60
10444 43.1102 1419.40 1366.73 39.60
10445 43.1139 1496.10 1366.61 40.60
10446 43.1177 1451.90 1366.49 40.00
10447 43.1214 1402.30 1366.36 39.30
10448 43.1252 1426.20 1366.24 39.20
10449 43.1290 1440.10 1366.12 40.60
10450 43.1327 1390.10 1366.00 38.40
10451 43.1365 1374.00 1365.87 38.80
10452 43.1402 1398.20 1365.75 39.30
10453 43.1440 1427.60 1365.63 39.70
10454 43.1478 1372.00 1365.50 38.70
10455 43.1515 1409.30 1365.38 39.30
10456 43.1553 1430.30 1365.26 39.80
10457 43.1590 1413.10 1365.13 39.60
10458 43.1628 1463.70 1365.01 40.50
10459 43.1665 1446.30 1364.89 40.50
10460 43.1703 1396.50 1364.77 40.00
10461 43.1741 1405.70 1364.64 38.80
10462 43.1778 1444.20 1364.52 39.10
10463 43.1816 1430.40 1364.40 38.80
10464 43.1853 1363.30 1364.28 38.00
10465 43.1891 1455.80 1364.15 39.80
10466 43.1928 1323.60 1364.03 38.00
10467 43.1966 1396.10 1363.91 39.00
10468 43.2004 1447.50 1363.79 39.80
10469 43.2041 1423.70 1363.66 39.20
10470 43.2079 1410.80 1363.54 39.00
10471 43.2116 1427.20 1363.42 39.40
10472 43.2154 1380.00 1363.30 38.50
10473 43.2192 1372.00 1363.17 39.00
10474 43.2229 1422.40 1363.05 38.90
10475 43.2267 1479.30 1362.93 40.50
10476 43.2304 1432.00 1362.81 39.80
10477 43.2342 1392.90 1362.69 39.10
10478 43.2379 1463.60 1362.56 40.00
10479 43.2417 1448.50 1362.44 39.40
10480 43.2455 1389.90 1362.32 38.80
10481 43.2492 1429.30 1362.20 39.20
10482 43.2530 1398.90 1362.08 39.10
10483 43.2567 1409.40 1361.96 39.60
10484 43.2605 1433.00 1361.83 39.60
10485 43.2642 1444.00 1361.71 39.90
10486 43.2680 1391.80 1361.59 38.90
10487 43.2718 1428.60 1361.47 39.40
10488 43.2755 1356.40 1361.35 37.90
10489 43.2793 1446.20 1361.23 39.80
10490 43.2830 1328.90 1361.10 38.20
10491 43.2868 1431.80 1360.98 39.40
10492 43.2906 1404.80 1360.86 39.50
10493 43.2943 1307.90 1360.74 37.80
10494 43.2981 1413.50 1360.62 39.60
10495 43.3018 1468.00 1360.50 39.90
10496 43.3056 1427.30 1360.38 39.30
10497 43.3093 1450.70 1360.26 39.30
10498 43.3131 1441.30 1360.13 39.90
10499 43.3169 1388.90 1360.01 39.30
10500 43.3206 1419.50 1359.89 39.70
10501 43.3244 1439.00 1359.77 38.50
10502 43.3281 1441.60 1359.65 40.20
10503 43.3319 1461.50 1359.53 40.40
10504 43.3357 1377.00 1359.41 38.10
10505 43.3394 1474.10 1359.29 40.40
10506 43.3432 1382.20 1359.17 38.60
10507 43.3469 1502.70 1359.05 40.50
10508 43.3507 1341.10 1358.93 38.10
10509 43.3544 1422.50 1358.81 39.30
10510 43.3582 1382.10 1358.68 38.50
10511 43.3620 1404.20 1358.56 39.20
10512 43.3657 1398.80 1358.44 39.20
10513 43.3695 1417.10 1358.32 39.40
10514 43.3732 1407.00 1358.20 39.10
10515 43.3770 1382.60 1358.08 38.30
10516 43.3807 1452.60 1357.96 39.90
10517 43.3845 1447.30 1357.84 39.70
10518 43.3883 1434.60 1357.72 39.60
10519 43.3920 1433.80 1357.60 39.40
10520 43.3958 1434.90 1357.48 39.60
10521 43.3995 1437.90 1357.36 39.50
10522 43.4033 1342.40 1357.24 38.00
10523 43.4071 1471.70 1357.12 40.10
10524 43.4108 1404.20 1357.00 38.70
10525 43.4146 1460.60 1356.88 40.10
10526 43.4183 1435.40 1356.76 39.40
10527 43.4221 1451.90 1356.64 39.30
10528 43.4258 1420.80 1356.52 38.80
10529 43.4296 1357.80 1356.40 39.20
10530 43.4334 1413.20 1356.28 39.10
10531 43.4371 1450.60 1356.16 39.20
10532 43.4409 1352.70 1356.04 38.40
10533 43.4446 1443.30 1355.92 39.40
10534 43.4484 1430.80 1355.81 39.60
10535 43.4522 1369.30 1355.69 38.60
10536 43.4559 1371.30 1355.57 38.60
10537 43.4597 1407.10 1355.45 39.20
10538 43.4634 1414.80 1355.33 39.30
10539 43.4672 1374.80 1355.21 38.60
10540 43.4710 1349.60 1355.09 38.00
10541 43.4747 1443.30 1354.97 39.70
10542 43.4785 1397.20 1354.85 38.70
10543 43.4822 1449.20 1354.73 39.70
10544 43.4860 1377.20 1354.61 38.70
10545 43.4897 1371.10 1354.49 38.60
10546 43.4935 1341.30 1354.38 37.80
10547 43.4973 1444.30 1354.26 39.60
10548 43.5010 1356.20 1354.14 38.30
10549 43.5048 1405.30 1354.02 38.90
10550 43.5085 1406.90 1353.90 39.30
10551 43.5123 1399.10 1353.78 38.80
10552 43.5161 1370.60 1353.66 38.80
10553 43.5198 1430.40 1353.54 39.90
10554 43.5236 1433.70 1353.43 39.20
10555 43.5273 1370.00 1353.31 38.30
10556 43.5311 1368.90 1353.19 38.90
10557 43.5349 1442.20 1353.07 39.60
10558 43.5386 1366.50 1352.95 38.20
10559 43.5424 1362.20 1352.83 38.00
10560 43.5461 1400.90 1352.71 38.90
10561 43.5499 1430.90 1352.60 39.60
10562 43.5536 1347.10 1352.48 38.20
10563 43.5574 1397.90 1352.36 39.20
10564 43.5612 1362.70 1352.24 38.40
10565 43.5649 1397.30 1352.12 39.10
10566 43.5687 1359.50 1352.01 38.60
10567 43.5724 1386.00 1351.89 38.80
10568 43.5762 1320.80 1351.77 38.00
10569 43.5800 1404.30 1351.65 38.90
10570 43.5837 1387.80 1351.53 38.80
10571 43.5875 1394.70 1351.42 39.30
10572 43.5912 1384.90 1351.30 38.90
10573 43.5950 1373.40 1351.18 38.60
10574 43.5988 1356.20 1351.06 37.40
10575 43.6025 1417.20 1350.94 39.10
10576 43.6063 1406.30 1350.83 39.10
10577 43.6100 1384.60 1350.71 38.70
10578 43.6138 1329.10 1350.59 38.00
10579 43.6175 1411.10 1350.47 39.10
10580 43.6213 1365.30 1350.36 38.40
10581 43.6251 1441.40 1350.24 39.60
10582 43.6288 1316.00 1350.12 37.80
10583 43.6326 1454.70 1350.01 39.80
10584 43.6363 1328.70 1349.89 38.20
10585 43.6401 1433.50 1349.77 39.50
10586 43.6439 1425.80 1349.65 39.20
10587 43.6476 1459.40 1349.54 39.70
10588 43.6514 1318.10 1349.42 38.10
10589 43.6551 1409.70 1349.30 39.10
10590 43.6589 1361.20 1349.19 38.20
10591 43.6627 1380.80 1349.07 38.30
10592 43.6664 1323.10 1348.95 37.70
10593 43.6702 1406.50 1348.84 38.90
10594 43.6739 1355.80 1348.72 38.10
10595 43.6777 1452.50 1348.60 39.60
10596 43.6814 1316.80 1348.48 37.60
10597 43.6852 1393.40 1348.37 38.80
10598 43.6890 1392.60 1348.25 38.80
10599 43.6927 1366.40 1348.13 38.30
10600 43.6965 1454.90 1348.02 39.70
10601 43.7002 1403.00 1347.90 38.70
10602 43.7040 1462.30 1347.79 39.40
10603 43.7078 1418.90 1347.67 39.30
10604 43.7115 1294.20 1347.55 36.70
10605 43.7153 1398.90 1347.44 39.00
10606 43.7190 1339.90 1347.32 38.30
10607 43.7228 1409.20 1347.20 38.90
10608 43.7266 1387.30 1347.09 37.80
10609 43.7303 1439.10 1346.97 39.90
10610 43.7341 1330.80 1346.86 37.40
10611 43.7378 1407.90 1346.74 38.60
10612 43.7416 1301.50 1346.62 36.70
10613 43.7453 1373.60 1346.51 38.40
10614 43.7491 1349.30 1346.39 38.00
10615 43.7529 1388.70 1346.28 38.90
10616 43.7566 1378.70 1346.16 38.50
10617 43.7604 1360.00 1346.04 38.10
10618 43.7641 1417.90 1346.42 39.40
10619 43.7679 1370.40 1346.32 38.90
10620 43.7717 1431.60 1346.21 39.20
10621 43.7754 1422.60 1346.10 39.10
10622 43.7792 1339.60 1346.00 38.10
10623 43.7830 1389.00 1345.89 38.40
10624 43.7867 1354.70 1345.79 38.20
10625 43.7905 1354.80 1345.68 38.20
10626 43.7942 1351.30 1345.58 38.30
10627 43.7980 1372.70 1345.47 38.50
10628 43.8017 1393.10 1345.37 38.40
10629 43.8055 1409.40 1345.27 38.80
10630 43.8093 1400.30 1345.16 39.20
10631 43.8130 1474.30 1345.06 39.90
10632 43.8168 1390.50 1344.96 38.70
10633 43.8205 1496.40 1344.86 40.20
10634 43.8243 1391.70 1344.76 38.70
10635 43.8281 1364.70 1344.66 38.10
10636 43.8318 1391.90 1344.56 39.50
10637 43.8356 1405.20 1344.46 38.70
10638 43.8393 1368.50 1344.36 38.10
10639 43.8431 1375.90 1344.26 38.30
10640 43.8469 1405.80 1344.16 39.30
10641 43.8506 1422.80 1344.07 39.00
10642 43.8544 1351.80 1343.97 38.20
10643 43.8581 1422.30 1343.87 39.30
10644 43.8619 1329.00 1343.78 38.30
10645 43.8657 1375.60 1343.69 38.60
10646 43.8694 1383.60 1343.59 39.00
10647 43.8732 1388.60 1343.50 38.80
10648 43.8769 1302.80 1343.41 37.70
10649 43.8807 1317.30 1343.32 37.50
10650 43.8844 1362.60 1343.23 38.20
10651 43.8882 1439.50 1343.14 39.60
10652 43.8920 1313.70 1343.05 37.70
10653 43.8957 1401.50 1342.96 38.80
10654 43.8995 1387.40 1342.88 38.90
10655 43.9033 1355.90 1342.79 37.30
10656 43.9070 1287.20 1342.71 37.60
10657 43.9108 1356.60 1342.63 38.60
10658 43.9145 1370.10 1342.55 37.80
10659 43.9183 1329.50 1342.47 37.70
10660 43.9221 1314.70 1342.39 37.20
10661 43.9258 1462.70 1342.31 39.00
10662 43.9296 1340.70 1342.24 38.40
10663 43.9333 1439.60 1342.17 40.00
10664 43.9371 1431.40 1342.10 39.10
10665 43.9408 1413.60 1342.03 38.80
10666 43.9446 1323.90 1341.96 37.50
10667 43.9484 1459.30 1341.90 39.40
10668 43.9521 1342.80 1341.84 38.00
10669 43.9559 1364.30 1341.78 38.20
10670 43.9596 1391.50 1341.73 39.00
10671 43.9634 1391.20 1341.67 38.70
10672 43.9672 1377.70 1341.62 38.80
10673 43.9709 1356.40 1341.58 38.60
10674 43.9747 1455.40 1341.54 39.80
10675 43.9784 1405.70 1341.50 39.20
10676 43.9822 1358.90 1341.46 38.70
10677 43.9860 1316.00 1341.44 37.40
10678 43.9897 1323.70 1341.41 37.90
10679 43.9935 1389.30 1341.39 38.70
10680 43.9972 1350.00 1341.38 38.20
10681 44.0010 1425.20 1341.38 39.40
10682 44.0048 1293.20 1341.38 37.80
10683 44.0085 1399.30 1341.38 38.90
10684 44.0123 1311.60 1341.40 37.50
10685 44.0160 1345.00 1341.43 38.40
10686 44.0198 1366.70 1341.46 38.20
10687 44.0236 1420.60 1341.51 38.80
10688 44.0273 1454.60 1341.57 39.50
10689 44.0311 1356.20 1341.64 39.00
10690 44.0348 1354.30 1341.72 38.20
10691 44.0386 1303.90 1341.82 37.30
10692 44.0424 1372.80 1341.94 38.30
10693 44.0461 1405.70 1342.08 39.20
10694 44.0499 1406.30 1342.24 39.20
10695 44.0536 1379.70 1342.42 38.30
10696 44.0574 1381.20 1342.63 38.40
10697 44.0611 1344.00 1342.87 37.90
10698 44.0649 1355.60 1343.14 38.20
10699 44.0687 1414.70 1343.46 39.00
10700 44.0724 1397.50 1343.82 38.70
10701 44.0762 1367.60 1344.23 37.90
10702 44.0799 1311.50 1344.69 37.80
10703 44.0837 1391.00 1345.23 38.30
10704 44.0875 1363.00 1345.84 38.50
10705 44.0912 1327.70 1346.54 37.60
10706 44.0950 1349.00 1347.35 38.10
10707 44.0988 1392.00 1348.28 38.30
10708 44.1025 1353.00 1349.36 38.20
10709 44.1063 1381.90 1350.62 38.80
10710 44.1100 1343.00 1352.10 38.20
10711 44.1138 1352.70 1353.83 38.50
10712 44.1175 1386.80 1355.89 39.00
10713 44.1213 1374.50 1358.34 38.20
10714 44.1251 1355.40 1361.29 38.00
10715 44.1288 1371.20 1364.88 38.40
10716 44.1326 1356.80 1369.30 39.10
10717 44.1363 1458.80 1374.84 39.90
10718 44.1401 1409.10 1381.92 38.60
10719 44.1439 1406.60 1391.28 38.80
10720 44.1476 1426.10 1404.04 39.20
10721 44.1514 1455.70 1422.03 39.90
10722 44.1552 1470.00 1447.84 39.90
10723 44.1589 1433.30 1484.87 39.30
10724 44.1627 1527.80 1536.86 40.30
10725 44.1664 1581.90 1606.79 41.30
10726 44.1702 1640.40 1694.21 42.30
10727 44.1740 1820.60 1789.10 44.70
10728 44.1777 1830.40 1863.68 44.90
10729 44.1815 1891.40 1880.12 45.20
10730 44.1852 1764.90 1827.89 43.80
10731 44.1890 1736.30 1737.46 43.90
10732 44.1927 1641.70 1644.24 42.30
10733 44.1965 1540.80 1565.64 41.10
10734 44.2003 1434.00 1505.46 39.20
10735 44.2040 1413.10 1461.81 39.00
10736 44.2078 1398.00 1431.09 39.00
10737 44.2115 1408.60 1409.72 39.10
10738 44.2153 1429.80 1394.56 39.70
10739 44.2191 1428.20 1383.60 39.20
10740 44.2228 1359.10 1375.39 37.90
10741 44.2266 1347.70 1368.97 37.30
10742 44.2304 1466.00 1363.86 41.10
10743 44.2341 1355.30 1359.71 38.50
10744 44.2379 1355.80 1356.25 37.80
10745 44.2416 1380.70 1353.36 38.60
10746 44.2454 1431.70 1350.92 39.30
10747 44.2491 1368.50 1348.82 38.20
10748 44.2529 1386.90 1347.01 38.70
10749 44.2567 1343.80 1345.44 37.70
10750 44.2604 1372.60 1344.05 38.80
10751 44.2642 1394.30 1342.84 38.40
10752 44.2679 1359.20 1341.75 38.40
10753 44.2717 1392.00 1340.78 38.70
10754 44.2755 1303.80 1339.91 37.50
10755 44.2792 1414.10 1339.12 38.90
10756 44.2830 1287.90 1338.40 37.10
10757 44.2867 1335.00 1337.75 37.70
10758 44.2905 1371.70 1337.15 38.30
10759 44.2943 1409.80 1336.59 39.00
10760 44.2980 1385.40 1336.08 38.60
10761 44.3018 1390.70 1335.60 38.80
10762 44.3055 1353.90 1335.15 38.20
10763 44.3093 1446.30 1334.74 39.60
10764 44.3131 1351.90 1334.35 37.80
10765 44.3168 1368.70 1333.98 38.90
10766 44.3206 1346.80 1333.63 37.70
10767 44.3243 1366.60 1333.30 38.30
10768 44.3281 1373.30 1332.99 38.00
10769 44.3319 1421.20 1332.69 40.10
10770 44.3356 1337.40 1332.41 37.60
10771 44.3394 1359.10 1332.13 38.40
10772 44.3431 1422.10 1331.87 39.30
10773 44.3469 1364.60 1331.62 38.50
10774 44.3507 1328.00 1331.38 38.10
10775 44.3544 1372.90 1331.15 38.10
10776 44.3582 1389.70 1330.92 38.40
10777 44.3619 1346.20 1330.70 38.00
10778 44.3657 1407.10 1330.49 38.60
10779 44.3695 1346.20 1330.29 38.50
10780 44.3732 1352.10 1330.09 38.00
10781 44.3770 1338.80 1329.89 38.40
10782 44.3807 1327.10 1329.70 37.60
10783 44.3845 1359.80 1329.52 38.70
10784 44.3883 1300.80 1329.34 37.70
10785 44.3920 1308.30 1329.16 37.50
10786 44.3958 1305.00 1328.98 37.20
10787 44.3995 1374.60 1328.82 38.80
10788 44.4033 1383.80 1328.65 38.40
10789 44.4071 1387.90 1328.48 38.70
10790 44.4108 1360.10 1328.32 38.60
10791 44.4146 1397.10 1328.16 38.90
10792 44.4184 1280.20 1328.01 36.60
10793 44.4221 1384.90 1327.85 38.90
10794 44.4259 1350.90 1327.70 37.70
10795 44.4296 1305.50 1327.55 38.30
10796 44.4334 1243.40 1327.40 36.90
10797 44.4371 1415.30 1327.26 38.90
10798 44.4409 1347.10 1327.11 38.10
10799 44.4447 1281.10 1326.97 37.50
10800 44.4484 1366.20 1326.83 38.80
10801 44.4522 1424.00 1326.69 39.30
10802 44.4559 1329.30 1326.55 37.80
10803 44.4597 1378.60 1326.41 38.80
10804 44.4635 1284.30 1326.28 37.20
10805 44.4672 1359.10 1326.14 38.40
10806 44.4710 1361.40 1326.01 38.30
10807 44.4748 1287.60 1325.88 37.70
10808 44.4785 1293.30 1325.75 37.40
10809 44.4823 1363.50 1325.61 38.60
10810 44.4860 1374.70 1325.48 38.80
10811 44.4898 1378.80 1325.36 38.50
10812 44.4935 1297.80 1325.23 37.80
10813 44.4973 1299.50 1325.10 37.50
10814 44.5011 1393.80 1324.97 38.60
10815 44.5048 1332.70 1324.85 37.20
10816 44.5086 1376.00 1324.72 38.70
10817 44.5123 1335.10 1324.60 38.50
10818 44.5161 1300.60 1324.48 37.50
10819 44.5199 1389.40 1324.35 38.90
10820 44.5236 1335.90 1324.23 37.70
10821 44.5274 1348.80 1324.11 37.50
10822 44.5312 1333.10 1323.99 38.80
10823 44.5349 1353.80 1323.87 38.10
10824 44.5387 1305.40 1323.75 37.40
10825 44.5424 1326.10 1323.63 37.90
10826 44.5462 1322.30 1323.51 37.70
10827 44.5499 1388.30 1323.39 39.00
10828 44.5537 1331.90 1323.27 37.90
10829 44.5575 1327.10 1323.15 38.30
10830 44.5612 1286.50 1323.03 37.10
10831 44.5650 1346.60 1322.92 38.40
10832 44.5687 1278.40 1322.80 37.30
10833 44.5725 1335.10 1322.68 38.10
10834 44.5763 1314.70 1322.57 37.60
10835 44.5800 1326.40 1322.45 38.40
10836 44.5838 1301.40 1322.33 37.50
10837 44.5876 1269.40 1322.22 37.30
10838 44.5913 1354.50 1322.10 38.50
10839 44.5951 1266.90 1321.99 37.20
10840 44.5988 1380.10 1321.39 39.10
10841 44.6026 1351.10 1321.28 38.20
10842 44.6063 1264.70 1321.18 37.40
10843 44.6101 1330.40 1321.07 38.20
10844 44.6139 1353.80 1320.97 38.50
10845 44.6176 1337.50 1320.86 38.90
10846 44.6214 1225.50 1320.76 36.10
10847 44.6251 1368.20 1320.65 38.50
10848 44.6289 1296.60 1320.55 37.60
10849 44.6327 1381.00 1320.44 39.30
10850 44.6364 1344.60 1320.34 38.50
10851 44.6402 1383.00 1320.23 38.30
10852 44.6440 1344.60 1320.13 37.90
10853 44.6477 1377.10 1320.02 39.00
10854 44.6515 1354.50 1319.92 38.30
10855 44.6552 1375.30 1319.81 39.00
10856 44.6590 1312.30 1319.71 38.10
10857 44.6628 1291.60 1319.60 36.70
10858 44.6665 1382.90 1319.50 39.10
10859 44.6703 1371.20 1319.39 38.90
10860 44.6740 1347.10 1319.29 38.50
10861 44.6778 1358.00 1319.18 39.30
10862 44.6815 1320.90 1319.08 38.00
10863 44.6853 1346.70 1318.98 38.50
10864 44.6891 1323.50 1318.87 39.00
10865 44.6928 1316.10 1318.77 37.50
10866 44.6966 1361.90 1318.66 38.80
10867 44.7004 1350.60 1318.56 38.00
10868 44.7041 1302.30 1318.45 38.30
10869 44.7079 1319.30 1318.35 38.40
10870 44.7116 1390.30 1318.25 39.50
10871 44.7154 1371.00 1318.14 39.10
10872 44.7192 1352.20 1318.04 38.00
10873 44.7229 1359.20 1317.93 39.10
10874 44.7267 1331.50 1317.83 38.20
10875 44.7304 1368.60 1317.73 39.10
10876 44.7342 1329.20 1317.62 39.00
10877 44.7379 1341.80 1317.52 38.40
10878 44.7417 1317.50 1317.42 37.90
10879 44.7455 1378.00 1317.31 38.90
10880 44.7492 1344.40 1317.21 38.70
10881 44.7530 1350.20 1317.11 38.90
10882 44.7567 1319.10 1317.00 38.20
10883 44.7605 1312.10 1316.90 38.10
10884 44.7643 1312.50 1316.80 37.50
10885 44.7680 1421.20 1316.69 39.90
10886 44.7718 1360.40 1316.59 39.00
10887 44.7756 1374.10 1316.49 38.70
10888 44.7793 1313.90 1316.38 37.40
10889 44.7831 1312.70 1316.28 38.00
10890 44.7868 1289.00 1316.18 37.90
10891 44.7906 1366.80 1316.07 39.20
10892 44.7943 1352.50 1315.97 38.70
10893 44.7981 1357.10 1315.87 38.80
10894 44.8019 1278.80 1315.76 37.60
10895 44.8056 1317.60 1315.66 38.20
10896 44.8094 1366.20 1315.56 39.20
10897 44.8131 1327.00 1315.46 38.40
10898 44.8207 1374.60 1315.25 38.40
10899 44.8244 1348.80 1315.15 38.70
10900 44.8282 1387.40 1315.05 38.70
10901 44.8320 1371.50 1314.94 39.80
10902 44.8357 1401.80 1314.84 39.60
10903 44.8395 1253.30 1314.74 37.10
10904 44.8432 1357.20 1314.64 38.50
10905 44.8470 1354.70 1314.53 38.50
10906 44.8507 1367.80 1314.43 38.70
10907 44.8545 1325.60 1314.33 38.50
10908 44.8583 1344.90 1314.23 38.70
10909 44.8620 1272.60 1314.12 37.40
10910 44.8658 1324.30 1314.02 38.40
10911 44.8695 1310.20 1313.92 38.30
10912 44.8733 1346.60 1313.82 38.30
10913 44.8771 1317.60 1313.72 38.10
10914 44.8808 1360.60 1313.61 38.80
10915 44.8846 1329.00 1313.51 38.20
10916 44.8884 1296.70 1313.41 37.70
10917 44.8921 1290.10 1313.31 37.40
10918 44.8959 1355.10 1313.21 38.70
10919 44.8996 1329.70 1313.10 38.40
10920 44.9034 1351.10 1313.00 38.60
10921 44.9072 1281.30 1312.90 37.60
10922 44.9109 1314.40 1312.80 38.30
10923 44.9147 1331.40 1312.70 38.10
10924 44.9184 1277.10 1312.60 38.00
10925 44.9222 1284.80 1312.50 37.70
10926 44.9259 1410.90 1312.39 39.60
10927 44.9297 1356.60 1312.29 39.10
10928 44.9335 1318.30 1312.19 39.00
10929 44.9372 1306.40 1312.09 37.80
10930 44.9410 1327.30 1311.99 38.10
10931 44.9448 1298.30 1311.89 37.50
10932 44.9485 1347.10 1311.79 38.50
10933 44.9523 1301.10 1311.69 38.50
10934 44.9560 1285.30 1311.59 38.00
10935 44.9598 1303.90 1311.48 38.20
10936 44.9636 1290.10 1311.38 38.30
10937 44.9673 1296.90 1311.28 38.00
10938 44.9711 1392.20 1311.18 39.40
10939 44.9748 1377.60 1311.08 39.10
10940 44.9786 1350.80 1310.98 38.80
10941 44.9823 1252.10 1310.88 37.40
10942 44.9861 1364.30 1310.78 38.20
10943 44.9899 1320.20 1310.68 37.90
10944 44.9936 1314.10 1310.58 38.30
10945 44.9974 1295.90 1310.48 38.10
10946 45.0011 1340.60 1310.38 38.70
10947 45.0049 1271.80 1310.28 37.30
10948 45.0087 1357.50 1310.18 38.20
10949 45.0124 1289.00 1310.08 37.90
10950 45.0162 1278.70 1309.98 37.80
10951 45.0200 1308.30 1309.88 38.50
10952 45.0237 1359.80 1309.78 38.30
10953 45.0275 1305.40 1309.68 37.40
10954 45.0312 1426.20 1309.58 40.50
10955 45.0350 1312.70 1309.48 38.60
10956 45.0387 1359.80 1309.38 38.90
10957 45.0425 1266.80 1309.28 37.40
10958 45.0463 1365.20 1309.18 39.10
10959 45.0500 1294.30 1309.08 37.30
10960 45.0538 1364.00 1308.98 39.20
10961 45.0575 1354.10 1308.88 38.80
10962 45.0613 1378.70 1308.78 39.10
10963 45.0651 1292.10 1308.68 37.20
10964 45.0688 1352.70 1308.58 38.50
10965 45.0726 1308.50 1308.48 37.90
10966 45.0764 1307.70 1308.38 38.30
10967 45.0801 1288.50 1308.28 37.80
10968 45.0839 1283.70 1308.18 37.80
10969 45.0876 1300.70 1308.08 37.50
10970 45.0914 1332.20 1307.98 38.40
10971 45.0951 1305.90 1307.88 39.10
10972 45.0989 1380.50 1307.78 39.50
10973 45.1027 1396.20 1307.68 39.20
10974 45.1064 1340.50 1307.58 38.20
10975 45.1102 1305.30 1307.49 38.70
10976 45.1139 1241.50 1307.39 36.90
10977 45.1177 1366.50 1307.29 39.00
10978 45.1215 1370.00 1307.19 39.10
10979 45.1252 1336.80 1307.09 37.90
10980 45.1290 1314.60 1306.99 38.70
10981 45.1328 1359.40 1306.89 39.20
10982 45.1365 1330.90 1306.79 38.50
10983 45.1403 1300.30 1306.69 37.90
10984 45.1440 1320.70 1306.60 38.00
10985 45.1478 1346.90 1306.50 37.90
10986 45.1516 1303.40 1306.40 38.00
10987 45.1553 1275.10 1306.30 37.90
10988 45.1591 1350.30 1306.20 39.10
10989 45.1628 1324.30 1306.10 38.00
10990 45.1666 1290.80 1306.00 38.10
10991 45.1703 1329.60 1305.91 38.50
10992 45.1741 1357.80 1305.81 39.20
10993 45.1779 1376.50 1305.71 38.90
10994 45.1816 1349.40 1305.61 38.80
10995 45.1854 1383.50 1305.51 39.40
10996 45.1891 1392.20 1305.42 39.30
10997 45.1929 1381.10 1305.32 39.20
10998 45.1967 1346.60 1305.22 38.20
10999 45.2004 1286.40 1305.12 37.60
11000 45.2042 1338.30 1305.02 38.30
11001 45.2079 1301.70 1304.93 38.10
11002 45.2117 1345.90 1304.83 39.00
11003 45.2155 1314.80 1304.73 37.90
11004 45.2192 1388.80 1304.63 39.70
11005 45.2230 1303.70 1304.53 38.10
11006 45.2267 1320.40 1304.44 37.90
11007 45.2305 1341.50 1304.34 39.10
11008 45.2343 1341.90 1304.24 39.40
11009 45.2380 1331.10 1304.14 38.00
11010 45.2418 1268.60 1304.05 37.00
11011 45.2455 1312.90 1303.95 38.20
11012 45.2493 1390.00 1303.85 38.90
11013 45.2531 1331.90 1303.75 38.40
11014 45.2568 1317.20 1303.66 38.30
11015 45.2606 1322.90 1303.56 38.10
11016 45.2643 1340.60 1303.46 38.70
11017 45.2681 1304.00 1303.37 38.30
11018 45.2719 1317.40 1303.27 38.40
11019 45.2756 1392.40 1303.17 39.10
11020 45.2794 1373.00 1303.07 38.60
11021 45.2831 1314.90 1302.98 38.10
11022 45.2869 1366.00 1302.88 39.00
11023 45.2906 1357.40 1302.78 38.40
11024 45.2944 1335.00 1302.69 38.10
11025 45.2982 1298.00 1302.59 38.00
11026 45.3019 1345.30 1302.49 38.70
11027 45.3057 1322.50 1302.40 37.90
11028 45.3094 1340.40 1302.30 39.10
11029 45.3132 1328.50 1302.20 38.40
11030 45.3170 1374.00 1302.11 38.20
11031 45.3207 1269.70 1302.01 37.50
11032 45.3245 1366.20 1301.91 38.40
11033 45.3283 1328.90 1301.82 37.90
11034 45.3320 1324.00 1301.72 39.60
11035 45.3358 1302.20 1301.62 38.30
11036 45.3395 1377.30 1301.53 38.10
11037 45.3433 1323.20 1301.43 38.60
11038 45.3470 1310.90 1301.34 38.10
11039 45.3546 1398.20 1301.14 39.70
11040 45.3583 1346.40 1301.05 38.30
11041 45.3621 1325.90 1300.95 38.10
11042 45.3658 1409.50 1300.86 39.40
11043 45.3696 1355.80 1300.76 39.20
11044 45.3734 1315.00 1300.66 38.50
11045 45.3771 1445.80 1300.57 40.60
11046 45.3809 1375.60 1300.47 39.00
11047 45.3846 1420.40 1300.38 39.90
11048 45.3884 1274.40 1300.28 37.70
11049 45.3922 1358.00 1300.19 38.70
11050 45.3959 1294.90 1300.09 37.80
11051 45.3997 1343.00 1299.99 38.40
11052 45.4034 1328.40 1299.90 38.40
11053 45.4072 1409.90 1299.80 39.30
11054 45.4110 1309.00 1299.71 38.50
11055 45.4147 1339.20 1299.61 38.00
11056 45.4185 1368.10 1299.52 38.60
11057 45.4222 1306.10 1299.42 38.40
11058 45.4260 1389.60 1299.33 38.90
11059 45.4297 1386.80 1299.23 38.60
11060 45.4335 1354.30 1299.14 38.90
11061 45.4373 1378.60 1299.04 39.50
11062 45.4410 1359.80 1298.95 38.70
11063 45.4448 1388.80 1298.85 39.30
11064 45.4486 1394.90 1298.76 39.30
11065 45.4523 1352.00 1298.66 38.50
11066 45.4561 1371.40 1298.57 39.20
11067 45.4598 1350.70 1298.47 38.20
11068 45.4636 1318.20 1298.38 38.50
11069 45.4674 1403.80 1298.28 39.70
11070 45.4711 1292.30 1298.19 38.20
11071 45.4749 1359.50 1298.09 39.10
11072 45.4786 1339.60 1298.00 38.50
11073 45.4824 1424.20 1297.90 40.40
11074 45.4861 1299.50 1297.81 38.00
11075 45.4899 1396.60 1297.72 39.60
11076 45.4937 1354.90 1297.62 38.60
11077 45.4974 1365.50 1297.53 39.10
11078 45.5012 1358.70 1297.43 38.90
11079 45.5049 1389.40 1297.34 39.20
11080 45.5087 1329.70 1297.24 38.20
11081 45.5125 1422.90 1297.15 39.50
11082 45.5162 1345.90 1359.92 37.90
11083 45.5200 1350.60 1360.95 38.60
11084 45.5237 1398.50 1362.01 39.50
11085 45.5275 1388.40 1363.10 39.10
11086 45.5312 1435.60 1364.23 40.10
11087 45.5350 1375.70 1365.39 39.50
11088 45.5388 1316.40 1366.58 37.80
11089 45.5425 1416.30 1367.81 38.90
11090 45.5463 1391.30 1369.08 39.40
11091 45.5500 1387.90 1370.39 39.00
11092 45.5538 1339.80 1371.74 38.40
11093 45.5576 1385.10 1373.13 39.00
11094 45.5613 1400.80 1374.57 39.40
11095 45.5651 1349.80 1376.05 39.00
11096 45.5688 1326.40 1377.58 37.90
11097 45.5726 1366.70 1379.16 38.80
11098 45.5764 1368.50 1380.79 39.00
11099 45.5801 1359.50 1382.48 38.90
11100 45.5839 1386.00 1384.22 38.90
11101 45.5876 1439.50 1386.02 40.00
11102 45.5914 1433.90 1387.88 40.00
11103 45.5952 1462.80 1389.81 40.20
11104 45.5989 1400.30 1391.80 38.60
11105 45.6027 1423.00 1393.87 38.80
11106 45.6064 1365.20 1396.00 38.70
11107 45.6102 1467.50 1398.21 39.50
11108 45.6139 1437.90 1400.50 40.10
11109 45.6177 1494.10 1402.87 41.10
11110 45.6215 1500.80 1405.34 41.10
11111 45.6252 1516.50 1407.89 41.10
11112 45.6290 1400.40 1410.54 38.70
11113 45.6328 1474.20 1413.29 40.60
11114 45.6365 1467.40 1416.14 40.10
11115 45.6403 1515.00 1419.11 40.90
11116 45.6440 1527.00 1422.18 40.80
11117 45.6478 1559.50 1425.39 41.20
11118 45.6515 1471.20 1428.72 40.60
11119 45.6553 1533.30 1432.19 41.50
11120 45.6591 1553.30 1435.80 41.80
11121 45.6628 1548.00 1439.56 41.90
11122 45.6666 1457.90 1443.48 40.00
11123 45.6703 1553.80 1447.55 42.10
11124 45.6741 1483.90 1451.83 40.80
11125 45.6778 1511.80 1456.27 41.30
11126 45.6816 1525.30 1460.92 41.30
11127 45.6854 1621.40 1465.78 42.40
11128 45.6891 1520.30 1470.85 41.10
11129 45.6929 1546.70 1476.17 42.00
11130 45.6967 1590.30 1481.74 42.50
11131 45.7004 1599.30 1487.56 42.80
11132 45.7042 1562.70 1493.66 41.50
11133 45.7079 1673.20 1500.07 43.70
11134 45.7117 1633.80 1506.81 43.20
11135 45.7154 1652.10 1513.87 43.40
11136 45.7192 1614.00 1521.31 43.00
11137 45.7230 1611.40 1529.15 42.70
11138 45.7267 1537.90 1537.38 41.30
11139 45.7305 1693.50 1546.07 43.10
11140 45.7342 1609.20 1555.22 43.70
11141 45.7380 1673.10 1564.91 43.50
11142 45.7417 1640.00 1575.13 43.10
11143 45.7455 1755.20 1585.97 44.60
11144 45.7493 1700.00 1597.45 43.30
11145 45.7530 1706.90 1609.61 43.90
11146 45.7568 1700.60 1622.52 43.90
11147 45.7605 1732.10 1636.21 44.20
11148 45.7643 1744.20 1650.83 43.20
11149 45.7681 1791.30 1666.38 44.50
11150 45.7718 1783.00 1682.99 44.90
11151 45.7756 1842.90 1700.75 45.60
11152 45.7793 1855.00 1719.71 45.60
11153 45.7831 1977.20 1740.05 47.90
11154 45.7868 1872.80 1761.82 46.50
11155 45.7906 1955.70 1785.31 47.90
11156 45.7944 1957.40 1810.56 47.20
11157 45.7981 1979.10 1837.82 47.70
11158 45.8019 1994.30 1867.32 47.50
11159 45.8056 1989.00 1899.22 48.00
11160 45.8094 2042.60 1933.87 48.00
11161 45.8132 2189.60 1971.49 49.80
11162 45.8169 2006.70 2012.59 47.30
11163 45.8207 2176.90 2057.48 49.70
11164 45.8244 2301.70 2106.77 52.20
11165 45.8282 2291.70 2160.90 50.80
11166 45.8320 2358.80 2220.42 52.30
11167 45.8357 2490.30 2286.35 55.20
11168 45.8395 2470.50 2359.65 53.10
11169 45.8432 2629.10 2441.22 54.90
11170 45.8470 2572.80 2532.34 54.70
11171 45.8507 2808.70 2634.84 57.50
11172 45.8545 2843.10 2750.35 57.90
11173 45.8583 3071.80 2880.88 59.70
11174 45.8620 3154.30 3029.83 60.90
11175 45.8658 3381.40 3200.78 63.20
11176 45.8695 3516.70 3397.69 64.20
11177 45.8733 3784.80 3625.98 67.10
11178 45.8771 4009.90 3893.33 69.40
11179 45.8808 4250.10 4207.21 71.70
11180 45.8846 4344.10 4581.35 70.60
11181 45.8883 4922.10 5030.35 77.10
11182 45.8921 5404.60 5577.31 81.20
11183 45.8959 6140.50 6252.12 87.10
11184 45.8996 6684.20 7099.63 91.70
11185 45.9034 7868.80 8196.90 97.50
11186 45.9071 9014.20 9662.77 106.10
11187 45.9109 10984.60 11677.10 120.10
11188 45.9146 12825.50 14508.30 129.90
11189 45.9184 16871.80 18529.80 152.20
11190 45.9221 21691.10 24147.20 175.50
11191 45.9259 30402.40 31809.80 212.00
11192 45.9297 40615.00 41678.70 246.80
11193 45.9334 54895.20 53199.50 310.20
11194 45.9372 64088.20 64004.40 325.80
11195 45.9409 71585.80 69702.10 351.70
11196 45.9447 69298.00 66991.30 342.60
11197 45.9485 63657.70 57512.60 330.40
11198 45.9522 49622.10 45864.60 284.70
11199 45.9560 37553.70 35248.60 238.90
11200 45.9597 26265.30 26747.70 196.20
11201 45.9635 19811.30 20417.10 168.30
11202 45.9673 14667.90 15848.10 138.50
11203 45.9710 11837.90 12621.90 127.00
11204 45.9748 9740.20 10335.90 112.60
11205 45.9785 8120.50 8695.53 101.40
11206 45.9823 7056.10 7476.14 94.70
11207 45.9860 6250.50 6544.22 87.70
11208 45.9898 5457.60 5809.75 81.70
11209 45.9936 5004.80 5219.53 78.30
11210 45.9973 4424.90 4737.85 73.40
11211 46.0011 4209.10 4337.69 72.10
11212 46.0048 3717.70 4001.74 65.50
11213 46.0086 3684.00 3717.83 66.90
11214 46.0123 3411.50 3476.26 63.40
11215 46.0161 3261.70 3268.02 61.50
11216 46.0199 3142.00 3087.79 61.30
11217 46.0236 3113.10 2930.81 60.50
11218 46.0274 2706.80 2793.40 56.20
11219 46.0311 2758.50 2672.14 55.80
11220 46.0349 2653.80 2565.18 57.40
11221 46.0387 2626.50 2469.78 55.60
11222 46.0424 2391.70 2384.50 52.50
11223 46.0462 2304.80 2308.16 51.90
11224 46.0499 2330.90 2239.56 51.80
11225 46.0537 2306.10 2177.41 50.90
11226 46.0574 2220.80 2121.05 50.90
11227 46.0612 2235.60 2069.90 50.10
11228 46.0649 2079.90 2023.35 47.40
11229 46.0687 2147.60 1980.68 48.70
11230 46.0725 1981.40 1941.53 46.60
11231 46.0762 2088.00 1905.63 48.00
11232 46.0800 1962.20 1872.53 46.80
11233 46.0837 2022.10 1842.07 47.10
11234 46.0875 1944.50 1813.79 46.10
11235 46.0913 1951.00 1787.63 46.40
11236 46.0950 1863.20 1763.32 45.30
11237 46.0988 1874.10 1740.77 45.60
11238 46.1025 1780.50 1719.68 44.10
11239 46.1063 1851.20 1700.04 45.10
11240 46.1101 1847.10 1681.66 44.50
11241 46.1138 1816.10 1664.50 44.70
11242 46.1176 1739.90 1648.36 43.60
11243 46.1213 1805.20 1633.23 44.80
11244 46.1251 1699.10 1618.99 43.10
11245 46.1288 1681.10 1605.63 42.80
11246 46.1326 1610.10 1593.00 42.10
11247 46.1363 1712.70 1581.10 44.10
11248 46.1401 1691.40 1569.85 42.80
11249 46.1439 1664.30 1559.24 42.80
11250 46.1476 1596.20 1549.16 42.00
11251 46.1514 1614.60 1539.63 42.10
11252 46.1551 1562.60 1530.58 41.20
11253 46.1589 1633.20 1522.01 42.50
11254 46.1627 1598.70 1513.84 41.60
11255 46.1664 1542.40 1506.09 41.30
11256 46.1702 1507.30 1498.70 40.60
11257 46.1739 1526.40 1491.68 41.10
11258 46.1777 1521.50 1484.96 41.00
11259 46.1814 1518.40 1478.57 39.80
11260 46.1852 1471.10 1472.46 39.40
11261 46.1889 1490.70 1466.62 40.30
11262 46.1927 1534.30 1461.02 40.60
11263 46.1965 1521.30 1455.69 40.50
11264 46.2002 1569.40 1450.57 41.30
11265 46.2040 1565.70 1445.67 41.30
11266 46.2077 1502.40 1440.96 40.50
11267 46.2115 1419.80 1436.46 38.60
11268 46.2152 1434.40 1432.13 39.40
11269 46.2190 1567.90 1427.96 40.80
11270 46.2228 1462.90 1423.96 40.00
11271 46.2265 1570.20 1420.12 40.40
11272 46.2303 1342.50 1416.42 37.80
11273 46.2340 1442.40 1412.86 39.80
11274 46.2378 1439.30 1409.44 39.70
11275 46.2416 1447.50 1406.13 39.20
11276 46.2453 1348.40 1402.94 38.30
11277 46.2491 1440.40 1399.86 39.60
11278 46.2528 1458.40 1396.90 39.70
11279 46.2566 1515.70 1394.03 41.10
11280 46.2603 1333.80 1391.26 37.90
11281 46.2641 1400.00 1388.59 39.50
11282 46.2678 1393.70 1386.01 39.50
11283 46.2716 1394.90 1383.50 38.40
11284 46.2754 1392.10 1381.09 39.00
11285 46.2791 1433.00 1378.74 39.50
11286 46.2829 1425.00 1376.47 39.90
11287 46.2866 1357.10 1374.28 38.70
11288 46.2904 1340.50 1372.15 38.30
11289 46.2942 1404.20 1370.08 38.80
11290 46.2979 1426.90 1368.08 39.90
11291 46.3017 1466.70 1366.14 39.80
11292 46.3054 1348.80 1364.25 38.40
11293 46.3092 1411.10 1362.42 39.30
11294 46.3129 1364.20 1360.65 38.80
11295 46.3167 1388.10 1358.92 39.60
11296 46.3204 1345.00 1357.24 38.40
11297 46.3242 1383.10 1355.61 39.20
11298 46.3280 1328.20 1354.02 38.30
11299 46.3317 1455.60 1352.48 39.50
11300 46.3355 1299.70 1350.97 38.60
11301 46.3392 1360.40 1349.51 38.70
11302 46.3430 1330.90 1348.08 38.20
11303 46.3467 1339.60 1346.70 37.90
11304 46.3505 1357.30 1345.35 39.00
11305 46.3543 1319.40 1344.03 38.30
11306 46.3580 1303.40 1342.75 37.20
11307 46.3618 1303.70 1341.50 38.00
11308 46.3655 1342.10 1340.27 38.30
11309 46.3693 1362.20 1276.84 38.80
11310 46.3730 1362.40 1276.76 38.40
11311 46.3768 1286.10 1276.67 37.20
11312 46.3806 1300.50 1276.59 38.10
11313 46.3843 1358.20 1276.51 38.50
11314 46.3881 1380.60 1276.42 39.20
11315 46.3918 1337.40 1276.34 37.70
11316 46.3956 1364.70 1276.25 38.30
11317 46.3993 1378.50 1276.17 39.10
11318 46.4031 1307.90 1276.09 38.10
11319 46.4068 1373.20 1276.00 39.20
11320 46.4106 1321.40 1275.92 38.20
11321 46.4144 1327.50 1275.84 37.70
11322 46.4181 1303.60 1275.75 37.80
11323 46.4219 1337.10 1275.67 38.20
11324 46.4256 1336.20 1275.59 38.60
11325 46.4294 1285.90 1275.50 36.30
11326 46.4331 1369.70 1275.42 39.50
11327 46.4369 1341.50 1275.34 38.90
11328 46.4407 1338.10 1275.25 38.00
11329 46.4444 1359.00 1275.17 39.30
11330 46.4482 1270.90 1275.09 37.70
11331 46.4519 1303.70 1275.00 37.60
11332 46.4557 1243.20 1274.92 37.10
11333 46.4594 1329.20 1274.84 38.10
11334 46.4632 1309.10 1274.75 37.90
11335 46.4669 1372.80 1274.67 39.20
11336 46.4707 1257.70 1274.59 37.10
11337 46.4745 1369.20 1274.50 39.10
11338 46.4782 1268.10 1274.42 37.70
11339 46.4820 1357.60 1274.34 38.60
11340 46.4857 1244.70 1274.26 37.40
11341 46.4895 1384.20 1274.17 39.20
11342 46.4932 1283.10 1274.09 37.80
11343 46.4970 1385.60 1274.01 39.00
11344 46.5008 1328.10 1273.92 37.80
11345 46.5045 1288.70 1273.84 37.40
11346 46.5083 1314.70 1273.76 37.60
11347 46.5120 1388.70 1273.68 39.40
11348 46.5158 1306.60 1273.59 37.40
11349 46.5195 1289.70 1273.51 38.10
11350 46.5233 1281.80 1273.43 38.10
11351 46.5271 1341.00 1273.35 38.10
11352 46.5308 1240.50 1273.26 36.30
11353 46.5346 1327.40 1273.18 39.00
11354 46.5383 1293.70 1273.10 38.60
11355 46.5421 1312.20 1273.02 37.70
11356 46.5458 1339.10 1272.94 37.80
11357 46.5496 1318.40 1272.85 37.60
11358 46.5533 1261.50 1272.77 36.70
11359 46.5571 1301.70 1272.69 37.30
11360 46.5608 1289.60 1272.61 37.10
11361 46.5646 1333.40 1272.53 37.70
11362 46.5684 1329.30 1272.44 37.60
11363 46.5721 1256.10 1272.36 36.60
11364 46.5759 1283.70 1272.28 37.20
11365 46.5796 1336.10 1272.20 37.30
11366 46.5834 1255.00 1272.12 36.60
11367 46.5871 1321.50 1272.03 37.60
11368 46.5909 1301.50 1271.95 37.30
11369 46.5947 1236.70 1271.87 36.40
11370 46.5984 1269.90 1271.79 37.10
11371 46.6022 1311.70 1271.71 37.50
11372 46.6059 1268.90 1271.63 36.70
11373 46.6097 1291.00 1271.55 37.10
11374 46.6134 1339.10 1271.46 38.40
11375 46.6172 1294.20 1271.38 37.50
11376 46.6209 1279.90 1271.30 37.20
11377 46.6247 1234.70 1271.22 35.80
11378 46.6284 1262.70 1271.14 36.50
11379 46.6322 1268.00 1271.06 37.00
11380 46.6360 1292.80 1270.98 37.90
11381 46.6397 1293.10 1270.90 37.40
11382 46.6435 1248.90 1270.81 36.30
11383 46.6472 1275.60 1270.73 36.80
11384 46.6510 1239.40 1270.65 36.00
11385 46.6547 1299.50 1270.57 37.30
11386 46.6585 1252.70 1270.49 36.70
11387 46.6623 1295.50 1270.41 37.40
11388 46.6660 1248.80 1270.33 36.60
11389 46.6698 1240.70 1270.25 36.60
11390 46.6735 1263.60 1270.17 36.90
11391 46.6773 1274.40 1270.09 36.90
11392 46.6810 1284.00 1270.01 37.50
11393 46.6848 1231.60 1269.92 36.10
11394 46.6885 1269.40 1269.84 36.30
11395 46.6923 1356.20 1269.76 38.10
11396 46.6960 1256.60 1269.68 36.90
11397 46.6998 1261.80 1269.60 36.90
11398 46.7035 1273.70 1269.52 36.80
11399 46.7073 1240.40 1269.44 36.60
11400 46.7111 1301.80 1269.36 36.80
11401 46.7148 1317.10 1269.28 37.90
11402 46.7186 1207.80 1269.20 36.00
11403 46.7223 1224.90 1269.12 36.20
11404 46.7261 1259.90 1269.04 37.00
11405 46.7298 1254.40 1268.96 36.30
11406 46.7336 1293.20 1268.88 36.80
11407 46.7374 1338.00 1268.80 38.50
11408 46.7411 1245.50 1268.72 36.50
11409 46.7449 1291.50 1268.64 37.10
11410 46.7486 1256.30 1268.56 36.80
11411 46.7524 1251.50 1268.48 36.60
11412 46.7561 1317.80 1268.40 38.10
11413 46.7599 1359.30 1268.32 38.50
11414 46.7636 1213.80 1268.24 36.30
11415 46.7674 1289.10 1268.16 37.20
11416 46.7711 1246.00 1268.08 36.20
11417 46.7749 1269.00 1268.00 37.00
11418 46.7786 1252.90 1267.92 37.20
11419 46.7824 1350.60 1267.84 38.50
11420 46.7862 1272.90 1267.76 37.10
11421 46.7899 1263.90 1267.68 36.70
11422 46.7937 1253.30 1267.60 36.90
11423 46.7974 1261.80 1267.52 36.40
11424 46.8012 1228.50 1267.44 36.00
11425 46.8049 1282.40 1267.37 37.20
11426 46.8087 1195.50 1267.29 36.10
11427 46.8124 1233.20 1267.21 36.80
11428 46.8162 1264.80 1267.13 37.10
11429 46.8200 1365.90 1267.05 38.60
11430 46.8237 1249.10 1266.97 36.80
11431 46.8275 1338.70 1266.89 37.80
11432 46.8312 1183.40 1266.81 35.00
11433 46.8350 1261.80 1266.73 36.80
11434 46.8387 1220.80 1266.65 35.70
11435 46.8425 1264.90 1266.57 37.10
11436 46.8462 1198.80 1266.50 35.80
11437 46.8500 1243.90 1266.42 36.50
11438 46.8537 1246.40 1266.34 37.00
11439 46.8575 1249.80 1266.26 37.60
11440 46.8613 1294.30 1266.18 37.50
11441 46.8650 1229.50 1266.10 36.10
11442 46.8688 1213.80 1266.02 36.40
11443 46.8725 1202.10 1265.94 35.90
11444 46.8763 1222.80 1265.87 35.90
11445 46.8800 1251.20 1265.79 37.10
11446 46.8838 1241.70 1265.71 36.70
11447 46.8875 1271.20 1265.63 37.30
11448 46.8913 1292.60 1265.55 37.50
11449 46.8950 1296.90 1265.47 37.60
11450 46.8988 1291.70 1265.39 37.60
11451 46.9025 1210.10 1265.32 36.40
11452 46.9063 1234.00 1265.24 36.50
11453 46.9101 1243.20 1265.16 36.30
11454 46.9138 1233.60 1265.08 36.90
11455 46.9176 1272.50 1265.00 37.10
11456 46.9213 1203.50 1264.93 36.10
11457 46.9251 1267.60 1264.85 37.00
11458 46.9288 1228.90 1264.77 36.20
11459 46.9326 1292.40 1264.69 37.20
11460 46.9363 1203.40 1264.61 36.40
11461 46.9401 1293.80 1264.54 37.70
11462 46.9438 1326.90 1264.46 37.50
11463 46.9476 1224.60 1264.38 36.30
11464 46.9514 1233.30 1264.30 36.10
11465 46.9551 1185.70 1264.22 35.90
11466 46.9589 1230.40 1264.15 36.30
11467 46.9626 1246.60 1264.07 37.00
11468 46.9664 1218.60 1263.99 36.00
11469 46.9701 1267.20 1263.91 37.10
11470 46.9739 1205.80 1263.84 36.20
11471 46.9776 1303.50 1263.76 37.50
11472 46.9814 1220.20 1263.68 36.30
11473 46.9851 1336.20 1263.60 38.50
11474 46.9889 1244.80 1263.53 36.70
11475 46.9926 1244.10 1263.45 36.80
11476 46.9964 1272.30 1263.37 37.10
11477 47.0001 1202.00 1263.29 35.60
11478 47.0020 1242.60 1263.26 37.20
11479 47.0058 1260.00 1263.18 36.70
11480 47.0095 1307.40 1263.10 38.30
11481 47.0133 1152.80 1263.02 36.10
11482 47.0171 1240.90 1262.95 36.60
11483 47.0208 1241.50 1262.87 36.30
11484 47.0246 1327.40 1262.79 39.00
11485 47.0283 1276.70 1262.72 38.40
11486 47.0321 1287.20 1262.64 37.30
11487 47.0358 1180.70 1262.56 35.40
11488 47.0396 1241.00 1262.48 36.50
11489 47.0433 1228.80 1262.41 36.20
11490 47.0471 1266.20 1262.33 36.70
11491 47.0508 1240.40 1262.25 36.30
11492 47.0546 1225.00 1262.18 36.10
11493 47.0584 1211.20 1262.10 35.90
11494 47.0621 1308.50 1262.02 37.40
11495 47.0659 1205.00 1261.95 36.00
11496 47.0696 1231.00 1261.87 35.80
11497 47.0734 1210.40 1261.79 36.00
11498 47.0771 1308.60 1261.72 37.40
11499 47.0809 1198.50 1261.64 35.80
11500 47.0847 1333.70 1261.56 37.80
11501 47.0884 1278.90 1261.49 37.20
11502 47.0922 1274.00 1261.41 36.90
11503 47.0959 1268.00 1261.33 36.70
11504 47.0997 1211.20 1261.26 35.90
11505 47.1034 1229.50 1261.18 36.70
11506 47.1072 1276.10 1261.11 37.20
11507 47.1109 1204.10 1261.03 36.00
11508 47.1147 1304.10 1260.95 36.90
11509 47.1185 1237.40 1260.88 36.10
11510 47.1222 1161.00 1260.80 35.40
11511 47.1260 1196.20 1260.73 36.40
11512 47.1297 1202.00 1260.65 36.00
11513 47.1335 1237.20 1260.57 36.10
11514 47.1372 1302.10 1260.50 37.20
11515 47.1410 1320.00 1260.42 37.20
11516 47.1447 1252.90 1260.35 36.60
11517 47.1485 1251.70 1260.27 36.70
11518 47.1522 1244.60 1260.19 36.60
11519 47.1560 1256.70 1260.12 36.70
11520 47.1598 1239.70 1260.04 36.60
11521 47.1635 1242.60 1259.97 36.60
11522 47.1673 1263.60 1259.89 36.80
11523 47.1710 1270.90 1259.82 37.30
11524 47.1748 1266.80 1259.74 36.60
11525 47.1785 1201.20 1259.66 35.30
11526 47.1823 1274.30 1259.59 36.90
11527 47.1861 1220.50 1259.51 36.30
11528 47.1898 1244.80 1259.44 36.60
11529 47.1936 1178.30 1259.36 35.30
11530 47.1973 1224.30 1259.29 36.40
11531 47.2011 1185.60 1259.21 35.00
11532 47.2048 1214.30 1259.14 36.30
11533 47.2086 1299.50 1259.06 37.40
11534 47.2123 1284.60 1258.99 37.10
11535 47.2161 1242.80 1258.91 36.80
11536 47.2198 1271.90 1258.84 36.60
11537 47.2236 1230.10 1258.76 35.90
11538 47.2265 1187.30 1258.70 34.70
11539 47.2303 1296.30 1258.63 36.10
11540 47.2340 1243.20 1258.55 36.40
11541 47.2378 1248.50 1258.48 36.00
11542 47.2415 1213.50 1258.40 35.50
11543 47.2453 1229.20 1258.33 35.50
11544 47.2490 1274.10 1258.25 36.50
11545 47.2528 1271.90 1258.18 36.40
11546 47.2565 1239.90 1258.10 36.10
11547 47.2603 1200.80 1258.03 35.60
11548 47.2640 1158.60 1257.96 34.70
11549 47.2678 1276.00 1257.88 36.60
11550 47.2716 1212.20 1257.81 35.80
11551 47.2753 1269.40 1257.73 36.70
11552 47.2791 1203.00 1257.66 35.50
11553 47.2828 1229.70 1257.58 35.90
11554 47.2866 1252.00 1257.51 36.20
11555 47.2903 1200.10 1257.43 35.50
11556 47.2941 1242.60 1257.36 35.80
11557 47.2978 1264.40 1257.28 36.20
11558 47.3016 1205.40 1257.21 35.40
11559 47.3053 1265.10 1257.14 36.50
11560 47.3091 1234.60 1257.06 35.80
11561 47.3129 1259.10 1256.99 36.40
11562 47.3166 1283.80 1256.91 36.70
11563 47.3204 1262.20 1256.84 36.30
11564 47.3241 1185.60 1256.77 35.40
11565 47.3279 1265.60 1256.69 36.40
11566 47.3316 1295.80 1256.62 36.80
11567 47.3354 1247.30 1256.54 36.60
11568 47.3391 1275.30 1256.47 36.50
11569 47.3429 1262.30 1256.40 36.50
11570 47.3466 1281.30 1256.32 36.60
11571 47.3504 1283.60 1256.25 36.60
11572 47.3541 1198.00 1256.17 35.50
11573 47.3579 1207.20 1256.10 35.40
11574 47.3616 1216.90 1256.03 35.90
11575 47.3654 1254.90 1255.95 36.30
11576 47.3692 1237.70 1255.88 35.70
11577 47.3729 1251.60 1255.81 36.30
11578 47.3767 1246.10 1255.73 36.50
11579 47.3804 1293.90 1255.66 37.20
11580 47.3842 1257.40 1255.59 36.60
11581 47.3879 1293.50 1255.51 37.30
11582 47.3917 1202.70 1255.44 35.10
11583 47.3954 1237.70 1255.37 36.40
11584 47.3992 1236.10 1255.29 36.20
11585 47.4030 1236.40 1255.22 36.10
11586 47.4067 1201.90 1255.15 35.50
11587 47.4105 1337.10 1255.07 37.80
11588 47.4142 1213.20 1255.00 35.90
11589 47.4180 1233.50 1254.93 36.40
11590 47.4217 1240.50 1254.85 36.20
11591 47.4255 1221.60 1254.78 35.90
11592 47.4292 1186.60 1254.71 35.10
11593 47.4330 1277.80 1254.63 36.90
11594 47.4367 1223.20 1254.56 36.30
11595 47.4405 1247.10 1254.49 36.10
11596 47.4442 1173.40 1254.42 35.30
11597 47.4480 1335.00 1254.34 37.30
11598 47.4518 1257.40 1254.27 36.50
11599 47.4555 1268.10 1254.20 36.50
11600 47.4593 1163.40 1254.12 35.20
11601 47.4630 1260.30 1254.05 36.40
11602 47.4668 1245.00 1253.98 36.20
11603 47.4705 1261.10 1253.91 36.50
11604 47.4743 1252.30 1253.83 36.50
11605 47.4780 1239.50 1253.76 36.40
11606 47.4818 1204.10 1253.69 36.00
11607 47.4855 1264.20 1253.62 36.60
11608 47.4893 1225.20 1253.54 36.40
11609 47.4931 1260.50 1253.47 36.20
11610 47.4968 1221.50 1253.40 36.00
11611 47.5006 1292.80 1253.33 36.80
11612 47.5043 1228.70 1253.25 36.10
11613 47.5081 1185.10 1253.18 35.10
11614 47.5118 1210.20 1253.11 35.60
11615 47.5156 1253.60 1253.04 36.10
11616 47.5193 1134.50 1252.96 34.70
11617 47.5231 1279.30 1252.89 37.30
11618 47.5269 1232.00 1252.82 36.00
11619 47.5306 1225.10 1252.75 35.60
11620 47.5344 1223.50 1252.68 36.40
11621 47.5381 1283.30 1252.60 36.80
11622 47.5419 1195.60 1252.53 35.80
11623 47.5456 1201.90 1252.46 35.60
11624 47.5494 1220.10 1252.39 35.80
11625 47.5531 1250.80 1252.32 36.50
11626 47.5569 1227.10 1252.24 35.80
11627 47.5606 1225.80 1252.17 35.90
11628 47.5644 1264.10 1252.10 36.70
11629 47.5682 1202.90 1252.03 35.80
11630 47.5719 1249.50 1251.96 36.10
11631 47.5757 1277.10 1251.89 36.90
11632 47.5794 1185.80 1251.81 35.50
11633 47.5832 1276.10 1251.74 36.70
11634 47.5869 1230.10 1251.67 36.20
11635 47.5907 1230.90 1251.60 36.30
11636 47.5945 1216.30 1251.53 35.90
11637 47.5982 1317.30 1251.46 37.50
11638 47.6020 1172.10 1251.38 34.50
11639 47.6057 1200.60 1251.31 35.80
11640 47.6095 1182.70 1251.24 35.20
11641 47.6132 1271.60 1251.17 37.10
11642 47.6170 1283.90 1251.10 36.60
11643 47.6207 1243.80 1251.03 36.20
11644 47.6245 1206.40 1250.96 36.00
11645 47.6283 1309.00 1250.89 37.10
11646 47.6320 1224.30 1250.81 35.90
11647 47.6358 1247.00 1250.74 37.20
11648 47.6395 1232.50 1250.67 36.60
11649 47.6433 1249.50 1250.60 36.20
11650 47.6470 1229.80 1250.53 36.10
11651 47.6508 1291.50 1250.46 37.00
11652 47.6545 1241.90 1250.39 36.40
11653 47.6583 1217.10 1250.32 36.00
11654 47.6620 1273.20 1250.25 37.00
11655 47.6658 1282.00 1250.18 37.10
11656 47.6696 1242.80 1250.10 36.60
11657 47.6733 1226.50 1250.03 36.60
11658 47.6771 1243.90 1249.96 36.70
11659 47.6808 1238.70 1249.89 36.40
11660 47.6846 1270.50 1249.82 37.00
11661 47.6883 1245.40 1249.75 36.30
11662 47.6921 1189.60 1249.68 35.20
11663 47.6959 1227.30 1249.61 35.90
11664 47.6996 1234.40 1249.54 36.10
11665 47.7034 1289.00 1249.47 36.60
11666 47.7071 1271.40 1249.40 36.50
11667 47.7109 1252.30 1249.33 36.20
11668 47.7146 1223.60 1249.26 35.90
11669 47.7184 1223.70 1249.19 35.50
11670 47.7221 1231.90 1249.12 36.00
11671 47.7259 1219.00 1249.05 35.90
11672 47.7296 1227.30 1248.98 35.40
11673 47.7334 1264.90 1248.91 36.50
11674 47.7372 1266.10 1248.84 37.00
11675 47.7409 1293.70 1248.77 37.10
11676 47.7447 1236.50 1248.70 36.20
11677 47.7484 1263.60 1248.63 36.40
11678 47.7522 1203.90 1248.56 35.70
11679 47.7559 1236.30 1248.49 36.20
11680 47.7597 1212.90 1248.42 35.70
11681 47.7635 1217.50 1248.35 35.60
11682 47.7672 1205.50 1248.28 35.90
11683 47.7710 1278.60 1248.21 36.50
11684 47.7747 1238.20 1248.14 36.00
11685 47.7785 1246.30 1248.07 36.20
11686 47.7822 1224.10 1248.00 36.20
11687 47.7860 1257.70 1247.93 36.70
11688 47.7897 1227.60 1247.86 35.90
11689 47.7935 1303.70 1247.79 37.20
11690 47.7973 1225.60 1247.72 36.10
11691 47.8010 1163.00 1247.65 35.00
11692 47.8048 1223.20 1247.58 35.80
11693 47.8085 1272.40 1247.51 36.50
11694 47.8123 1235.90 1247.44 36.30
11695 47.8160 1205.70 1247.37 36.10
11696 47.8198 1213.70 1247.30 35.80
11697 47.8236 1221.20 1247.23 36.10
11698 47.8273 1199.30 1247.16 35.80
11699 47.8311 1275.50 1247.09 36.40
11700 47.8348 1219.20 1247.02 36.10
11701 47.8386 1270.40 1246.95 36.90
11702 47.8423 1205.00 1246.88 35.40
11703 47.8461 1219.30 1246.81 35.90
11704 47.8498 1199.40 1246.74 35.80
11705 47.8536 1283.30 1246.68 37.20
11706 47.8574 1219.40 1246.61 36.00
11707 47.8611 1251.40 1246.54 36.20
11708 47.8649 1209.30 1246.47 35.70
11709 47.8686 1202.20 1246.40 35.90
11710 47.8724 1244.70 1246.33 36.50
11711 47.8761 1202.60 1246.26 35.50
11712 47.8799 1200.90 1246.19 35.40
11713 47.8837 1195.00 1246.12 35.60
11714 47.8874 1254.10 1246.05 36.20
11715 47.8912 1279.80 1245.99 36.60
11716 47.8949 1226.90 1245.92 36.20
11717 47.8987 1223.20 1245.85 35.80
11718 47.9024 1218.90 1245.78 36.00
11719 47.9062 1273.70 1245.71 36.40
11720 47.9100 1211.20 1245.64 35.50
11721 47.9137 1248.70 1245.57 36.50
11722 47.9175 1193.70 1245.50 35.30
11723 47.9212 1238.20 1245.44 36.20
11724 47.9250 1226.10 1245.37 35.80
11725 47.9287 1249.40 1245.30 36.20
11726 47.9325 1220.50 1245.23 35.60
11727 47.9362 1248.60 1245.16 36.80
11728 47.9400 1220.60 1245.09 35.80
11729 47.9438 1218.00 1245.03 35.60
11730 47.9475 1187.30 1244.96 35.60
11731 47.9513 1252.10 1244.89 36.20
11732 47.9550 1214.90 1244.82 36.10
11733 47.9588 1256.40 1244.75 36.30
11734 47.9626 1221.00 1244.68 36.00
11735 47.9663 1216.40 1244.62 35.90
11736 47.9701 1139.40 1244.55 34.70
11737 47.9738 1234.00 1244.48 36.00
11738 47.9776 1169.60 1244.41 34.80
11739 47.9813 1241.90 1244.34 36.20
11740 47.9851 1262.20 1244.28 36.50
11741 47.9888 1231.10 1244.21 35.90
11742 47.9926 1175.50 1244.14 35.10
11743 47.9964 1201.50 1244.07 35.20
11744 48.0001 1218.60 1244.00 35.90
11745 48.0039 1174.00 1243.94 34.80
11746 48.0076 1166.80 1243.87 34.90
11747 48.0114 1230.70 1243.80 36.00
11748 48.0151 1187.10 1243.73 35.20
11749 48.0189 1227.70 1243.66 35.80
11750 48.0227 1167.30 1243.60 35.20
11751 48.0264 1229.50 1243.53 35.80
11752 48.0302 1224.30 1243.46 35.40
11753 48.0339 1260.60 1243.39 36.10
11754 48.0377 1224.50 1243.33 36.00
11755 48.0415 1273.90 1243.26 36.60
11756 48.0452 1170.90 1243.19 35.00
11757 48.0490 1189.00 1243.12 35.30
11758 48.0527 1160.40 1243.06 35.10
11759 48.0565 1153.90 1242.99 34.90
11760 48.0602 1194.60 1242.92 35.60
11761 48.0640 1229.90 1242.85 36.00
11762 48.0677 1158.40 1242.79 35.30
11763 48.0715 1244.60 1242.72 36.10
11764 48.0753 1180.40 1242.65 35.50
11765 48.0790 1244.50 1242.58 36.40
11766 48.0828 1210.70 1242.52 36.10
11767 48.0865 1229.70 1242.45 36.40
11768 48.0903 1227.40 1242.38 36.30
11769 48.0941 1216.90 1242.32 35.90
11770 48.0978 1230.60 1242.25 35.60
11771 48.1016 1259.20 1242.18 36.90
11772 48.1053 1264.50 1242.11 36.70
11773 48.1091 1226.90 1242.05 35.90
11774 48.1128 1194.20 1241.98 35.40
11775 48.1166 1261.30 1241.91 36.50
11776 48.1203 1153.20 1241.85 34.70
11777 48.1241 1244.70 1241.78 35.90
11778 48.1279 1170.80 1241.71 35.20
11779 48.1316 1212.80 1241.65 35.00
11780 48.1354 1177.90 1241.58 35.80
11781 48.1391 1262.30 1241.51 37.00
11782 48.1429 1251.10 1241.45 35.80
11783 48.1466 1312.80 1241.38 37.10
11784 48.1504 1233.10 1241.31 36.00
11785 48.1542 1251.50 1241.25 36.20
11786 48.1579 1202.40 1241.18 35.70
11787 48.1617 1211.70 1241.11 35.70
11788 48.1654 1236.90 1241.05 36.30
11789 48.1692 1244.40 1240.98 36.50
11790 48.1730 1167.70 1240.91 35.00
11791 48.1767 1222.00 1240.85 36.10
11792 48.1805 1152.00 1240.78 35.00
11793 48.1842 1270.50 1240.71 36.60
11794 48.1880 1145.90 1240.65 34.90
11795 48.1917 1227.50 1240.58 35.90
11796 48.1955 1198.60 1240.51 35.50
11797 48.1993 1217.60 1240.45 36.00
11798 48.2030 1203.60 1240.38 36.00
11799 48.2068 1292.40 1240.32 37.00
11800 48.2105 1137.80 1240.25 34.70
11801 48.2143 1193.40 1240.18 35.90
11802 48.2180 1233.30 1240.12 36.30
11803 48.2218 1232.30 1240.05 36.20
11804 48.2256 1171.00 1239.99 35.10
11805 48.2293 1251.20 1239.92 36.30
11806 48.2331 1188.90 1239.85 35.50
11807 48.2368 1238.70 1239.79 36.40
11808 48.2406 1202.20 1239.72 35.90
11809 48.2444 1210.40 1239.66 36.10
11810 48.2481 1166.00 1239.59 35.10
11811 48.2519 1184.20 1239.52 35.60
11812 48.2556 1229.60 1239.46 35.90
11813 48.2594 1197.00 1239.39 35.60
11814 48.2631 1160.60 1239.33 35.40
11815 48.2669 1230.90 1239.26 36.00
11816 48.2707 1237.60 1239.20 36.30
11817 48.2744 1254.40 1239.13 36.90
11818 48.2782 1247.00 1239.06 36.80
11819 48.2819 1178.30 1239.00 35.50
11820 48.2857 1179.90 1238.93 35.60
11821 48.2895 1229.20 1238.87 36.50
11822 48.2932 1174.60 1238.80 35.50
11823 48.2970 1326.00 1238.74 37.80
11824 48.3007 1156.30 1238.67 35.10
11825 48.3045 1169.70 1238.61 35.50
11826 48.3082 1175.10 1238.54 35.80
11827 48.3120 1292.90 1238.47 36.90
11828 48.3158 1193.30 1238.41 36.20
11829 48.3195 1271.90 1238.34 36.90
11830 48.3233 1173.70 1238.28 35.50
11831 48.3270 1307.70 1238.21 37.70
11832 48.3308 1245.20 1238.15 36.30
11833 48.3345 1259.70 1238.08 36.50
11834 48.3383 1168.90 1238.02 35.90
11835 48.3421 1245.60 1237.95 36.60
11836 48.3458 1104.10 1237.89 33.90
11837 48.3496 1190.80 1237.82 35.80
11838 48.3533 1169.70 1237.76 35.60
11839 48.3571 1300.50 1237.69 37.30
11840 48.3609 1262.40 1237.63 37.20
11841 48.3646 1189.80 1237.56 36.10
11842 48.3684 1259.90 1237.50 36.90
11843 48.3721 1247.30 1237.43 36.80
11844 48.3759 1219.00 1237.37 36.30
11845 48.3796 1222.30 1237.30 36.30
11846 48.3834 1208.10 1237.24 35.80
11847 48.3872 1300.10 1237.17 37.00
11848 48.3909 1228.00 1237.11 36.40
11849 48.3947 1182.10 1237.04 35.50
11850 48.3984 1171.10 1236.98 35.60
11851 48.4022 1205.30 1236.92 35.70
11852 48.4059 1255.70 1236.85 36.70
11853 48.4097 1162.90 1236.79 35.40
11854 48.4135 1158.30 1236.72 35.40
11855 48.4172 1196.70 1236.66 35.90
11856 48.4210 1241.30 1236.59 36.90
11857 48.4247 1196.40 1236.53 35.70
11858 48.4285 1239.90 1236.46 36.50
11859 48.4323 1211.30 1236.40 35.60
11860 48.4360 1301.10 1236.33 38.10
11861 48.4398 1244.80 1236.27 36.60
11862 48.4435 1177.30 1236.21 35.30
11863 48.4473 1226.10 1236.14 36.40
11864 48.4510 1270.00 1236.08 37.40
11865 48.4548 1187.10 1236.01 35.90
11866 48.4586 1228.70 1235.95 36.40
11867 48.4623 1239.10 1235.88 36.80
11868 48.4661 1154.40 1235.82 35.00
11869 48.4698 1159.00 1235.76 35.60
11870 48.4736 1135.60 1235.69 34.90
11871 48.4774 1288.90 1235.63 37.30
11872 48.4811 1182.50 1235.56 35.60
11873 48.4849 1238.30 1235.50 36.70
11874 48.4886 1174.60 1235.44 35.70
11875 48.4924 1227.60 1235.37 36.10
11876 48.4962 1225.20 1235.31 36.30
11877 48.4999 1286.30 1235.24 37.40
11878 48.5037 1160.90 1235.18 35.60
11879 48.5074 1242.10 1235.12 36.70
11880 48.5112 1243.30 1235.05 36.90
11881 48.5149 1232.40 1234.99 36.70
11882 48.5187 1243.40 1234.93 37.00
11883 48.5225 1196.20 1234.86 35.90
11884 48.5262 1209.00 1234.80 36.10
11885 48.5300 1246.90 1234.73 36.30
11886 48.5337 1206.90 1234.67 36.50
11887 48.5375 1274.10 1234.61 37.80
11888 48.5413 1119.40 1234.54 34.90
11889 48.5450 1205.40 1234.48 36.10
11890 48.5488 1178.10 1234.42 36.00
11891 48.5525 1178.80 1234.35 35.30
11892 48.5563 1126.60 1234.29 34.70
11893 48.5601 1203.70 1234.23 35.90
11894 48.5638 1190.10 1234.16 36.10
11895 48.5676 1180.90 1234.10 35.40
11896 48.5713 1199.30 1234.04 36.00
11897 48.5751 1227.20 1233.97 36.30
11898 48.5788 1200.40 1233.91 36.60
11899 48.5826 1191.10 1233.85 35.90
11900 48.5864 1127.70 1233.78 34.80
11901 48.5901 1206.90 1233.72 36.10
11902 48.5939 1168.50 1233.66 35.60
11903 48.5976 1162.20 1233.59 34.70
11904 48.6014 1226.90 1233.53 37.10
11905 48.6052 1258.00 1233.47 37.20
11906 48.6089 1206.00 1233.40 36.50
11907 48.6127 1244.90 1233.34 36.70
11908 48.6164 1241.20 1233.28 36.80
11909 48.6202 1211.80 1233.21 36.20
11910 48.6240 1201.60 1233.15 36.10
11911 48.6277 1219.90 1233.09 37.00
11912 48.6315 1198.10 1233.03 35.30
11913 48.6352 1253.20 1232.96 37.20
11914 48.6390 1142.60 1232.90 35.50
11915 48.6427 1227.30 1232.84 36.60
11916 48.6465 1238.40 1232.77 37.00
11917 48.6503 1232.40 1232.71 35.70
11918 48.6540 1239.90 1232.65 36.20
11919 48.6578 1239.60 1232.59 35.90
11920 48.6615 1217.10 1232.52 35.90
11921 48.6653 1206.40 1232.46 35.70
11922 48.6691 1224.10 1232.40 35.70
11923 48.6728 1265.30 1232.34 36.60
11924 48.6766 1178.10 1232.27 34.80
11925 48.6803 1197.90 1232.21 35.50
11926 48.6841 1201.90 1232.15 35.20
11927 48.6879 1221.00 1232.09 35.70
11928 48.6916 1181.50 1232.02 35.20
11929 48.6954 1163.30 1231.96 34.60
11930 48.6991 1215.70 1231.90 35.70
11931 48.7029 1242.50 1231.84 35.90
11932 48.7066 1220.80 1231.77 35.80
11933 48.7104 1176.70 1231.71 34.90
11934 48.7142 1203.00 1231.65 35.90
11935 48.7179 1190.60 1231.59 35.80
11936 48.7217 1248.50 1231.52 36.30
11937 48.7254 1221.90 1231.46 35.60
11938 48.7292 1144.90 1231.40 34.70
11939 48.7330 1194.00 1231.34 35.10
11940 48.7367 1158.70 1231.28 35.30
11941 48.7405 1221.60 1231.21 35.70
11942 48.7442 1157.20 1231.15 34.40
11943 48.7480 1194.10 1231.09 35.10
11944 48.7518 1231.70 1231.03 36.00
11945 48.7555 1245.00 1230.96 36.10
11946 48.7593 1184.60 1230.90 35.40
11947 48.7630 1213.70 1230.84 35.80
11948 48.7668 1153.60 1230.78 34.80
11949 48.7705 1224.10 1230.72 36.10
11950 48.7743 1180.30 1230.65 35.30
11951 48.7781 1201.70 1230.59 35.70
11952 48.7818 1190.20 1230.53 35.30
11953 48.7856 1173.50 1230.47 34.90
11954 48.7893 1170.20 1230.41 35.10
11955 48.7931 1177.50 1230.35 35.30
11956 48.7969 1230.70 1230.28 36.30
11957 48.8006 1145.90 1230.22 34.70
11958 48.8044 1153.10 1230.16 34.40
11959 48.8081 1182.90 1230.10 35.10
11960 48.8119 1218.90 1230.04 35.90
11961 48.8157 1182.10 1229.98 35.50
11962 48.8194 1202.50 1229.91 35.20
11963 48.8232 1282.20 1229.85 37.10
11964 48.8269 1237.40 1229.79 36.10
11965 48.8307 1280.90 1229.73 36.30
11966 48.8345 1163.10 1229.67 34.90
11967 48.8382 1172.10 1229.61 35.60
11968 48.8420 1212.30 1229.55 35.40
11969 48.8457 1224.00 1229.48 35.80
11970 48.8495 1241.70 1229.42 36.10
11971 48.8533 1248.70 1229.36 36.20
11972 48.8570 1193.10 1229.30 35.80
11973 48.8608 1247.40 1229.24 36.40
11974 48.8645 1154.70 1229.18 35.00
11975 48.8683 1202.60 1229.12 35.40
11976 48.8721 1233.00 1229.05 36.70
11977 48.8758 1190.10 1239.55 35.40
11978 48.8796 1175.60 1239.67 35.20
11979 48.8833 1239.10 1239.80 36.50
11980 48.8871 1179.20 1239.93 35.30
11981 48.8909 1219.10 1240.07 35.90
11982 48.8946 1184.80 1240.21 35.20
11983 48.8984 1264.00 1240.35 36.40
11984 48.9021 1152.60 1240.51 35.30
11985 48.9059 1303.50 1240.67 37.40
11986 48.9096 1188.20 1240.83 35.40
11987 48.9134 1231.70 1241.00 36.30
11988 48.9172 1258.30 1241.18 36.60
11989 48.9209 1205.40 1241.36 35.70
11990 48.9247 1200.20 1241.55 35.70
11991 48.9284 1222.80 1241.75 35.80
11992 48.9322 1199.80 1241.96 34.90
11993 48.9360 1167.00 1242.17 36.10
11994 48.9397 1246.70 1242.39 36.80
11995 48.9435 1290.30 1242.62 37.40
11996 48.9472 1160.80 1242.86 35.30
11997 48.9510 1282.70 1243.11 37.10
11998 48.9548 1228.30 1243.37 36.50
11999 48.9585 1244.50 1243.64 36.60
12000 48.9623 1210.20 1243.92 35.80
12001 48.9660 1248.90 1244.21 37.00
12002 48.9698 1242.30 1244.51 36.60
12003 48.9736 1283.80 1244.83 37.10
12004 48.9773 1226.90 1245.16 36.10
12005 48.9811 1290.40 1245.49 37.20
12006 48.9848 1213.20 1245.85 36.20
12007 48.9886 1214.10 1246.22 35.90
12008 48.9924 1196.80 1246.60 35.80
12009 48.9961 1305.20 1247.00 37.40
12010 48.9999 1172.50 1247.41 35.40
12011 49.0036 1270.00 1247.84 36.80
12012 49.0074 1204.10 1248.29 35.30
12013 49.0112 1204.80 1248.76 36.00
12014 49.0149 1232.60 1249.25 36.50
12015 49.0187 1245.80 1249.76 36.40
12016 49.0224 1202.50 1250.29 36.00
12017 49.0262 1302.30 1250.84 37.40
12018 49.0299 1153.70 1251.42 34.90
12019 49.0337 1247.60 1252.03 36.10
12020 49.0375 1190.90 1252.66 36.30
12021 49.0412 1281.30 1253.32 37.20
12022 49.0450 1255.50 1254.01 37.00
12023 49.0488 1239.90 1254.73 36.50
12024 49.0525 1207.00 1255.48 36.10
12025 49.0563 1307.50 1256.27 37.80
12026 49.0600 1242.00 1257.10 36.50
12027 49.0638 1295.90 1257.97 37.20
12028 49.0676 1265.50 1258.88 37.10
12029 49.0713 1219.20 1259.83 36.30
12030 49.0751 1218.90 1260.83 35.90
12031 49.0788 1243.60 1261.89 36.70
12032 49.0826 1192.70 1262.99 36.00
12033 49.0863 1279.80 1264.15 37.30
12034 49.0901 1243.30 1265.37 36.60
12035 49.0939 1225.30 1266.66 36.40
12036 49.0976 1234.00 1268.02 36.60
12037 49.1014 1252.50 1269.45 36.40
12038 49.1051 1233.70 1270.97 36.70
12039 49.1089 1217.90 1272.56 36.20
12040 49.1127 1235.00 1274.25 36.50
12041 49.1164 1322.00 1276.04 38.00
12042 49.1202 1302.50 1277.93 37.50
12043 49.1239 1319.60 1279.94 37.80
12044 49.1277 1226.40 1282.08 36.70
12045 49.1315 1220.80 1284.34 36.60
12046 49.1352 1292.60 1286.75 37.70
12047 49.1390 1345.90 1289.32 38.00
12048 49.1427 1289.90 1292.06 37.30
12049 49.1465 1299.20 1294.98 37.30
12050 49.1503 1276.20 1298.11 37.00
12051 49.1540 1311.70 1301.46 37.60
12052 49.1578 1304.80 1305.04 37.70
12053 49.1615 1374.90 1308.90 38.50
12054 49.1653 1242.10 1313.04 36.20
12055 49.1691 1334.60 1317.51 38.30
12056 49.1728 1335.70 1322.33 38.00
12057 49.1766 1275.60 1327.54 37.20
12058 49.1803 1279.50 1333.18 37.10
12059 49.1841 1381.30 1339.32 38.80
12060 49.1879 1370.90 1345.98 38.70
12061 49.1916 1349.00 1353.25 38.40
12062 49.1954 1357.10 1361.21 38.30
12063 49.1991 1411.50 1369.90 39.80
12064 49.2029 1434.20 1379.49 39.50
12065 49.2067 1376.30 1390.06 39.00
12066 49.2104 1361.50 1401.70 38.60
12067 49.2142 1413.70 1414.68 39.30
12068 49.2179 1387.40 1429.06 39.10
12069 49.2217 1399.50 1445.18 39.10
12070 49.2255 1433.00 1463.30 39.00
12071 49.2292 1584.30 1483.63 41.30
12072 49.2330 1552.00 1506.77 40.90
12073 49.2367 1576.50 1533.05 42.10
12074 49.2405 1504.60 1563.04 40.30
12075 49.2443 1578.10 1597.75 41.20
12076 49.2480 1553.50 1637.77 41.40
12077 49.2518 1672.90 1684.60 42.80
12078 49.2555 1721.90 1739.85 42.90
12079 49.2593 1819.60 1805.06 45.10
12080 49.2631 1812.20 1883.41 45.00
12081 49.2668 2022.80 1978.52 47.80
12082 49.2706 2055.70 2095.35 47.90
12083 49.2743 2246.40 2241.87 50.20
12084 49.2781 2284.40 2429.91 50.30
12085 49.2818 2520.50 2676.86 53.00
12086 49.2856 2854.30 3010.37 57.40
12087 49.2894 3322.40 3469.53 61.40
12088 49.2931 3838.10 4104.57 67.10
12089 49.2969 4796.20 4979.00 75.30
12090 49.3007 5944.80 6155.60 83.30
12091 49.3044 7884.50 7663.33 97.30
12092 49.3082 9559.10 9432.63 108.50
12093 49.3119 11334.70 11141.30 120.20
12094 49.3157 12317.90 12149.00 125.30
12095 49.3195 12311.20 11905.70 124.70
12096 49.3232 11128.20 10554.80 118.30
12097 49.3270 9304.80 8766.85 106.30
12098 49.3307 7240.10 7072.22 92.20
12099 49.3345 5583.50 5683.84 81.40
12100 49.3382 4466.20 4626.08 73.20
12101 49.3420 3811.20 3846.64 65.70
12102 49.3458 3041.30 3282.14 58.50
12103 49.3495 2809.10 2874.98 56.20
12104 49.3533 2426.10 2576.84 52.40
12105 49.3571 2255.10 2353.73 50.10
12106 49.3608 2133.50 2182.78 48.40
12107 49.3646 1872.50 2048.09 44.60
12108 49.3683 1881.40 1939.82 45.90
12109 49.3721 1735.80 1851.30 43.50
12110 49.3759 1675.20 1777.95 42.90
12111 49.3796 1720.00 1716.50 43.40
12112 49.3834 1593.70 1664.53 42.10
12113 49.3871 1579.20 1620.21 41.80
12114 49.3909 1579.20 1582.11 41.10
12115 49.3946 1573.60 1549.14 41.60
12116 49.3984 1434.70 1520.43 39.80
12117 49.4022 1488.00 1495.28 40.50
12118 49.4059 1527.30 1473.13 41.40
12119 49.4097 1507.70 1453.51 40.70
12120 49.4134 1365.80 1436.07 38.30
12121 49.4172 1406.00 1420.49 39.50
12122 49.4210 1339.00 1406.52 38.20
12123 49.4247 1395.70 1393.95 39.30
12124 49.4285 1308.40 1382.58 37.50
12125 49.4323 1376.00 1372.29 38.30
12126 49.4360 1289.30 1362.92 38.30
12127 49.4398 1364.70 1354.38 38.80
12128 49.4435 1332.00 1346.57 38.20
12129 49.4473 1430.00 1339.42 39.60
12130 49.4510 1358.10 1332.84 38.70
12131 49.4548 1362.10 1326.78 38.80
12132 49.4586 1288.90 1321.18 38.20
12133 49.4623 1417.70 1316.00 39.40
12134 49.4661 1284.50 1311.20 37.20
12135 49.4698 1321.10 1306.74 38.20
12136 49.4736 1264.30 1302.59 37.30
12137 49.4774 1260.00 1298.72 36.80
12138 49.4811 1307.50 1295.11 37.90
12139 49.4849 1274.20 1291.73 37.80
12140 49.4887 1267.40 1288.56 37.00
12141 49.4924 1309.30 1285.59 37.90
12142 49.4962 1311.40 1282.80 37.50
12143 49.4999 1333.80 1280.17 38.20
12144 49.5037 1268.90 1277.70 37.30
12145 49.5075 1282.80 1275.37 37.40
12146 49.5112 1273.00 1273.17 36.70
12147 49.5150 1284.30 1271.08 37.70
12148 49.5187 1211.60 1269.11 36.10
12149 49.5225 1246.60 1267.24 36.80
12150 49.5262 1279.90 1265.47 37.50
12151 49.5300 1267.10 1263.79 36.80
12152 49.5338 1201.20 1262.19 35.90
12153 49.5375 1304.30 1260.67 38.00
12154 49.5413 1238.00 1259.22 36.70
12155 49.5451 1277.60 1257.84 37.60
12156 49.5488 1178.80 1256.52 35.50
12157 49.5526 1223.80 1255.26 36.60
12158 49.5563 1217.50 1254.06 36.50
12159 49.5601 1223.90 1252.91 36.40
12160 49.5639 1232.00 1251.81 36.80
12161 49.5676 1313.70 1250.76 37.90
12162 49.5714 1250.20 1249.75 36.80
12163 49.5751 1252.40 1248.78 36.60
12164 49.5789 1249.70 1247.85 37.00
12165 49.5826 1236.60 1246.95 36.60
12166 49.5864 1212.30 1246.09 36.40
12167 49.5902 1249.20 1245.27 37.00
12168 49.5939 1147.80 1244.47 35.40
12169 49.5977 1250.50 1243.71 37.10
12170 49.6015 1216.80 1242.97 36.20
12171 49.6052 1235.20 1242.26 36.60
12172 49.6090 1230.80 1241.57 36.80
12173 49.6127 1247.90 1240.91 36.10
12174 49.6165 1209.50 1240.27 36.00
12175 49.6203 1237.50 1239.65 36.00
12176 49.6240 1284.50 1239.05 37.00
12177 49.6278 1292.20 1238.47 36.90
12178 49.6315 1227.50 1237.91 36.10
12179 49.6353 1209.40 1237.37 35.60
12180 49.6390 1183.10 1236.85 36.00
12181 49.6428 1195.90 1236.34 35.30
12182 49.6466 1226.40 1235.84 35.50
12183 49.6503 1242.10 1235.36 36.20
12184 49.6541 1147.80 1234.90 34.80
12185 49.6578 1217.00 1234.45 35.50
12186 49.6616 1157.40 1234.01 34.80
12187 49.6654 1155.70 1233.58 35.00
12188 49.6691 1133.70 1233.17 34.60
12189 49.6729 1227.20 1232.76 36.00
12190 49.6767 1210.10 1232.37 35.60
12191 49.6804 1276.80 1231.99 36.50
12192 49.6842 1163.00 1231.62 35.20
12193 49.6879 1199.30 1231.25 35.50
12194 49.6917 1216.50 1230.90 35.70
12195 49.6954 1201.30 1230.56 35.70
12196 49.6992 1258.60 1230.22 36.30
12197 49.7030 1197.70 1229.89 36.00
12198 49.7067 1278.70 1229.57 36.80
12199 49.7105 1223.40 1229.26 35.70
12200 49.7142 1161.50 1228.95 34.80
12201 49.7180 1199.10 1228.65 35.70
12202 49.7218 1186.30 1228.36 35.30
12203 49.7255 1166.10 1228.08 35.20
12204 49.7293 1177.40 1227.80 35.30
12205 49.7331 1195.70 1227.52 35.60
12206 49.7368 1189.20 1227.26 35.30
12207 49.7406 1258.40 1227.00 37.10
12208 49.7443 1209.90 1226.74 35.80
12209 49.7481 1223.40 1226.49 35.90
12210 49.7519 1194.70 1226.24 35.80
12211 49.7556 1204.60 1226.00 35.50
12212 49.7594 1191.40 1215.27 35.60
12213 49.7631 1269.30 1215.21 36.80
12214 49.7669 1214.00 1215.16 36.20
12215 49.7706 1241.80 1215.10 36.10
12216 49.7744 1131.70 1215.04 34.60
12217 49.7782 1191.90 1214.99 35.40
12218 49.7819 1208.30 1214.93 36.10
12219 49.7857 1180.70 1214.88 35.30
12220 49.7894 1167.80 1214.82 35.30
12221 49.7932 1185.60 1214.77 35.40
12222 49.7970 1071.30 1214.71 33.80
12223 49.8007 1220.50 1214.65 35.80
12224 49.8045 1224.20 1214.60 36.20
12225 49.8083 1231.30 1214.54 36.20
12226 49.8120 1169.30 1214.49 34.80
12227 49.8158 1224.40 1214.43 36.20
12228 49.8195 1229.00 1214.38 36.30
12229 49.8233 1212.20 1214.32 35.90
12230 49.8270 1195.10 1214.27 35.40
12231 49.8308 1188.80 1214.21 35.20
12232 49.8346 1191.60 1214.15 34.90
12233 49.8383 1178.60 1214.10 35.80
12234 49.8421 1155.50 1214.04 35.10
12235 49.8458 1096.10 1213.99 34.00
12236 49.8496 1119.80 1213.93 34.60
12237 49.8534 1199.10 1213.88 36.00
12238 49.8571 1181.10 1213.82 35.40
12239 49.8609 1192.00 1213.77 35.50
12240 49.8646 1183.90 1213.71 35.40
12241 49.8684 1267.50 1213.66 36.30
12242 49.8722 1155.00 1213.60 34.20
12243 49.8759 1183.60 1213.55 35.40
12244 49.8797 1181.30 1213.49 35.40
12245 49.8834 1185.20 1213.43 35.40
12246 49.8872 1224.60 1213.38 36.20
12247 49.8910 1277.60 1213.32 36.60
12248 49.8947 1227.50 1213.27 35.90
12249 49.8985 1217.20 1213.21 35.90
12250 49.9022 1172.00 1213.16 34.90
12251 49.9060 1237.10 1213.10 36.30
12252 49.9098 1152.20 1213.05 35.20
12253 49.9135 1249.80 1212.99 36.40
12254 49.9173 1151.40 1212.94 35.00
12255 49.9210 1201.20 1212.88 35.80
12256 49.9248 1140.10 1212.83 34.90
12257 49.9286 1168.90 1212.77 35.70
12258 49.9323 1124.80 1212.72 34.20
12259 49.9361 1187.00 1212.66 35.50
12260 49.9398 1201.50 1212.61 36.20
12261 49.9436 1169.10 1212.55 35.20
12262 49.9474 1132.00 1212.50 34.60
12263 49.9511 1170.40 1212.44 34.80
12264 49.9549 1180.40 1212.39 35.10
12265 49.9586 1222.20 1212.33 36.10
12266 49.9624 1202.50 1212.28 35.60
12267 49.9662 1200.50 1212.22 35.70
12268 49.9699 1168.80 1212.17 35.00
12269 49.9737 1218.40 1212.11 36.00
12270 49.9774 1202.90 1212.06 36.10
12271 49.9812 1277.50 1212.00 37.20
12272 49.9850 1090.20 1211.95 34.40
12273 49.9887 1204.20 1211.89 36.10
12274 49.9925 1122.90 1211.84 34.70
12275 49.9962 1169.70 1211.78 35.20
12276 50.0000 1188.80 1211.73 36.00
12277 50.0038 1109.30 1211.68 34.30
12278 50.0075 1138.70 1211.62 35.30
12279 50.0113 1212.90 1211.57 35.90
12280 50.0150 1191.90 1211.51 35.70
12281 50.0188 1144.70 1211.46 35.00
12282 50.0226 1126.60 1211.40 34.30
12283 50.0263 1165.40 1211.35 35.10
12284 50.0301 1147.50 1211.29 34.10
12285 50.0338 1203.60 1211.24 35.30
12286 50.0376 1179.70 1211.18 36.20
12287 50.0414 1097.40 1211.13 34.30
12288 50.0451 1163.40 1211.08 35.50
12289 50.0489 1197.20 1211.02 36.00
12290 50.0526 1173.00 1210.97 35.40
12291 50.0564 1189.60 1210.91 35.80
12292 50.0602 1121.40 1210.86 34.60
12293 50.0639 1221.20 1210.80 36.10
12294 50.0677 1202.90 1210.75 36.10
12295 50.0714 1206.20 1210.69 36.20
12296 50.0752 1129.30 1210.64 34.90
12297 50.0789 1192.70 1210.59 35.90
12298 50.0827 1175.50 1210.53 35.80
12299 50.0865 1150.10 1210.48 35.50
12300 50.0902 1177.60 1210.42 35.50
12301 50.0940 1220.50 1210.37 36.10
12302 50.0978 1200.50 1210.31 36.00
12303 50.1015 1224.20 1210.26 36.30
12304 50.1053 1175.00 1210.21 35.20
12305 50.1090 1216.70 1210.15 35.90
12306 50.1128 1218.00 1210.10 36.10
12307 50.1166 1216.20 1210.04 36.30
12308 50.1203 1127.30 1209.99 34.40
12309 50.1241 1210.60 1209.93 36.00
12310 50.1278 1187.80 1209.88 34.80
12311 50.1316 1192.10 1209.83 35.30
12312 50.1353 1138.50 1209.77 34.40
12313 50.1391 1134.00 1209.72 35.10
12314 50.1429 1129.90 1209.66 34.80
12315 50.1466 1143.90 1209.61 34.50
12316 50.1504 1114.20 1209.56 34.20
12317 50.1541 1219.00 1209.50 36.40
12318 50.1579 1146.80 1209.45 34.80
12319 50.1617 1128.10 1209.39 34.80
12320 50.1654 1224.00 1209.34 36.40
12321 50.1692 1183.50 1209.29 35.80
12322 50.1730 1176.90 1209.23 35.60
12323 50.1767 1244.40 1209.18 36.20
12324 50.1805 1197.30 1209.12 36.00
12325 50.1842 1243.30 1209.07 36.40
12326 50.1880 1174.40 1209.02 35.30
12327 50.1917 1179.70 1208.96 35.40
12328 50.1955 1166.40 1208.91 35.50
12329 50.1993 1179.50 1208.86 35.60
12330 50.2030 1233.50 1208.80 36.30
12331 50.2068 1124.60 1208.75 34.70
12332 50.2105 1164.60 1208.69 35.20
12333 50.2143 1128.10 1208.64 34.80
12334 50.2181 1181.30 1208.59 35.80
12335 50.2218 1167.50 1208.53 35.10
12336 50.2256 1199.90 1208.48 36.10
12337 50.2293 1194.90 1208.43 35.80
12338 50.2331 1156.30 1208.37 34.90
12339 50.2369 1171.40 1208.32 35.30
12340 50.2406 1147.30 1208.26 35.50
12341 50.2444 1216.10 1208.21 36.00
12342 50.2481 1196.80 1208.16 35.50
12343 50.2519 1180.40 1208.10 35.10
12344 50.2557 1200.10 1208.05 36.10
12345 50.2594 1181.90 1208.00 35.60
12346 50.2632 1160.20 1207.94 35.30
12347 50.2669 1171.40 1207.89 35.10
12348 50.2707 1174.80 1207.84 35.40
12349 50.2744 1137.10 1207.78 34.50
12350 50.2782 1109.70 1207.73 34.10
12351 50.2820 1158.30 1207.68 35.30
12352 50.2857 1176.50 1207.62 35.60
12353 50.2895 1197.40 1207.57 36.00
12354 50.2933 1160.50 1207.52 35.10
12355 50.2970 1234.50 1207.46 36.20
12356 50.3008 1187.60 1207.41 35.60
12357 50.3045 1188.10 1207.35 35.60
12358 50.3083 1177.10 1207.30 35.60
12359 50.3120 1198.20 1207.25 36.00
12360 50.3158 1159.30 1207.19 35.30
12361 50.3196 1194.70 1207.14 35.80
12362 50.3233 1132.90 1207.09 34.70
12363 50.3271 1180.40 1207.04 35.10
12364 50.3308 1122.80 1206.98 34.70
12365 50.3346 1190.20 1206.93 35.30
12366 50.3384 1157.50 1206.88 35.70
12367 50.3421 1162.50 1206.82 35.60
12368 50.3459 1134.10 1206.77 34.70
12369 50.3496 1229.00 1206.72 36.60
12370 50.3534 1186.10 1206.66 35.60
12371 50.3572 1196.80 1206.61 36.10
12372 50.3609 1151.20 1206.56 35.70
12373 50.3647 1208.50 1206.50 36.10
12374 50.3684 1085.50 1206.45 34.30
12375 50.3722 1179.20 1206.40 35.70
12376 50.3760 1164.40 1206.34 35.50
12377 50.3797 1114.20 1206.29 34.80
12378 50.3835 1134.50 1206.24 34.50
12379 50.3872 1202.90 1206.18 36.00
12380 50.3910 1120.00 1206.13 35.10
12381 50.3947 1198.10 1206.08 35.90
12382 50.3985 1149.10 1206.03 35.10
12383 50.4023 1205.80 1205.97 36.20
12384 50.4060 1177.00 1205.92 35.80
12385 50.4098 1102.80 1205.87 34.40
12386 50.4136 1157.90 1205.81 35.20
12387 50.4173 1192.50 1205.76 35.90
12388 50.4211 1195.50 1205.71 36.10
12389 50.4248 1165.10 1205.66 35.60
12390 50.4286 1125.80 1205.60 34.30
12391 50.4324 1165.00 1205.55 35.50
12392 50.4361 1108.60 1205.50 34.70
12393 50.4399 1215.30 1205.44 36.40
12394 50.4436 1172.80 1205.39 35.60
12395 50.4474 1203.70 1205.34 36.10
12396 50.4511 1125.40 1205.29 34.70
12397 50.4549 1094.60 1205.23 34.40
12398 50.4587 1142.00 1205.18 35.10
12399 50.4624 1206.30 1205.13 36.40
12400 50.4662 1159.60 1205.07 35.00
12401 50.4699 1152.10 1205.02 35.50
12402 50.4737 1162.00 1204.97 35.10
12403 50.4775 1127.90 1204.92 35.00
12404 50.4812 1195.90 1204.86 36.00
12405 50.4850 1156.40 1204.81 35.60
12406 50.4887 1204.50 1204.76 36.20
12407 50.4925 1165.60 1205.25 35.40
12408 50.4963 1161.30 1205.20 35.30
12409 50.5000 1139.20 1205.16 34.60
12410 50.5038 1119.40 1205.12 34.70
12411 50.5075 1186.30 1205.08 35.80
12412 50.5113 1121.70 1205.03 34.70
12413 50.5150 1152.80 1204.99 34.90
12414 50.5188 1182.70 1204.95 36.10
12415 50.5226 1204.10 1204.91 36.30
12416 50.5263 1109.80 1204.87 35.10
12417 50.5301 1194.10 1204.83 36.10
12418 50.5338 1124.70 1204.79 34.40
12419 50.5376 1216.40 1204.74 36.40
12420 50.5414 1120.20 1204.71 35.40
12421 50.5451 1134.90 1204.67 35.00
12422 50.5489 1195.90 1204.63 36.00
12423 50.5526 1151.10 1204.59 35.50
12424 50.5564 1128.00 1204.55 35.00
12425 50.5602 1131.60 1204.51 34.80
12426 50.5639 1200.30 1204.47 36.30
12427 50.5677 1199.70 1204.44 36.10
12428 50.5714 1151.40 1204.40 35.50
12429 50.5752 1177.60 1204.37 35.50
12430 50.5789 1192.80 1204.33 35.60
12431 50.5827 1169.80 1204.30 35.70
12432 50.5865 1120.60 1204.26 34.30
12433 50.5902 1221.30 1204.23 36.50
12434 50.5940 1131.70 1204.19 34.70
12435 50.5977 1234.10 1204.16 36.70
12436 50.6015 1180.40 1204.13 35.80
12437 50.6053 1149.30 1204.10 34.90
12438 50.6090 1153.10 1204.07 35.10
12439 50.6128 1157.40 1204.04 35.30
12440 50.6165 1191.30 1204.01 36.00
12441 50.6203 1204.40 1203.98 36.10
12442 50.6241 1148.20 1203.96 34.80
12443 50.6278 1202.40 1203.93 35.90
12444 50.6316 1182.50 1203.91 35.50
12445 50.6353 1182.90 1203.88 35.10
12446 50.6391 1166.10 1203.86 35.60
12447 50.6428 1226.90 1203.84 36.50
12448 50.6466 1153.70 1203.82 35.50
12449 50.6504 1130.30 1203.80 34.50
12450 50.6541 1107.60 1203.78 34.10
12451 50.6579 1153.80 1203.76 35.20
12452 50.6616 1135.80 1203.75 35.10
12453 50.6654 1158.60 1203.73 35.50
12454 50.6692 1124.50 1203.72 34.70
12455 50.6729 1195.50 1203.71 35.60
12456 50.6767 1211.40 1203.70 36.30
12457 50.6804 1157.10 1203.69 35.20
12458 50.6842 1131.00 1203.69 34.90
12459 50.6880 1234.00 1203.69 36.40
12460 50.6917 1139.60 1203.68 35.00
12461 50.6955 1171.60 1203.69 35.40
12462 50.6992 1117.80 1203.69 34.50
12463 50.7030 1198.80 1203.70 35.90
12464 50.7067 1206.50 1203.71 36.00
12465 50.7105 1111.50 1203.72 34.30
12466 50.7143 1204.30 1203.74 36.10
12467 50.7180 1160.40 1203.76 35.50
12468 50.7218 1115.30 1203.78 34.80
12469 50.7255 1150.10 1203.81 35.40
12470 50.7293 1167.50 1203.84 35.40
12471 50.7331 1163.90 1203.87 35.10
12472 50.7368 1118.60 1203.91 34.30
12473 50.7406 1200.60 1203.96 36.70
12474 50.7443 1132.00 1204.01 34.80
12475 50.7481 1215.10 1204.07 36.10
12476 50.7519 1132.20 1204.13 35.00
12477 50.7556 1207.10 1204.21 36.20
12478 50.7594 1158.10 1204.28 35.60
12479 50.7631 1178.70 1204.37 35.60
12480 50.7669 1124.50 1204.47 35.20
12481 50.7706 1211.80 1204.57 36.20
12482 50.7744 1190.40 1204.69 35.60
12483 50.7782 1203.30 1204.82 36.10
12484 50.7819 1157.80 1204.96 35.60
12485 50.7857 1224.70 1205.12 37.00
12486 50.7894 1134.50 1205.29 34.80
12487 50.7932 1158.60 1205.47 35.70
12488 50.7970 1188.80 1205.68 35.40
12489 50.8007 1166.50 1205.91 35.60
12490 50.8045 1137.80 1206.16 35.20
12491 50.8082 1109.50 1206.43 34.70
12492 50.8120 1190.40 1206.73 35.80
12493 50.8157 1194.40 1207.07 35.70
12494 50.8195 1169.60 1207.44 35.50
12495 50.8233 1177.00 1207.85 35.50
12496 50.8270 1135.30 1208.31 35.30
12497 50.8308 1135.30 1208.82 34.60
12498 50.8345 1176.20 1209.38 35.20
12499 50.8383 1199.40 1210.02 36.10
12500 50.8420 1208.00 1210.73 36.80
12501 50.8458 1176.30 1211.53 35.40
12502 50.8496 1218.60 1212.43 36.50
12503 50.8533 1196.30 1213.45 35.80
12504 50.8571 1198.10 1214.62 36.10
12505 50.8608 1209.60 1215.95 36.10
12506 50.8646 1236.20 1217.48 36.90
12507 50.8684 1242.20 1219.25 36.10
12508 50.8721 1164.90 1221.30 35.80
12509 50.8759 1206.50 1223.70 36.50
12510 50.8796 1202.00 1226.54 36.00
12511 50.8834 1274.70 1229.90 37.40
12512 50.8871 1172.10 1233.95 35.30
12513 50.8909 1224.00 1238.86 36.40
12514 50.8947 1156.70 1244.88 35.60
12515 50.8984 1188.20 1252.42 35.60
12516 50.9022 1151.20 1262.07 35.40
12517 50.9059 1227.90 1274.72 36.70
12518 50.9097 1229.60 1291.58 36.60
12519 50.9135 1272.10 1314.64 37.40
12520 50.9172 1280.20 1346.14 37.50
12521 50.9210 1400.60 1389.28 39.00
12522 50.9247 1437.30 1446.87 39.50
12523 50.9285 1516.30 1520.76 40.60
12524 50.9322 1567.30 1607.47 40.90
12525 50.9360 1701.40 1692.67 43.40
12526 50.9398 1803.20 1745.69 45.50
12527 50.9435 1808.70 1738.56 44.40
12528 50.9473 1646.70 1675.34 42.70
12529 50.9510 1635.70 1587.85 42.30
12530 50.9548 1543.10 1502.98 41.60
12531 50.9585 1431.10 1432.50 39.20
12532 50.9623 1311.30 1378.11 37.70
12533 50.9661 1332.50 1337.79 38.30
12534 50.9698 1247.50 1308.22 37.00
12535 50.9736 1257.90 1286.61 36.70
12536 50.9773 1144.30 1270.65 35.30
12537 50.9811 1178.90 1258.68 35.80
12538 50.9849 1188.70 1249.44 36.00
12539 50.9886 1167.90 1242.18 35.80
12540 50.9924 1183.00 1236.31 36.00
12541 50.9961 1164.80 1231.51 35.40
12542 50.9999 1226.30 1227.53 36.80
12543 51.0036 1171.20 1224.19 35.90
12544 51.0074 1208.00 1221.35 36.30
12545 51.0112 1206.20 1218.93 36.20
12546 51.0149 1178.20 1216.84 35.60
12547 51.0187 1216.70 1215.03 36.80
12548 51.0224 1118.80 1213.44 34.50
12549 51.0262 1197.20 1212.04 36.10
12550 51.0299 1129.40 1210.81 34.90
12551 51.0337 1186.80 1209.71 35.90
12552 51.0375 1116.10 1208.73 34.40
12553 51.0412 1156.70 1207.85 35.90
12554 51.0450 1173.10 1207.05 36.00
12555 51.0487 1155.90 1206.33 35.40
12556 51.0525 1117.60 1205.68 35.10
12557 51.0563 1229.60 1205.08 36.50
12558 51.0600 1102.40 1204.53 34.50
12559 51.0638 1146.20 1204.03 35.10
12560 51.0675 1146.10 1203.56 35.20
12561 51.0713 1155.40 1203.13 35.70
12562 51.0750 1161.80 1202.73 35.60
12563 51.0788 1125.90 1202.36 34.70
12564 51.0826 1071.10 1202.01 33.90
12565 51.0863 1146.00 1201.69 35.20
12566 51.0901 1182.50 1201.39 35.70
12567 51.0938 1173.90 1201.10 35.30
12568 51.0976 1199.60 1200.83 36.20
12569 51.1013 1100.30 1200.58 34.60
12570 51.1051 1135.10 1200.34 34.90
12571 51.1089 1201.10 1200.11 35.90
12572 51.1126 1151.40 1199.89 35.20
12573 51.1164 1239.10 1199.69 36.60
12574 51.1201 1145.80 1199.49 35.00
12575 51.1239 1190.30 1199.30 36.10
12576 51.1276 1151.20 1199.12 35.20
12577 51.1314 1159.80 1198.95 35.20
12578 51.1352 1152.40 1198.78 34.70
12579 51.1389 1189.80 1198.63 36.50
12580 51.1427 1137.90 1198.47 35.00
12581 51.1464 1167.20 1198.33 34.80
12582 51.1502 1113.70 1198.18 34.40
12583 51.1539 1152.30 1198.05 35.10
12584 51.1577 1167.90 1197.91 35.60
12585 51.1615 1139.40 1197.79 35.20
12586 51.1652 1199.00 1197.66 36.10
12587 51.1690 1155.20 1197.54 35.50
12588 51.1727 1175.40 1197.42 35.60
12589 51.1765 1218.60 1197.31 36.20
12590 51.1802 1113.80 1197.20 34.80
12591 51.1840 1164.80 1197.09 35.30
12592 51.1878 1149.00 1196.98 35.20
12593 51.1915 1203.00 1196.88 36.00
12594 51.1953 1134.60 1196.78 34.90
12595 51.1990 1203.20 1196.68 36.40
12596 51.2028 1131.50 1196.58 35.00
12597 51.2065 1164.70 1196.49 35.20
12598 51.2103 1149.70 1196.39 35.10
12599 51.2141 1151.00 1196.30 35.10
12600 51.2178 1185.90 1196.21 35.90
12601 51.2216 1122.70 1196.12 34.60
12602 51.2253 1158.10 1196.04 35.30
12603 51.2291 1190.80 1195.95 36.00
12604 51.2328 1153.70 1195.87 35.00
12605 51.2366 1150.30 1195.79 34.70
12606 51.2404 1212.60 1195.70 36.70
12607 51.2441 1215.50 1195.62 36.50
12608 51.2479 1179.50 1195.55 35.70
12609 51.2516 1201.90 1195.47 35.80
12610 51.2554 1152.60 1195.39 35.20
12611 51.2591 1181.40 1195.31 35.50
12612 51.2629 1181.80 1195.24 35.90
12613 51.2667 1178.60 1195.16 35.70
12614 51.2704 1186.30 1195.09 35.20
12615 51.2742 1120.60 1195.02 34.60
12616 51.2779 1162.30 1194.95 35.40
12617 51.2817 1208.10 1194.88 36.10
12618 51.2854 1217.70 1194.80 36.30
12619 51.2892 1186.30 1194.73 35.80
12620 51.2929 1099.90 1194.67 34.20
12621 51.2967 1140.20 1194.60 35.20
12622 51.3005 1159.70 1194.53 35.60
12623 51.3042 1170.50 1194.46 35.50
12624 51.3080 1131.50 1194.39 34.80
12625 51.3117 1174.30 1194.33 35.50
12626 51.3155 1164.50 1194.26 35.30
12627 51.3192 1184.80 1194.20 36.00
12628 51.3230 1138.70 1194.13 35.70
12629 51.3268 1156.30 1194.07 35.20
12630 51.3305 1135.70 1194.00 35.00
12631 51.3343 1150.10 1193.94 35.30
12632 51.3380 1146.30 1193.88 35.20
12633 51.3418 1119.50 1193.81 35.50
12634 51.3456 1142.20 1193.75 35.30
12635 51.3493 1148.30 1193.69 35.30
12636 51.3531 1122.40 1193.63 34.80
12637 51.3568 1214.90 1193.57 36.10
12638 51.3606 1100.30 1193.50 34.20
12639 51.3643 1186.20 1193.44 36.00
12640 51.3681 1115.60 1193.38 34.80
12641 51.3718 1189.30 1193.32 35.60
12642 51.3756 1135.80 1193.26 35.00
12643 51.3793 1125.10 1193.20 34.80
12644 51.3831 1146.90 1193.14 35.30
12645 51.3869 1167.60 1193.08 35.30
12646 51.3906 1135.20 1192.48 34.70
12647 51.3944 1156.60 1192.43 35.40
12648 51.3981 1158.30 1192.38 35.50
12649 51.4019 1176.80 1192.33 35.90
12650 51.4057 1169.10 1192.28 35.60
12651 51.4094 1172.00 1192.23 36.10
12652 51.4132 1180.30 1192.19 35.60
12653 51.4169 1189.80 1192.14 36.20
12654 51.4207 1148.80 1192.09 34.70
12655 51.4244 1172.40 1192.04 35.50
12656 51.4282 1155.10 1191.99 35.80
12657 51.4319 1211.80 1191.94 36.20
12658 51.4357 1165.60 1191.89 34.80
12659 51.4394 1175.40 1191.84 36.20
12660 51.4432 1133.90 1191.79 34.80
12661 51.4470 1147.70 1191.74 35.10
12662 51.4507 1157.80 1191.69 35.20
12663 51.4545 1243.40 1191.64 35.90
12664 51.4582 1102.80 1191.59 34.30
12665 51.4620 1191.80 1191.54 35.80
12666 51.4658 1131.20 1191.49 34.80
12667 51.4695 1150.00 1191.44 35.20
12668 51.4733 1172.00 1191.39 35.10
12669 51.4770 1231.40 1191.34 36.30
12670 51.4808 1203.30 1191.29 36.40
12671 51.4845 1197.60 1191.24 35.90
12672 51.4883 1105.20 1191.19 34.60
12673 51.4920 1221.10 1191.14 36.20
12674 51.4958 1158.40 1191.09 35.80
12675 51.4995 1122.90 1191.04 34.30
12676 51.5033 1169.20 1190.99 36.00
12677 51.5071 1204.10 1190.94 36.20
12678 51.5108 1143.20 1190.89 35.10
12679 51.5146 1177.20 1190.84 35.50
12680 51.5183 1152.60 1190.79 34.70
12681 51.5221 1188.70 1190.74 36.00
12682 51.5258 1203.00 1190.69 36.00
12683 51.5296 1120.40 1190.64 35.10
12684 51.5334 1133.50 1190.59 35.00
12685 51.5371 1144.70 1190.55 34.80
12686 51.5409 1147.70 1190.50 34.70
12687 51.5446 1221.00 1190.45 36.20
12688 51.5484 1164.40 1190.40 35.10
12689 51.5521 1148.40 1190.35 34.20
12690 51.5559 1134.90 1190.30 34.50
12691 51.5596 1196.90 1190.25 35.60
12692 51.5634 1058.60 1190.20 33.40
12693 51.5672 1150.70 1190.15 35.00
12694 51.5709 1093.40 1190.10 34.00
12695 51.5747 1216.50 1190.05 36.00
12696 51.5784 1148.90 1190.00 34.90
12697 51.5822 1216.70 1189.95 35.80
12698 51.5859 1123.50 1189.90 34.00
12699 51.5897 1186.70 1189.85 35.20
12700 51.5934 1117.40 1189.80 34.40
12701 51.5972 1162.10 1189.75 34.50
12702 51.6009 1096.50 1189.70 34.00
12703 51.6047 1178.70 1189.65 35.40
12704 51.6085 1158.80 1189.60 35.00
12705 51.6122 1179.70 1189.56 35.30
12706 51.6160 1148.50 1189.51 34.80
12707 51.6197 1242.70 1189.46 36.60
12708 51.6235 1114.10 1189.41 34.10
12709 51.6272 1211.10 1189.36 35.90
12710 51.6310 1151.60 1189.31 34.60
12711 51.6348 1190.50 1189.26 35.20
12712 51.6385 1174.40 1189.21 35.30
12713 51.6423 1167.20 1189.16 35.50
12714 51.6460 1192.90 1189.11 35.70
12715 51.6498 1193.00 1189.06 35.10
12716 51.6535 1219.80 1189.01 35.00
12717 51.6573 1146.40 1188.96 35.10
12718 51.6610 1191.60 1188.91 35.40
12719 51.6648 1213.00 1188.86 35.90
12720 51.6685 1130.50 1188.82 34.20
12721 51.6723 1205.10 1188.77 35.70
12722 51.6761 1218.50 1188.72 35.90
12723 51.6798 1224.80 1188.67 35.00
12724 51.6836 1139.10 1188.62 34.60
12725 51.6873 1153.00 1188.57 34.70
12726 51.6911 1121.30 1188.52 34.00
12727 51.6948 1136.60 1188.47 34.60
12728 51.6986 1111.40 1188.42 33.90
12729 51.7023 1173.40 1188.37 35.50
12730 51.7061 1163.40 1188.32 34.90
12731 51.7099 1217.40 1188.27 35.80
12732 51.7136 1165.70 1188.22 35.10
12733 51.7174 1202.10 1188.18 35.40
12734 51.7211 1196.00 1188.13 35.70
12735 51.7249 1184.50 1188.08 34.50
12736 51.7286 1181.80 1188.03 35.00
12737 51.7324 1218.00 1187.98 35.20
12738 51.7361 1129.90 1187.93 34.40
12739 51.7399 1148.40 1187.88 34.30
12740 51.7436 1220.80 1187.83 36.20
12741 51.7474 1197.00 1187.78 35.90
12742 51.7512 1078.40 1187.73 33.60
12743 51.7549 1161.70 1187.68 34.60
12744 51.7587 1210.90 1187.63 35.60
12745 51.7624 1214.50 1187.59 35.70
12746 51.7662 1179.00 1187.54 35.20
12747 51.7699 1232.20 1187.49 36.00
12748 51.7737 1136.40 1187.44 34.40
12749 51.7774 1179.10 1187.39 35.10
12750 51.7812 1135.60 1187.34 34.80
12751 51.7850 1186.30 1187.29 35.50
12752 51.7887 1115.20 1187.24 34.10
12753 51.7925 1249.00 1187.19 36.40
12754 51.7962 1178.90 1187.14 35.30
12755 51.8000 1189.30 1187.09 35.60
12756 51.8037 1232.30 1187.05 35.70
12757 51.8075 1165.70 1187.00 35.00
12758 51.8112 1193.50 1186.95 35.50
12759 51.8150 1218.60 1186.90 36.00
12760 51.8187 1135.60 1186.85 34.10
12761 51.8225 1175.50 1186.80 35.20
12762 51.8262 1111.10 1186.75 33.60
12763 51.8300 1147.40 1186.70 34.80
12764 51.8338 1140.00 1186.65 35.00
12765 51.8375 1139.70 1186.60 34.10
12766 51.8413 1224.60 1186.56 36.20
12767 51.8450 1149.00 1186.51 34.60
12768 51.8488 1157.50 1186.46 34.80
12769 51.8525 1158.40 1186.41 34.60
12770 51.8563 1223.00 1186.36 35.40
12771 51.8600 1129.90 1186.31 34.00
12772 51.8638 1161.60 1186.26 34.60
12773 51.8675 1135.50 1186.21 34.60
12774 51.8713 1146.00 1186.16 34.40
12775 51.8750 1165.00 1186.11 34.80
12776 51.8788 1129.10 1186.07 34.20
12777 51.8826 1201.20 1186.02 35.70
12778 51.8863 1161.90 1185.97 35.40
12779 51.8901 1262.10 1185.92 36.30
12780 51.8938 1271.40 1185.87 36.00
12781 51.8976 1131.60 1185.82 34.70
12782 51.9013 1180.60 1185.77 34.70
12783 51.9051 1209.80 1185.72 35.60
12784 51.9088 1161.10 1185.67 35.00
12785 51.9126 1193.20 1185.63 35.70
12786 51.9164 1101.60 1185.58 33.80
12787 51.9201 1138.30 1185.53 34.70
12788 51.9239 1163.20 1185.48 35.00
12789 51.9276 1231.80 1185.43 35.30
12790 51.9314 1135.70 1185.38 34.60
12791 51.9351 1169.80 1185.33 34.60
12792 51.9389 1237.90 1185.28 36.10
12793 51.9426 1212.00 1185.24 35.80
12794 51.9464 1177.90 1185.19 34.80
12795 51.9501 1183.60 1185.14 35.20
12796 51.9539 1155.60 1185.09 34.70
12797 51.9576 1227.60 1185.04 35.70
12798 51.9614 1117.80 1184.99 34.00
12799 51.9651 1223.80 1184.94 36.20
12800 51.9689 1189.30 1184.89 35.60
12801 51.9726 1306.20 1184.84 36.40
12802 51.9764 1200.20 1184.80 35.60
12803 51.9802 1175.20 1184.75 35.30
12804 51.9839 1188.20 1184.70 34.80
12805 51.9877 1189.30 1184.65 34.80
12806 51.9914 1197.00 1184.60 35.20
12807 51.9952 1193.50 1184.55 35.40
12808 51.9971 1232.30 1184.53 36.60
12809 52.0008 1188.30 1184.48 35.80
12810 52.0046 1239.80 1184.43 36.50
12811 52.0083 1199.10 1184.38 35.40
12812 52.0121 1180.60 1184.33 35.90
12813 52.0159 1142.10 1184.28 35.10
12814 52.0196 1236.60 1184.24 36.90
12815 52.0234 1172.70 1184.19 35.60
12816 52.0271 1200.60 1184.14 35.60
12817 52.0309 1246.30 1184.09 36.20
12818 52.0346 1153.60 1184.04 35.10
12819 52.0384 1180.10 1183.99 35.30
12820 52.0421 1284.00 1183.94 36.30
12821 52.0459 1202.10 1183.89 35.50
12822 52.0496 1183.20 1183.85 35.40
12823 52.0534 1113.70 1183.80 34.30
12824 52.0572 1185.20 1183.75 35.50
12825 52.0609 1156.50 1183.70 35.00
12826 52.0647 1245.00 1183.65 36.40
12827 52.0684 1147.90 1183.60 34.80
12828 52.0722 1184.60 1212.72 35.30
12829 52.0759 1160.90 1213.15 34.60
12830 52.0797 1216.80 1213.60 35.70
12831 52.0835 1240.30 1214.06 36.30
12832 52.0872 1215.30 1214.54 35.30
12833 52.0910 1157.20 1215.02 34.90
12834 52.0947 1134.30 1215.53 34.70
12835 52.0985 1152.00 1216.04 34.80
12836 52.1022 1182.60 1216.57 35.30
12837 52.1060 1173.00 1217.12 35.20
12838 52.1097 1283.70 1217.68 37.20
12839 52.1135 1171.20 1218.26 35.00
12840 52.1172 1205.20 1218.86 35.80
12841 52.1210 1206.70 1219.47 35.50
12842 52.1248 1180.80 1220.10 35.10
12843 52.1285 1190.20 1220.75 35.50
12844 52.1323 1234.40 1221.43 36.60
12845 52.1360 1188.90 1222.12 35.70
12846 52.1398 1233.40 1222.83 35.80
12847 52.1435 1200.20 1223.57 34.70
12848 52.1473 1251.50 1224.33 36.80
12849 52.1510 1215.90 1225.11 35.70
12850 52.1548 1197.20 1225.92 35.60
12851 52.1586 1205.70 1226.76 35.40
12852 52.1623 1302.10 1227.62 37.20
12853 52.1661 1208.70 1228.51 35.70
12854 52.1698 1187.70 1229.43 34.50
12855 52.1736 1145.90 1230.38 34.70
12856 52.1773 1247.30 1231.37 36.20
12857 52.1811 1222.90 1232.38 35.60
12858 52.1848 1193.30 1233.43 35.50
12859 52.1886 1270.90 1234.52 36.30
12860 52.1923 1273.80 1235.65 37.00
12861 52.1961 1200.40 1236.81 35.50
12862 52.1999 1313.80 1238.02 37.20
12863 52.2036 1242.10 1239.27 36.20
12864 52.2074 1218.50 1240.57 35.60
12865 52.2111 1243.30 1241.91 36.40
12866 52.2149 1212.50 1243.31 34.90
12867 52.2186 1239.50 1244.76 35.90
12868 52.2224 1276.50 1246.26 36.10
12869 52.2261 1231.50 1247.82 36.60
12870 52.2299 1276.50 1249.44 37.30
12871 52.2337 1277.40 1251.13 36.90
12872 52.2374 1318.60 1252.88 38.10
12873 52.2412 1229.40 1254.70 36.80
12874 52.2449 1276.50 1256.60 37.10
12875 52.2487 1220.50 1258.57 36.20
12876 52.2524 1298.20 1260.63 38.20
12877 52.2562 1235.10 1262.77 36.70
12878 52.2599 1268.40 1265.02 36.40
12879 52.2637 1321.40 1267.35 38.10
12880 52.2674 1302.30 1269.78 37.90
12881 52.2712 1234.00 1272.33 36.90
12882 52.2749 1260.60 1274.99 37.00
12883 52.2787 1273.40 1277.77 37.70
12884 52.2825 1314.60 1280.69 37.90
12885 52.2862 1295.90 1283.74 37.50
12886 52.2900 1293.20 1286.94 37.70
12887 52.2937 1342.10 1290.29 38.40
12888 52.2975 1373.90 1293.81 38.40
12889 52.3012 1243.70 1297.50 36.90
12890 52.3050 1348.50 1301.38 38.50
12891 52.3087 1213.00 1305.48 36.20
12892 52.3125 1358.10 1309.77 38.30
12893 52.3162 1324.20 1314.30 38.00
12894 52.3200 1351.70 1319.09 38.70
12895 52.3237 1358.50 1324.12 38.70
12896 52.3275 1319.20 1329.46 38.40
12897 52.3312 1290.70 1335.09 37.50
12898 52.3350 1432.10 1341.07 39.40
12899 52.3388 1379.20 1347.39 38.90
12900 52.3425 1472.90 1354.09 40.80
12901 52.3463 1341.00 1361.23 38.30
12902 52.3500 1383.30 1368.80 37.90
12903 52.3538 1388.30 1376.87 39.00
12904 52.3575 1377.90 1385.46 38.70
12905 52.3613 1411.00 1394.67 39.30
12906 52.3650 1470.00 1404.47 40.10
12907 52.3688 1416.00 1414.97 39.60
12908 52.3726 1477.10 1426.25 40.20
12909 52.3763 1492.30 1438.34 40.40
12910 52.3801 1515.40 1451.37 41.20
12911 52.3838 1480.50 1465.39 40.50
12912 52.3876 1527.60 1480.57 41.10
12913 52.3913 1565.90 1496.95 41.50
12914 52.3951 1659.90 1514.74 42.80
12915 52.3988 1549.70 1534.03 41.70
12916 52.4026 1639.50 1555.02 42.80
12917 52.4063 1575.00 1578.03 41.50
12918 52.4101 1657.60 1603.11 42.50
12919 52.4138 1630.90 1630.68 42.70
12920 52.4176 1708.00 1660.97 43.40
12921 52.4214 1687.90 1694.50 42.90
12922 52.4251 1795.30 1731.52 44.10
12923 52.4289 1757.80 1772.82 44.20
12924 52.4326 1935.50 1818.73 46.60
12925 52.4364 1867.40 1870.13 44.90
12926 52.4401 2070.20 1928.04 48.50
12927 52.4439 1976.30 1993.53 46.90
12928 52.4476 2196.10 2067.70 49.50
12929 52.4514 2104.10 2152.34 48.70
12930 52.4552 2277.70 2249.88 50.60
12931 52.4589 2406.20 2362.16 51.90
12932 52.4627 2510.70 2493.14 53.40
12933 52.4664 2587.10 2646.52 54.00
12934 52.4702 2810.70 2827.44 56.90
12935 52.4739 2999.10 3043.20 58.50
12936 52.4777 3284.10 3304.36 61.70
12937 52.4814 3486.00 3622.27 62.80
12938 52.4852 3890.80 4017.90 67.60
12939 52.4889 4421.40 4516.94 71.30
12940 52.4927 4968.20 5162.89 76.60
12941 52.4964 5629.10 6013.91 81.90
12942 52.5002 6772.10 7161.52 90.50
12943 52.5040 8090.40 8712.89 99.70
12944 52.5077 10586.20 10821.40 113.90
12945 52.5115 13728.40 13631.60 133.20
12946 52.5152 18554.30 17271.40 157.40
12947 52.5190 22735.80 21656.00 179.20
12948 52.5227 28351.00 26238.50 201.30
12949 52.5265 30917.30 29624.30 214.40
12950 52.5303 31789.30 30207.60 215.70
12951 52.5340 28792.30 27649.10 202.20
12952 52.5378 25190.40 23286.60 188.50
12953 52.5415 19312.50 18728.20 161.90
12954 52.5453 15103.40 14807.40 140.90
12955 52.5490 11002.20 11717.20 118.20
12956 52.5528 8698.50 9377.99 103.90
12957 52.5565 6857.50 7651.19 91.40
12958 52.5603 5809.40 6375.08 83.20
12959 52.5640 4926.50 5432.98 76.40
12960 52.5678 4332.60 4722.69 71.20
12961 52.5716 3695.70 4176.79 66.30
12962 52.5753 3582.80 3749.48 64.70
12963 52.5791 3060.80 3406.07 59.50
12964 52.5828 2907.00 3127.44 57.80
12965 52.5866 2827.40 2896.90 56.80
12966 52.5903 2665.90 2704.64 55.20
12967 52.5941 2422.40 2542.00 52.40
12968 52.5978 2347.70 2403.98 52.20
12969 52.6016 2120.50 2285.19 48.80
12970 52.6054 2219.50 2182.98 50.00
12971 52.6091 2036.20 2093.88 47.60
12972 52.6129 2045.00 2016.05 47.40
12973 52.6166 1968.90 1947.73 47.30
12974 52.6204 1893.40 1887.14 46.10
12975 52.6241 1761.90 1833.53 43.90
12976 52.6279 1854.70 1785.59 45.60
12977 52.6316 1719.80 1742.67 43.30
12978 52.6354 1740.10 1704.19 43.60
12979 52.6429 1596.90 1637.95 42.20
12980 52.6467 1605.80 1609.34 42.10
12981 52.6504 1576.10 1583.35 41.30
12982 52.6542 1551.30 1559.56 41.60
12983 52.6579 1548.80 1537.83 41.60
12984 52.6617 1516.10 1517.82 41.30
12985 52.6654 1511.00 1499.47 40.90
12986 52.6692 1519.80 1482.50 41.60
12987 52.6730 1509.80 1466.81 40.80
12988 52.6767 1476.00 1452.33 40.70
12989 52.6805 1440.00 1438.86 40.30
12990 52.6842 1471.50 1426.37 40.50
12991 52.6880 1403.30 1414.71 38.30
12992 52.6917 1453.20 1403.86 38.80
12993 52.6955 1379.10 1393.69 37.80
12994 52.6992 1390.60 1384.20 38.10
12995 52.7030 1446.10 1375.32 38.20
12996 52.7105 1440.40 1359.14 37.80
12997 52.7180 1371.20 1344.80 38.20
12998 52.7218 1406.60 1338.26 38.10
12999 52.7255 1289.10 1332.07 36.60
13000 52.7293 1304.30 1326.23 36.80
13001 52.7331 1356.20 1320.69 37.60
13002 52.7368 1381.60 1315.45 37.40
13003 52.7406 1393.40 1310.50 38.50
13004 52.7443 1304.40 1305.78 37.00
13005 52.7481 1373.20 1301.30 37.50
13006 52.7518 1315.50 1297.05 36.70
13007 52.7556 1292.90 1293.00 36.20
13008 52.7593 1281.20 1289.14 36.30
13009 52.7631 1267.00 1285.47 36.30
13010 52.7669 1213.70 1281.96 35.50
13011 52.7706 1293.40 1278.62 36.70
13012 52.7744 1235.90 1275.42 36.10
13013 52.7781 1296.70 1272.36 36.70
13014 52.7819 1213.50 1269.44 35.70
13015 52.7856 1258.60 1266.64 36.30
13016 52.7894 1273.50 1263.96 36.40
13017 52.7932 1259.70 1261.39 36.00
13018 52.7969 1278.50 1258.92 36.70
13019 52.8007 1306.40 1256.56 37.10
13020 52.8044 1256.60 1254.28 36.40
13021 52.8082 1252.60 1252.10 36.10
13022 52.8119 1207.70 1250.00 35.60
13023 52.8157 1275.80 1247.98 36.60
13024 52.8195 1199.40 1246.03 35.70
13025 52.8232 1290.80 1244.16 36.70
13026 52.8270 1202.70 1242.36 35.30
13027 52.8307 1248.10 1240.62 36.10
13028 52.8345 1217.00 1238.94 35.40
13029 52.8382 1236.90 1237.32 35.50
13030 52.8420 1268.70 1235.77 37.10
13031 52.8457 1211.00 1234.25 35.80
13032 52.8495 1241.60 1232.80 36.00
13033 52.8532 1231.80 1231.39 35.50
13034 52.8570 1188.70 1230.02 35.20
13035 52.8608 1211.90 1228.70 35.40
13036 52.8645 1189.60 1227.43 35.20
13037 52.8683 1240.10 1226.19 36.10
13038 52.8720 1143.20 1225.00 34.40
13039 52.8758 1218.90 1223.84 35.70
13040 52.8796 1138.10 1222.71 34.40
13041 52.8833 1219.50 1221.62 35.50
13042 52.8871 1182.10 1220.56 35.10
13043 52.8908 1284.10 1219.54 36.70
13044 52.8946 1195.00 1218.54 35.30
13045 52.8983 1238.40 1217.57 36.00
13046 52.9021 1195.50 1216.63 35.30
13047 52.9058 1173.30 1215.72 34.80
13048 52.9096 1102.70 1214.83 33.70
13049 52.9134 1216.80 1213.96 35.10
13050 52.9171 1199.10 1213.12 35.50
13051 52.9209 1265.50 1212.30 36.20
13052 52.9246 1201.50 1211.51 35.40
13053 52.9284 1185.40 1210.73 35.30
13054 52.9321 1167.00 1209.98 35.00
13055 52.9359 1167.30 1209.24 34.40
13056 52.9397 1162.50 1208.53 35.30
13057 52.9434 1199.60 1207.83 35.60
13058 52.9472 1183.70 1207.15 35.10
13059 52.9509 1158.80 1206.48 34.70
13060 52.9547 1127.90 1205.83 33.60
13061 52.9584 1181.00 1205.20 35.20
13062 52.9622 1198.80 1204.58 35.40
13063 52.9660 1253.50 1203.98 36.30
13064 52.9697 1139.40 1203.39 34.70
13065 52.9735 1129.30 1202.82 34.00
13066 52.9772 1143.60 1202.25 34.70
13067 52.9810 1165.10 1201.71 34.90
13068 52.9847 1199.00 1201.17 35.70
13069 52.9885 1205.10 1171.79 35.60
13070 52.9923 1176.90 1171.75 34.90
13071 52.9960 1259.20 1171.70 36.50
13072 52.9998 1202.50 1171.65 35.80
13073 53.0035 1135.70 1171.60 34.60
13074 53.0073 1198.80 1171.55 35.30
13075 53.0110 1255.20 1171.51 36.40
13076 53.0148 1163.70 1171.46 35.00
13077 53.0186 1181.50 1171.41 35.30
13078 53.0223 1143.40 1171.36 34.30
13079 53.0261 1169.30 1171.31 34.90
13080 53.0298 1178.80 1171.27 34.60
13081 53.0336 1188.50 1171.22 35.20
13082 53.0373 1198.90 1171.17 35.10
13083 53.0411 1171.10 1171.12 35.60
13084 53.0449 1160.50 1171.08 34.90
13085 53.0486 1174.60 1171.03 35.10
13086 53.0524 1125.20 1170.98 34.30
13087 53.0561 1152.00 1170.93 34.50
13088 53.0599 1127.90 1170.88 34.00
13089 53.0636 1198.20 1170.84 34.90
13090 53.0674 1225.30 1170.79 36.10
13091 53.0712 1169.70 1170.74 35.10
13092 53.0749 1136.10 1170.69 34.40
13093 53.0787 1180.60 1170.64 35.00
13094 53.0824 1101.10 1170.60 33.90
13095 53.0862 1227.70 1170.55 35.90
13096 53.0900 1122.70 1170.50 34.30
13097 53.0937 1137.80 1170.45 34.60
13098 53.0975 1180.70 1170.40 35.10
13099 53.1012 1225.90 1170.36 35.80
13100 53.1050 1135.20 1170.31 34.40
13101 53.1087 1172.90 1170.26 35.10
13102 53.1125 1215.10 1170.21 35.70
13103 53.1162 1261.20 1170.17 36.60
13104 53.1200 1193.20 1170.12 35.60
13105 53.1238 1188.60 1170.07 34.90
13106 53.1275 1146.20 1170.02 34.60
13107 53.1313 1158.40 1169.97 35.00
13108 53.1350 1153.00 1169.93 34.40
13109 53.1388 1156.10 1169.88 34.50
13110 53.1426 1117.00 1169.83 34.80
13111 53.1463 1199.20 1169.78 35.30
13112 53.1501 1223.10 1169.73 35.50
13113 53.1538 1200.20 1169.69 35.40
13114 53.1576 1134.70 1169.64 34.50
13115 53.1613 1179.60 1169.59 35.50
13116 53.1651 1192.00 1169.54 35.70
13117 53.1688 1171.10 1169.50 35.40
13118 53.1726 1106.40 1169.45 34.50
13119 53.1764 1157.30 1169.40 35.30
13120 53.1801 1175.90 1169.35 35.90
13121 53.1839 1146.10 1169.30 35.20
13122 53.1876 1119.70 1169.26 34.70
13123 53.1914 1201.20 1169.21 36.00
13124 53.1952 1154.00 1169.16 35.50
13125 53.1989 1135.70 1169.11 34.80
13126 53.2027 1109.20 1169.06 34.50
13127 53.2064 1192.80 1169.02 35.80
13128 53.2102 1130.80 1168.97 34.20
13129 53.2140 1165.10 1168.92 35.30
13130 53.2177 1218.70 1168.87 36.60
13131 53.2215 1147.00 1168.83 35.20
13132 53.2252 1120.40 1168.78 34.90
13133 53.2290 1116.00 1168.73 34.60
13134 53.2327 1180.00 1168.68 35.70
13135 53.2365 1201.90 1168.63 35.50
13136 53.2402 1069.10 1168.59 34.30
13137 53.2440 1178.30 1168.54 35.90
13138 53.2478 1115.30 1168.49 34.70
13139 53.2515 1105.10 1168.44 34.10
13140 53.2553 1115.70 1168.39 34.50
13141 53.2590 1148.30 1168.35 35.10
13142 53.2628 1102.40 1168.30 34.30
13143 53.2666 1144.90 1168.25 34.80
13144 53.2703 1168.90 1168.20 35.50
13145 53.2741 1198.90 1168.16 36.20
13146 53.2778 1115.60 1168.11 33.90
13147 53.2816 1202.20 1168.06 35.80
13148 53.2854 1101.00 1168.01 34.00
13149 53.2891 1109.60 1167.96 34.50
13150 53.2929 1139.90 1167.92 35.00
13151 53.2966 1188.20 1167.87 35.50
13152 53.3004 1145.40 1167.82 35.20
13153 53.3041 1135.00 1167.77 34.60
13154 53.3079 1113.20 1167.72 34.00
13155 53.3117 1108.10 1167.68 34.50
13156 53.3154 1105.90 1167.63 34.50
13157 53.3192 1164.70 1167.58 35.30
13158 53.3229 1173.30 1167.53 34.70
13159 53.3267 1119.60 1167.49 34.80
13160 53.3304 1162.80 1167.44 35.40
13161 53.3342 1199.50 1167.39 35.50
13162 53.3380 1087.50 1167.34 33.60
13163 53.3417 1187.90 1167.29 36.60
13164 53.3455 1141.20 1167.25 35.00
13165 53.3492 1205.70 1167.20 35.80
13166 53.3530 1111.60 1167.15 33.70
13167 53.3568 1177.50 1167.10 34.80
13168 53.3605 1123.00 1167.06 34.60
13169 53.3643 1137.50 1167.01 34.50
13170 53.3680 1122.10 1166.96 34.80
13171 53.3718 1186.50 1166.91 35.20
13172 53.3755 1126.40 1166.86 34.10
13173 53.3793 1087.80 1166.82 34.00
13174 53.3831 1115.00 1166.77 34.40
13175 53.3868 1160.40 1166.72 34.90
13176 53.3906 1138.10 1166.67 34.70
13177 53.3943 1125.70 1166.62 34.60
13178 53.3981 1124.10 1166.58 34.70
13179 53.4019 1172.20 1166.53 35.50
13180 53.4056 1075.30 1166.48 33.50
13181 53.4094 1162.10 1166.43 35.40
13182 53.4131 1155.10 1166.39 35.20
13183 53.4169 1168.50 1166.34 35.40
13184 53.4207 1103.50 1166.29 34.50
13185 53.4244 1223.40 1166.24 36.30
13186 53.4282 1120.20 1166.19 34.60
13187 53.4319 1131.30 1166.15 34.20
13188 53.4357 1110.10 1166.10 33.80
13189 53.4394 1203.00 1166.05 36.00
13190 53.4432 1169.40 1166.00 35.70
13191 53.4470 1208.60 1165.96 34.90
13192 53.4507 1078.20 1165.91 33.50
13193 53.4545 1156.40 1165.86 35.00
13194 53.4582 1135.30 1165.81 34.50
13195 53.4620 1198.90 1165.76 35.80
13196 53.4658 1110.50 1165.72 34.10
13197 53.4695 1129.60 1165.67 34.90
13198 53.4733 1075.80 1165.62 33.60
13199 53.4770 1205.70 1165.57 35.60
13200 53.4808 1093.90 1165.53 34.10
13201 53.4845 1110.60 1165.48 34.30
13202 53.4883 1123.40 1165.43 34.50
13203 53.4921 1121.80 1165.38 34.60
13204 53.4958 1169.40 1165.33 35.00
13205 53.4996 1193.20 1165.29 35.30
13206 53.5033 1176.10 1165.24 34.60
13207 53.5071 1126.60 1165.19 34.50
13208 53.5109 1102.20 1165.14 34.10
13209 53.5146 1134.70 1165.09 34.60
13210 53.5184 1168.40 1165.05 35.10
13211 53.5221 1194.70 1165.00 35.20
13212 53.5259 1136.60 1164.95 34.40
13213 53.5297 1163.70 1164.90 34.40
13214 53.5334 1062.90 1164.86 33.50
13215 53.5372 1137.20 1164.81 34.00
13216 53.5409 1149.60 1164.76 35.40
13217 53.5447 1228.00 1164.71 36.40
13218 53.5484 1135.50 1164.66 34.70
13219 53.5522 1127.70 1164.62 34.50
13220 53.5560 1145.00 1164.57 35.00
13221 53.5597 1130.50 1164.52 34.20
13222 53.5635 1090.30 1164.47 33.60
13223 53.5672 1104.00 1164.43 34.30
13224 53.5710 1139.10 1164.38 34.70
13225 53.5747 1141.50 1164.33 35.10
13226 53.5785 1145.60 1164.28 34.80
13227 53.5823 1137.60 1164.23 34.50
13228 53.5860 1162.20 1164.19 35.20
13229 53.5898 1172.40 1164.14 35.50
13230 53.5936 1186.50 1164.09 35.70
13231 53.5973 1205.40 1164.04 36.00
13232 53.6011 1156.80 1163.99 35.00
13233 53.6048 1189.10 1163.95 35.10
13234 53.6086 1121.90 1163.90 34.50
13235 53.6123 1128.70 1163.85 34.80
13236 53.6161 1185.40 1163.80 35.70
13237 53.6199 1145.10 1164.36 34.70
13238 53.6236 1168.00 1164.32 35.30
13239 53.6274 1201.40 1164.29 34.90
13240 53.6311 1014.20 1164.25 32.80
13241 53.6349 1106.80 1164.21 34.70
13242 53.6387 1204.30 1164.18 35.40
13243 53.6424 1142.60 1164.14 35.60
13244 53.6462 1136.70 1164.10 35.40
13245 53.6499 1161.90 1164.07 34.80
13246 53.6537 1163.30 1164.03 34.50
13247 53.6575 1127.50 1164.00 34.30
13248 53.6612 1146.90 1163.96 34.50
13249 53.6650 1150.90 1163.93 34.40
13250 53.6687 1128.40 1163.89 34.10
13251 53.6725 1208.20 1163.86 35.80
13252 53.6763 1152.40 1163.82 34.60
13253 53.6800 1073.90 1163.79 33.60
13254 53.6838 1122.10 1163.76 34.00
13255 53.6875 1166.40 1163.73 34.90
13256 53.6913 1129.00 1163.69 34.10
13257 53.6950 1153.50 1163.66 34.70
13258 53.6988 1095.40 1163.63 33.60
13259 53.7026 1178.70 1163.60 34.80
13260 53.7063 1125.50 1163.57 34.30
13261 53.7101 1116.10 1163.54 34.20
13262 53.7138 1136.40 1163.51 34.60
13263 53.7176 1154.40 1163.48 34.70
13264 53.7214 1134.40 1163.46 34.60
13265 53.7251 1184.80 1163.43 35.10
13266 53.7289 1162.30 1163.40 35.00
13267 53.7326 1175.50 1163.38 35.30
13268 53.7364 1133.50 1163.35 34.10
13269 53.7402 1135.90 1163.33 34.40
13270 53.7439 1123.10 1163.31 34.90
13271 53.7477 1127.30 1163.28 34.00
13272 53.7514 1079.60 1163.26 33.50
13273 53.7552 1183.70 1163.24 35.00
13274 53.7589 1134.00 1163.22 34.30
13275 53.7627 1152.70 1163.20 34.70
13276 53.7665 1133.20 1163.18 34.50
13277 53.7702 1129.50 1163.17 34.30
13278 53.7740 1130.50 1163.15 34.60
13279 53.7777 1134.50 1163.14 34.60
13280 53.7815 1136.30 1163.13 33.90
13281 53.7853 1147.80 1163.11 34.40
13282 53.7890 1142.60 1163.10 34.70
13283 53.7928 1184.70 1163.09 35.40
13284 53.7965 1133.80 1163.09 34.50
13285 53.8003 1162.60 1163.08 35.10
13286 53.8041 1119.10 1163.08 34.40
13287 53.8078 1224.40 1163.07 36.00
13288 53.8116 1102.90 1163.07 33.90
13289 53.8153 1187.40 1163.08 35.30
13290 53.8191 1140.50 1163.08 34.60
13291 53.8229 1154.00 1163.09 34.80
13292 53.8266 1130.60 1163.09 34.70
13293 53.8304 1235.70 1163.10 35.70
13294 53.8341 1052.00 1163.12 33.20
13295 53.8379 1147.90 1163.13 34.40
13296 53.8417 1031.30 1163.15 33.00
13297 53.8454 1112.50 1163.18 34.20
13298 53.8492 1130.60 1163.20 34.30
13299 53.8529 1109.70 1163.23 33.60
13300 53.8567 1180.90 1163.26 35.20
13301 53.8605 1151.50 1163.30 34.70
13302 53.8642 1161.80 1163.34 34.90
13303 53.8680 1128.90 1163.39 34.00
13304 53.8717 1060.70 1163.44 33.50
13305 53.8755 1117.10 1163.50 34.30
13306 53.8792 1089.20 1163.56 33.90
13307 53.8830 1145.90 1163.63 34.70
13308 53.8868 1085.30 1163.70 33.70
13309 53.8905 1126.20 1163.79 34.20
13310 53.8943 1077.30 1163.88 33.70
13311 53.8980 1119.30 1163.98 34.40
13312 53.9018 1162.70 1164.09 35.30
13313 53.9056 1163.10 1164.20 35.00
13314 53.9093 1099.40 1164.33 33.90
13315 53.9131 1177.20 1164.47 35.10
13316 53.9168 1140.80 1164.62 34.80
13317 53.9206 1206.20 1164.79 35.90
13318 53.9244 1129.30 1164.97 34.20
13319 53.9281 1136.00 1165.17 34.50
13320 53.9319 1106.40 1165.39 34.20
13321 53.9356 1117.40 1165.63 34.10
13322 53.9394 1162.70 1165.89 34.60
13323 53.9432 1200.40 1166.17 36.40
13324 53.9469 1111.80 1166.48 34.50
13325 53.9507 1188.10 1166.82 35.30
13326 53.9544 1184.40 1167.20 35.30
13327 53.9582 1125.70 1167.61 34.50
13328 53.9620 1096.40 1168.07 34.00
13329 53.9657 1119.90 1168.57 34.60
13330 53.9695 1115.10 1169.13 34.20
13331 53.9732 1156.70 1169.75 34.90
13332 53.9770 1175.70 1170.43 35.00
13333 53.9808 1192.90 1171.20 35.90
13334 53.9845 1148.60 1172.06 35.10
13335 53.9883 1208.10 1173.03 35.70
13336 53.9920 1158.50 1174.11 35.30
13337 53.9958 1189.70 1175.34 35.40
13338 53.9995 1121.70 1176.74 34.40
13339 54.0033 1184.70 1178.34 35.50
13340 54.0071 1125.90 1180.17 34.40
13341 54.0108 1181.80 1182.27 35.30
13342 54.0146 1167.90 1184.73 35.10
13343 54.0183 1188.60 1187.59 35.30
13344 54.0221 1171.40 1190.95 35.30
13345 54.0259 1192.30 1194.96 35.00
13346 54.0296 1167.50 1199.74 35.40
13347 54.0334 1141.10 1205.54 34.80
13348 54.0372 1164.80 1212.66 35.00
13349 54.0409 1198.50 1221.53 35.60
13350 54.0447 1208.30 1232.79 36.50
13351 54.0484 1255.70 1247.36 36.40
13352 54.0522 1262.70 1266.59 36.40
13353 54.0560 1197.50 1292.32 35.70
13354 54.0597 1306.20 1326.97 37.50
13355 54.0635 1331.20 1373.50 37.50
13356 54.0672 1435.80 1434.93 39.20
13357 54.0710 1474.50 1512.90 40.00
13358 54.0747 1532.90 1603.86 40.40
13359 54.0785 1620.10 1692.15 41.80
13360 54.0823 1673.20 1747.07 42.70
13361 54.0860 1755.10 1740.53 43.70
13362 54.0898 1514.00 1676.22 40.40
13363 54.0936 1642.20 1585.30 41.60
13364 54.0973 1466.50 1496.05 39.30
13365 54.1011 1405.50 1421.18 38.30
13366 54.1048 1272.00 1362.78 36.70
13367 54.1086 1267.30 1318.72 36.70
13368 54.1124 1198.30 1285.94 35.70
13369 54.1161 1218.80 1261.56 35.60
13370 54.1199 1233.20 1243.28 36.30
13371 54.1236 1113.20 1229.35 34.50
13372 54.1274 1137.30 1218.52 34.80
13373 54.1311 1262.90 1209.94 36.90
13374 54.1349 1147.60 1203.01 34.60
13375 54.1387 1159.50 1197.34 34.70
13376 54.1424 1188.10 1192.62 35.60
13377 54.1462 1185.40 1188.66 35.60
13378 54.1499 1174.90 1185.31 35.40
13379 54.1537 1199.20 1182.44 34.90
13380 54.1575 1118.30 1179.96 34.20
13381 54.1612 1153.30 1177.82 35.10
13382 54.1650 1121.80 1175.94 34.10
13383 54.1688 1134.70 1174.29 34.40
13384 54.1725 1149.30 1172.83 34.60
13385 54.1763 1233.60 1171.53 35.90
13386 54.1800 1159.80 1170.38 35.00
13387 54.1838 1154.30 1169.34 34.80
13388 54.1875 1174.10 1168.40 35.30
13389 54.1913 1204.20 1167.56 35.60
13390 54.1951 1171.20 1166.79 34.60
13391 54.1988 1230.90 1166.08 35.90
13392 54.2026 1150.70 1165.44 34.60
13393 54.2063 1160.10 1164.85 35.10
13394 54.2101 1157.80 1164.31 34.70
13395 54.2139 1122.80 1163.81 34.30
13396 54.2176 1127.50 1163.35 34.20
13397 54.2214 1125.20 1162.91 34.40
13398 54.2251 1189.10 1162.51 35.70
13399 54.2289 1144.70 1162.14 34.60
13400 54.2327 1139.90 1161.79 34.50
13401 54.2364 1205.30 1161.46 35.10
13402 54.2402 1088.10 1161.15 33.60
13403 54.2439 1143.50 1160.86 35.10
13404 54.2477 1127.90 1160.58 34.20
13405 54.2515 1171.60 1160.32 34.80
13406 54.2552 1102.40 1160.08 33.90
13407 54.2590 1160.10 1159.84 34.90
13408 54.2627 1087.90 1159.62 33.60
13409 54.2665 1148.40 1159.41 34.90
13410 54.2703 1100.30 1159.21 34.10
13411 54.2740 1190.20 1159.01 35.30
13412 54.2778 1157.60 1158.83 35.10
13413 54.2815 1117.70 1158.65 34.20
13414 54.2853 1172.40 1158.48 35.40
13415 54.2891 1113.10 1158.32 34.20
13416 54.2928 1079.20 1158.16 33.80
13417 54.2966 1143.90 1158.01 34.80
13418 54.3003 1087.20 1157.86 33.60
13419 54.3041 1147.50 1157.72 34.60
13420 54.3079 1065.10 1157.59 33.30
13421 54.3116 1167.80 1157.45 35.20
13422 54.3154 1103.40 1157.33 33.90
13423 54.3191 1180.30 1157.20 34.70
13424 54.3229 1166.10 1157.08 35.10
13425 54.3267 1154.50 1156.96 34.80
13426 54.3304 1079.50 1156.85 34.00
13427 54.3342 1167.50 1156.74 34.90
13428 54.3379 1136.50 1156.63 34.50
13429 54.3417 1144.00 1156.52 34.80
13430 54.3455 1093.70 1156.42 34.40
13431 54.3492 1204.50 1156.32 35.80
13432 54.3530 1107.50 1156.22 34.10
13433 54.3567 1113.40 1156.12 34.30
13434 54.3605 1138.60 1156.03 34.80
13435 54.3643 1163.80 1155.93 34.90
13436 54.3680 1137.60 1155.84 34.80
13437 54.3718 1167.60 1155.75 35.10
13438 54.3755 1142.60 1155.66 34.50
13439 54.3793 1194.30 1155.58 35.30
13440 54.3831 1158.40 1155.49 35.00
13441 54.3868 1133.80 1155.41 34.80
13442 54.3906 1131.30 1155.33 34.50
13443 54.3943 1203.70 1155.25 35.70
13444 54.3981 1093.30 1155.17 33.90
13445 54.4019 1195.30 1155.09 35.30
13446 54.4056 1143.60 1155.01 34.50
13447 54.4094 1166.20 1154.93 35.10
13448 54.4131 1129.10 1154.86 34.60
13449 54.4169 1119.60 1154.78 34.20
13450 54.4207 1150.20 1154.71 34.40
13451 54.4244 1176.50 1154.63 35.50
13452 54.4282 1145.50 1154.56 34.90
13453 54.4319 1206.90 1154.49 35.80
13454 54.4357 1167.70 1154.42 34.70
13455 54.4395 1189.30 1154.35 35.30
13456 54.4432 1142.70 1154.28 35.40
13457 54.4470 1160.70 1154.21 35.20
13458 54.4507 1122.20 1154.14 34.60
13459 54.4545 1110.00 1154.08 34.60
13460 54.4583 1153.20 1154.01 34.40
13461 54.4620 1207.00 1153.94 35.80
13462 54.4658 1167.60 1153.88 35.30
13463 54.4695 1116.10 1153.81 34.00
13464 54.4733 1154.70 1153.75 34.50
13465 54.4771 1169.60 1153.68 35.30
13466 54.4808 1117.70 1153.62 34.80
13467 54.4846 1121.30 1153.56 34.50
13468 54.4883 1139.40 1153.49 34.70
13469 54.4921 1115.70 1153.43 34.40
13470 54.4959 1178.60 1153.37 35.00
13471 54.4996 1108.30 1153.31 34.60
13472 54.5034 1066.20 1153.24 33.60
13473 54.5071 1130.60 1153.18 34.70
13474 54.5109 1066.00 1153.12 33.50
13475 54.5147 1157.50 1153.06 35.20
13476 54.5184 1139.80 1153.00 34.60
13477 54.5222 1116.00 1152.94 34.70
13478 54.5260 1108.50 1152.88 34.20
13479 54.5297 1123.40 1152.82 34.60
13480 54.5335 1127.30 1152.76 34.50
13481 54.5372 1127.20 1152.71 34.10
13482 54.5410 1102.20 1152.65 34.50
13483 54.5448 1088.50 1152.59 33.80
13484 54.5485 1118.60 1151.93 34.20
13485 54.5523 1150.10 1151.88 34.40
13486 54.5560 1102.30 1151.83 34.10
13487 54.5598 1125.00 1151.78 34.60
13488 54.5635 1101.30 1151.73 34.40
13489 54.5673 1176.70 1151.69 35.20
13490 54.5711 1135.10 1151.64 34.60
13491 54.5748 1216.50 1151.59 36.20
13492 54.5786 1098.60 1151.54 33.90
13493 54.5824 1081.00 1151.49 34.10
13494 54.5861 1075.50 1151.45 33.10
13495 54.5899 1142.10 1151.40 35.10
13496 54.5936 1101.60 1151.35 34.20
13497 54.5974 1184.00 1151.30 35.50
13498 54.6012 1105.10 1151.25 34.10
13499 54.6049 1120.40 1151.21 34.70
13500 54.6087 1119.40 1151.16 34.90
13501 54.6124 1139.30 1151.11 34.80
13502 54.6162 1102.50 1151.06 34.20
13503 54.6199 1131.40 1151.01 34.80
13504 54.6237 1150.00 1150.97 35.00
13505 54.6275 1148.60 1150.92 35.10
13506 54.6312 1106.80 1150.87 34.50
13507 54.6350 1157.80 1150.82 35.60
13508 54.6387 1040.80 1150.77 33.10
13509 54.6425 1170.80 1150.73 35.40
13510 54.6463 1135.10 1150.68 35.80
13511 54.6500 1168.80 1150.63 35.90
13512 54.6538 1128.80 1150.58 34.80
13513 54.6576 1135.60 1150.53 35.10
13514 54.6613 1088.50 1150.49 34.00
13515 54.6651 1149.50 1150.44 35.10
13516 54.6688 1091.20 1150.39 33.90
13517 54.6726 1124.60 1150.34 34.50
13518 54.6763 1152.40 1150.29 35.40
13519 54.6801 1176.40 1150.25 35.30
13520 54.6839 1097.00 1150.20 34.20
13521 54.6876 1129.20 1150.15 35.00
13522 54.6914 1140.70 1150.10 35.00
13523 54.6951 1108.00 1150.05 34.50
13524 54.6989 1135.00 1150.01 34.50
13525 54.7027 1176.70 1149.96 35.60
13526 54.7064 1047.50 1149.91 33.80
13527 54.7102 1156.20 1149.86 35.10
13528 54.7140 1130.90 1149.81 35.20
13529 54.7177 1119.60 1149.77 34.70
13530 54.7215 1095.40 1149.72 34.40
13531 54.7252 1197.50 1149.67 35.10
13532 54.7290 1099.90 1149.62 34.30
13533 54.7327 1115.80 1149.57 34.90
13534 54.7365 1098.30 1149.53 34.10
13535 54.7403 1125.10 1149.48 34.40
13536 54.7440 1112.00 1149.43 35.10
13537 54.7478 1142.10 1149.38 34.30
13538 54.7515 1154.30 1149.33 35.30
13539 54.7553 1142.50 1149.29 35.20
13540 54.7591 1129.20 1149.24 34.90
13541 54.7628 1192.40 1149.19 35.80
13542 54.7666 1057.10 1149.14 33.20
13543 54.7704 1199.80 1149.09 35.60
13544 54.7741 1127.40 1149.05 34.70
13545 54.7779 1133.50 1149.00 33.90
13546 54.7816 1138.90 1148.95 34.80
13547 54.7854 1129.40 1148.90 34.50
13548 54.7892 1153.40 1148.85 35.00
13549 54.7929 1160.60 1148.81 35.30
13550 54.7967 1134.90 1148.76 35.00
13551 54.8004 1216.80 1148.71 35.70
13552 54.8042 1153.70 1148.66 35.60
13553 54.8079 1156.20 1148.61 35.40
13554 54.8117 1107.30 1148.56 34.30
13555 54.8155 1167.60 1148.52 34.90
13556 54.8192 1026.30 1148.47 32.20
13557 54.8230 1186.50 1148.42 36.00
13558 54.8268 1114.10 1148.37 34.60
13559 54.8305 1120.50 1148.32 35.10
13560 54.8343 1152.40 1148.28 34.80
13561 54.8380 1165.80 1148.23 35.10
13562 54.8418 1123.30 1148.18 34.50
13563 54.8456 1171.50 1148.13 36.40
13564 54.8493 1081.80 1148.08 34.20
13565 54.8531 1151.70 1148.04 35.00
13566 54.8568 1100.60 1147.99 34.60
13567 54.8606 1156.70 1147.94 35.50
13568 54.8643 1052.20 1147.89 33.50
13569 54.8681 1115.40 1147.84 34.10
13570 54.8719 1184.60 1147.80 36.10
13571 54.8756 1154.80 1147.75 35.10
13572 54.8794 1161.50 1147.70 35.60
13573 54.8831 1126.70 1147.65 34.80
13574 54.8869 1176.60 1147.60 35.10
13575 54.8907 1172.70 1147.56 35.70
13576 54.8944 1129.10 1147.51 34.90
13577 54.8982 1248.10 1147.46 36.90
13578 54.9020 1124.60 1147.41 34.80
13579 54.9057 1168.30 1147.36 35.80
13580 54.9095 1138.50 1147.32 35.10
13581 54.9132 1177.90 1147.27 35.60
13582 54.9170 1131.60 1147.22 34.50
13583 54.9207 1128.20 1147.17 34.60
13584 54.9245 1088.20 1147.12 34.40
13585 54.9283 1166.40 1147.07 35.00
13586 54.9320 1101.70 1147.03 34.30
13587 54.9358 1151.80 1146.98 35.00
13588 54.9395 1137.90 1146.93 34.00
13589 54.9433 1124.00 1146.88 35.20
13590 54.9471 1119.00 1146.83 35.10
13591 54.9508 1184.20 1146.79 35.10
13592 54.9546 1123.50 1146.74 34.50
13593 54.9584 1116.90 1146.69 34.60
13594 54.9621 1105.40 1146.64 34.30
13595 54.9659 1194.70 1146.59 35.60
13596 54.9696 1072.20 1146.55 34.30
13597 54.9734 1147.90 1146.50 35.20
13598 54.9771 1055.50 1146.45 34.00
13599 54.9809 1102.50 1146.40 34.80
13600 54.9847 1116.40 1146.35 34.80
13601 54.9884 1141.20 1146.31 34.70
13602 54.9922 1136.50 1146.26 35.10
13603 54.9959 1148.40 1146.21 35.40
13604 54.9997 1127.10 1146.16 34.40
13605 55.0035 1127.40 1146.11 34.80
13606 55.0072 1110.80 1146.06 34.30
13607 55.0110 1185.90 1146.02 35.40
13608 55.0148 1125.10 1145.97 34.90
13609 55.0185 1155.00 1145.92 35.30
13610 55.0223 1129.30 1145.87 34.80
13611 55.0260 1198.30 1145.82 35.90
13612 55.0298 1171.40 1145.78 35.00
13613 55.0336 1158.50 1145.73 35.40
13614 55.0373 1126.40 1145.68 34.70
13615 55.0411 1144.90 1145.63 34.20
13616 55.0448 1188.70 1145.58 36.20
13617 55.0486 1156.50 1145.54 35.00
13618 55.0523 1116.20 1145.49 34.50
13619 55.0561 1251.20 1145.44 36.60
13620 55.0599 1089.80 1145.39 34.30
13621 55.0636 1165.70 1145.34 35.30
13622 55.0674 1147.70 1145.29 35.10
13623 55.0712 1172.40 1145.25 35.50
13624 55.0749 1117.80 1145.20 35.00
13625 55.0787 1153.10 1145.15 35.20
13626 55.0824 1088.50 1145.10 34.40
13627 55.0862 1156.10 1145.05 35.20
13628 55.0900 1232.60 1145.01 37.00
13629 55.0937 1205.10 1144.96 36.30
13630 55.0975 1116.30 1144.91 34.70
13631 55.1012 1160.20 1144.86 35.50
13632 55.1050 1136.80 1144.81 35.10
13633 55.1087 1170.50 1144.77 35.10
13634 55.1125 1151.20 1144.72 35.50
13635 55.1163 1126.90 1144.67 34.70
13636 55.1200 1147.30 1144.62 35.30
13637 55.1238 1153.70 1144.57 35.30
13638 55.1275 1127.00 1144.53 34.80
13639 55.1313 1156.70 1144.48 35.20
13640 55.1351 1121.60 1144.43 35.10
13641 55.1388 1145.10 1170.87 35.00
13642 55.1426 1123.70 1171.25 35.40
13643 55.1464 1145.00 1171.64 35.50
13644 55.1501 1196.90 1172.04 35.90
13645 55.1539 1209.80 1172.45 36.40
13646 55.1576 1162.60 1172.88 35.30
13647 55.1614 1176.00 1173.32 35.90
13648 55.1651 1164.40 1173.76 35.40
13649 55.1689 1088.40 1174.23 34.30
13650 55.1727 1155.00 1174.70 35.50
13651 55.1764 1208.10 1175.19 35.60
13652 55.1802 1111.30 1175.69 34.70
13653 55.1839 1167.20 1176.21 35.70
13654 55.1877 1174.70 1176.74 35.80
13655 55.1915 1178.70 1177.29 35.50
13656 55.1952 1163.70 1177.86 35.30
13657 55.1990 1175.20 1178.44 34.90
13658 55.2027 1162.40 1179.04 35.50
13659 55.2065 1161.10 1179.66 35.20
13660 55.2103 1125.10 1180.29 34.80
13661 55.2140 1141.60 1180.95 35.40
13662 55.2178 1171.80 1181.62 35.70
13663 55.2215 1173.30 1182.32 35.80
13664 55.2253 1178.80 1183.04 35.70
13665 55.2291 1170.40 1183.78 35.50
13666 55.2328 1217.20 1184.55 36.50
13667 55.2366 1156.10 1185.34 35.50
13668 55.2403 1131.10 1186.16 34.80
13669 55.2441 1218.70 1187.00 37.00
13670 55.2479 1178.90 1187.87 35.90
13671 55.2516 1169.10 1188.77 35.30
13672 55.2554 1207.70 1189.70 35.80
13673 55.2591 1176.00 1190.67 35.70
13674 55.2629 1148.10 1191.66 34.80
13675 55.2667 1230.60 1192.69 36.90
13676 55.2704 1182.00 1193.76 35.90
13677 55.2742 1222.60 1194.86 36.50
13678 55.2779 1199.00 1196.01 36.30
13679 55.2817 1201.50 1197.19 35.60
13680 55.2854 1164.00 1198.42 35.80
13681 55.2892 1164.80 1199.69 35.50
13682 55.2930 1165.20 1201.01 35.70
13683 55.2967 1227.80 1202.38 36.60
13684 55.3005 1194.50 1203.81 36.00
13685 55.3042 1218.40 1205.28 36.10
13686 55.3080 1167.20 1206.82 35.20
13687 55.3118 1215.00 1208.41 36.60
13688 55.3155 1206.80 1210.07 36.10
13689 55.3193 1197.20 1211.79 35.40
13690 55.3231 1180.30 1213.59 36.10
13691 55.3268 1216.90 1215.46 36.10
13692 55.3306 1236.90 1217.41 36.60
13693 55.3343 1296.40 1219.44 37.60
13694 55.3381 1217.70 1221.55 36.40
13695 55.3419 1256.60 1223.76 36.80
13696 55.3456 1239.50 1226.06 37.60
13697 55.3494 1264.20 1228.47 36.60
13698 55.3531 1240.60 1230.98 36.60
13699 55.3569 1247.00 1233.61 36.60
13700 55.3606 1261.50 1236.37 37.00
13701 55.3644 1259.70 1239.25 36.70
13702 55.3682 1261.90 1242.27 36.80
13703 55.3719 1241.30 1245.44 36.30
13704 55.3757 1319.10 1248.76 37.40
13705 55.3794 1324.30 1252.25 37.80
13706 55.3832 1226.20 1255.92 35.90
13707 55.3870 1295.10 1259.77 37.50
13708 55.3907 1234.80 1263.83 36.40
13709 55.3945 1291.60 1268.11 37.10
13710 55.3982 1250.00 1272.62 36.60
13711 55.4020 1280.70 1277.38 36.70
13712 55.4058 1266.10 1282.39 37.20
13713 55.4095 1335.40 1287.71 37.90
13714 55.4133 1292.00 1293.32 37.30
13715 55.4170 1270.20 1299.28 37.10
13716 55.4208 1328.70 1305.60 37.90
13717 55.4245 1392.90 1312.30 38.40
13718 55.4283 1325.60 1319.43 38.40
13719 55.4321 1409.70 1327.03 39.40
13720 55.4358 1356.30 1335.11 38.50
13721 55.4396 1309.90 1343.74 36.70
13722 55.4434 1428.30 1352.97 40.50
13723 55.4471 1427.30 1362.84 39.20
13724 55.4509 1420.00 1373.42 38.50
13725 55.4546 1449.30 1384.78 39.60
13726 55.4584 1372.00 1396.98 38.70
13727 55.4622 1489.80 1410.14 39.70
13728 55.4659 1480.40 1424.29 40.40
13729 55.4697 1618.50 1439.68 42.10
13730 55.4734 1387.20 1456.26 39.30
13731 55.4772 1496.50 1474.31 40.40
13732 55.4809 1556.30 1493.97 41.70
13733 55.4847 1573.70 1515.38 42.10
13734 55.4885 1567.70 1538.80 41.30
13735 55.4922 1586.30 1564.51 40.80
13736 55.4960 1573.00 1592.72 41.50
13737 55.4997 1713.00 1623.87 44.00
13738 55.5035 1634.70 1658.32 43.10
13739 55.5073 1728.20 1696.56 43.10
13740 55.5110 1783.50 1739.17 45.00
13741 55.5148 1827.80 1786.68 44.80
13742 55.5185 1771.60 1840.23 44.10
13743 55.5223 1931.30 1900.54 46.10
13744 55.5261 1958.50 1968.95 46.40
13745 55.5298 1989.60 2046.97 47.30
13746 55.5336 2188.00 2136.20 48.30
13747 55.5373 2144.00 2239.16 48.70
13748 55.5411 2341.20 2358.62 50.80
13749 55.5448 2473.00 2498.25 53.90
13750 55.5486 2555.60 2662.76 53.00
13751 55.5524 2748.40 2857.71 55.30
13752 55.5561 2883.60 3093.07 56.70
13753 55.5599 3212.40 3377.44 60.70
13754 55.5636 3330.70 3728.57 61.30
13755 55.5674 3949.60 4168.04 68.50
13756 55.5712 4301.20 4727.94 71.70
13757 55.5749 5178.40 5454.19 76.40
13758 55.5787 5752.50 6411.16 80.30
13759 55.5824 7161.50 7685.71 90.70
13760 55.5862 8736.10 9388.45 100.40
13761 55.5900 11739.80 11639.20 119.20
13762 55.5937 14772.20 14568.80 135.60
13763 55.5975 19124.40 18138.00 156.20
13764 55.6012 22432.50 22024.50 171.50
13765 55.6050 25880.50 25257.80 187.10
13766 55.6087 26535.50 26469.00 189.40
13767 55.6125 25654.40 24998.00 184.50
13768 55.6163 21697.50 21635.70 167.30
13769 55.6200 17799.10 17748.10 149.10
13770 55.6238 13608.60 14229.40 129.60
13771 55.6275 10287.90 11386.30 110.70
13772 55.6313 8129.20 9185.70 97.40
13773 55.6351 6593.30 7537.45 87.20
13774 55.6388 5349.90 6299.93 77.60
13775 55.6426 4633.80 5370.00 71.20
13776 55.6463 4020.70 4663.24 67.60
13777 55.6501 3676.40 4117.37 63.90
13778 55.6539 3252.40 3688.09 59.50
13779 55.6576 3118.20 3344.49 57.80
13780 55.6614 2748.90 3065.09 54.20
13781 55.6651 2713.20 2835.36 54.60
13782 55.6689 2409.50 2643.23 50.90
13783 55.6726 2343.60 2481.42 50.20
13784 55.6764 2207.20 2343.94 48.00
13785 55.6802 2130.90 2226.21 47.80
13786 55.6839 2006.60 2124.67 46.20
13787 55.6877 2006.00 2036.52 46.30
13788 55.6914 1927.20 1959.66 45.70
13789 55.6952 1862.40 1891.90 43.80
13790 55.6990 1745.20 1832.35 42.90
13791 55.7027 1773.10 1779.33 43.10
13792 55.7065 1647.30 1732.17 42.00
13793 55.7102 1648.20 1689.94 41.90
13794 55.7140 1557.50 1651.98 40.60
13795 55.7178 1704.40 1617.82 42.60
13796 55.7215 1538.60 1586.89 40.10
13797 55.7253 1622.90 1558.91 41.70
13798 55.7290 1583.80 1533.34 40.40
13799 55.7328 1539.00 1510.05 40.50
13800 55.7365 1504.20 1488.71 39.90
13801 55.7403 1463.00 1469.12 39.00
13802 55.7441 1453.00 1451.14 39.20
13803 55.7478 1458.10 1434.55 39.80
13804 55.7516 1461.50 1419.27 39.00
13805 55.7553 1437.40 1405.07 39.00
13806 55.7591 1380.40 1391.93 37.60
13807 55.7629 1468.40 1379.71 38.80
13808 55.7666 1389.50 1368.32 38.20
13809 55.7704 1432.20 1357.73 38.80
13810 55.7741 1349.60 1347.83 37.40
13811 55.7779 1382.80 1338.59 38.10
13812 55.7817 1366.30 1329.91 37.70
13813 55.7854 1397.10 1321.78 38.60
13814 55.7892 1268.00 1314.14 36.30
13815 55.7929 1360.90 1306.95 37.80
13816 55.7967 1320.10 1300.19 37.20
13817 55.8004 1308.70 1293.81 37.10
13818 55.8042 1263.20 1287.81 36.50
13819 55.8080 1336.50 1282.11 37.30
13820 55.8117 1240.60 1276.73 35.80
13821 55.8155 1248.40 1271.64 36.10
13822 55.8192 1340.50 1266.81 37.60
13823 55.8230 1306.80 1262.24 36.80
13824 55.8268 1272.00 1257.88 36.30
13825 55.8305 1303.60 1253.75 36.40
13826 55.8343 1237.70 1249.82 36.30
13827 55.8380 1315.60 1246.07 37.00
13828 55.8418 1263.10 1242.50 36.20
13829 55.8456 1332.00 1239.09 37.90
13830 55.8493 1222.50 1235.85 36.00
13831 55.8531 1235.00 1232.75 35.80
13832 55.8568 1168.70 1229.78 34.80
13833 55.8606 1296.50 1226.94 36.80
13834 55.8643 1242.80 1224.22 36.40
13835 55.8681 1281.30 1221.62 37.00
13836 55.8718 1208.40 1219.14 35.40
13837 55.8756 1300.40 1216.74 37.00
13838 55.8794 1169.00 1214.44 34.80
13839 55.8831 1185.70 1212.24 35.40
13840 55.8869 1183.90 1210.12 35.30
13841 55.8906 1235.50 1208.09 36.10
13842 55.8944 1294.60 1206.13 36.90
13843 55.8982 1251.40 1204.25 36.10
13844 55.9019 1179.00 1202.43 35.50
13845 55.9057 1214.90 1200.68 35.70
13846 55.9094 1184.00 1199.00 35.10
13847 55.9132 1184.30 1197.38 35.20
13848 55.9170 1178.30 1195.81 35.00
13849 55.9207 1211.00 1194.29 35.70
13850 55.9245 1158.50 1192.83 34.80
13851 55.9282 1214.20 1191.42 35.60
13852 55.9320 1176.10 1190.05 35.40
13853 55.9357 1189.30 1188.73 35.40
13854 55.9395 1199.60 1187.46 35.00
13855 55.9433 1219.70 1186.22 36.00
13856 55.9470 1139.40 1185.02 35.60
13857 55.9508 1132.80 1183.86 34.60
13858 55.9545 1208.70 1182.74 35.90
13859 55.9583 1225.00 1181.65 35.70
13860 55.9621 1195.80 1180.59 35.40
13861 55.9658 1179.80 1179.57 35.30
13862 55.9696 1123.10 1178.57 34.30
13863 55.9733 1151.40 1177.61 34.80
13864 55.9771 1173.20 1176.67 35.00
13865 55.9808 1167.00 1175.76 35.30
13866 55.9846 1186.10 1174.87 35.40
13867 55.9883 1196.70 1174.02 35.50
13868 55.9921 1176.50 1173.18 35.40
13869 55.9959 1231.50 1172.36 36.40
13870 55.9996 1177.60 1171.57 35.20
13871 56.0034 1184.90 1170.80 35.40
13872 56.0071 1131.30 1170.05 34.60
13873 56.0109 1170.10 1169.32 35.20
13874 56.0147 1096.20 1168.61 34.20
13875 56.0184 1221.60 1167.91 36.20
13876 56.0222 1158.00 1167.24 34.90
13877 56.0259 1153.80 1166.58 35.00
13878 56.0297 1136.90 1165.93 34.30
13879 56.0335 1227.10 1165.30 35.90
13880 56.0372 1175.90 1164.69 35.40
13881 56.0410 1139.60 1164.09 34.70
13882 56.0447 1128.60 1163.51 35.20
13883 56.0485 1175.10 1162.94 35.80
13884 56.0522 1159.60 1162.38 35.10
13885 56.0560 1289.90 1161.84 37.30
13886 56.0597 1168.50 1161.31 35.40
13887 56.0635 1188.60 1160.79 35.30
13888 56.0673 1132.60 1160.28 34.70
13889 56.0710 1181.30 1159.78 35.30
13890 56.0748 1186.30 1159.30 35.60
13891 56.0785 1226.60 1158.82 36.20
13892 56.0823 1135.40 1132.29 34.90
13893 56.0861 1182.50 1132.25 35.70
13894 56.0898 1099.80 1132.20 33.80
13895 56.0936 1144.40 1132.15 34.60
13896 56.0973 1028.40 1132.10 33.10
13897 56.1011 1244.60 1132.05 36.50
13898 56.1048 1153.10 1132.01 35.20
13899 56.1086 1194.30 1131.96 35.50
13900 56.1124 1137.70 1131.91 34.80
13901 56.1161 1150.20 1131.86 34.60
13902 56.1199 1108.80 1131.81 33.90
13903 56.1236 1165.20 1131.76 35.20
13904 56.1274 1171.40 1131.72 35.40
13905 56.1311 1177.20 1131.67 35.20
13906 56.1349 1160.70 1131.62 35.00
13907 56.1387 1159.50 1131.57 35.00
13908 56.1424 1123.00 1131.52 33.60
13909 56.1462 1137.20 1131.48 34.50
13910 56.1499 1187.20 1131.43 35.80
13911 56.1537 1128.60 1131.38 34.20
13912 56.1575 1133.30 1131.33 34.60
13913 56.1612 1127.50 1131.28 34.90
13914 56.1650 1097.50 1131.24 34.20
13915 56.1687 1203.50 1131.19 35.60
13916 56.1725 1170.20 1131.14 35.20
13917 56.1762 1107.80 1131.09 34.50
13918 56.1800 1154.00 1131.04 34.90
13919 56.1838 1151.20 1131.00 35.10
13920 56.1875 1178.40 1130.95 35.40
13921 56.1913 1125.50 1130.90 34.90
13922 56.1950 1157.40 1130.85 35.20
13923 56.1988 1197.30 1130.80 35.80
13924 56.2025 1141.80 1130.75 34.90
13925 56.2063 1245.60 1130.71 36.60
13926 56.2100 1093.10 1130.66 34.40
13927 56.2138 1137.30 1130.61 34.90
13928 56.2176 1095.20 1130.56 33.90
13929 56.2213 1097.50 1130.51 34.20
13930 56.2251 1144.60 1130.47 34.90
13931 56.2288 1199.90 1130.42 35.80
13932 56.2326 1093.10 1130.37 34.20
13933 56.2364 1159.50 1130.32 35.40
13934 56.2401 1160.00 1130.27 35.10
13935 56.2439 1119.20 1130.23 34.30
13936 56.2476 1048.20 1130.18 33.90
13937 56.2514 1114.80 1130.13 34.50
13938 56.2551 1097.40 1130.08 34.10
13939 56.2589 1163.60 1130.03 35.20
13940 56.2626 1093.50 1129.99 34.40
13941 56.2664 1158.40 1129.94 35.30
13942 56.2702 1076.10 1129.89 34.10
13943 56.2739 1109.10 1129.84 33.80
13944 56.2777 1083.00 1129.79 34.10
13945 56.2814 1121.50 1129.75 34.90
13946 56.2852 1197.60 1129.70 35.90
13947 56.2890 1156.40 1129.65 35.40
13948 56.2927 1124.30 1129.60 34.80
13949 56.2965 1151.70 1129.55 35.20
13950 56.3002 1121.10 1129.51 34.60
13951 56.3040 1163.50 1129.46 35.30
13952 56.3077 1087.30 1129.41 34.60
13953 56.3115 1149.60 1129.36 34.80
13954 56.3153 1151.10 1129.31 35.50
13955 56.3190 1092.50 1129.27 34.20
13956 56.3228 1097.00 1129.22 34.10
13957 56.3265 1116.10 1129.17 34.90
13958 56.3303 1152.50 1129.12 35.40
13959 56.3340 1115.50 1129.07 34.80
13960 56.3378 1181.30 1129.02 35.70
13961 56.3415 1100.50 1128.98 34.00
13962 56.3453 1143.10 1128.93 35.10
13963 56.3491 1062.50 1128.88 34.10
13964 56.3528 1178.50 1128.83 35.40
13965 56.3566 1196.10 1128.78 35.80
13966 56.3603 1114.50 1128.74 34.50
13967 56.3641 1123.60 1128.69 34.80
13968 56.3678 1117.90 1128.64 35.10
13969 56.3716 1076.60 1128.59 34.40
13970 56.3754 1145.20 1128.54 34.80
13971 56.3791 1075.00 1128.50 34.40
13972 56.3829 1116.90 1128.45 34.60
13973 56.3866 1091.70 1128.40 34.40
13974 56.3904 1121.60 1128.35 34.40
13975 56.3941 1081.40 1128.30 34.10
13976 56.3979 1136.40 1128.26 34.60
13977 56.4016 1149.30 1128.21 35.00
13978 56.4054 1096.80 1128.16 34.30
13979 56.4092 1124.60 1128.11 34.70
13980 56.4129 1109.70 1128.06 35.00
13981 56.4167 1143.50 1128.02 34.80
13982 56.4204 1100.70 1127.97 34.20
13983 56.4242 1134.50 1127.92 34.70
13984 56.4279 1128.30 1127.87 34.90
13985 56.4317 1142.50 1127.82 35.50
13986 56.4355 1055.70 1127.78 34.30
13987 56.4392 1105.30 1127.73 34.10
13988 56.4430 1123.50 1127.68 34.50
13989 56.4467 1126.30 1127.63 35.70
13990 56.4505 1128.10 1127.58 35.30
13991 56.4542 1147.90 1127.54 35.00
13992 56.4580 1117.50 1127.49 34.50
13993 56.4618 1121.70 1127.44 34.60
13994 56.4655 1133.20 1127.39 35.20
13995 56.4693 1163.10 1127.35 35.60
13996 56.4730 1115.10 1127.30 34.70
13997 56.4768 1141.30 1127.25 35.20
13998 56.4805 1159.00 1127.20 35.10
13999 56.4843 1016.50 1127.15 32.90
14000 56.4880 1139.70 1127.11 35.10
14001 56.4918 1101.40 1127.06 34.70
14002 56.4955 1116.40 1127.01 34.70
14003 56.4993 1160.00 1126.96 35.50
14004 56.5031 1104.20 1126.91 34.40
14005 56.5068 1102.30 1126.87 34.20
14006 56.5106 1131.60 1126.82 35.00
14007 56.5143 1115.40 1126.77 34.40
14008 56.5181 1112.60 1126.72 34.70
14009 56.5218 1115.40 1126.67 34.40
14010 56.5256 1103.60 1126.63 34.20
14011 56.5294 1131.70 1126.58 35.10
14012 56.5331 1188.40 1126.53 36.10
14013 56.5369 1131.30 1126.48 34.90
14014 56.5406 1167.10 1126.43 34.90
14015 56.5444 1153.00 1126.39 35.40
14016 56.5481 1124.10 1126.34 35.10
14017 56.5519 1155.50 1126.29 34.90
14018 56.5556 1146.40 1126.24 34.90
14019 56.5594 1099.60 1126.19 34.10
14020 56.5632 1150.70 1126.15 35.10
14021 56.5669 1140.00 1126.10 34.80
14022 56.5707 1114.90 1126.05 34.40
14023 56.5744 1133.30 1126.00 34.80
14024 56.5782 1126.60 1125.96 34.70
14025 56.5819 1066.90 1125.91 34.00
14026 56.5857 1101.60 1125.86 34.30
14027 56.5895 1168.30 1125.81 35.30
14028 56.5932 1137.60 1125.76 34.70
14029 56.5970 1149.10 1125.72 34.80
14030 56.6007 1137.00 1125.67 34.90
14031 56.6045 1133.50 1125.62 34.60
14032 56.6082 1096.70 1125.57 34.00
14033 56.6120 1135.10 1125.52 34.60
14034 56.6157 1085.00 1125.48 33.90
14035 56.6195 1128.70 1125.43 34.60
14036 56.6232 1097.50 1125.38 33.90
14037 56.6270 1174.90 1125.69 35.60
14038 56.6308 1127.70 1125.65 34.70
14039 56.6345 1165.40 1125.60 35.20
14040 56.6383 1131.90 1125.56 34.70
14041 56.6420 1095.70 1125.52 33.10
14042 56.6458 1135.30 1125.48 34.90
14043 56.6495 1116.70 1125.44 34.90
14044 56.6533 1026.10 1125.40 32.70
14045 56.6570 1111.50 1125.36 34.20
14046 56.6608 1114.50 1125.31 34.50
14047 56.6646 1134.60 1125.27 34.50
14048 56.6683 1068.60 1125.23 33.70
14049 56.6721 1140.10 1125.19 34.80
14050 56.6758 1091.90 1125.15 34.20
14051 56.6796 1121.90 1125.11 34.70
14052 56.6833 1123.90 1125.07 34.40
14053 56.6871 1176.20 1125.03 35.10
14054 56.6908 1112.00 1124.99 34.50
14055 56.6946 1104.50 1124.95 34.30
14056 56.6983 1064.70 1124.92 33.80
14057 56.7021 1152.40 1124.88 35.10
14058 56.7059 1095.50 1124.84 33.90
14059 56.7096 1107.70 1124.80 33.60
14060 56.7134 1124.80 1124.76 34.40
14061 56.7171 1165.10 1124.73 35.40
14062 56.7209 1089.00 1124.69 34.00
14063 56.7246 1117.40 1124.65 34.80
14064 56.7284 1114.20 1124.61 34.90
14065 56.7322 1147.60 1124.58 35.40
14066 56.7359 1109.30 1124.54 34.60
14067 56.7397 1138.30 1124.51 34.60
14068 56.7434 1054.30 1124.47 33.10
14069 56.7472 1167.30 1124.44 35.80
14070 56.7509 1131.00 1124.40 34.30
14071 56.7547 1083.40 1124.37 33.60
14072 56.7584 1090.10 1124.34 33.90
14073 56.7622 1143.90 1124.30 35.00
14074 56.7659 1105.40 1124.27 34.40
14075 56.7697 1153.50 1124.24 35.20
14076 56.7734 1109.70 1124.21 34.30
14077 56.7772 1168.10 1124.18 35.30
14078 56.7810 1045.00 1124.15 33.50
14079 56.7847 1143.90 1124.12 35.00
14080 56.7885 1093.40 1124.09 34.60
14081 56.7922 1092.40 1124.06 33.40
14082 56.7960 1086.20 1124.03 34.10
14083 56.7997 1107.50 1124.00 34.10
14084 56.8035 1115.30 1123.98 34.50
14085 56.8072 1140.00 1123.95 34.50
14086 56.8110 1111.60 1123.93 34.40
14087 56.8148 1104.80 1123.91 34.30
14088 56.8185 1099.20 1123.88 34.00
14089 56.8223 1110.60 1123.86 34.20
14090 56.8260 1083.40 1123.84 34.10
14091 56.8298 1142.50 1123.82 34.70
14092 56.8335 1086.50 1123.80 33.50
14093 56.8373 1121.40 1123.79 34.50
14094 56.8410 1134.00 1123.77 34.30
14095 56.8448 1099.50 1123.76 33.80
14096 56.8485 1190.30 1123.74 35.90
14097 56.8523 1150.10 1123.73 35.10
14098 56.8560 1125.10 1123.72 34.10
14099 56.8598 1160.90 1123.72 34.80
14100 56.8636 1177.00 1123.71 35.00
14101 56.8673 1139.10 1123.71 34.90
14102 56.8711 1122.40 1123.70 34.30
14103 56.8748 1153.10 1123.71 35.20
14104 56.8786 1146.30 1123.71 35.10
14105 56.8823 1173.20 1123.71 35.20
14106 56.8861 1115.60 1123.72 34.50
14107 56.8898 1071.50 1123.73 33.70
14108 56.8936 1126.50 1123.75 34.70
14109 56.8974 1067.20 1123.76 34.10
14110 56.9011 1141.30 1123.79 34.80
14111 56.9049 1107.70 1123.81 34.70
14112 56.9086 1031.80 1123.84 32.90
14113 56.9124 1075.50 1123.87 34.30
14114 56.9161 1158.70 1123.91 35.10
14115 56.9199 1107.20 1123.95 34.50
14116 56.9236 1071.80 1124.00 34.10
14117 56.9274 1153.60 1124.06 34.40
14118 56.9311 1051.40 1124.12 33.60
14119 56.9349 1108.30 1124.19 34.40
14120 56.9386 1110.60 1124.27 34.60
14121 56.9424 1136.70 1124.35 34.40
14122 56.9462 1124.60 1124.45 35.00
14123 56.9499 1100.20 1124.55 34.10
14124 56.9537 1098.40 1124.67 34.20
14125 56.9574 1089.70 1124.80 34.20
14126 56.9612 1068.60 1124.94 33.90
14127 56.9649 1135.00 1125.10 34.60
14128 56.9687 1124.00 1125.27 34.90
14129 56.9724 1098.70 1125.47 34.30
14130 56.9762 1122.80 1125.68 34.60
14131 56.9799 1156.70 1125.92 35.10
14132 56.9837 1056.90 1126.18 33.40
14133 56.9874 1156.50 1126.47 35.00
14134 56.9912 1111.20 1126.80 34.70
14135 56.9949 1131.10 1127.16 34.80
14136 56.9968 1133.00 1127.36 34.70
14137 57.0006 1087.30 1127.79 34.30
14138 57.0043 1168.70 1128.27 35.20
14139 57.0081 1036.40 1128.81 33.40
14140 57.0118 1171.70 1129.42 35.30
14141 57.0156 1122.40 1130.11 34.50
14142 57.0194 1113.40 1130.90 34.80
14143 57.0231 1123.40 1131.79 35.00
14144 57.0269 1115.30 1132.82 34.60
14145 57.0306 1129.40 1134.00 34.30
14146 57.0344 1162.10 1135.36 35.60
14147 57.0381 1102.70 1136.95 34.70
14148 57.0419 1135.00 1138.82 34.50
14149 57.0457 1095.10 1141.02 34.10
14150 57.0494 1163.60 1143.64 35.10
14151 57.0532 1113.90 1146.78 34.50
14152 57.0569 1214.80 1150.61 35.90
14153 57.0607 1123.80 1155.31 34.60
14154 57.0644 1230.60 1161.18 36.30
14155 57.0682 1165.40 1168.61 35.30
14156 57.0719 1136.60 1178.22 35.10
14157 57.0757 1224.00 1190.75 36.30
14158 57.0794 1252.40 1207.28 36.60
14159 57.0832 1177.90 1229.27 35.30
14160 57.0870 1298.80 1258.23 37.10
14161 57.0907 1316.00 1295.82 37.60
14162 57.0945 1393.10 1341.93 38.50
14163 57.0982 1476.30 1392.89 39.70
14164 57.1020 1590.70 1437.15 41.20
14165 57.1057 1531.60 1457.06 40.50
14166 57.1095 1455.00 1442.21 39.50
14167 57.1133 1471.20 1400.60 39.40
14168 57.1170 1381.00 1349.62 38.70
14169 57.1208 1277.50 1302.24 37.00
14170 57.1245 1286.60 1263.15 37.00
14171 57.1283 1287.90 1232.83 37.10
14172 57.1320 1188.80 1209.71 34.50
14173 57.1358 1194.00 1192.33 35.80
14174 57.1395 1184.70 1179.13 36.00
14175 57.1433 1184.60 1169.04 35.20
14176 57.1470 1168.10 1161.22 35.00
14177 57.1508 1132.40 1155.02 34.80
14178 57.1546 1133.70 1150.07 34.50
14179 57.1583 1143.60 1146.02 34.90
14180 57.1621 1155.90 1142.69 35.00
14181 57.1658 1151.50 1139.89 35.10
14182 57.1696 1179.80 1137.54 35.60
14183 57.1733 1116.10 1135.53 34.20
14184 57.1771 1114.10 1133.81 34.10
14185 57.1809 1106.00 1132.31 34.40
14186 57.1846 1106.40 1131.01 34.40
14187 57.1884 1100.60 1129.87 34.30
14188 57.1921 1133.50 1128.86 34.80
14189 57.1959 1106.30 1127.96 34.10
14190 57.1996 1173.10 1127.16 34.60
14191 57.2034 1047.50 1126.44 33.20
14192 57.2071 1150.10 1125.80 35.20
14193 57.2109 1127.50 1125.21 34.60
14194 57.2146 1141.60 1124.68 35.20
14195 57.2184 1161.00 1124.19 35.70
14196 57.2221 1127.30 1123.75 35.00
14197 57.2252 1068.50 1123.41 32.70
14198 57.2290 1108.50 1123.03 33.10
14199 57.2327 1113.30 1122.68 33.30
14200 57.2365 1146.90 1122.35 34.10
14201 57.2402 1101.40 1122.04 32.80
14202 57.2440 1122.80 1121.76 33.30
14203 57.2477 1133.60 1121.49 34.20
14204 57.2515 1187.40 1121.24 34.30
14205 57.2552 1059.10 1121.01 32.20
14206 57.2590 1154.90 1120.78 33.60
14207 57.2627 1111.70 1120.58 33.30
14208 57.2665 1154.20 1120.38 33.70
14209 57.2702 1143.40 1120.19 33.90
14210 57.2740 1106.40 1120.01 33.20
14211 57.2778 1102.30 1119.84 33.00
14212 57.2815 1107.40 1119.68 33.20
14213 57.2853 1140.80 1119.52 33.40
14214 57.2890 1128.80 1119.37 33.70
14215 57.2928 1085.40 1119.23 33.00
14216 57.2965 1106.40 1119.09 32.70
14217 57.3003 1096.90 1118.96 33.00
14218 57.3040 1120.00 1118.83 33.30
14219 57.3078 1150.10 1118.71 33.90
14220 57.3115 1137.70 1118.59 33.70
14221 57.3153 1111.90 1118.47 33.10
14222 57.3190 1166.10 1118.36 33.70
14223 57.3228 1099.30 1118.25 33.50
14224 57.3265 1120.60 1118.15 32.70
14225 57.3303 1063.60 1118.04 32.40
14226 57.3341 1067.60 1117.94 32.40
14227 57.3378 1122.20 1117.85 33.20
14228 57.3416 1127.70 1117.75 33.00
14229 57.3453 1180.50 1117.66 35.10
14230 57.3491 1093.00 1117.57 33.00
14231 57.3528 1164.10 1117.48 33.80
14232 57.3566 1068.40 1117.39 32.40
14233 57.3603 1125.90 1117.31 33.10
14234 57.3641 1076.60 1117.22 32.90
14235 57.3678 1113.20 1117.14 33.30
14236 57.3716 1148.30 1117.06 34.10
14237 57.3754 1196.00 1116.98 34.50
14238 57.3791 1129.70 1116.90 33.30
14239 57.3829 1131.40 1116.83 33.70
14240 57.3866 1118.10 1116.75 33.30
14241 57.3904 1131.70 1116.68 33.20
14242 57.3941 1153.60 1116.60 33.90
14243 57.3979 1131.80 1116.53 33.40
14244 57.4016 1144.80 1116.46 33.80
14245 57.4054 1177.50 1116.39 33.90
14246 57.4091 1126.70 1116.32 33.30
14247 57.4129 1152.00 1116.25 33.70
14248 57.4166 1178.10 1116.18 34.10
14249 57.4204 1135.10 1116.12 33.40
14250 57.4241 1129.70 1116.05 33.30
14251 57.4279 1046.70 1115.98 32.40
14252 57.4316 1138.80 1115.92 33.60
14253 57.4354 1114.90 1115.85 33.50
14254 57.4392 1102.50 1115.79 33.10
14255 57.4429 1084.40 1115.73 32.50
14256 57.4467 1148.20 1115.66 34.20
14257 57.4504 1104.00 1115.60 32.70
14258 57.4542 1189.00 1115.54 34.30
14259 57.4579 1086.20 1115.48 32.60
14260 57.4617 1172.40 1115.42 34.20
14261 57.4654 1155.00 1115.36 33.60
14262 57.4692 1144.90 1115.30 34.00
14263 57.4729 1106.90 1115.24 33.40
14264 57.4767 1176.30 1115.18 34.40
14265 57.4805 1142.70 1115.12 33.30
14266 57.4842 1162.10 1115.06 33.70
14267 57.4880 1145.70 1115.00 33.50
14268 57.4917 1173.80 1114.95 34.30
14269 57.4955 1149.90 1114.89 33.80
14270 57.4992 1192.80 1114.83 34.20
14271 57.5030 1088.10 1114.77 32.60
14272 57.5067 1137.10 1114.72 33.70
14273 57.5105 1137.50 1114.66 33.40
14274 57.5143 1154.50 1114.60 33.90
14275 57.5180 1066.00 1114.55 32.50
14276 57.5218 1079.50 1114.49 32.90
14277 57.5255 1116.60 1114.44 33.00
14278 57.5293 1157.40 1114.38 33.60
14279 57.5330 1197.50 1114.33 34.50
14280 57.5368 1140.50 1114.27 33.60
14281 57.5405 1128.70 1114.22 32.60
14282 57.5443 1185.20 1114.16 34.80
14283 57.5480 1113.90 1114.11 33.10
14284 57.5518 1118.60 1114.06 33.10
14285 57.5555 1122.40 1114.00 32.70
14286 57.5593 1095.50 1113.95 32.80
14287 57.5631 1091.00 1113.90 33.00
14288 57.5668 1079.10 1113.84 32.50
14289 57.5706 1114.40 1113.79 33.30
14290 57.5743 1145.80 1113.74 33.80
14291 57.5781 1118.40 1113.68 33.00
14292 57.5818 1116.90 1113.63 32.80
14293 57.5856 1080.30 1113.58 32.80
14294 57.5893 1182.10 1113.17 34.60
14295 57.5931 1203.10 1113.13 34.70
14296 57.5969 1137.10 1113.08 33.80
14297 57.6006 1150.10 1113.03 33.30
14298 57.6044 1097.40 1112.99 32.90
14299 57.6081 1130.30 1112.94 33.80
14300 57.6119 1152.40 1112.89 33.70
14301 57.6156 1127.50 1112.85 33.30
14302 57.6194 1147.90 1112.80 33.40
14303 57.6231 1117.10 1112.75 33.70
14304 57.6306 1133.00 1112.66 33.40
14305 57.6344 1118.30 1112.61 33.50
14306 57.6381 1105.80 1112.57 33.30
14307 57.6419 1129.30 1112.52 32.90
14308 57.6457 1113.30 1112.47 33.60
14309 57.6494 1158.40 1112.43 34.10
14310 57.6532 1116.60 1112.38 33.50
14311 57.6569 1135.40 1112.33 33.40
14312 57.6607 1086.30 1112.29 32.40
14313 57.6644 1136.30 1112.24 33.40
14314 57.6682 1108.70 1112.19 33.50
14315 57.6720 1150.90 1112.14 33.90
14316 57.6757 1112.30 1112.10 33.30
14317 57.6795 1130.40 1112.05 33.80
14318 57.6832 1129.60 1112.00 34.10
14319 57.6870 1123.90 1111.96 34.60
14320 57.6907 1103.70 1111.91 33.90
14321 57.6945 1114.00 1111.86 34.30
14322 57.6982 1142.90 1111.82 34.90
14323 57.7020 1152.00 1111.77 34.90
14324 57.7057 1111.90 1111.72 34.30
14325 57.7095 1109.20 1111.68 34.40
14326 57.7133 1108.60 1111.63 34.40
14327 57.7170 1095.20 1111.58 33.80
14328 57.7208 1090.40 1111.54 34.00
14329 57.7245 1120.30 1111.49 34.40
14330 57.7283 1086.90 1111.44 33.70
14331 57.7320 1158.70 1111.40 35.00
14332 57.7358 1112.20 1111.35 34.30
14333 57.7395 1092.90 1111.30 33.80
14334 57.7433 1154.00 1111.26 34.80
14335 57.7471 1104.60 1111.21 34.40
14336 57.7508 1092.70 1111.16 34.10
14337 57.7546 1167.90 1111.12 34.80
14338 57.7583 1123.40 1111.07 34.70
14339 57.7621 1115.80 1111.02 34.30
14340 57.7658 1142.00 1110.98 34.60
14341 57.7696 1185.90 1110.93 35.40
14342 57.7733 1126.60 1110.88 34.30
14343 57.7771 1220.20 1110.84 36.00
14344 57.7809 1154.60 1110.79 35.00
14345 57.7846 1221.50 1110.74 36.00
14346 57.7884 1112.20 1110.70 34.40
14347 57.7921 1102.80 1110.65 34.40
14348 57.7959 1099.10 1110.60 34.00
14349 57.7996 1124.00 1110.56 34.50
14350 57.8034 1093.30 1110.51 34.10
14351 57.8072 1109.40 1110.46 33.80
14352 57.8109 1111.60 1110.42 34.20
14353 57.8147 1111.00 1110.37 34.30
14354 57.8184 1132.20 1110.33 34.60
14355 57.8222 1150.30 1110.28 34.70
14356 57.8259 1100.90 1110.23 34.10
14357 57.8297 1146.40 1110.19 35.00
14358 57.8334 1090.00 1110.14 34.20
14359 57.8372 1134.40 1110.09 34.60
14360 57.8410 1144.10 1110.05 34.10
14361 57.8447 1120.30 1110.00 34.60
14362 57.8485 1095.40 1109.95 34.80
14363 57.8522 1072.70 1109.91 33.40
14364 57.8560 1105.00 1109.86 34.20
14365 57.8597 1085.70 1109.81 33.80
14366 57.8635 1112.80 1109.77 34.30
14367 57.8672 1216.60 1109.72 36.00
14368 57.8710 1103.50 1109.67 34.30
14369 57.8747 1135.80 1109.63 34.60
14370 57.8785 1100.60 1109.58 34.30
14371 57.8823 1127.70 1109.54 34.70
14372 57.8860 1127.40 1109.49 34.60
14373 57.8898 1096.70 1109.44 34.30
14374 57.8935 1073.40 1109.40 33.70
14375 57.8973 1167.50 1109.35 35.20
14376 57.9011 1124.20 1109.30 34.80
14377 57.9048 1153.10 1109.26 35.40
14378 57.9086 1066.40 1109.21 33.60
14379 57.9123 1146.60 1109.16 34.90
14380 57.9161 1104.50 1109.12 34.30
14381 57.9198 1145.80 1109.07 34.90
14382 57.9236 1114.50 1109.03 34.60
14383 57.9273 1142.20 1108.98 35.00
14384 57.9311 1155.00 1108.93 35.40
14385 57.9348 1104.30 1108.89 34.60
14386 57.9386 1092.50 1108.84 34.00
14387 57.9424 1178.40 1108.79 34.90
14388 57.9461 1179.40 1108.75 36.20
14389 57.9499 1145.10 1108.70 35.00
14390 57.9536 1093.10 1108.65 33.90
14391 57.9574 1114.20 1108.61 34.30
14392 57.9611 1129.10 1108.56 35.20
14393 57.9649 1134.70 1108.52 34.70
14394 57.9687 1041.00 1108.47 33.70
14395 57.9724 1132.70 1108.42 34.70
14396 57.9762 1116.70 1108.38 34.90
14397 57.9799 1127.30 1108.33 34.80
14398 57.9837 1096.50 1108.28 34.40
14399 57.9874 1136.50 1108.24 34.90
14400 57.9912 1105.20 1108.19 34.00
14401 57.9949 1101.90 1108.15 34.50
14402 57.9987 1121.60 1108.10 34.30
14403 58.0025 1105.40 1108.05 34.40
14404 58.0062 1120.90 1108.01 34.90
14405 58.0100 1147.60 1107.96 34.80
14406 58.0137 1094.40 1107.91 34.70
14407 58.0175 1117.50 1107.87 34.30
14408 58.0213 1092.90 1107.82 33.90
14409 58.0250 1128.90 1107.78 35.00
14410 58.0288 1103.50 1107.73 34.20
14411 58.0325 1129.60 1107.68 35.00
14412 58.0363 1146.90 1107.64 35.20
14413 58.0400 1168.10 1107.59 35.40
14414 58.0438 1126.80 1107.55 34.70
14415 58.0476 1092.40 1107.50 35.30
14416 58.0513 1080.10 1107.45 34.40
14417 58.0551 1104.80 1107.41 34.20
14418 58.0588 1143.20 1107.36 34.90
14419 58.0626 1130.80 1107.31 34.90
14420 58.0663 1114.20 1107.27 34.60
14421 58.0701 1125.10 1107.22 34.90
14422 58.0738 1155.00 1107.18 35.40
14423 58.0776 1106.20 1107.13 34.70
14424 58.0814 1131.50 1107.08 35.20
14425 58.0851 1080.10 1107.04 34.20
14426 58.0889 1144.10 1106.99 35.60
14427 58.0926 1162.50 1119.86 35.60
14428 58.0964 1108.80 1120.02 34.10
14429 58.1001 1180.30 1120.18 35.60
14430 58.1039 1177.50 1120.34 36.00
14431 58.1077 1098.30 1120.51 34.40
14432 58.1114 1090.90 1120.69 34.00
14433 58.1152 1145.20 1120.87 34.80
14434 58.1189 1084.10 1121.06 33.70
14435 58.1227 1262.00 1121.25 36.50
14436 58.1264 1138.00 1121.45 35.10
14437 58.1302 1101.80 1121.65 34.70
14438 58.1339 1128.90 1121.86 34.90
14439 58.1377 1094.40 1122.08 34.40
14440 58.1415 1068.50 1122.31 33.30
14441 58.1452 1162.80 1122.54 35.20
14442 58.1490 1134.50 1122.78 35.20
14443 58.1527 1097.90 1123.02 34.30
14444 58.1565 1109.80 1123.28 34.40
14445 58.1603 1201.80 1123.54 35.70
14446 58.1640 1089.60 1123.81 34.50
14447 58.1678 1087.40 1124.09 33.70
14448 58.1715 1122.70 1124.38 34.00
14449 58.1753 1153.50 1124.68 34.70
14450 58.1790 1147.30 1124.98 34.80
14451 58.1828 1163.00 1125.30 34.90
14452 58.1866 1150.60 1125.63 34.90
14453 58.1903 1110.30 1125.97 34.30
14454 58.1941 1088.40 1126.32 34.00
14455 58.1978 1147.30 1126.68 34.40
14456 58.2016 1130.20 1127.06 34.40
14457 58.2053 1192.20 1127.44 35.30
14458 58.2091 1119.70 1127.84 34.50
14459 58.2128 1122.60 1128.26 34.50
14460 58.2166 1157.80 1128.69 35.00
14461 58.2204 1202.90 1129.13 35.30
14462 58.2241 1155.20 1129.59 34.30
14463 58.2279 1182.80 1130.07 35.20
14464 58.2316 1142.80 1130.56 34.50
14465 58.2354 1185.90 1131.07 35.50
14466 58.2392 1140.80 1131.60 34.30
14467 58.2429 1117.70 1132.15 33.80
14468 58.2467 1081.80 1132.71 33.80
14469 58.2504 1134.10 1133.30 34.70
14470 58.2542 1120.70 1133.92 34.00
14471 58.2579 1146.20 1134.55 34.20
14472 58.2617 1106.50 1135.21 34.00
14473 58.2654 1162.00 1135.89 34.70
14474 58.2692 1160.80 1136.60 35.20
14475 58.2730 1143.30 1137.34 34.70
14476 58.2767 1113.70 1138.11 34.00
14477 58.2805 1180.80 1138.91 35.50
14478 58.2842 1127.90 1139.74 34.80
14479 58.2880 1233.60 1140.61 35.90
14480 58.2918 1120.00 1141.51 34.20
14481 58.2955 1235.10 1142.45 36.10
14482 58.2993 1153.30 1143.43 34.80
14483 58.3030 1121.10 1144.45 34.20
14484 58.3068 1122.00 1145.52 34.30
14485 58.3105 1221.10 1146.63 35.50
14486 58.3143 1126.80 1147.80 34.60
14487 58.3181 1188.60 1149.01 35.10
14488 58.3218 1109.70 1150.28 33.80
14489 58.3256 1206.70 1151.61 35.50
14490 58.3293 1159.40 1153.00 35.00
14491 58.3331 1176.20 1154.46 35.20
14492 58.3368 1121.00 1155.99 34.70
14493 58.3406 1241.30 1157.58 36.20
14494 58.3444 1159.50 1159.27 34.10
14495 58.3481 1191.00 1161.03 36.00
14496 58.3519 1152.90 1162.89 35.00
14497 58.3556 1216.70 1164.84 35.50
14498 58.3594 1141.60 1166.90 34.40
14499 58.3632 1276.30 1169.07 36.80
14500 58.3669 1185.40 1171.35 35.50
14501 58.3707 1149.90 1173.76 35.00
14502 58.3744 1193.70 1176.30 35.40
14503 58.3782 1193.20 1179.00 35.60
14504 58.3819 1246.20 1181.84 36.30
14505 58.3857 1164.80 1184.87 35.50
14506 58.3895 1201.50 1188.06 35.90
14507 58.3932 1244.50 1191.46 36.60
14508 58.3970 1180.80 1195.07 35.20
14509 58.4007 1273.20 1198.92 36.90
14510 58.4045 1268.50 1203.01 36.50
14511 58.4082 1300.70 1207.37 37.30
14512 58.4120 1235.70 1212.04 36.70
14513 58.4158 1264.10 1217.04 36.60
14514 58.4195 1247.20 1222.39 36.60
14515 58.4233 1230.70 1228.13 35.90
14516 58.4270 1245.30 1234.29 36.60
14517 58.4308 1225.40 1240.94 36.00
14518 58.4346 1262.80 1248.10 36.60
14519 58.4383 1277.70 1255.82 37.20
14520 58.4421 1266.40 1264.21 36.10
14521 58.4458 1308.70 1273.29 37.60
14522 58.4496 1313.40 1283.19 38.30
14523 58.4533 1236.40 1293.95 36.30
14524 58.4571 1336.90 1305.73 37.30
14525 58.4608 1392.00 1318.59 38.90
14526 58.4646 1407.40 1332.73 39.00
14527 58.4684 1364.50 1348.34 38.30
14528 58.4721 1430.90 1365.55 39.10
14529 58.4759 1465.90 1384.59 39.80
14530 58.4796 1430.20 1405.85 39.30
14531 58.4834 1506.80 1429.54 40.20
14532 58.4872 1473.10 1456.15 39.40
14533 58.4909 1518.20 1486.05 40.50
14534 58.4947 1554.70 1519.81 41.30
14535 58.4984 1572.90 1558.31 41.30
14536 58.5022 1582.60 1602.23 41.20
14537 58.5060 1639.30 1652.81 42.80
14538 58.5097 1686.00 1711.22 42.70
14539 58.5135 1766.30 1779.37 44.30
14540 58.5172 1837.70 1859.04 44.80
14541 58.5210 1967.10 1953.46 45.90
14542 58.5247 2026.60 2066.42 46.20
14543 58.5285 2137.30 2202.48 48.60
14544 58.5323 2309.10 2368.93 50.40
14545 58.5360 2494.60 2574.11 52.30
14546 58.5398 2595.80 2832.07 53.90
14547 58.5435 2993.20 3161.45 56.80
14548 58.5473 3455.60 3586.47 63.50
14549 58.5510 4081.40 4143.31 68.10
14550 58.5548 4772.80 4875.14 74.00
14551 58.5586 6010.70 5835.55 83.00
14552 58.5623 7384.10 7085.21 92.90
14553 58.5661 9391.10 8640.07 107.40
14554 58.5698 11149.10 10414.30 116.90
14555 58.5736 12836.60 12073.10 125.50
14556 58.5774 13322.90 13039.50 128.30
14557 58.5811 13334.10 12840.20 132.00
14558 58.5849 11644.40 11580.10 120.80
14559 58.5886 10000.50 9827.28 108.90
14560 58.5924 7691.90 8104.32 96.20
14561 58.5961 6126.30 6644.35 85.00
14562 58.5999 4834.70 5496.46 75.40
14563 58.6037 4139.20 4615.03 68.60
14564 58.6074 3342.10 3944.64 61.40
14565 58.6112 3045.10 3435.62 57.70
14566 58.6149 2662.50 3044.35 54.40
14567 58.6187 2385.40 2741.36 51.60
14568 58.6225 2182.40 2501.14 49.20
14569 58.6262 2080.60 2309.91 47.80
14570 58.6300 1968.60 2154.32 46.90
14571 58.6337 1925.70 2026.13 46.00
14572 58.6375 1685.30 1919.72 43.30
14573 58.6413 1779.70 1830.15 43.70
14574 58.6450 1640.50 1754.49 41.80
14575 58.6488 1582.40 1689.60 43.10
14576 58.6525 1548.20 1633.85 41.00
14577 58.6563 1526.70 1585.53 40.90
14578 58.6600 1474.20 1543.33 38.90
14579 58.6638 1434.70 1506.39 39.40
14580 58.6676 1461.80 1473.77 39.20
14581 58.6713 1383.90 1444.98 38.60
14582 58.6751 1375.40 1419.26 38.50
14583 58.6788 1477.60 1396.33 40.20
14584 58.6826 1394.10 1375.71 39.20
14585 58.6864 1371.00 1357.18 37.50
14586 58.6901 1315.90 1340.44 37.90
14587 58.6939 1354.50 1325.28 38.40
14588 58.6976 1291.40 1311.45 37.80
14589 58.7014 1315.40 1298.84 38.10
14590 58.7051 1245.40 1287.33 36.40
14591 58.7089 1275.60 1276.75 37.10
14592 58.7127 1307.70 1267.05 37.60
14593 58.7164 1244.30 1258.12 37.10
14594 58.7202 1203.40 1249.89 35.80
14595 58.7239 1259.20 1242.24 37.00
14596 58.7277 1224.30 1235.16 36.10
14597 58.7314 1305.20 1228.59 37.70
14598 58.7352 1226.20 1222.47 36.40
14599 58.7390 1191.60 1216.77 36.10
14600 58.7427 1201.20 1211.45 35.20
14601 58.7465 1259.30 1206.49 36.80
14602 58.7502 1234.70 1201.83 36.80
14603 58.7540 1250.00 1197.46 36.80
14604 58.7578 1214.60 1193.36 36.00
14605 58.7615 1185.30 1189.50 35.50
14606 58.7653 1209.40 1185.87 35.50
14607 58.7690 1253.60 1182.45 36.60
14608 58.7728 1142.90 1179.23 35.10
14609 58.7766 1227.10 1176.17 36.00
14610 58.7803 1180.00 1173.28 35.70
14611 58.7841 1187.10 1170.55 35.50
14612 58.7878 1191.00 1167.96 35.80
14613 58.7916 1249.80 1165.50 36.60
14614 58.7953 1223.60 1163.17 36.40
14615 58.7991 1225.70 1160.94 36.20
14616 58.8029 1134.40 1158.84 35.20
14617 58.8066 1205.70 1156.83 35.50
14618 58.8104 1203.90 1154.91 36.10
14619 58.8141 1145.10 1153.08 35.10
14620 58.8179 1148.80 1151.33 35.30
14621 58.8217 1132.00 1149.67 35.10
14622 58.8254 1166.90 1148.07 34.50
14623 58.8292 1165.40 1146.55 35.40
14624 58.8329 1149.80 1145.08 34.90
14625 58.8367 1160.00 1143.69 35.50
14626 58.8405 1183.40 1142.35 35.30
14627 58.8442 1174.90 1141.06 35.10
14628 58.8480 1149.10 1139.82 35.30
14629 58.8517 1134.00 1138.63 34.80
14630 58.8555 1154.60 1137.49 35.20
14631 58.8592 1147.80 1136.39 35.00
14632 58.8630 1156.10 1135.34 34.90
14633 58.8668 1179.90 1134.32 35.30
14634 58.8705 1153.80 1133.34 35.20
14635 58.8743 1128.60 1132.40 34.70
14636 58.8780 1137.70 1131.49 35.00
14637 58.8818 1117.40 1130.61 34.10
14638 58.8856 1100.80 1129.76 34.40
14639 58.8893 1196.30 1128.94 35.70
14640 58.8931 1134.00 1128.15 34.60
14641 58.8968 1143.20 1127.38 35.10
14642 58.9006 1122.50 1126.64 34.70
14643 58.9044 1196.10 1125.92 35.50
14644 58.9081 1079.00 1125.23 33.80
14645 58.9119 1110.20 1124.56 34.50
14646 58.9156 1139.00 1123.90 34.80
14647 58.9194 1139.70 1123.27 34.90
14648 58.9231 1171.60 1122.66 34.90
14649 58.9269 1145.90 1122.07 35.20
14650 58.9307 1171.00 1121.49 34.90
14651 58.9344 1152.30 1120.93 35.00
14652 58.9382 1097.80 1120.39 34.20
14653 58.9419 1108.90 1119.86 34.00
14654 58.9457 1091.50 1119.34 34.20
14655 58.9495 1088.80 1118.84 34.80
14656 58.9532 1091.00 1118.36 34.10
14657 58.9570 1149.40 1117.88 34.70
14658 58.9607 1067.70 1117.42 33.60
14659 58.9645 1124.70 1116.97 34.60
14660 58.9683 1102.10 1116.54 34.30
14661 58.9720 1121.50 1116.11 34.80
14662 58.9758 1107.30 1115.70 34.10
14663 58.9795 1108.40 1115.29 34.30
14664 58.9833 1083.80 1114.90 33.90
14665 58.9870 1088.60 1114.52 33.90
14666 58.9908 1082.00 1114.14 34.30
14667 58.9946 1134.10 1113.77 34.90
14668 58.9983 1092.10 1113.42 33.80
14669 59.0021 1128.80 1113.07 34.50
14670 59.0058 1120.00 1112.73 34.30
14671 59.0096 1125.50 1112.39 34.40
14672 59.0134 1075.20 1112.06 33.80
14673 59.0171 1124.10 1111.75 34.60
14674 59.0209 1039.80 1111.43 33.30
14675 59.0246 1133.90 1111.13 34.60
14676 59.0284 1122.10 1110.83 34.80
14677 59.0322 1182.10 1110.54 35.30
14678 59.0359 1085.70 1110.25 34.10
14679 59.0397 1162.80 1109.97 35.50
14680 59.0434 1099.30 1109.70 33.60
14681 59.0472 1166.60 1109.43 35.50
14682 59.0509 1176.00 1109.16 35.80
14683 59.0547 1100.60 1108.90 34.40
14684 59.0585 1148.30 1108.65 34.90
14685 59.0622 1115.90 1108.40 34.30
14686 59.0660 1089.90 1095.31 34.30
14687 59.0698 1152.90 1095.26 35.00
14688 59.0735 1109.10 1095.22 34.60
14689 59.0773 1162.60 1095.17 35.80
14690 59.0810 1090.90 1095.13 34.30
14691 59.0848 1102.00 1095.09 34.20
14692 59.0885 1060.30 1095.04 33.80
14693 59.0923 1070.70 1095.00 33.80
14694 59.0961 1144.70 1094.96 35.30
14695 59.0998 1104.90 1094.91 34.20
14696 59.1036 1108.10 1094.87 34.50
14697 59.1073 1091.10 1094.83 34.30
14698 59.1111 1078.80 1094.78 33.90
14699 59.1149 1157.80 1094.74 35.40
14700 59.1186 1113.10 1094.69 34.70
14701 59.1224 1130.00 1094.65 34.60
14702 59.1261 1142.20 1094.61 35.70
14703 59.1299 1152.60 1094.56 34.80
14704 59.1337 1128.30 1094.52 34.80
14705 59.1374 1136.20 1094.48 34.30
14706 59.1412 1104.50 1094.43 33.90
14707 59.1449 1145.30 1094.39 34.20
14708 59.1487 1153.50 1094.35 36.10
14709 59.1525 1097.70 1094.30 34.00
14710 59.1562 1071.60 1094.26 33.40
14711 59.1600 1094.90 1094.22 33.40
14712 59.1637 1078.10 1094.17 33.10
14713 59.1675 1093.50 1094.13 33.50
14714 59.1712 1103.30 1094.09 33.80
14715 59.1750 1092.20 1094.04 34.20
14716 59.1788 1097.80 1094.00 34.00
14717 59.1825 1140.20 1093.96 34.40
14718 59.1863 1137.60 1093.91 34.80
14719 59.1900 1130.00 1093.87 34.40
14720 59.1938 1133.80 1093.83 34.80
14721 59.1976 1122.60 1093.78 34.60
14722 59.2013 1056.90 1093.74 33.60
14723 59.2051 1097.80 1093.70 34.10
14724 59.2088 1088.70 1093.65 33.60
14725 59.2126 1115.70 1093.61 34.60
14726 59.2164 1062.20 1093.57 33.50
14727 59.2201 1131.90 1093.52 34.40
14728 59.2239 1113.80 1093.48 34.70
14729 59.2276 1152.80 1093.44 34.90
14730 59.2314 1064.60 1093.39 33.10
14731 59.2351 1109.10 1093.35 34.40
14732 59.2389 1087.10 1093.31 33.70
14733 59.2427 1121.10 1093.26 34.60
14734 59.2464 1099.00 1093.22 33.50
14735 59.2502 1095.90 1093.18 34.40
14736 59.2539 1134.30 1093.14 34.50
14737 59.2577 1118.40 1093.09 34.70
14738 59.2615 1108.90 1093.05 34.50
14739 59.2652 1115.70 1093.01 34.40
14740 59.2690 1115.50 1092.96 34.20
14741 59.2728 1149.90 1092.92 35.10
14742 59.2765 1119.50 1092.88 34.20
14743 59.2803 1068.40 1092.83 33.40
14744 59.2840 1141.10 1092.79 34.70
14745 59.2878 1189.50 1092.75 35.60
14746 59.2915 1106.20 1092.70 34.20
14747 59.2953 1162.70 1092.66 35.10
14748 59.2991 1140.50 1092.62 34.80
14749 59.3028 1150.00 1092.58 35.20
14750 59.3066 1149.00 1092.53 35.10
14751 59.3103 1114.80 1092.49 34.50
14752 59.3141 1103.80 1092.45 34.50
14753 59.3179 1047.40 1092.40 33.10
14754 59.3216 1124.40 1092.36 34.50
14755 59.3254 1157.00 1092.32 34.90
14756 59.3291 1140.60 1092.28 34.90
14757 59.3329 1120.20 1092.23 34.30
14758 59.3367 1015.00 1092.19 33.00
14759 59.3404 1067.80 1092.15 33.40
14760 59.3442 1078.00 1092.10 33.10
14761 59.3479 1129.50 1092.06 35.50
14762 59.3517 1107.60 1092.02 35.00
14763 59.3554 1167.70 1091.98 34.80
14764 59.3592 1133.20 1091.93 34.90
14765 59.3630 1039.20 1091.89 33.50
14766 59.3667 1139.80 1091.85 34.70
14767 59.3705 1137.60 1091.80 35.10
14768 59.3742 1041.80 1091.76 33.30
14769 59.3780 1131.00 1091.72 34.30
14770 59.3818 1127.80 1091.68 34.30
14771 59.3855 1118.30 1091.63 34.30
14772 59.3893 1170.50 1091.59 35.50
14773 59.3931 1054.00 1091.55 33.80
14774 59.3968 1037.30 1091.51 33.00
14775 59.4006 1116.60 1091.46 34.30
14776 59.4043 1170.80 1091.42 35.60
14777 59.4081 1125.10 1091.38 34.60
14778 59.4118 1046.50 1091.33 33.20
14779 59.4156 1113.10 1091.29 34.20
14780 59.4194 1049.20 1091.25 33.10
14781 59.4231 1089.10 1091.21 33.90
14782 59.4269 1105.10 1091.16 34.30
14783 59.4306 1139.00 1091.12 35.00
14784 59.4344 1080.20 1091.08 34.60
14785 59.4382 1134.90 1091.04 34.90
14786 59.4419 1084.80 1090.99 33.80
14787 59.4457 1044.10 1090.95 32.60
14788 59.4494 1010.30 1090.91 33.50
14789 59.4532 1117.00 1090.87 34.60
14790 59.4570 1116.90 1090.82 34.30
14791 59.4607 1068.10 1090.78 33.00
14792 59.4645 1080.70 1090.74 33.70
14793 59.4682 1171.60 1090.70 35.30
14794 59.4720 1092.50 1090.65 34.00
14795 59.4757 1109.80 1090.61 34.60
14796 59.4795 1143.60 1090.57 34.90
14797 59.4833 1114.60 1090.53 34.60
14798 59.4870 1026.80 1090.49 33.20
14799 59.4908 1110.60 1090.44 34.60
14800 59.4945 1049.10 1090.40 33.30
14801 59.4983 1047.20 1090.36 33.40
14802 59.5021 1093.20 1090.32 34.70
14803 59.5058 1080.10 1090.27 34.10
14804 59.5096 1094.40 1090.23 34.40
14805 59.5134 1125.50 1090.19 34.80
14806 59.5171 1135.70 1090.15 35.10
14807 59.5209 1081.30 1090.10 33.70
14808 59.5246 1066.50 1090.06 33.50
14809 59.5284 1137.40 1090.02 34.80
14810 59.5322 1076.10 1089.98 34.10
14811 59.5359 1094.00 1089.94 34.20
14812 59.5397 1103.20 1089.89 34.10
14813 59.5434 1126.10 1089.85 33.90
14814 59.5472 1058.60 1089.81 34.00
14815 59.5509 1157.00 1089.77 35.70
14816 59.5547 1071.30 1089.72 33.50
14817 59.5585 1131.50 1089.68 34.60
14818 59.5622 1047.30 1089.64 33.50
14819 59.5660 1118.70 1089.60 34.50
14820 59.5697 1102.30 1089.56 34.60
14821 59.5735 1096.30 1089.51 34.20
14822 59.5773 1060.70 1089.47 33.50
14823 59.5810 1139.20 1089.43 34.60
14824 59.5848 1114.80 1089.39 34.40
14825 59.5885 1034.40 1089.35 33.20
14826 59.5923 1051.00 1089.30 33.70
14827 59.5961 1072.80 1089.26 33.80
14828 59.5998 1058.00 1089.22 33.80
14829 59.6036 1103.10 1089.18 34.30
14830 59.6073 1141.30 1089.14 35.00
14831 59.6111 1121.20 1089.09 35.10
14832 59.6149 1090.20 1089.05 34.60
14833 59.6186 1083.00 1089.01 34.50
14834 59.6224 1165.20 1088.97 35.10
14835 59.6261 1130.60 1088.93 34.90
14836 59.6299 1095.50 1088.88 34.00
14837 59.6337 1078.50 1088.84 33.80
14838 59.6374 1117.40 1088.80 34.60
14839 59.6412 1162.60 1088.76 35.40
14840 59.6449 1090.30 1088.72 33.60
14841 59.6487 1095.60 1088.68 34.80
14842 59.6525 1099.30 1088.63 34.50
14843 59.6562 1032.50 1088.59 33.00
14844 59.6600 1083.40 1088.55 34.20
14845 59.6637 1147.90 1088.51 35.30
14846 59.6675 1111.60 1088.47 34.70
14847 59.6712 1108.10 1088.42 34.50
14848 59.6750 1037.70 1088.38 33.70
14849 59.6788 1058.30 1088.34 33.50
14850 59.6825 1094.00 1088.30 34.40
14851 59.6863 1117.90 1088.26 34.60
14852 59.6900 1073.10 1088.22 34.00
14853 59.6938 1076.20 1088.17 33.20
14854 59.6976 1101.40 1088.13 34.20
14855 59.7013 1069.60 1088.09 33.70
14856 59.7051 1094.10 1088.05 34.50
14857 59.7088 1108.60 1088.01 34.60
14858 59.7126 1120.00 1087.97 35.10
14859 59.7164 1106.60 1087.92 34.60
14860 59.7201 1063.80 1087.88 33.90
14861 59.7239 1052.60 1087.84 33.50
14862 59.7276 1156.70 1087.80 35.90
14863 59.7314 1077.20 1087.76 34.00
14864 59.7352 1104.40 1087.72 34.70
14865 59.7389 1060.80 1087.68 33.70
14866 59.7427 1067.50 1087.63 33.90
14867 59.7464 1018.90 1087.59 32.30
14868 59.7502 1101.90 1087.55 34.90
14869 59.7540 1102.60 1087.51 34.30
14870 59.7577 1036.60 1087.47 33.30
14871 59.7615 1132.10 1087.43 35.00
14872 59.7652 1044.90 1087.39 33.30
14873 59.7690 1085.50 1087.34 34.30
14874 59.7728 1048.60 1087.30 33.30
14875 59.7765 1120.10 1087.26 34.50
14876 59.7803 1064.80 1087.22 34.00
14877 59.7840 1095.00 1087.18 34.50
14878 59.7878 1101.70 1087.14 34.60
14879 59.7915 1085.00 1087.10 34.20
14880 59.7953 1062.10 1087.05 34.00
14881 59.7991 1136.70 1087.01 35.20
14882 59.8028 1082.00 1086.97 34.30
14883 59.8066 1146.60 1086.93 35.30
14884 59.8103 1075.20 1086.89 33.90
14885 59.8141 1098.00 1086.85 34.70
14886 59.8179 1080.10 1086.81 33.80
14887 59.8216 1105.20 1086.77 34.70
14888 59.8254 1102.90 1086.72 34.20
14889 59.8291 1142.40 1086.68 35.60
14890 59.8329 1064.60 1086.64 34.10
14891 59.8367 1138.90 1086.60 35.20
14892 59.8404 1129.70 1086.56 35.20
14893 59.8442 1146.00 1086.52 34.40
14894 59.8479 1049.70 1086.48 33.70
14895 59.8517 1094.50 1086.44 35.20
14896 59.8555 1128.70 1086.40 34.60
14897 59.8592 1168.60 1086.35 35.40
14898 59.8630 1097.20 1086.31 34.00
14899 59.8667 1145.40 1086.27 34.80
14900 59.8705 1111.00 1086.23 34.70
14901 59.8743 1087.00 1086.19 34.10
14902 59.8780 1110.10 1086.15 34.80
14903 59.8818 1133.50 1086.11 34.90
14904 59.8855 1052.70 1086.07 33.90
14905 59.8893 1105.70 1086.03 34.90
14906 59.8931 1077.90 1085.99 34.20
14907 59.8968 1135.60 1085.94 34.90
14908 59.9006 1102.80 1085.90 34.60
14909 59.9043 1155.90 1085.86 35.70
14910 59.9081 1102.40 1085.82 34.30
14911 59.9118 1116.10 1085.78 34.80
14912 59.9156 1120.50 1085.74 34.50
14913 59.9194 1058.60 1085.70 33.40
14914 59.9231 1175.60 1085.66 35.70
14915 59.9269 1122.00 1085.62 34.60
14916 59.9306 1096.00 1085.58 34.20
14917 59.9344 1119.60 1085.54 34.30
14918 59.9382 1126.20 1085.50 34.80
14919 59.9419 1133.30 1085.45 35.10
14920 59.9457 1093.40 1085.41 34.10
14921 59.9494 1076.70 1085.37 35.10
14922 59.9532 1072.00 1085.33 34.50
14923 59.9570 1137.30 1085.29 35.00
14924 59.9607 1115.20 1085.25 34.70
14925 59.9645 1083.40 1085.21 33.90
14926 59.9682 1058.00 1085.17 33.90
14927 59.9720 1161.70 1085.13 35.30
14928 59.9758 1115.20 1085.09 34.50
14929 59.9795 1085.20 1085.05 33.90
14930 59.9833 1049.10 1085.01 33.50
14931 59.9870 1062.60 1084.97 33.80
14932 59.9908 1104.90 1084.93 34.60
14933 59.9946 1188.40 1084.88 35.90
14934 59.9983 1109.20 1084.84 34.90
14935 60.0021 1096.60 1084.80 34.40
14936 60.0058 1146.00 1084.76 35.20
14937 60.0096 1118.70 1084.72 34.20
14938 60.0134 1110.20 1084.68 34.00
14939 60.0171 1163.80 1084.64 35.40
14940 60.0209 1132.70 1084.60 35.00
14941 60.0246 1114.60 1084.56 34.80
14942 60.0284 1112.40 1084.52 35.40
14943 60.0322 1041.40 1084.48 33.70
14944 60.0359 1032.00 1084.44 33.30
14945 60.0397 1108.60 1084.40 34.60
14946 60.0434 1113.30 1084.36 35.00
14947 60.0472 1142.30 1084.32 34.90
14948 60.0509 1097.00 1084.28 35.70
14949 60.0547 1118.90 1084.24 34.60
14950 60.0585 1121.30 1084.20 34.80
14951 60.0622 1119.80 1084.16 34.60
14952 60.0660 1055.20 1084.12 33.10
14953 60.0697 1142.90 1084.08 35.50
14954 60.0735 1109.20 1084.04 34.80
14955 60.0773 1174.60 1084.00 36.10
14956 60.0810 1093.00 1083.96 34.50
14957 60.0848 1102.80 1083.92 34.50
14958 60.0885 1084.70 1083.88 34.60
14959 60.0923 1108.30 1083.83 35.00
14960 60.0961 1146.70 1083.79 35.40
14961 60.0998 1056.40 1083.75 34.00
14962 60.1036 1121.20 1083.71 35.00
14963 60.1073 1101.10 1083.67 34.30
14964 60.1111 1034.80 1083.63 33.80
14965 60.1148 1126.80 1083.59 35.00
14966 60.1186 1125.10 1083.55 34.90
14967 60.1224 1104.60 1083.51 34.80
14968 60.1261 1047.70 1083.47 33.70
14969 60.1299 1089.80 1083.43 34.30
14970 60.1337 1141.70 1083.39 35.00
14971 60.1374 1082.90 1083.35 34.10
14972 60.1412 1050.70 1083.31 33.80
14973 60.1449 1083.70 1083.27 34.30
14974 60.1487 1087.80 1083.23 34.80
14975 60.1524 1204.60 1083.19 36.80
14976 60.1562 1090.80 1083.15 34.00
14977 60.1600 1080.70 1083.11 33.50
14978 60.1637 1062.00 1083.07 33.70
14979 60.1675 1064.70 1083.03 33.90
14980 60.1712 1076.60 1082.99 34.00
14981 60.1750 1073.30 1082.95 33.80
14982 60.1788 1124.40 1082.91 35.20
14983 60.1825 1029.60 1082.87 33.60
14984 60.1863 1125.70 1082.83 35.10
14985 60.1900 1133.30 1082.79 35.10
14986 60.1938 1095.00 1082.76 34.40
14987 60.1976 1164.10 1082.72 35.50
14988 60.2013 1111.90 1082.68 35.10
14989 60.2051 1098.20 1082.64 34.40
14990 60.2088 1076.00 1082.60 33.80
14991 60.2126 1128.80 1082.56 35.10
14992 60.2164 1115.30 1082.52 34.90
14993 60.2201 1159.10 1082.48 35.80
14994 60.2239 1112.40 1082.44 34.40
14995 60.2276 1112.30 1082.40 34.80
14996 60.2314 1128.30 1082.36 35.50
14997 60.2351 1038.70 1082.32 32.70
14998 60.2389 1090.10 1082.28 34.10
14999 60.2427 1062.30 1082.24 33.70
15000 60.2464 1064.80 1082.20 33.70
15001 60.2502 1053.80 1082.16 33.70
15002 60.2539 1128.40 1082.12 35.10
15003 60.2577 1118.60 1082.08 34.80
15004 60.2615 1076.60 1082.04 33.80
15005 60.2652 1135.10 1082.00 35.30
15006 60.2690 1074.20 1081.96 33.70
15007 60.2727 1105.70 1081.92 34.70
15008 60.2765 1109.90 1081.88 34.90
15009 60.2803 1181.90 1081.84 35.80
15010 60.2840 1048.40 1081.80 33.80
15011 60.2878 1143.50 1081.76 35.10
15012 60.2915 1075.40 1081.73 34.00
15013 60.2953 1106.80 1081.69 34.70
15014 60.2990 1047.60 1081.65 33.30
15015 60.3028 1091.20 1081.61 34.70
15016 60.3066 1091.30 1081.57 34.30
15017 60.3103 1124.80 1081.53 35.30
15018 60.3141 1091.80 1081.49 34.00
15019 60.3178 1134.20 1081.45 34.90
15020 60.3216 1058.30 1081.41 33.70
15021 60.3254 1009.70 1081.37 33.20
15022 60.3291 1149.40 1081.33 35.00
15023 60.3329 1140.60 1081.29 35.50
15024 60.3366 1124.80 1081.25 35.00
15025 60.3404 1156.30 1081.21 35.70
15026 60.3442 1121.80 1081.17 35.00
15027 60.3479 1124.40 1081.14 33.60
15028 60.3517 1025.30 1081.10 33.90
15029 60.3554 1192.40 1081.06 35.70
15030 60.3592 1035.60 1081.02 33.30
15031 60.3629 1150.50 1080.98 34.70
15032 60.3667 1146.00 1080.94 35.10
15033 60.3705 1102.10 1080.90 34.40
15034 60.3742 1062.40 1080.86 34.20
15035 60.3780 1090.30 1080.82 34.20
15036 60.3817 1090.00 1080.78 34.30
15037 60.3855 1090.10 1080.74 34.30
15038 60.3893 1111.60 1080.71 34.60
15039 60.3930 1045.50 1080.67 33.50
15040 60.3968 1092.90 1080.63 34.40
15041 60.4005 1135.50 1080.59 35.60
15042 60.4043 1045.70 1080.55 33.70
15043 60.4081 1088.80 1080.51 34.50
15044 60.4118 1104.50 1080.47 34.70
15045 60.4156 1121.60 1080.43 34.50
15046 60.4193 1126.80 1080.39 34.60
15047 60.4231 1078.40 1080.35 34.20
15048 60.4268 1045.40 1080.32 33.40
15049 60.4306 1123.80 1080.28 35.00
15050 60.4344 1063.70 1080.24 34.00
15051 60.4381 1050.60 1080.20 33.30
15052 60.4419 1100.50 1080.16 34.40
15053 60.4456 1127.10 1080.12 34.90
15054 60.4494 1128.80 1080.08 34.90
15055 60.4532 1142.80 1080.04 35.10
15056 60.4569 1062.00 1080.01 34.20
15057 60.4607 1123.50 1079.97 35.10
15058 60.4644 1105.10 1079.93 34.90
15059 60.4682 1053.10 1079.89 33.50
15060 60.4720 1107.40 1079.85 35.10
15061 60.4757 1150.70 1079.81 35.50
15062 60.4795 1078.40 1079.77 34.60
15063 60.4832 1134.10 1079.73 35.20
15064 60.4870 1065.90 1079.70 34.40
15065 60.4907 1118.00 1079.66 35.30
15066 60.4945 1138.50 1079.62 34.90
15067 60.4983 1115.40 1079.58 35.20
15068 60.5020 1098.00 1079.54 34.40
15069 60.5058 1125.10 1079.50 35.40
15070 60.5095 1091.00 1079.46 34.60
15071 60.5133 1132.60 1079.43 35.10
15072 60.5171 1144.40 1079.39 34.40
15073 60.5208 1125.40 1079.35 35.10
15074 60.5246 1068.30 1079.31 34.00
15075 60.5283 1142.90 1079.27 35.50
15076 60.5321 1076.40 1079.23 33.50
15077 60.5358 1115.90 1079.20 35.20
15078 60.5396 1092.00 1079.16 34.40
15079 60.5434 1098.40 1079.12 34.40
15080 60.5471 1100.30 1079.08 33.60
15081 60.5509 1131.40 1079.04 36.20
15082 60.5546 1096.60 1079.00 34.80
15083 60.5584 1169.90 1078.96 35.10
15084 60.5621 1041.40 1078.93 33.30
15085 60.5659 1083.60 1078.89 34.00
15086 60.5697 1086.70 1078.85 34.70
15087 60.5734 1075.80 1078.81 34.00
15088 60.5772 1101.00 1078.77 34.30
15089 60.5809 1101.90 1078.74 34.40
15090 60.5847 1150.20 1078.70 35.30
15091 60.5885 1101.70 1078.66 34.50
15092 60.5922 1149.80 1078.62 35.10
15093 60.5960 1169.00 1078.58 34.70
15094 60.5997 1111.10 1078.54 34.60
15095 60.6035 1096.90 1078.51 34.20
15096 60.6073 1098.50 1078.47 34.10
15097 60.6110 1071.50 1078.43 33.70
15098 60.6148 1113.00 1078.39 34.10
15099 60.6185 1117.70 1078.35 34.30
15100 60.6223 1079.70 1078.32 33.90
15101 60.6260 1085.40 1078.28 34.30
15102 60.6298 1122.90 1078.24 34.40
15103 60.6336 1186.60 1078.20 34.80
15104 60.6373 1099.90 1078.16 34.50
15105 60.6411 1095.80 1078.13 34.00
15106 60.6448 1182.20 1078.09 35.50
15107 60.6486 1078.60 1078.05 33.30
15108 60.6524 1101.50 1078.01 35.20
15109 60.6561 1130.50 1077.97 35.00
15110 60.6599 1134.80 1077.94 34.80
15111 60.6636 1097.60 1077.90 34.20
15112 60.6674 1074.40 1077.86 33.90
15113 60.6711 1169.20 1077.82 35.30
15114 60.6749 1108.80 1077.78 34.20
15115 60.6787 1110.50 1077.75 34.40
15116 60.6824 1069.50 1077.71 33.90
15117 60.6862 1112.60 1077.67 34.30
15118 60.6899 1107.60 1077.63 34.50
15119 60.6937 1098.70 1077.59 35.00
15120 60.6974 1081.10 1077.56 33.80
15121 60.7012 1146.80 1077.52 35.20
15122 60.7050 1064.90 1077.48 33.50
15123 60.7087 1149.90 1077.44 35.10
15124 60.7125 1103.70 1077.41 34.50
15125 60.7162 1142.10 1077.37 34.70
15126 60.7200 1161.50 1077.33 35.30
15127 60.7238 1131.90 1077.29 34.70
15128 60.7275 1095.60 1077.26 34.10
15129 60.7313 1132.20 1077.22 34.90
15130 60.7350 1087.80 1077.18 34.20
15131 60.7388 1133.10 1077.14 34.90
15132 60.7425 1137.60 1077.11 34.70
15133 60.7463 1048.70 1077.07 32.80
15134 60.7501 1102.30 1077.03 34.70
15135 60.7538 1044.30 1076.99 33.90
15136 60.7576 1111.60 1076.96 34.50
15137 60.7613 1135.00 1076.92 34.70
15138 60.7651 1019.70 1076.88 32.90
15139 60.7688 1137.10 1076.84 35.00
15140 60.7726 1046.10 1076.81 33.40
15141 60.7764 1114.60 1076.77 34.40
15142 60.7801 1114.00 1076.73 34.70
15143 60.7839 1110.00 1076.69 33.90
15144 60.7876 1133.50 1076.66 34.70
15145 60.7914 1118.80 1076.62 34.60
15146 60.7952 1100.50 1076.58 34.20
15147 60.7989 1055.40 1076.54 33.50
15148 60.8027 1125.60 1076.51 34.20
15149 60.8064 1133.80 1076.47 34.90
15150 60.8102 1099.00 1076.43 34.40
15151 60.8139 1142.50 1076.39 34.40
15152 60.8177 1098.70 1076.36 33.30
15153 60.8215 1078.60 1076.32 33.80
15154 60.8252 1058.20 1076.28 34.00
15155 60.8290 1134.50 1076.25 35.20
15156 60.8327 1037.20 1076.21 33.50
15157 60.8365 1082.60 1076.17 33.80
15158 60.8402 1091.50 1076.13 34.10
15159 60.8440 1058.90 1076.10 33.40
15160 60.8478 1117.90 1076.06 34.00
15161 60.8515 1142.10 1076.02 35.40
15162 60.8553 1118.40 1075.99 34.60
15163 60.8590 1068.60 1075.95 33.80
15164 60.8628 1097.50 1075.91 33.80
15165 60.8666 1120.30 1075.87 34.30
15166 60.8703 1122.90 1075.84 34.50
15167 60.8741 1153.60 1075.80 35.30
15168 60.8778 1066.60 1075.76 33.70
15169 60.8816 1086.30 1075.73 33.80
15170 60.8853 1158.00 1075.69 35.40
15171 60.8891 1079.90 1075.65 33.90
15172 60.8929 1143.40 1075.62 35.00
15173 60.8966 1092.80 1075.58 34.80
15174 60.9004 1136.40 1075.54 35.00
15175 60.9041 1102.40 1075.50 34.70
15176 60.9079 1091.00 1075.47 34.30
15177 60.9116 1056.60 1075.43 33.50
15178 60.9154 1132.00 1075.39 34.50
15179 60.9192 1169.20 1075.36 34.90
15180 60.9229 1108.20 1075.32 34.40
15181 60.9267 1106.40 1075.28 34.50
15182 60.9304 1139.70 1075.25 35.30
15183 60.9342 1131.00 1075.21 35.10
15184 60.9380 1111.90 1075.17 34.60
15185 60.9417 1105.30 1075.14 34.40
15186 60.9455 1086.30 1075.10 34.00
15187 60.9492 1102.40 1075.06 34.00
15188 60.9530 1100.90 1075.03 34.50
15189 60.9567 1159.40 1092.49 35.50
15190 60.9605 1147.00 1092.72 34.60
15191 60.9642 1144.50 1092.95 34.90
15192 60.9680 1102.20 1093.19 34.50
15193 60.9718 1089.60 1093.44 34.20
15194 60.9755 1106.70 1093.69 34.80
15195 60.9793 1161.90 1093.96 35.30
15196 60.9830 1173.50 1094.22 35.70
15197 60.9868 1141.10 1094.50 34.90
15198 60.9906 1150.00 1094.78 35.40
15199 60.9943 1112.10 1095.07 34.80
15200 60.9981 1090.10 1095.37 34.10
15201 61.0018 1117.60 1095.68 34.60
15202 61.0056 1115.50 1096.00 34.50
15203 61.0093 1104.50 1096.32 34.70
15204 61.0131 1123.40 1096.65 34.60
15205 61.0168 1180.00 1097.00 35.50
15206 61.0206 1134.40 1097.35 35.00
15207 61.0244 1058.10 1097.72 33.80
15208 61.0281 1111.60 1098.09 34.20
15209 61.0319 1165.70 1098.47 35.50
15210 61.0356 1111.70 1098.87 34.50
15211 61.0394 1032.40 1099.28 33.10
15212 61.0432 1153.60 1099.70 35.40
15213 61.0469 1148.30 1100.13 34.70
15214 61.0507 1073.40 1100.58 34.50
15215 61.0544 1147.20 1101.04 35.00
15216 61.0582 1121.40 1101.51 34.40
15217 61.0619 1091.90 1102.00 33.40
15218 61.0657 1104.50 1102.50 34.30
15219 61.0695 1126.00 1103.02 34.40
15220 61.0732 1112.90 1103.56 34.90
15221 61.0770 1124.60 1104.11 34.80
15222 61.0807 1148.20 1104.68 34.40
15223 61.0845 1151.70 1105.27 34.90
15224 61.0882 1152.00 1105.87 34.10
15225 61.0920 1099.90 1106.50 34.20
15226 61.0957 1140.00 1107.15 34.90
15227 61.0995 1173.10 1107.82 35.10
15228 61.1033 1198.30 1108.51 35.90
15229 61.1070 1185.60 1109.23 35.50
15230 61.1108 1206.00 1109.97 35.90
15231 61.1145 1158.10 1110.73 35.20
15232 61.1183 1127.70 1111.53 34.30
15233 61.1221 1145.10 1112.35 35.00
15234 61.1258 1122.90 1113.20 34.10
15235 61.1296 1173.50 1114.08 35.70
15236 61.1333 1122.60 1114.99 34.50
15237 61.1371 1179.80 1115.93 35.30
15238 61.1408 1134.50 1116.92 35.10
15239 61.1446 1220.50 1117.93 36.00
15240 61.1483 1177.70 1118.99 34.90
15241 61.1521 1186.70 1120.08 36.50
15242 61.1559 1141.70 1121.22 35.00
15243 61.1596 1189.90 1122.41 35.40
15244 61.1634 1239.90 1123.64 36.10
15245 61.1671 1161.50 1124.92 35.60
15246 61.1709 1090.10 1126.25 34.10
15247 61.1746 1140.70 1127.63 34.70
15248 61.1784 1216.10 1129.08 36.00
15249 61.1822 1194.40 1130.58 35.60
15250 61.1859 1209.40 1132.15 36.60
15251 61.1897 1199.70 1133.79 35.60
15252 61.1934 1134.80 1135.49 35.10
15253 61.1972 1155.80 1137.28 35.10
15254 61.2009 1157.80 1139.14 34.80
15255 61.2047 1129.80 1141.08 34.70
15256 61.2085 1216.60 1143.12 36.00
15257 61.2122 1188.70 1145.26 35.40
15258 61.2160 1184.80 1147.49 35.30
15259 61.2197 1240.50 1149.83 36.30
15260 61.2235 1204.10 1152.29 35.90
15261 61.2272 1251.40 1154.87 35.90
15262 61.2310 1197.80 1157.58 35.90
15263 61.2347 1301.60 1160.43 37.60
15264 61.2385 1211.30 1163.42 36.10
15265 61.2423 1235.20 1166.58 36.40
15266 61.2460 1273.20 1169.90 36.20
15267 61.2498 1233.00 1173.41 36.00
15268 61.2535 1279.10 1177.13 37.60
15269 61.2573 1224.40 1181.04 36.00
15270 61.2610 1223.60 1185.18 36.40
15271 61.2648 1233.00 1189.57 36.50
15272 61.2686 1246.90 1194.22 36.20
15273 61.2723 1326.20 1199.15 37.50
15274 61.2761 1267.00 1204.41 36.90
15275 61.2798 1323.00 1209.98 37.80
15276 61.2836 1209.00 1215.92 35.90
15277 61.2873 1323.50 1222.25 38.00
15278 61.2911 1259.20 1229.03 36.80
15279 61.2948 1269.20 1236.27 36.50
15280 61.2986 1261.50 1244.01 37.00
15281 61.3024 1384.10 1252.34 38.80
15282 61.3061 1267.40 1261.27 36.90
15283 61.3099 1362.80 1270.91 38.60
15284 61.3136 1332.10 1281.29 37.60
15285 61.3174 1346.60 1292.47 37.80
15286 61.3211 1305.20 1304.61 37.20
15287 61.3249 1373.60 1317.79 38.70
15288 61.3287 1362.70 1332.08 38.30
15289 61.3324 1451.80 1347.67 39.70
15290 61.3362 1404.10 1364.67 39.20
15291 61.3399 1411.10 1383.35 38.90
15292 61.3437 1501.10 1403.87 40.40
15293 61.3474 1513.70 1426.38 39.50
15294 61.3512 1473.00 1451.30 40.60
15295 61.3549 1537.30 1478.97 41.10
15296 61.3587 1573.50 1509.63 41.20
15297 61.3625 1616.40 1543.92 42.00
15298 61.3662 1549.70 1582.29 40.50
15299 61.3700 1723.80 1625.55 43.40
15300 61.3737 1723.00 1674.38 43.30
15301 61.3775 1741.50 1730.08 43.40
15302 61.3812 1758.00 1793.73 43.40
15303 61.3850 1929.20 1866.62 46.10
15304 61.3887 1995.70 1951.06 46.70
15305 61.3925 2004.30 2049.17 46.50
15306 61.3963 2093.70 2164.67 47.60
15307 61.4000 2343.40 2300.74 51.20
15308 61.4038 2302.80 2463.32 50.70
15309 61.4075 2512.00 2659.52 52.30
15310 61.4113 2700.60 2897.45 54.20
15311 61.4150 3008.30 3190.83 58.10
15312 61.4188 3273.70 3555.67 60.70
15313 61.4226 3779.60 4017.71 64.80
15314 61.4263 4338.60 4605.73 70.60
15315 61.4301 5301.70 5366.20 78.40
15316 61.4338 6306.50 6357.36 86.70
15317 61.4376 8088.30 7642.04 98.50
15318 61.4413 9713.40 9292.52 108.40
15319 61.4451 12594.20 11318.50 126.20
15320 61.4488 14866.10 13589.50 134.70
15321 61.4526 16917.00 15644.10 150.50
15322 61.4563 17516.80 16769.10 152.00
15323 61.4601 17015.00 16418.20 147.00
15324 61.4639 15041.10 14776.10 137.90
15325 61.4676 12555.10 12540.30 125.50
15326 61.4714 10109.90 10351.70 111.30
15327 61.4751 8205.20 8490.18 99.80
15328 61.4789 6253.20 7014.85 85.70
15329 61.4826 5038.10 5872.43 76.60
15330 61.4864 4382.60 4996.64 71.20
15331 61.4902 3759.80 4318.97 65.40
15332 61.4939 3364.20 3793.61 61.90
15333 61.4977 3084.70 3378.52 58.80
15334 61.5014 2836.30 3048.33 56.20
15335 61.5052 2439.90 2782.28 51.90
15336 61.5089 2247.70 2564.20 50.00
15337 61.5127 2116.90 2384.79 48.00
15338 61.5164 2062.40 2234.84 47.80
15339 61.5202 2004.40 2108.81 46.80
15340 61.5239 1926.60 2001.61 45.80
15341 61.5277 1816.40 1910.03 44.20
15342 61.5315 1811.30 1830.84 44.70
15343 61.5352 1662.50 1762.40 42.80
15344 61.5390 1619.90 1702.46 42.20
15345 61.5427 1703.00 1650.05 43.40
15346 61.5465 1592.00 1603.73 41.10
15347 61.5502 1504.30 1562.75 40.60
15348 61.5540 1482.30 1526.14 40.20
15349 61.5577 1481.30 1493.52 39.50
15350 61.5615 1397.50 1464.19 38.10
15351 61.5653 1428.20 1437.82 38.80
15352 61.5690 1393.30 1413.90 38.90
15353 61.5728 1422.40 1392.24 39.00
15354 61.5765 1355.70 1372.59 38.10
15355 61.5803 1374.70 1354.65 37.50
15356 61.5840 1340.10 1338.19 37.80
15357 61.5878 1382.60 1323.15 38.60
15358 61.5915 1390.00 1309.28 39.20
15359 61.5953 1297.00 1296.55 37.10
15360 61.5990 1400.50 1284.78 39.30
15361 61.6028 1322.30 1273.90 37.10
15362 61.6066 1289.70 1263.80 36.80
15363 61.6103 1280.90 1254.44 37.20
15364 61.6141 1307.40 1245.70 37.70
15365 61.6178 1286.40 1237.58 37.10
15366 61.6216 1254.70 1230.00 37.00
15367 61.6253 1200.40 1222.91 35.80
15368 61.6291 1206.40 1216.26 35.80
15369 61.6328 1251.00 1210.04 36.80
15370 61.6366 1243.90 1204.19 37.00
15371 61.6404 1256.50 1198.70 36.90
15372 61.6441 1175.90 1193.53 35.30
15373 61.6479 1272.20 1188.66 36.50
15374 61.6516 1262.90 1184.06 37.20
15375 61.6554 1167.10 1179.72 35.00
15376 61.6591 1198.90 1175.60 35.90
15377 61.6629 1200.20 1171.72 35.00
15378 61.6666 1252.90 1168.04 36.70
15379 61.6704 1286.00 1164.54 36.90
15380 61.6741 1174.50 1161.22 35.40
15381 61.6779 1271.40 1158.07 36.80
15382 61.6816 1157.50 1155.07 35.70
15383 61.6854 1239.90 1152.21 36.40
15384 61.6892 1176.40 1149.50 35.30
15385 61.6929 1213.90 1146.90 36.10
15386 61.6967 1200.70 1144.43 35.60
15387 61.7004 1228.40 1142.07 36.60
15388 61.7042 1193.60 1139.81 35.70
15389 61.7079 1145.50 1137.65 35.40
15390 61.7117 1141.00 1135.59 34.60
15391 61.7154 1186.90 1133.61 36.10
15392 61.7192 1151.50 1131.71 34.90
15393 61.7229 1156.80 1129.90 35.10
15394 61.7267 1124.90 1128.15 34.20
15395 61.7305 1214.20 1126.48 36.30
15396 61.7342 1174.00 1124.87 35.60
15397 61.7380 1185.40 1123.32 35.80
15398 61.7417 1175.20 1121.84 35.80
15399 61.7455 1156.60 1120.41 35.10
15400 61.7492 1120.80 1119.03 33.90
15401 61.7530 1101.50 1117.70 34.90
15402 61.7567 1107.50 1116.43 34.50
15403 61.7605 1177.30 1115.20 35.80
15404 61.7643 1136.20 1114.00 34.90
15405 61.7680 1119.70 1112.86 34.50
15406 61.7718 1179.70 1111.75 35.40
15407 61.7755 1109.50 1110.68 34.50
15408 61.7793 1140.30 1109.65 35.50
15409 61.7830 1102.00 1108.65 34.30
15410 61.7868 1146.70 1107.68 34.80
15411 61.7905 1120.30 1106.75 35.00
15412 61.7943 1142.80 1105.84 35.30
15413 61.7980 1133.90 1104.96 34.90
15414 61.8018 1119.00 1104.11 34.60
15415 61.8055 1070.00 1103.29 33.80
15416 61.8093 1120.50 1102.49 34.90
15417 61.8130 1110.20 1101.72 34.30
15418 61.8168 1119.60 1100.97 34.60
15419 61.8206 1155.50 1100.24 34.90
15420 61.8243 1114.80 1099.53 34.50
15421 61.8281 1139.20 1098.84 35.40
15422 61.8318 1106.00 1098.17 34.80
15423 61.8356 1162.20 1097.52 35.30
15424 61.8393 1074.50 1096.89 34.40
15425 61.8431 1164.10 1096.28 35.40
15426 61.8468 1098.10 1095.68 34.00
15427 61.8506 1152.20 1095.10 35.00
15428 61.8543 1121.10 1094.54 35.10
15429 61.8581 1184.80 1093.99 36.00
15430 61.8619 1131.80 1093.45 34.60
15431 61.8656 1070.10 1092.93 33.30
15432 61.8694 1154.10 1092.42 35.30
15433 61.8731 1131.20 1091.92 34.80
15434 61.8769 1091.10 1091.44 34.20
15435 61.8806 1113.20 1090.97 34.50
15436 61.8844 1110.00 1090.51 34.50
15437 61.8881 1154.20 1090.06 35.30
15438 61.8919 1129.20 1089.62 35.00
15439 61.8956 1116.50 1089.19 34.40
15440 61.8994 1121.70 1088.77 34.90
15441 61.9031 1099.80 1088.36 34.30
15442 61.9069 1104.00 1087.96 34.80
15443 61.9106 1148.70 1087.57 35.30
15444 61.9144 1147.90 1087.19 35.30
15445 61.9182 1104.30 1086.82 34.50
15446 61.9219 1121.80 1086.46 35.40
15447 61.9257 1120.80 1086.10 34.80
15448 61.9294 1117.50 1085.75 35.20
15449 61.9332 1118.50 1085.41 35.20
15450 61.9369 1182.80 1085.08 35.90
15451 61.9407 1092.90 1084.75 34.30
15452 61.9444 1112.00 1084.43 34.60
15453 61.9482 1109.50 1084.11 34.10
15454 61.9519 1091.40 1083.81 34.60
15455 61.9557 1128.70 1083.51 35.20
15456 61.9594 1133.30 1083.21 35.10
15457 61.9632 1097.20 1065.77 33.90
15458 61.9669 1094.60 1065.73 34.50
15459 61.9707 1111.50 1065.70 34.60
15460 61.9744 1079.50 1065.67 33.60
15461 61.9782 1132.10 1065.64 35.30
15462 61.9820 1079.80 1065.61 34.30
15463 61.9857 1126.60 1065.57 34.50
15464 61.9895 1109.00 1065.54 34.80
15465 61.9932 1020.70 1065.51 32.80
15466 61.9952 1055.60 1065.49 33.50
15467 61.9989 1081.70 1065.46 34.20
15468 62.0027 1058.90 1065.43 33.40
15469 62.0064 1083.00 1065.40 34.20
15470 62.0102 1086.90 1065.37 34.00
15471 62.0140 1099.70 1065.33 34.20
15472 62.0177 1062.40 1065.30 33.40
15473 62.0215 1016.60 1065.27 33.10
15474 62.0252 1129.90 1065.24 35.10
15475 62.0290 1094.40 1065.21 34.40
15476 62.0327 1086.60 1065.17 34.30
15477 62.0365 1087.30 1065.14 33.70
15478 62.0402 1154.20 1065.11 35.40
15479 62.0440 1135.60 1065.08 35.00
15480 62.0477 1074.60 1065.05 33.50
15481 62.0515 1049.10 1065.02 32.80
15482 62.0553 1135.40 1064.98 34.40
15483 62.0590 1134.40 1064.95 34.90
15484 62.0628 1031.20 1064.92 33.00
15485 62.0665 1121.00 1064.89 34.60
15486 62.0703 1044.40 1064.86 32.50
15487 62.0740 1095.90 1064.82 34.10
15488 62.0778 1039.70 1064.79 33.30
15489 62.0815 1103.40 1064.76 34.80
15490 62.0853 1061.10 1064.73 33.50
15491 62.0891 1176.20 1064.70 35.90
15492 62.0928 1073.20 1064.67 33.30
15493 62.0966 1134.30 1064.63 34.40
15494 62.1003 1092.60 1064.60 34.30
15495 62.1041 1061.80 1064.57 33.80
15496 62.1078 1089.20 1064.54 34.10
15497 62.1116 1143.40 1064.51 35.30
15498 62.1153 1072.10 1064.48 33.70
15499 62.1191 1088.00 1064.45 34.00
15500 62.1228 1046.80 1064.41 33.50
15501 62.1266 1098.10 1064.38 34.70
15502 62.1304 1122.00 1064.35 34.80
15503 62.1341 1046.20 1064.32 33.20
15504 62.1379 1135.30 1064.29 34.40
15505 62.1416 1073.90 1064.26 34.20
15506 62.1454 1078.20 1064.23 33.60
15507 62.1491 1099.10 1064.19 34.30
15508 62.1529 1103.80 1064.16 33.50
15509 62.1566 1120.20 1064.13 34.70
15510 62.1604 1095.60 1064.10 34.00
15511 62.1642 1031.90 1064.07 33.10
15512 62.1679 1115.40 1064.04 34.40
15513 62.1717 1078.90 1064.01 34.40
15514 62.1754 1109.00 1063.98 34.40
15515 62.1792 1127.30 1063.94 34.50
15516 62.1829 1102.60 1063.91 34.30
15517 62.1867 1071.50 1063.88 33.60
15518 62.1904 1059.40 1063.85 33.90
15519 62.1942 1078.00 1063.82 33.80
15520 62.1979 1146.60 1063.79 35.40
15521 62.2017 1106.00 1063.76 34.00
15522 62.2054 1020.30 1063.73 33.30
15523 62.2092 1089.70 1063.70 33.90
15524 62.2130 1087.60 1063.66 34.00
15525 62.2167 1059.30 1063.63 33.10
15526 62.2205 1114.40 1063.60 34.80
15527 62.2242 1080.90 1063.57 34.10
15528 62.2243 1065.60 1063.57 33.70
15529 62.2281 1049.80 1063.54 33.70
15530 62.2318 1083.00 1063.51 34.70
15531 62.2356 1056.90 1063.48 33.60
15532 62.2393 1087.70 1063.45 34.50
15533 62.2431 1053.30 1063.42 33.90
15534 62.2468 1092.00 1063.38 34.30
15535 62.2506 1113.00 1063.35 35.10
15536 62.2543 1084.20 1063.32 34.80
15537 62.2581 1102.30 1063.29 34.50
15538 62.2618 1091.60 1063.26 34.60
15539 62.2656 1089.30 1063.23 35.00
15540 62.2693 1078.20 1063.20 33.30
15541 62.2731 1105.10 1063.17 34.60
15542 62.2768 1073.80 1063.14 34.40
15543 62.2806 1036.90 1063.11 33.50
15544 62.2844 1111.50 1063.08 34.30
15545 62.2881 1096.30 1063.05 34.20
15546 62.2919 1070.40 1063.02 33.90
15547 62.2956 1098.90 1062.98 34.60
15548 62.2994 1108.50 1062.95 35.30
15549 62.3031 1072.60 1062.92 34.00
15550 62.3069 1068.40 1062.89 34.30
15551 62.3106 1115.80 1062.86 35.10
15552 62.3144 1097.30 1062.83 34.50
15553 62.3181 1143.20 1062.80 35.60
15554 62.3219 1115.00 1062.77 35.00
15555 62.3256 1092.60 1062.74 34.40
15556 62.3294 1061.60 1062.71 33.60
15557 62.3331 1128.90 1062.68 34.90
15558 62.3369 1039.60 1062.65 33.90
15559 62.3406 1033.40 1062.62 34.00
15560 62.3444 1093.10 1062.59 34.30
15561 62.3481 1090.50 1062.56 34.10
15562 62.3519 1086.70 1062.69 35.30
15563 62.3557 1028.30 1062.66 33.50
15564 62.3594 1034.60 1062.63 33.70
15565 62.3632 1125.20 1062.60 34.90
15566 62.3669 1075.90 1062.58 34.00
15567 62.3707 1077.50 1062.55 34.30
15568 62.3744 1072.40 1062.52 34.30
15569 62.3782 1085.40 1062.49 34.10
15570 62.3819 1093.10 1062.46 34.30
15571 62.3857 1039.30 1062.44 33.70
15572 62.3894 1114.30 1062.41 34.80
15573 62.3932 1025.60 1062.38 33.40
15574 62.3969 1047.90 1062.36 33.50
15575 62.4007 1093.40 1062.33 34.40
15576 62.4044 1080.60 1062.30 34.20
15577 62.4082 1069.60 1062.27 34.20
15578 62.4120 1057.80 1062.25 34.00
15579 62.4157 1125.30 1062.22 34.40
15580 62.4195 1054.70 1062.19 33.80
15581 62.4232 1100.60 1062.17 34.60
15582 62.4270 1030.80 1062.14 33.30
15583 62.4307 1061.40 1062.12 34.00
15584 62.4345 1060.30 1062.09 33.70
15585 62.4382 1074.60 1062.06 34.60
15586 62.4420 1059.60 1062.04 33.60
15587 62.4457 1121.70 1062.01 34.90
15588 62.4495 1009.20 1061.99 32.70
15589 62.4533 1098.90 1061.96 34.90
15590 62.4570 1104.30 1061.93 34.50
15591 62.4608 1076.40 1061.91 34.20
15592 62.4645 1119.80 1061.88 34.40
15593 62.4683 1096.80 1061.86 34.40
15594 62.4720 1019.90 1061.83 33.10
15595 62.4758 1114.50 1061.81 34.30
15596 62.4795 1100.60 1061.79 34.70
15597 62.4833 1081.10 1061.76 34.70
15598 62.4870 1026.60 1061.74 33.10
15599 62.4908 1117.70 1061.71 35.00
15600 62.4945 1140.80 1061.69 35.10
15601 62.4983 1115.40 1061.67 34.90
15602 62.5020 1061.20 1061.64 34.10
15603 62.5058 1061.40 1061.62 33.80
15604 62.5096 1032.30 1061.60 33.90
15605 62.5133 1041.10 1061.57 33.50
15606 62.5171 1072.80 1061.55 34.30
15607 62.5208 1064.20 1061.53 34.00
15608 62.5246 1061.20 1061.51 34.30
15609 62.5283 1049.40 1061.49 33.50
15610 62.5321 1123.20 1061.46 35.30
15611 62.5358 1079.40 1061.44 34.50
15612 62.5396 1017.90 1061.42 33.10
15613 62.5434 1074.20 1061.40 33.80
15614 62.5471 1104.60 1061.38 34.30
15615 62.5508 1096.30 1061.36 34.60
15616 62.5546 1056.70 1061.34 34.30
15617 62.5584 1081.70 1061.32 34.10
15618 62.5621 1078.30 1061.31 33.90
15619 62.5659 1094.30 1061.29 34.60
15620 62.5696 1082.10 1061.27 34.00
15621 62.5734 1072.20 1061.25 34.00
15622 62.5771 1069.30 1061.24 34.10
15623 62.5809 1055.80 1061.22 33.70
15624 62.5846 1057.70 1061.21 34.00
15625 62.5884 1121.30 1061.19 34.50
15626 62.5922 1060.80 1061.18 34.10
15627 62.5959 1086.80 1061.16 34.30
15628 62.5997 1086.60 1061.15 34.60
15629 62.6034 1079.10 1061.14 33.70
15630 62.6072 1071.20 1061.13 33.70
15631 62.6109 1048.80 1061.11 33.60
15632 62.6147 1110.70 1061.10 34.70
15633 62.6184 1130.30 1061.10 35.20
15634 62.6222 1060.50 1061.09 34.00
15635 62.6259 1076.70 1061.08 33.60
15636 62.6297 1069.80 1061.07 33.80
15637 62.6334 1148.40 1061.07 35.00
15638 62.6372 1032.70 1061.07 33.40
15639 62.6410 1068.90 1061.06 33.90
15640 62.6447 1104.00 1061.06 33.90
15641 62.6485 1044.30 1061.06 33.10
15642 62.6522 1121.30 1061.07 34.80
15643 62.6560 1116.20 1061.07 35.20
15644 62.6597 1058.60 1061.07 33.80
15645 62.6635 1070.30 1061.08 33.40
15646 62.6672 1044.10 1061.09 33.50
15647 62.6710 1065.80 1061.10 33.60
15648 62.6748 1066.40 1061.12 33.90
15649 62.6785 1142.60 1061.14 35.50
15650 62.6823 1098.90 1061.15 34.60
15651 62.6860 1073.60 1061.18 34.30
15652 62.6898 1065.10 1061.20 34.20
15653 62.6935 1059.10 1061.23 33.80
15654 62.6973 1085.40 1061.27 34.20
15655 62.7010 1079.80 1061.30 34.10
15656 62.7048 1020.90 1061.35 33.10
15657 62.7085 1083.30 1061.39 34.30
15658 62.7123 1112.60 1061.45 34.70
15659 62.7161 1129.80 1061.51 34.80
15660 62.7198 1019.60 1061.57 33.30
15661 62.7236 1032.40 1061.64 33.80
15662 62.7273 1077.40 1061.73 33.80
15663 62.7311 1093.40 1061.82 34.40
15664 62.7348 1073.80 1061.92 34.10
15665 62.7386 1067.90 1062.03 34.30
15666 62.7423 1019.00 1062.15 32.80
15667 62.7461 1102.40 1062.29 34.40
15668 62.7499 1032.00 1062.44 33.00
15669 62.7536 1098.30 1062.62 35.00
15670 62.7574 1102.50 1062.81 34.20
15671 62.7611 1083.40 1063.02 34.30
15672 62.7649 1059.60 1063.27 33.90
15673 62.7686 1071.70 1063.54 34.10
15674 62.7724 1087.70 1063.84 34.10
15675 62.7761 1099.80 1064.19 34.70
15676 62.7799 1051.50 1064.59 33.80
15677 62.7836 1067.50 1065.04 33.90
15678 62.7874 1027.70 1065.55 33.50
15679 62.7912 1039.40 1066.14 33.80
15680 62.7949 1084.00 1066.83 34.70
15681 62.7987 1052.00 1067.62 34.00
15682 62.8024 1039.60 1068.56 33.90
15683 62.8062 1132.70 1069.65 35.50
15684 62.8099 1107.50 1070.95 34.70
15685 62.8137 1070.50 1072.51 34.10
15686 62.8174 1071.40 1074.38 34.30
15687 62.8212 1142.10 1076.67 35.60
15688 62.8250 1109.30 1079.49 34.80
15689 62.8287 1116.70 1083.00 34.70
15690 62.8325 1104.30 1087.43 34.80
15691 62.8362 1136.20 1093.07 35.30
15692 62.8400 1103.70 1100.33 34.80
15693 62.8437 1103.30 1109.70 34.50
15694 62.8475 1080.00 1121.82 34.30
15695 62.8512 1146.30 1137.22 35.10
15696 62.8550 1233.10 1155.82 37.10
15697 62.8588 1196.30 1176.28 35.60
15698 62.8625 1171.70 1194.35 35.40
15699 62.8663 1238.50 1203.87 37.00
15700 62.8700 1201.50 1200.41 36.20
15701 62.8738 1297.90 1185.62 38.00
15702 62.8775 1171.00 1165.61 35.80
15703 62.8813 1131.90 1145.72 35.30
15704 62.8850 1139.20 1128.66 35.50
15705 62.8888 1127.50 1114.92 35.20
15706 62.8926 1125.40 1104.22 35.50
15707 62.8963 1029.70 1095.95 33.70
15708 62.9001 1049.90 1089.51 34.20
15709 62.9038 1102.20 1084.48 35.00
15710 62.9076 1110.60 1080.50 35.00
15711 62.9113 1052.90 1077.30 34.30
15712 62.9151 1100.90 1074.72 34.10
15713 62.9188 1099.00 1072.60 34.60
15714 62.9226 1118.50 1070.84 34.90
15715 62.9264 1032.00 1069.37 33.70
15716 62.9301 1101.70 1068.12 35.00
15717 62.9339 1095.60 1067.06 34.90
15718 62.9376 1068.00 1066.14 34.60
15719 62.9414 1036.00 1065.35 33.80
15720 62.9451 1113.20 1064.66 35.20
15721 62.9489 1061.30 1064.05 34.00
15722 62.9526 1063.10 1063.51 34.90
15723 62.9564 1072.10 1063.03 34.40
15724 62.9602 1093.10 1062.61 34.80
15725 62.9639 1098.40 1062.23 34.80
15726 62.9677 1037.00 1061.88 33.70
15727 62.9714 1016.90 1061.57 33.30
15728 62.9752 1116.90 1061.28 35.20
15729 62.9789 1093.20 1061.02 35.00
15730 62.9827 1071.70 1060.79 33.80
15731 62.9865 1037.40 1060.57 34.20
15732 62.9902 1129.60 1060.37 35.00
15733 62.9940 1109.90 1060.18 35.20
15734 62.9977 1063.80 1060.00 34.50
15735 63.0015 1040.90 1059.84 33.70
15736 63.0052 1083.20 1059.69 34.00
15737 63.0090 1112.50 1059.55 34.70
15738 63.0127 1063.60 1059.41 33.80
15739 63.0165 1072.10 1059.29 34.40
15740 63.0203 1098.20 1059.17 34.60
15741 63.0240 1093.80 1059.06 34.50
15742 63.0278 1099.10 1058.95 34.30
15743 63.0315 1107.50 1058.85 35.00
15744 63.0353 1081.30 1058.75 34.60
15745 63.0390 1054.10 1058.66 34.40
15746 63.0428 1054.10 1058.57 34.40
15747 63.0466 1094.50 1058.49 34.40
15748 63.0503 1085.40 1058.41 34.50
15749 63.0541 1054.70 1058.33 35.30
15750 63.0578 1053.90 1058.26 34.30
15751 63.0616 1126.40 1058.18 35.50
15752 63.0653 1093.30 1058.11 34.40
15753 63.0691 1112.00 1058.05 35.20
15754 63.0728 1066.80 1057.98 34.80
15755 63.0766 1045.90 1057.92 34.10
15756 63.0804 1096.10 1057.86 33.90
15757 63.0841 1076.10 1057.80 34.70
15758 63.0879 1036.90 1057.74 33.70
15759 63.0916 1074.20 1057.68 34.70
15760 63.0954 1138.40 1057.63 35.70
15761 63.0991 1044.20 1057.58 34.30
15762 63.1029 1063.80 1057.52 33.60
15763 63.1067 1066.00 1057.47 34.40
15764 63.1104 1041.50 1057.42 33.80
15765 63.1142 1043.70 1057.37 34.30
15766 63.1179 1082.50 1057.33 34.40
15767 63.1217 1106.10 1057.28 34.60
15768 63.1254 1105.30 1057.23 35.20
15769 63.1292 1081.00 1057.19 34.80
15770 63.1329 1051.40 1057.14 34.40
15771 63.1367 1044.90 1057.10 34.20
15772 63.1405 1069.70 1057.06 34.20
15773 63.1442 1040.10 1057.01 34.00
15774 63.1480 1041.20 1056.97 33.40
15775 63.1517 1102.40 1056.93 35.20
15776 63.1555 1131.90 1056.89 36.00
15777 63.1592 1087.70 1056.85 35.00
15778 63.1630 1088.60 1056.81 34.50
15779 63.1668 1102.00 1056.77 34.50
15780 63.1705 1086.50 1056.73 33.80
15781 63.1743 1050.10 1056.69 33.50
15782 63.1780 1075.20 1056.65 34.00
15783 63.1818 1081.50 1056.62 33.80
15784 63.1855 1076.00 1056.58 34.10
15785 63.1893 1033.70 1056.54 33.00
15786 63.1931 1067.70 1056.51 33.80
15787 63.1968 1058.80 1056.47 33.40
15788 63.2006 1046.50 1056.43 33.20
15789 63.2043 1028.40 1056.40 32.90
15790 63.2081 1044.20 1056.36 33.50
15791 63.2118 1071.20 1056.33 33.30
15792 63.2156 1001.00 1056.29 32.70
15793 63.2194 1044.60 1056.26 33.30
15794 63.2231 1098.80 1056.23 34.20
15795 63.2269 1084.50 1056.19 33.90
15796 63.2306 1090.40 1056.16 33.40
15797 63.2344 1104.00 1056.13 34.40
15798 63.2381 1055.90 1056.09 33.60
15799 63.2419 1058.50 1056.06 33.80
15800 63.2457 1066.60 1056.03 33.70
15801 63.2494 1013.70 1055.99 32.30
15802 63.2532 1045.90 1055.96 33.60
15803 63.2569 1032.90 1055.93 33.20
15804 63.2607 1052.60 1055.90 33.50
15805 63.2644 1076.50 1055.87 33.70
15806 63.2682 1081.50 1055.83 33.70
15807 63.2719 1063.50 1055.80 33.70
15808 63.2757 1046.70 1055.77 33.50
15809 63.2795 1108.40 1055.74 34.50
15810 63.2832 1093.60 1055.71 34.10
15811 63.2870 1037.50 1055.68 33.00
15812 63.2907 1129.40 1055.65 34.90
15813 63.2945 1079.80 1055.62 33.90
15814 63.2982 1097.00 1055.58 34.40
15815 63.3020 1051.90 1055.55 33.60
15816 63.3058 1061.40 1055.52 33.70
15817 63.3095 1082.10 1055.49 33.90
15818 63.3133 1053.80 1055.46 33.90
15819 63.3170 1064.40 1055.43 33.80
15820 63.3208 1088.00 1055.40 34.20
15821 63.3246 1085.60 1055.37 34.10
15822 63.3283 1066.80 1055.34 33.80
15823 63.3321 1081.10 1055.31 34.20
15824 63.3358 1055.10 1055.28 33.30
15825 63.3396 1037.60 1055.25 33.20
15826 63.3433 1053.50 1055.23 33.40
15827 63.3471 1046.30 1055.20 32.70
15828 63.3508 1015.40 1055.17 32.40
15829 63.3546 1088.00 1055.14 35.00
15830 63.3584 1063.50 1055.11 33.50
15831 63.3621 1051.90 1055.08 33.30
15832 63.3659 1163.40 1055.05 35.10
15833 63.3696 1045.70 1055.02 33.20
15834 63.3734 1071.20 1054.99 33.80
15835 63.3772 1078.70 1054.96 33.90
15836 63.3809 1058.40 1054.94 33.80
15837 63.3847 1073.40 1054.75 34.00
15838 63.3884 1087.20 1054.72 33.90
15839 63.3922 1089.70 1054.69 33.90
15840 63.3959 1069.90 1054.67 33.60
15841 63.3997 1079.10 1054.64 33.90
15842 63.4035 1059.30 1054.62 33.70
15843 63.4072 1082.80 1054.59 33.80
15844 63.4110 1050.50 1054.56 33.80
15845 63.4147 1054.40 1054.54 33.40
15846 63.4185 1007.50 1054.51 32.90
15847 63.4222 1075.60 1054.48 34.00
15848 63.4260 1020.40 1054.46 32.70
15849 63.4298 1119.90 1054.43 33.90
15850 63.4335 1081.00 1054.41 34.20
15851 63.4373 1069.00 1054.38 32.90
15852 63.4410 1038.70 1054.35 33.60
15853 63.4448 1073.00 1054.33 34.00
15854 63.4485 1047.40 1054.30 33.30
15855 63.4523 1051.70 1054.28 32.90
15856 63.4561 1056.90 1054.25 34.20
15857 63.4598 1034.40 1054.22 33.20
15858 63.4636 1028.00 1054.20 32.70
15859 63.4673 1091.60 1054.17 33.70
15860 63.4711 1059.80 1054.15 33.50
15861 63.4748 1131.70 1054.12 35.00
15862 63.4786 1026.30 1054.09 33.40
15863 63.4824 1098.00 1054.07 34.70
15864 63.4861 1034.60 1054.04 33.60
15865 63.4899 1141.80 1054.02 35.30
15866 63.4936 1042.20 1053.99 33.40
15867 63.4974 1037.40 1053.97 33.70
15868 63.5011 1046.60 1053.94 33.60
15869 63.5049 1051.80 1053.91 33.90
15870 63.5087 1047.70 1053.89 33.40
15871 63.5124 1012.30 1053.86 32.90
15872 63.5162 1113.20 1053.84 34.20
15873 63.5199 1116.90 1053.81 34.60
15874 63.5237 1091.90 1053.79 34.60
15875 63.5275 1061.00 1053.76 33.70
15876 63.5312 1083.60 1053.73 34.20
15877 63.5350 1036.50 1053.71 33.30
15878 63.5387 1050.60 1053.68 33.40
15879 63.5425 1108.20 1053.66 34.30
15880 63.5462 1151.30 1053.63 35.50
15881 63.5500 1153.90 1053.61 34.80
15882 63.5538 1116.10 1053.58 35.30
15883 63.5575 1078.10 1053.55 34.20
15884 63.5613 1042.10 1053.53 33.60
15885 63.5650 1063.00 1053.50 33.80
15886 63.5688 1096.80 1053.48 33.90
15887 63.5726 1111.50 1053.45 34.80
15888 63.5763 1122.10 1053.43 34.80
15889 63.5801 1066.10 1053.40 33.40
15890 63.5838 1125.70 1053.38 34.80
15891 63.5876 1117.30 1053.35 34.40
15892 63.5913 1073.50 1053.32 34.10
15893 63.5951 1087.20 1053.30 34.60
15894 63.5989 1110.70 1053.27 34.90
15895 63.6026 1107.00 1053.25 34.60
15896 63.6064 1157.70 1053.22 35.10
15897 63.6101 1087.70 1053.20 34.30
15898 63.6139 1041.40 1053.17 33.50
15899 63.6176 1027.60 1053.15 33.50
15900 63.6214 1128.00 1053.12 35.20
15901 63.6252 1099.00 1053.10 34.60
15902 63.6289 1047.00 1053.07 33.20
15903 63.6327 1047.70 1053.04 33.80
15904 63.6364 1055.30 1053.02 33.70
15905 63.6402 1117.70 1052.99 35.10
15906 63.6440 1087.00 1052.97 34.90
15907 63.6477 1155.30 1052.94 35.00
15908 63.6515 1108.00 1052.92 33.90
15909 63.6552 1145.50 1052.89 35.60
15910 63.6590 1060.10 1052.87 33.40
15911 63.6627 1099.10 1052.84 33.80
15912 63.6665 1042.10 1052.82 32.80
15913 63.6702 1084.90 1052.79 33.50
15914 63.6740 1116.90 1052.77 34.20
15915 63.6778 1148.50 1052.74 34.80
15916 63.6815 1056.00 1052.72 33.80
15917 63.6853 1060.50 1052.69 33.30
15918 63.6890 1023.40 1052.67 33.00
15919 63.6928 1120.00 1052.64 34.50
15920 63.6966 1109.30 1052.62 34.10
15921 63.7003 1101.50 1052.59 34.20
15922 63.7041 1114.30 1052.57 33.40
15923 63.7078 1159.50 1052.54 35.10
15924 63.7116 1135.50 1052.52 34.70
15925 63.7154 1080.80 1052.49 33.20
15926 63.7191 1091.70 1052.47 33.60
15927 63.7229 1097.60 1077.40 33.90
15928 63.7266 1064.90 1077.73 33.50
15929 63.7304 1141.00 1078.07 34.40
15930 63.7341 1159.60 1078.41 35.20
15931 63.7379 1062.80 1078.76 33.90
15932 63.7417 1085.40 1079.12 33.90
15933 63.7454 1095.20 1079.49 34.30
15934 63.7492 1125.20 1079.87 34.20
15935 63.7529 1075.90 1080.25 33.90
15936 63.7567 1141.50 1080.65 35.10
15937 63.7604 1103.00 1081.05 34.20
15938 63.7642 1120.30 1081.46 34.40
15939 63.7680 1118.00 1081.89 34.20
15940 63.7717 1198.90 1082.32 35.80
15941 63.7755 1108.00 1082.77 33.40
15942 63.7792 1072.20 1083.23 33.90
15943 63.7830 1043.20 1083.70 33.10
15944 63.7868 1091.70 1084.17 33.90
15945 63.7905 1115.90 1084.67 34.30
15946 63.7943 1130.30 1085.17 34.60
15947 63.7980 1100.20 1085.69 33.80
15948 63.8018 1102.90 1086.22 34.40
15949 63.8055 1150.60 1086.76 34.90
15950 63.8093 1133.80 1087.32 34.90
15951 63.8131 1133.40 1087.90 34.70
15952 63.8168 1108.30 1088.49 33.90
15953 63.8206 1167.80 1089.09 35.50
15954 63.8243 1080.20 1089.71 34.00
15955 63.8281 1146.80 1090.35 35.00
15956 63.8319 1126.40 1091.01 34.00
15957 63.8356 1160.10 1091.68 35.20
15958 63.8394 1154.60 1092.37 35.30
15959 63.8431 1149.80 1093.09 34.60
15960 63.8469 1167.30 1093.82 34.90
15961 63.8507 1124.60 1094.57 33.90
15962 63.8544 1076.20 1095.35 33.90
15963 63.8582 1168.60 1096.15 35.40
15964 63.8619 1073.90 1096.97 33.20
15965 63.8657 1106.90 1097.81 34.00
15966 63.8694 1120.70 1098.68 33.60
15967 63.8732 1115.20 1099.58 34.50
15968 63.8770 1078.80 1100.51 34.00
15969 63.8807 1135.10 1101.46 34.90
15970 63.8845 1066.40 1102.44 33.70
15971 63.8882 1176.00 1103.45 35.40
15972 63.8920 1148.70 1104.50 34.80
15973 63.8957 1165.30 1105.57 35.20
15974 63.8995 1159.50 1106.68 35.40
15975 63.9033 1141.40 1107.83 34.70
15976 63.9070 1081.60 1109.02 33.40
15977 63.9108 1127.60 1110.25 34.80
15978 63.9145 1144.10 1111.51 35.30
15979 63.9183 1180.40 1112.82 35.20
15980 63.9221 1112.70 1114.17 34.40
15981 63.9258 1133.00 1115.58 34.80
15982 63.9296 1124.30 1117.02 34.50
15983 63.9333 1141.80 1118.52 35.40
15984 63.9371 1178.10 1120.08 34.90
15985 63.9408 1171.10 1121.68 35.40
15986 63.9446 1211.10 1123.35 35.90
15987 63.9484 1226.50 1125.08 35.70
15988 63.9521 1218.70 1126.88 36.50
15989 63.9559 1156.80 1128.74 35.60
15990 63.9596 1243.10 1130.67 36.50
15991 63.9634 1186.50 1132.68 35.40
15992 63.9672 1140.80 1134.76 34.70
15993 63.9709 1152.80 1136.93 35.10
15994 63.9747 1206.30 1139.19 35.90
15995 63.9784 1179.70 1141.54 35.60
15996 63.9822 1142.70 1143.98 35.00
15997 63.9860 1201.30 1146.52 35.80
15998 63.9897 1155.70 1149.18 34.70
15999 63.9935 1264.70 1151.94 36.40
16000 63.9972 1186.50 1154.83 35.60
16001 64.0010 1255.00 1157.84 36.70
16002 64.0048 1225.00 1161.00 36.40
16003 64.0085 1257.70 1164.29 36.70
16004 64.0123 1202.10 1167.72 35.70
16005 64.0160 1266.70 1171.34 36.80
16006 64.0198 1152.90 1175.11 35.20
16007 64.0235 1309.70 1179.06 36.90
16008 64.0273 1292.60 1183.21 37.20
16009 64.0311 1224.90 1187.57 35.90
16010 64.0348 1271.40 1192.14 37.10
16011 64.0386 1319.70 1196.95 37.60
16012 64.0423 1220.80 1202.01 36.40
16013 64.0461 1292.00 1207.34 37.10
16014 64.0499 1242.80 1212.94 36.00
16015 64.0536 1280.50 1218.90 37.50
16016 64.0574 1272.10 1225.14 37.20
16017 64.0611 1354.10 1231.75 38.50
16018 64.0649 1271.90 1238.76 36.90
16019 64.0687 1279.60 1246.18 37.00
16020 64.0724 1349.10 1254.03 38.10
16021 64.0762 1318.20 1262.38 37.60
16022 64.0799 1306.90 1271.23 37.70
16023 64.0837 1349.40 1280.68 38.20
16024 64.0874 1332.80 1290.73 37.80
16025 64.0912 1372.70 1301.45 38.30
16026 64.0950 1343.30 1312.92 38.10
16027 64.0987 1390.60 1325.20 38.10
16028 64.1025 1396.50 1338.29 38.90
16029 64.1062 1475.00 1352.47 39.20
16030 64.1100 1355.00 1367.63 38.20
16031 64.1137 1424.90 1383.92 39.40
16032 64.1175 1460.30 1401.56 39.80
16033 64.1213 1500.20 1420.64 40.70
16034 64.1250 1493.30 1441.23 40.60
16035 64.1288 1517.60 1463.66 40.10
16036 64.1326 1547.10 1488.06 40.30
16037 64.1363 1622.20 1514.58 41.40
16038 64.1401 1635.00 1543.61 41.80
16039 64.1438 1662.40 1575.62 42.40
16040 64.1476 1637.10 1610.49 41.60
16041 64.1513 1747.70 1649.13 42.30
16042 64.1551 1818.60 1691.79 44.90
16043 64.1589 1815.40 1739.22 44.50
16044 64.1626 1775.50 1791.94 43.20
16045 64.1664 1934.00 1850.88 45.60
16046 64.1701 2106.60 1917.02 47.60
16047 64.1739 2064.00 1991.73 47.10
16048 64.1777 2151.50 2076.03 48.30
16049 64.1814 2261.70 2172.34 49.80
16050 64.1852 2366.20 2282.59 50.00
16051 64.1889 2389.80 2409.30 50.30
16052 64.1927 2517.20 2556.38 52.20
16053 64.1965 2654.20 2728.00 53.80
16054 64.2002 2895.70 2929.00 56.80
16055 64.2040 3024.60 3168.11 57.30
16056 64.2077 3328.40 3453.09 61.10
16057 64.2115 3580.30 3798.69 63.10
16058 64.2152 3957.60 4220.16 66.50
16059 64.2190 4512.20 4740.95 71.50
16060 64.2228 5052.40 5393.21 76.20
16061 64.2265 5798.60 6217.59 81.30
16062 64.2303 6955.10 7262.28 89.60
16063 64.2340 8761.40 8613.30 102.40
16064 64.2378 10522.40 10334.30 113.10
16065 64.2415 13679.80 12506.30 129.70
16066 64.2453 16776.10 15174.90 145.00
16067 64.2491 20701.20 18218.10 165.20
16068 64.2528 23513.60 21208.50 175.10
16069 64.2566 25741.80 23382.30 191.00
16070 64.2604 25674.30 23887.70 188.50
16071 64.2641 23910.20 22498.60 177.90
16072 64.2679 20315.30 19821.90 161.90
16073 64.2716 16640.30 16712.70 146.70
16074 64.2754 13230.00 13831.30 128.80
16075 64.2791 10362.10 11400.30 111.90
16076 64.2829 8188.30 9448.81 98.10
16077 64.2867 6768.60 7920.57 88.70
16078 64.2904 5585.40 6728.34 80.70
16079 64.2942 4905.10 5795.95 75.30
16080 64.2979 4242.80 5060.32 68.80
16081 64.3017 3872.00 4476.30 66.00
16082 64.3055 3507.60 4007.24 62.70
16083 64.3092 3119.10 3622.85 58.80
16084 64.3130 2917.10 3308.38 56.40
16085 64.3167 2659.00 3047.25 53.80
16086 64.3205 2557.20 2827.14 52.80
16087 64.3243 2376.30 2640.72 50.90
16088 64.3280 2252.10 2482.10 49.70
16089 64.3318 2220.00 2345.16 49.50
16090 64.3355 2076.90 2226.61 47.20
16091 64.3393 1956.60 2123.70 46.00
16092 64.3430 1893.90 2033.36 45.50
16093 64.3468 1890.50 1953.39 45.30
16094 64.3506 1840.40 1883.13 44.00
16095 64.3543 1806.40 1820.55 43.90
16096 64.3581 1779.90 1764.58 43.90
16097 64.3618 1689.50 1714.50 42.60
16098 64.3656 1604.30 1669.45 41.40
16099 64.3694 1657.70 1628.78 41.80
16100 64.3731 1562.00 1591.87 40.80
16101 64.3769 1562.20 1558.41 40.70
16102 64.3806 1496.00 1527.97 40.10
16103 64.3844 1509.50 1499.96 39.90
16104 64.3882 1496.90 1474.44 39.80
16105 64.3919 1405.30 1451.06 38.60
16106 64.3957 1507.80 1429.46 39.90
16107 64.3994 1468.40 1409.53 39.50
16108 64.4032 1404.50 1391.19 38.70
16109 64.4070 1368.70 1374.13 38.00
16110 64.4107 1370.30 1358.31 37.90
16111 64.4145 1383.80 1343.65 38.30
16112 64.4182 1403.70 1329.98 38.70
16113 64.4220 1346.30 1317.16 37.50
16114 64.4258 1305.40 1305.28 36.70
16115 64.4295 1331.00 1294.14 37.30
16116 64.4333 1281.40 1283.68 36.60
16117 64.4370 1296.30 1273.89 37.30
16118 64.4408 1331.00 1264.69 37.90
16119 64.4445 1289.50 1256.02 36.90
16120 64.4483 1404.70 1247.87 38.40
16121 64.4521 1303.80 1240.19 36.20
16122 64.4558 1341.10 1232.95 38.60
16123 64.4596 1318.40 1226.06 36.80
16124 64.4633 1277.50 1219.58 36.40
16125 64.4671 1267.10 1213.45 36.40
16126 64.4709 1209.40 1207.62 35.60
16127 64.4746 1199.30 1202.09 35.60
16128 64.4784 1186.30 1196.86 35.70
16129 64.4821 1180.50 1191.87 35.10
16130 64.4859 1201.90 1187.12 35.50
16131 64.4896 1210.00 1182.61 36.00
16132 64.4934 1211.20 1178.32 35.70
16133 64.4972 1213.70 1174.19 35.40
16134 64.5009 1241.90 1170.29 36.20
16135 64.5047 1264.80 1166.55 36.90
16136 64.5085 1181.60 1162.98 35.20
16137 64.5122 1223.90 1159.56 36.20
16138 64.5160 1162.90 1156.30 35.20
16139 64.5197 1201.30 1153.16 35.60
16140 64.5235 1183.80 1150.17 35.50
16141 64.5272 1183.20 1147.29 35.50
16142 64.5310 1219.80 1144.54 35.60
16143 64.5348 1176.80 1141.88 35.50
16144 64.5385 1170.50 1139.34 34.80
16145 64.5423 1199.10 1136.90 35.90
16146 64.5460 1127.90 1134.55 34.30
16147 64.5498 1136.70 1132.29 34.50
16148 64.5536 1190.60 1130.12 35.20
16149 64.5573 1157.70 1128.02 35.70
16150 64.5611 1135.60 1126.00 34.50
16151 64.5648 1143.90 1124.06 34.60
16152 64.5686 1199.70 1122.18 35.20
16153 64.5724 1157.80 1120.37 34.70
16154 64.5761 1130.50 1118.62 34.80
16155 64.5799 1146.30 1116.94 34.70
16156 64.5836 1154.80 1115.31 34.30
16157 64.5874 1131.30 1113.73 34.70
16158 64.5911 1197.20 1112.21 35.50
16159 64.5949 1088.20 1110.74 34.10
16160 64.5987 1211.20 1109.31 35.70
16161 64.6024 1189.20 1107.93 35.40
16162 64.6062 1078.70 1106.60 34.20
16163 64.6099 1123.50 1105.30 34.90
16164 64.6137 1104.90 1104.05 34.40
16165 64.6175 1169.90 1102.84 35.20
16166 64.6212 1125.60 1101.66 34.70
16167 64.6250 1094.70 1100.52 34.00
16168 64.6287 1125.80 1099.41 34.20
16169 64.6325 1222.40 1098.33 35.90
16170 64.6363 1139.10 1097.29 34.90
16171 64.6400 1136.50 1096.27 34.90
16172 64.6438 1100.90 1095.29 34.30
16173 64.6475 1153.10 1094.33 34.90
16174 64.6513 1146.20 1093.40 34.30
16175 64.6551 1100.30 1092.49 35.10
16176 64.6588 1101.20 1091.61 33.80
16177 64.6626 1102.50 1090.76 34.40
16178 64.6663 1088.80 1089.92 33.80
16179 64.6701 1138.80 1089.11 34.80
16180 64.6738 1123.50 1088.32 34.80
16181 64.6776 1147.10 1087.55 35.30
16182 64.6814 1116.00 1086.80 34.60
16183 64.6851 1115.30 1086.07 34.70
16184 64.6889 1139.80 1085.36 35.10
16185 64.6926 1068.40 1084.66 33.90
16186 64.6964 1124.70 1083.98 34.80
16187 64.7002 1061.90 1083.32 33.70
16188 64.7039 1077.10 1082.68 34.00
16189 64.7077 1090.50 1082.05 34.20
16190 64.7114 1135.90 1081.44 35.00
16191 64.7152 1064.90 1080.84 33.90
16192 64.7190 1033.80 1080.25 33.30
16193 64.7227 1116.90 1079.68 34.60
16194 64.7265 1094.70 1079.12 34.10
16195 64.7302 1062.80 1078.57 33.70
16196 64.7340 1071.10 1078.04 34.20
16197 64.7377 1044.40 1077.52 33.50
16198 64.7415 1106.40 1077.01 34.60
16199 64.7453 1084.30 1076.51 34.20
16200 64.7490 1051.70 1076.02 33.60
16201 64.7528 1043.50 1075.55 33.30
16202 64.7566 1063.70 1075.08 34.70
16203 64.7603 1088.10 1074.62 34.30
16204 64.7641 1053.20 1074.18 33.70
16205 64.7678 1147.60 1073.74 34.20
16206 64.7716 1084.00 1073.31 34.10
16207 64.7753 1099.80 1072.89 34.10
16208 64.7791 1109.00 1072.48 34.80
16209 64.7829 1117.90 1072.08 34.60
16210 64.7866 1046.70 1071.68 33.90
16211 64.7904 1045.50 1071.29 33.70
16212 64.7941 1113.50 1070.92 34.50
16213 64.7979 1112.30 1045.73 34.70
16214 64.8017 1047.90 1045.71 33.60
16215 64.8054 1116.10 1045.69 34.00
16216 64.8092 1110.40 1045.67 34.70
16217 64.8129 1099.30 1045.65 34.10
16218 64.8167 1059.50 1045.62 33.90
16219 64.8205 1092.70 1045.60 34.70
16220 64.8242 1080.80 1045.58 34.30
16221 64.8280 997.10 1045.56 32.90
16222 64.8317 1029.20 1045.54 33.30
16223 64.8355 1016.90 1045.51 33.00
16224 64.8392 1089.30 1045.49 34.20
16225 64.8430 1047.10 1045.47 33.70
16226 64.8468 1045.80 1045.45 33.20
16227 64.8505 1043.00 1045.42 33.10
16228 64.8543 1053.00 1045.40 33.90
16229 64.8580 1087.30 1045.38 34.80
16230 64.8618 1047.40 1045.36 33.50
16231 64.8655 1008.90 1045.34 33.00
16232 64.8693 1113.70 1045.31 34.80
16233 64.8731 1046.40 1045.29 33.60
16234 64.8768 1051.00 1045.27 33.70
16235 64.8806 1038.50 1045.25 33.50
16236 64.8844 1096.30 1045.23 34.20
16237 64.8881 1134.40 1045.21 35.00
16238 64.8919 1076.60 1045.18 33.40
16239 64.8956 1062.30 1045.16 34.20
16240 64.8994 1019.80 1045.14 33.10
16241 64.9031 1045.50 1045.12 33.70
16242 64.9069 1051.30 1045.10 33.20
16243 64.9107 1135.10 1045.07 34.60
16244 64.9144 1035.10 1045.05 33.40
16245 64.9182 1064.40 1045.03 34.10
16246 64.9219 996.00 1045.01 32.70
16247 64.9257 1120.30 1044.99 34.50
16248 64.9295 1066.00 1044.96 34.10
16249 64.9332 1067.20 1044.94 33.80
16250 64.9370 1044.90 1044.92 33.90
16251 64.9407 1077.20 1044.90 34.00
16252 64.9445 1048.60 1044.88 33.70
16253 64.9483 1055.80 1044.85 34.10
16254 64.9520 1032.40 1044.83 33.00
16255 64.9558 1059.80 1044.81 34.40
16256 64.9595 1061.10 1044.79 33.70
16257 64.9633 1088.20 1044.77 34.10
16258 64.9670 1038.80 1044.75 33.70
16259 64.9708 1048.50 1044.72 33.80
16260 64.9746 1027.80 1044.70 33.30
16261 64.9783 1043.70 1044.68 33.70
16262 64.9821 1057.30 1044.66 33.70
16263 64.9858 1037.10 1044.64 33.30
16264 64.9896 1046.20 1044.61 33.80
16265 64.9934 1025.70 1044.59 33.90
16266 64.9971 1051.30 1044.57 33.80
16267 65.0009 979.80 1044.55 32.70
16268 65.0046 1116.70 1044.53 35.20
16269 65.0084 1042.70 1044.51 33.60
16270 65.0122 1093.80 1044.48 34.50
16271 65.0159 1019.60 1044.46 32.80
16272 65.0197 999.60 1044.44 33.20
16273 65.0234 1089.00 1044.42 34.70
16274 65.0272 1044.80 1044.40 33.70
16275 65.0309 1047.40 1044.38 33.40
16276 65.0347 1093.10 1044.35 34.80
16277 65.0385 1088.90 1044.33 34.50
16278 65.0422 1067.20 1044.31 34.40
16279 65.0460 1023.90 1044.29 33.30
16280 65.0497 1089.70 1044.27 33.90
16281 65.0535 1097.20 1044.25 34.00
16282 65.0573 1016.30 1044.22 34.00
16283 65.0610 993.80 1044.20 33.00
16284 65.0648 999.70 1044.18 33.10
16285 65.0685 1046.70 1044.16 33.90
16286 65.0723 988.70 1044.14 32.10
16287 65.0761 1085.30 1044.12 34.20
16288 65.0798 1028.70 1044.32 33.10
16289 65.0836 1034.30 1044.31 33.80
16290 65.0873 1034.10 1044.29 34.00
16291 65.0911 1018.20 1044.27 32.70
16292 65.0948 1045.00 1044.25 33.20
16293 65.0986 1050.90 1044.23 33.30
16294 65.1024 1066.90 1044.21 33.10
16295 65.1061 1055.50 1044.20 33.20
16296 65.1099 1085.00 1044.18 33.90
16297 65.1136 1069.80 1044.16 33.50
16298 65.1174 965.30 1044.14 31.90
16299 65.1212 1077.60 1044.13 33.50
16300 65.1249 1021.20 1044.11 32.50
16301 65.1287 1066.00 1044.09 33.30
16302 65.1324 1065.20 1044.07 33.40
16303 65.1362 1005.80 1044.06 32.60
16304 65.1400 1098.80 1044.04 33.80
16305 65.1437 1092.50 1044.02 33.90
16306 65.1475 1049.60 1044.00 33.00
16307 65.1512 1055.40 1043.99 32.90
16308 65.1550 1027.80 1043.97 33.20
16309 65.1587 1069.40 1043.95 33.70
16310 65.1625 999.10 1043.94 32.30
16311 65.1663 1057.90 1043.92 33.20
16312 65.1700 1058.50 1043.90 33.20
16313 65.1738 1061.40 1043.89 33.30
16314 65.1775 1071.70 1043.87 33.80
16315 65.1813 1100.70 1043.86 33.90
16316 65.1851 957.40 1043.84 31.80
16317 65.1888 999.50 1043.83 32.10
16318 65.1926 1054.30 1043.81 33.10
16319 65.1963 1078.90 1043.79 33.80
16320 65.2001 1066.00 1043.78 33.60
16321 65.2039 1035.80 1043.76 33.00
16322 65.2076 1073.10 1043.75 33.70
16323 65.2114 1009.90 1043.74 32.40
16324 65.2151 1086.70 1043.72 33.80
16325 65.2189 1000.40 1043.71 32.60
16326 65.2226 1047.80 1043.69 33.20
16327 65.2264 1029.50 1043.68 32.40
16328 65.2302 1040.20 1043.67 33.00
16329 65.2339 1104.80 1043.65 34.10
16330 65.2377 1004.10 1043.64 31.90
16331 65.2414 1012.40 1043.63 32.20
16332 65.2452 1017.80 1043.61 32.90
16333 65.2489 1020.60 1043.60 32.50
16334 65.2527 1024.00 1043.59 32.50
16335 65.2565 988.70 1043.58 33.00
16336 65.2602 1009.70 1043.57 33.00
16337 65.2640 1055.30 1043.56 33.30
16338 65.2678 1004.90 1043.54 32.10
16339 65.2715 1033.20 1043.53 32.90
16340 65.2753 1041.80 1043.52 33.10
16341 65.2790 1048.70 1043.51 33.00
16342 65.2828 1022.00 1043.50 32.80
16343 65.2865 1017.40 1043.50 32.90
16344 65.2903 1011.20 1043.49 32.80
16345 65.2941 1012.50 1043.48 32.80
16346 65.2978 981.70 1043.47 32.30
16347 65.3016 1066.60 1043.46 33.70
16348 65.3053 1020.80 1043.46 32.90
16349 65.3091 1035.50 1043.45 33.00
16350 65.3129 1082.30 1043.44 33.90
16351 65.3166 1014.20 1043.44 32.20
16352 65.3204 1046.20 1043.44 32.70
16353 65.3241 1077.30 1043.43 33.50
16354 65.3279 982.70 1043.43 32.10
16355 65.3316 1039.70 1043.42 32.90
16356 65.3354 1074.30 1043.42 34.00
16357 65.3392 1001.80 1043.42 31.90
16358 65.3429 962.40 1043.42 31.80
16359 65.3467 1043.20 1043.42 33.20
16360 65.3504 1004.00 1043.42 32.40
16361 65.3542 1071.00 1043.42 33.50
16362 65.3579 1009.00 1043.43 33.20
16363 65.3617 1042.90 1043.43 32.90
16364 65.3655 1033.10 1043.44 32.90
16365 65.3692 1094.30 1043.44 33.70
16366 65.3730 1030.90 1043.45 33.10
16367 65.3767 1035.00 1043.46 33.10
16368 65.3805 1016.00 1043.47 32.40
16369 65.3843 1057.90 1043.48 33.50
16370 65.3880 1006.40 1043.49 32.80
16371 65.3918 1062.70 1043.51 33.50
16372 65.3955 1021.80 1043.52 33.10
16373 65.3993 1010.00 1043.54 32.70
16374 65.4031 1060.90 1043.56 33.50
16375 65.4068 1044.90 1043.58 33.00
16376 65.4106 1031.50 1043.61 33.20
16377 65.4143 1031.80 1043.64 33.10
16378 65.4181 1040.40 1043.66 32.90
16379 65.4218 1039.90 1043.70 33.20
16380 65.4256 1026.30 1043.73 32.90
16381 65.4294 1009.60 1043.77 32.50
16382 65.4331 1067.80 1043.81 33.60
16383 65.4369 1068.30 1043.85 33.90
16384 65.4406 1036.70 1043.90 33.10
16385 65.4444 1008.10 1043.95 32.60
16386 65.4482 1011.80 1044.01 32.70
16387 65.4519 1074.40 1044.07 33.20
16388 65.4557 1066.10 1044.14 33.60
16389 65.4594 1017.80 1044.21 33.10
16390 65.4632 1031.10 1044.29 32.50
16391 65.4669 1040.50 1044.37 32.90
16392 65.4707 1057.40 1044.46 33.40
16393 65.4745 1035.30 1044.56 33.20
16394 65.4782 984.00 1044.67 32.10
16395 65.4820 1025.70 1044.79 32.90
16396 65.4857 992.20 1044.92 32.70
16397 65.4895 1043.20 1045.05 33.40
16398 65.4932 1041.30 1045.21 33.10
16399 65.4970 1012.20 1045.37 32.50
16400 65.5008 993.10 1045.55 32.10
16401 65.5045 1055.90 1045.75 33.00
16402 65.5083 1027.50 1045.97 33.00
16403 65.5120 1081.10 1046.21 33.70
16404 65.5158 1054.80 1046.47 33.50
16405 65.5195 1032.10 1046.76 33.30
16406 65.5233 1019.20 1047.09 32.80
16407 65.5271 1095.50 1047.44 34.00
16408 65.5308 1048.60 1047.84 32.90
16409 65.5346 1023.00 1048.28 33.10
16410 65.5384 1060.00 1048.77 33.40
16411 65.5421 1048.00 1049.33 33.60
16412 65.5459 1057.40 1049.95 33.30
16413 65.5496 1060.00 1050.66 33.10
16414 65.5534 991.90 1051.45 32.00
16415 65.5571 1063.90 1052.37 34.30
16416 65.5609 1012.20 1053.42 32.90
16417 65.5647 1048.70 1054.62 33.10
16418 65.5684 1040.10 1056.02 33.50
16419 65.5722 1045.00 1057.65 33.10
16420 65.5759 1007.50 1059.57 32.50
16421 65.5797 1084.70 1061.85 33.80
16422 65.5834 1008.10 1064.58 32.70
16423 65.5872 1026.60 1067.86 32.80
16424 65.5910 1046.70 1071.87 33.30
16425 65.5947 1106.90 1076.86 33.80
16426 65.5985 1046.10 1083.03 33.20
16427 65.6022 1043.70 1090.85 33.20
16428 65.6060 1065.80 1100.73 33.70
16429 65.6098 1078.60 1113.38 33.80
16430 65.6135 1080.60 1129.33 34.00
16431 65.6173 1147.30 1149.32 35.00
16432 65.6210 1208.30 1173.54 36.10
16433 65.6248 1287.30 1200.77 36.60
16434 65.6285 1167.40 1227.84 35.10
16435 65.6323 1274.90 1247.98 36.90
16436 65.6360 1219.90 1254.17 36.30
16437 65.6398 1178.30 1243.84 35.20
16438 65.6436 1106.10 1221.03 34.30
16439 65.6473 1171.10 1193.51 35.40
16440 65.6511 1142.90 1166.70 34.60
16441 65.6548 1092.50 1143.49 33.40
16442 65.6586 1048.40 1124.55 34.10
16443 65.6624 1091.40 1109.47 34.10
16444 65.6661 1091.10 1097.60 33.70
16445 65.6699 1066.00 1088.26 33.80
16446 65.6736 1046.40 1080.86 33.10
16447 65.6774 1034.80 1074.99 33.00
16448 65.6811 1054.80 1070.25 33.60
16449 65.6849 1039.60 1066.39 33.30
16450 65.6887 1093.60 1063.22 34.40
16451 65.6924 1003.90 1060.59 32.80
16452 65.6962 1037.10 1058.37 33.30
16453 65.6999 1062.20 1056.49 33.90
16454 65.7037 1041.30 1054.87 33.00
16455 65.7075 1043.10 1053.49 33.40
16456 65.7112 1042.70 1052.28 33.30
16457 65.7150 1043.20 1051.23 33.40
16458 65.7187 1047.60 1050.31 33.70
16459 65.7225 978.20 1049.49 32.00
16460 65.7262 975.00 1048.77 32.20
16461 65.7300 996.50 1048.12 32.80
16462 65.7338 1016.10 1047.54 32.80
16463 65.7375 1059.90 1047.02 33.80
16464 65.7413 1006.90 1046.55 33.00
16465 65.7450 1044.50 1046.12 32.90
16466 65.7488 1007.00 1045.73 32.70
16467 65.7525 1077.70 1045.38 33.50
16468 65.7563 1076.60 1045.05 34.30
16469 65.7601 1032.90 1044.75 32.60
16470 65.7638 1063.20 1044.47 33.80
16471 65.7676 1015.80 1044.22 32.80
16472 65.7713 1057.20 1043.98 33.20
16473 65.7751 1084.70 1043.76 34.20
16474 65.7788 945.50 1043.56 31.60
16475 65.7826 1019.90 1043.37 33.00
16476 65.7864 1039.60 1043.19 33.40
16477 65.7901 1018.50 1043.02 33.00
16478 65.7939 1029.90 1042.86 33.30
16479 65.7976 1037.70 1042.72 33.10
16480 65.8014 1038.80 1042.58 33.40
16481 65.8052 1026.40 1042.45 33.00
16482 65.8089 1076.40 1042.32 33.90
16483 65.8127 1081.60 1042.20 33.80
16484 65.8164 984.90 1042.09 32.50
16485 65.8202 1034.70 1041.98 33.40
16486 65.8239 1030.60 1041.88 33.10
16487 65.8277 1030.60 1041.78 32.70
16488 65.8315 1020.40 1041.69 32.90
16489 65.8352 1027.10 1041.60 32.50
16490 65.8390 979.70 1041.51 32.50
16491 65.8427 1037.10 1041.43 33.30
16492 65.8465 1033.60 1041.35 33.10
16493 65.8502 1067.90 1041.28 33.60
16494 65.8540 1032.90 1041.20 32.60
16495 65.8578 1030.40 1041.13 33.70
16496 65.8615 974.50 1041.07 32.40
16497 65.8653 1028.00 1041.00 33.00
16498 65.8690 1096.60 1040.94 34.20
16499 65.8728 1012.20 1040.87 32.80
16500 65.8765 1064.50 1040.81 33.80
16501 65.8803 1082.80 1040.76 34.30
16502 65.8840 1046.80 1040.70 33.30
16503 65.8878 989.90 1040.65 32.80
16504 65.8916 1039.30 1040.59 33.50
16505 65.8953 993.10 1040.54 32.40
16506 65.8991 1095.20 1040.49 33.60
16507 65.9028 964.20 1040.44 31.60
16508 65.9066 1084.70 1040.39 34.10
16509 65.9103 1005.30 1040.34 32.50
16510 65.9141 985.10 1040.30 32.40
16511 65.9179 1034.00 1040.25 33.20
16512 65.9216 1030.50 1040.21 33.00
16513 65.9254 1072.20 1040.17 33.40
16514 65.9291 1013.30 1040.12 32.90
16515 65.9329 1052.30 1040.08 33.20
16516 65.9367 1036.90 1040.04 33.10
16517 65.9404 1010.70 1040.00 32.80
16518 65.9442 1029.90 1039.96 33.20
16519 65.9479 1033.20 1039.92 33.20
16520 65.9517 1077.80 1039.88 33.40
16521 65.9554 1023.90 1039.85 33.30
16522 65.9592 1039.50 1039.81 33.80
16523 65.9630 974.10 1039.77 32.20
16524 65.9667 1009.10 1039.74 32.50
16525 65.9705 1071.10 1039.70 34.60
16526 65.9742 1049.70 1039.67 33.50
16527 65.9780 987.40 1039.63 32.20
16528 65.9817 1045.70 1039.60 33.10
16529 65.9855 1036.70 1039.56 33.40
16530 65.9893 1015.50 1039.53 32.90
16531 65.9930 941.30 1039.50 31.50
16532 65.9968 1043.00 1039.47 33.50
16533 66.0005 1012.00 1039.43 32.70
16534 66.0043 1006.80 1039.40 32.80
16535 66.0080 1006.70 1039.37 32.60
16536 66.0118 954.30 1039.34 31.80
16537 66.0155 1001.00 1039.31 32.60
16538 66.0193 1015.70 1039.28 33.20
16539 66.0231 1073.20 1039.25 34.00
16540 66.0268 1008.90 1039.22 32.70
16541 66.0306 1033.00 1039.19 33.30
16542 66.0343 1045.10 1039.16 33.20
16543 66.0381 1055.00 1039.13 33.50
16544 66.0418 1022.80 1039.10 33.30
16545 66.0456 1108.90 1039.07 34.40
16546 66.0493 1026.60 1039.04 33.40
16547 66.0531 995.80 1039.01 32.30
16548 66.0569 979.50 1038.99 33.30
16549 66.0606 1007.80 1038.96 33.50
16550 66.0644 1061.30 1038.93 33.90
16551 66.0681 1012.00 1038.90 33.20
16552 66.0719 1076.20 1038.87 33.80
16553 66.0757 983.40 1038.85 32.50
16554 66.0794 1050.00 1038.82 33.90
16555 66.0832 1000.40 1038.79 33.50
16556 66.0869 978.80 1038.77 32.80
16557 66.0907 1039.10 1038.74 33.90
16558 66.0944 1002.90 1038.71 32.50
16559 66.0982 1039.10 1038.69 34.00
16560 66.1020 1031.50 1038.66 33.70
16561 66.1057 1029.40 1038.63 33.70
16562 66.1095 1062.50 1038.61 33.50
16563 66.1132 1075.70 1038.58 34.60
16564 66.1170 964.40 1038.55 32.00
16565 66.1207 1091.60 1038.53 34.60
16566 66.1245 1067.20 1038.50 34.40
16567 66.1282 1028.30 1038.48 34.10
16568 66.1320 988.60 1038.45 33.00
16569 66.1358 1027.90 1038.43 34.10
16570 66.1395 1019.00 1038.40 33.30
16571 66.1433 990.60 1038.38 33.30
16572 66.1470 1059.70 1038.35 34.00
16573 66.1508 1005.40 1038.33 33.10
16574 66.1545 993.50 1038.30 32.50
16575 66.1583 1087.50 1038.28 35.70
16576 66.1620 1072.60 1038.25 35.00
16577 66.1658 983.40 1038.23 32.50
16578 66.1696 1017.10 1038.20 33.50
16579 66.1733 962.00 1038.18 32.20
16580 66.1771 1052.50 1038.15 34.20
16581 66.1808 1011.60 1038.13 33.00
16582 66.1846 1047.20 1038.10 34.20
16583 66.1883 1035.70 1038.08 33.60
16584 66.1921 998.60 1038.06 33.60
16585 66.1958 994.80 1037.80 33.20
16586 66.1996 970.50 1037.78 32.60
16587 66.2034 1051.30 1037.76 34.00
16588 66.2071 998.00 1037.74 33.00
16589 66.2109 1043.80 1037.72 33.40
16590 66.2146 1022.80 1037.70 32.70
16591 66.2184 985.60 1037.68 32.70
16592 66.2222 1035.00 1037.66 33.70
16593 66.2259 986.10 1037.64 32.40
16594 66.2297 1070.40 1037.61 34.50
16595 66.2334 1062.00 1037.59 33.90
16596 66.2372 1063.80 1037.57 34.50
16597 66.2409 979.50 1037.55 32.50
16598 66.2447 1110.50 1037.53 35.10
16599 66.2484 1037.30 1037.51 33.60
16600 66.2522 1045.60 1037.49 33.90
16601 66.2560 1009.00 1037.47 32.60
16602 66.2597 1040.00 1037.45 34.80
16603 66.2635 996.20 1037.42 32.90
16604 66.2672 1018.80 1037.40 33.30
16605 66.2710 1019.40 1037.38 33.20
16606 66.2747 1026.90 1037.36 33.60
16607 66.2785 994.60 1037.34 32.90
16608 66.2822 1025.10 1037.32 33.70
16609 66.2860 1038.60 1037.30 33.90
16610 66.2898 1003.20 1037.28 32.70
16611 66.2935 965.60 1037.26 32.40
16612 66.2973 1001.70 1037.23 33.20
16613 66.3010 1097.50 1037.21 34.50
16614 66.3048 1056.30 1037.19 33.40
16615 66.3085 1027.40 1037.17 33.40
16616 66.3123 1011.70 1037.15 33.00
16617 66.3160 1013.80 1037.13 33.30
16618 66.3198 1045.90 1037.11 34.00
16619 66.3235 1038.80 1037.09 32.70
16620 66.3273 1043.30 1037.06 34.00
16621 66.3311 1039.10 1037.04 33.60
16622 66.3348 1054.40 1037.02 34.00
16623 66.3386 1017.10 1037.00 32.70
16624 66.3423 1020.60 1036.98 33.60
16625 66.3461 1034.60 1036.96 33.30
16626 66.3499 1026.50 1036.94 33.90
16627 66.3536 993.80 1036.92 32.60
16628 66.3574 1003.20 1036.90 33.10
16629 66.3611 1087.40 1036.87 35.10
16630 66.3649 1053.00 1036.85 34.00
16631 66.3686 1073.90 1036.83 33.80
16632 66.3724 1006.80 1036.81 32.90
16633 66.3761 1031.30 1036.79 33.70
16634 66.3799 999.70 1036.77 33.10
16635 66.3836 1015.40 1036.75 33.80
16636 66.3874 1017.90 1036.73 33.20
16637 66.3912 1018.10 1036.70 33.80
16638 66.3949 1000.50 1036.68 33.10
16639 66.3987 1093.00 1036.66 34.30
16640 66.4024 1008.00 1036.64 33.40
16641 66.4062 1014.80 1036.62 33.20
16642 66.4099 1018.30 1036.60 33.50
16643 66.4137 1064.50 1036.58 34.60
16644 66.4174 980.10 1036.56 32.80
16645 66.4212 1081.50 1036.53 34.90
16646 66.4250 991.90 1036.51 33.10
16647 66.4287 1016.50 1036.49 33.10
16648 66.4325 1074.00 1036.47 34.50
16649 66.4362 1005.50 1036.45 33.60
16650 66.4400 1006.20 1036.43 33.40
16651 66.4437 1010.90 1036.41 33.70
16652 66.4475 982.90 1036.39 33.10
16653 66.4512 1062.90 1036.36 34.30
16654 66.4550 1071.90 1036.34 33.90
16655 66.4588 998.00 1036.32 33.90
16656 66.4625 1026.30 1036.30 33.80
16657 66.4663 1026.50 1036.28 33.80
16658 66.4700 985.50 1036.26 32.90
16659 66.4738 1024.00 1036.24 33.20
16660 66.4775 957.70 1036.21 32.20
16661 66.4813 1019.90 1036.19 33.80
16662 66.4850 1022.00 1036.17 33.30
16663 66.4888 1086.30 1036.15 34.70
16664 66.4926 981.50 1036.13 32.50
16665 66.4963 1046.70 1036.11 33.70
16666 66.5001 1034.70 1036.09 33.50
16667 66.5038 1044.30 1036.07 34.10
16668 66.5076 1065.10 1036.04 34.30
16669 66.5113 979.00 1036.02 32.40
16670 66.5151 1023.60 1036.00 33.50
16671 66.5188 998.50 1035.98 33.20
16672 66.5226 1014.00 1035.96 33.20
16673 66.5263 1071.20 1035.94 34.30
16674 66.5301 982.30 1035.92 33.10
16675 66.5339 1006.10 1035.89 33.20
16676 66.5376 999.70 1035.87 33.10
16677 66.5414 1060.70 1035.85 34.00
16678 66.5451 1010.90 1035.83 33.40
16679 66.5489 1031.40 1035.81 33.40
16680 66.5526 1021.80 1035.79 33.20
16681 66.5564 982.70 1035.77 32.50
16682 66.5601 1031.90 1035.74 33.80
16683 66.5639 1059.90 1035.72 34.20
16684 66.5676 967.70 1035.70 32.00
16685 66.5714 978.10 1035.68 32.20
16686 66.5752 992.30 1035.66 32.60
16687 66.5789 1069.60 1035.64 34.10
16688 66.5827 1018.60 1035.62 32.40
16689 66.5864 983.20 1035.59 32.50
16690 66.5902 997.40 1035.57 32.90
16691 66.5939 964.80 1035.55 32.40
16692 66.5977 991.20 1035.53 32.70
16693 66.6014 1038.70 1035.51 33.50
16694 66.6052 1020.20 1035.49 32.60
16695 66.6089 1035.00 1035.47 33.00
16696 66.6127 1050.40 1035.44 33.90
16697 66.6165 1067.90 1035.42 34.00
16698 66.6202 977.80 1035.40 32.60
16699 66.6240 987.00 1035.38 32.70
16700 66.6277 982.30 1035.36 32.30
16701 66.6315 1003.80 1035.34 33.10
16702 66.6352 1045.60 1035.32 33.40
16703 66.6390 1009.10 1035.29 32.40
16704 66.6427 1026.90 1035.27 33.30
16705 66.6465 1003.90 1035.25 32.70
16706 66.6503 1061.00 1035.23 34.00
16707 66.6540 990.80 1035.21 31.80
16708 66.6578 1058.50 1035.19 34.40
16709 66.6615 1052.60 1035.16 34.20
16710 66.6653 1019.30 1035.14 33.10
16711 66.6690 1061.80 1035.12 33.50
16712 66.6728 1014.20 1035.10 32.90
16713 66.6765 1044.90 1035.08 33.40
16714 66.6803 1033.50 1035.06 33.60
16715 66.6840 1059.00 1035.04 33.70
16716 66.6878 989.70 1035.01 32.60
16717 66.6915 1034.20 1034.99 33.30
16718 66.6953 1024.40 1034.97 33.50
16719 66.6991 1020.20 1034.95 33.40
16720 66.7028 1013.70 1034.93 33.00
16721 66.7066 1040.60 1034.91 32.70
16722 66.7103 963.70 1034.88 31.60
16723 66.7141 949.90 1034.86 31.70
16724 66.7178 1054.40 1034.84 33.70
16725 66.7216 1011.70 1034.82 33.00
16726 66.7253 1017.10 1034.80 33.30
16727 66.7291 998.10 1034.78 32.80
16728 66.7328 1030.10 1034.75 33.40
16729 66.7366 995.90 1034.73 33.00
16730 66.7403 1005.60 1034.71 33.00
16731 66.7441 1013.10 1034.69 33.20
16732 66.7478 962.60 1034.67 31.90
16733 66.7516 1014.10 1034.65 33.20
16734 66.7554 999.80 1034.62 32.50
16735 66.7591 1044.40 1034.60 33.90
16736 66.7629 1052.70 1034.58 33.80
16737 66.7666 1058.50 1034.56 34.00
16738 66.7704 1018.30 1034.54 33.10
16739 66.7741 1001.40 1034.52 32.60
16740 66.7779 1110.30 1034.49 35.20
16741 66.7816 1001.50 1034.47 32.80
16742 66.7854 1034.90 1034.45 32.70
16743 66.7891 1020.30 1034.43 33.70
16744 66.7929 1054.70 1034.41 33.50
16745 66.7967 1044.10 1034.39 33.50
16746 66.8004 1085.20 1034.36 34.30
16747 66.8042 1034.70 1034.34 32.90
16748 66.8079 1045.60 1034.32 33.80
16749 66.8117 1041.50 1034.30 33.50
16750 66.8154 1044.60 1034.28 33.20
16751 66.8192 1089.40 1034.25 34.20
16752 66.8229 1069.00 1034.23 34.40
16753 66.8267 945.80 1034.21 32.00
16754 66.8304 1030.10 1034.19 33.40
16755 66.8342 1022.10 1034.17 33.00
16756 66.8379 1068.30 1034.15 34.40
16757 66.8417 1025.20 1034.12 33.20
16758 66.8454 1043.10 1034.10 33.60
16759 66.8492 1065.90 1034.08 34.10
16760 66.8530 967.50 1034.06 32.20
16761 66.8567 1052.60 1034.04 33.50
16762 66.8605 1027.20 1034.01 33.90
16763 66.8642 1006.90 1033.99 33.20
16764 66.8680 1033.90 1033.97 33.60
16765 66.8717 950.90 1033.95 32.00
16766 66.8755 1026.10 1033.93 33.30
16767 66.8792 1083.60 1033.90 34.50
16768 66.8830 1000.50 1033.88 32.60
16769 66.8867 1019.80 1033.86 33.30
16770 66.8905 983.20 1033.84 32.80
16771 66.8942 1030.10 1033.82 33.70
16772 66.8980 1010.30 1033.80 33.20
16773 66.9017 1069.90 1033.77 34.40
16774 66.9055 1006.60 1033.75 33.30
16775 66.9092 1016.60 1033.73 33.00
16776 66.9130 1019.50 1033.71 33.60
16777 66.9167 1063.80 1033.69 34.20
16778 66.9205 1028.20 1033.66 33.50
16779 66.9243 1018.00 1033.64 33.00
16780 66.9280 1016.70 1033.62 32.90
16781 66.9318 1039.00 1033.60 33.10
16782 66.9355 1078.90 1033.58 34.40
16783 66.9393 1023.60 1033.55 34.00
16784 66.9430 978.80 1033.53 32.70
16785 66.9468 995.20 1033.51 32.90
16786 66.9505 964.40 1033.49 32.60
16787 66.9543 1018.10 1033.47 33.10
16788 66.9580 1037.20 1033.44 33.80
16789 66.9618 1021.90 1033.42 33.20
16790 66.9655 1073.30 1033.40 34.30
16791 66.9693 1058.10 1033.38 33.60
16792 66.9731 1010.20 1033.36 33.30
16793 66.9768 1080.60 1033.33 34.60
16794 66.9806 1003.40 1033.31 33.40
16795 66.9843 1013.10 1033.29 33.50
16796 66.9881 1056.20 1033.27 33.30
16797 66.9918 953.10 1033.24 32.10
16798 66.9938 1052.60 1033.23 34.20
16799 66.9976 984.90 1033.21 32.90
16800 67.0013 1046.30 1033.19 33.60
16801 67.0051 969.40 1033.17 32.60
16802 67.0088 1013.90 1033.14 33.40
16803 67.0126 1050.60 1033.12 33.80
16804 67.0164 999.50 1033.10 33.10
16805 67.0201 1039.60 1033.08 34.10
16806 67.0239 1019.40 1033.06 33.40
16807 67.0276 1039.60 1033.03 33.80
16808 67.0314 1008.90 1033.01 33.10
16809 67.0351 999.60 1032.99 33.20
16810 67.0389 1036.50 1032.97 33.50
16811 67.0426 998.60 1032.94 32.80
16812 67.0464 1027.70 1032.92 33.20
16813 67.0501 1046.40 1032.90 34.00
16814 67.0539 1016.80 1032.88 33.40
16815 67.0576 1036.00 1032.86 33.20
16816 67.0614 1046.60 1032.83 33.40
16817 67.0652 1002.30 1032.81 32.80
16818 67.0689 1006.70 1032.79 33.10
16819 67.0727 943.90 1032.77 31.10
16820 67.0764 1022.30 1032.74 33.20
16821 67.0802 1039.00 1032.72 33.60
16822 67.0839 1076.40 1032.70 34.30
16823 67.0877 1058.50 1032.68 33.80
16824 67.0914 963.00 1032.65 32.30
16825 67.0952 994.90 1032.63 32.20
16826 67.0990 1004.60 1032.61 32.50
16827 67.1027 1058.50 1032.59 34.00
16828 67.1065 1028.60 1032.56 33.30
16829 67.1102 996.10 1032.54 33.00
16830 67.1140 998.10 1032.52 32.90
16831 67.1177 977.40 1032.50 32.20
16832 67.1215 1020.10 1032.48 33.40
16833 67.1252 1002.80 1032.45 32.70
16834 67.1290 1054.60 1032.43 33.10
16835 67.1327 941.20 1032.41 31.90
16836 67.1365 980.00 1032.39 32.30
16837 67.1403 1027.40 1032.36 33.50
16838 67.1440 1077.30 1032.34 33.20
16839 67.1478 1023.20 1032.32 33.80
16840 67.1515 1007.00 1032.30 33.40
16841 67.1553 964.10 1032.27 32.20
16842 67.1590 1039.20 1032.25 33.10
16843 67.1628 1056.90 1032.23 33.60
16844 67.1665 1028.00 1032.21 33.10
16845 67.1703 1001.00 1032.18 33.00
16846 67.1740 948.40 1032.16 31.80
16847 67.1778 982.60 1032.14 32.50
16848 67.1815 1017.20 1032.12 33.00
16849 67.1853 1037.70 1032.09 33.70
16850 67.1891 965.30 1032.07 32.40
16851 67.1928 998.60 1032.05 32.80
16852 67.1966 1026.30 1032.03 32.50
16853 67.2003 1021.00 1032.00 32.60
16854 67.2041 1081.80 1031.98 33.90
16855 67.2078 940.90 1031.96 31.80
16856 67.2116 948.30 1031.93 32.00
16857 67.2153 1005.90 1031.91 33.10
16858 67.2191 1021.20 1031.89 33.20
16859 67.2228 997.80 1031.87 32.90
16860 67.2233 1025.40 1031.86 32.70
16861 67.2270 981.70 1031.84 32.00
16862 67.2308 959.80 1031.82 31.40
16863 67.2345 980.60 1031.80 32.00
16864 67.2383 989.90 1031.77 32.20
16865 67.2420 1041.00 1031.75 32.90
16866 67.2458 976.50 1031.73 32.10
16867 67.2495 965.80 1031.71 31.80
16868 67.2533 997.10 1031.68 32.10
16869 67.2570 1037.40 1031.66 33.30
16870 67.2608 1011.10 1031.64 32.90
16871 67.2645 988.10 1031.61 32.10
16872 67.2683 1027.40 1031.59 32.50
16873 67.2720 1019.30 1031.57 32.30
16874 67.2758 994.20 1031.55 32.50
16875 67.2795 1044.50 1031.52 33.00
16876 67.2833 1006.40 1031.50 32.40
16877 67.2871 1008.90 1031.48 32.70
16878 67.2908 977.90 1031.46 32.00
16879 67.2946 1045.10 1031.43 33.30
16880 67.2983 1031.40 1031.41 33.00
16881 67.3021 991.70 1031.39 32.50
16882 67.3058 1002.90 1031.36 32.40
16883 67.3096 987.60 1031.34 32.20
16884 67.3133 975.50 1031.32 32.20
16885 67.3171 1018.80 1031.30 32.60
16886 67.3208 1034.50 1031.27 32.90
16887 67.3246 989.20 1031.25 32.30
16888 67.3283 978.10 1031.23 32.10
16889 67.3321 1028.60 1031.20 32.90
16890 67.3359 1027.00 1031.18 33.00
16891 67.3396 986.30 1031.16 32.00
16892 67.3434 1003.50 1031.13 32.40
16893 67.3471 992.30 1031.11 32.10
16894 67.3509 971.70 1031.09 31.80
16895 67.3546 1072.50 1031.07 33.20
16896 67.3584 1070.20 1031.04 34.10
16897 67.3621 1030.00 1031.02 33.00
16898 67.3659 992.60 1031.00 32.60
16899 67.3696 960.00 1030.97 31.90
16900 67.3734 1000.40 1030.95 31.90
16901 67.3771 1016.40 1030.93 32.80
16902 67.3809 1035.10 1030.90 32.80
16903 67.3846 1026.60 1030.88 32.90
16904 67.3884 1034.10 1030.86 33.10
16905 67.3922 998.80 1030.84 32.40
16906 67.3959 1008.30 1030.81 32.80
16907 67.3997 1024.30 1030.79 33.00
16908 67.4034 993.60 1030.77 32.40
16909 67.4072 976.60 1030.74 32.20
16910 67.4109 984.50 1030.72 32.00
16911 67.4147 984.50 1030.70 32.20
16912 67.4184 969.50 1030.67 32.10
16913 67.4222 995.30 1030.65 32.50
16914 67.4259 981.30 1030.63 31.80
16915 67.4297 1060.00 1030.60 33.50
16916 67.4335 988.80 1030.58 32.20
16917 67.4372 1035.30 1030.56 33.00
16918 67.4410 985.20 1030.53 32.00
16919 67.4447 1022.10 1030.51 33.20
16920 67.4485 1023.10 1030.49 32.70
16921 67.4522 978.30 1030.46 31.80
16922 67.4560 1008.20 1030.44 32.40
16923 67.4597 1029.30 1030.42 33.60
16924 67.4635 1027.10 1030.39 33.00
16925 67.4672 1048.70 1030.37 33.30
16926 67.4710 982.70 1030.35 31.80
16927 67.4747 990.10 1030.32 32.30
16928 67.4785 991.30 1030.30 32.20
16929 67.4822 984.70 1030.28 32.20
16930 67.4860 1063.40 1030.25 34.00
16931 67.4898 1024.90 1030.23 33.00
16932 67.4935 982.40 1030.21 32.20
16933 67.4973 1014.60 1030.18 32.80
16934 67.5010 970.40 1030.16 31.90
16935 67.5048 1022.30 1030.14 32.90
16936 67.5085 1010.90 1030.11 33.00
16937 67.5123 970.80 1030.09 32.00
16938 67.5160 1028.60 1030.07 33.20
16939 67.5198 996.60 1030.04 32.30
16940 67.5235 938.40 1030.02 31.50
16941 67.5273 1025.30 1030.00 33.20
16942 67.5311 1018.40 1029.97 33.00
16943 67.5348 1026.20 1029.95 32.70
16944 67.5386 1020.10 1029.93 32.70
16945 67.5423 990.50 1029.90 32.40
16946 67.5461 989.80 1029.88 32.60
16947 67.5498 1096.40 1029.86 33.80
16948 67.5536 976.20 1029.83 31.80
16949 67.5573 1008.30 1029.81 33.40
16950 67.5611 1008.40 1029.79 32.80
16951 67.5649 1015.50 1029.76 32.70
16952 67.5686 963.30 1029.74 31.20
16953 67.5724 997.80 1029.71 32.40
16954 67.5761 1068.80 1029.69 33.90
16955 67.5799 1040.30 1029.67 33.40
16956 67.5836 983.20 1029.64 32.10
16957 67.5874 1021.60 1029.62 33.00
16958 67.5911 994.00 1029.60 32.50
16959 67.5949 1041.50 1029.57 33.40
16960 67.5986 965.10 1029.55 31.80
16961 67.6024 1027.20 1029.52 33.00
16962 67.6061 999.80 1029.50 32.70
16963 67.6099 994.90 1029.48 32.60
16964 67.6137 993.00 1029.45 32.60
16965 67.6174 992.80 1029.43 32.30
16966 67.6212 1007.80 1029.41 32.90
16967 67.6249 983.40 1029.38 32.10
16968 67.6287 963.00 1029.36 31.90
16969 67.6324 999.70 1029.33 32.50
16970 67.6362 1032.50 1029.31 33.30
16971 67.6400 1040.70 1029.29 33.10
16972 67.6437 1028.80 1029.26 33.10
16973 67.6475 1031.60 1029.24 32.90
16974 67.6512 1000.10 1029.22 32.60
16975 67.6550 1063.40 1029.19 33.00
16976 67.6587 1002.90 1029.17 33.30
16977 67.6625 1005.90 1029.14 32.90
16978 67.6662 1032.70 1029.12 32.90
16979 67.6700 993.60 1029.10 32.10
16980 67.6737 1049.40 1029.07 33.40
16981 67.6775 1012.70 1029.05 32.90
16982 67.6813 981.50 1029.02 32.50
16983 67.6850 971.80 1029.00 31.80
16984 67.6888 982.70 1028.98 32.60
16985 67.6925 1045.30 1028.95 32.90
16986 67.6963 1000.60 1028.93 32.50
16987 67.7000 1065.10 1028.90 33.90
16988 67.7038 974.60 1028.88 32.10
16989 67.7075 1030.30 1028.86 33.20
16990 67.7113 1080.00 1028.83 33.90
16991 67.7151 1012.50 1028.81 32.70
16992 67.7188 987.90 1028.78 32.30
16993 67.7226 1007.30 1028.76 32.80
16994 67.7263 1014.00 1028.74 32.80
16995 67.7301 1026.80 1028.71 32.80
16996 67.7338 964.10 1028.69 32.00
16997 67.7376 1041.90 1028.66 33.60
16998 67.7413 1023.60 1028.64 33.10
16999 67.7451 1037.80 1028.61 33.50
17000 67.7488 1071.40 1028.86 33.60
17001 67.7526 1045.20 1028.83 33.30
17002 67.7564 965.50 1028.81 31.50
17003 67.7601 981.90 1028.79 33.00
17004 67.7639 979.30 1028.77 32.20
17005 67.7676 1016.00 1028.75 32.80
17006 67.7714 1015.20 1028.73 33.10
17007 67.7751 1028.00 1028.71 33.00
17008 67.7789 939.30 1028.69 31.80
17009 67.7827 1042.30 1028.67 33.50
17010 67.7864 949.50 1028.65 31.80
17011 67.7902 1015.60 1028.63 32.90
17012 67.7939 1047.30 1028.61 33.30
17013 67.7977 1077.30 1028.59 34.20
17014 67.8014 1047.40 1028.57 33.30
17015 67.8052 1009.90 1028.55 32.90
17016 67.8089 996.50 1028.53 32.70
17017 67.8127 955.40 1028.51 31.70
17018 67.8164 1012.60 1028.49 32.90
17019 67.8202 968.10 1028.47 32.30
17020 67.8240 998.00 1028.45 32.70
17021 67.8277 1007.90 1028.43 32.80
17022 67.8315 1005.80 1028.41 32.70
17023 67.8352 1060.10 1028.39 33.50
17024 67.8390 1019.50 1028.37 33.00
17025 67.8427 1009.60 1028.35 32.90
17026 67.8465 952.10 1028.34 32.10
17027 67.8503 1046.00 1028.32 33.60
17028 67.8540 998.60 1028.30 32.20
17029 67.8578 973.70 1028.28 32.60
17030 67.8615 1000.40 1028.26 33.30
17031 67.8653 1023.80 1028.24 33.70
17032 67.8690 991.00 1028.23 32.30
17033 67.8728 965.70 1028.21 32.00
17034 67.8765 1016.50 1028.19 33.10
17035 67.8803 1045.10 1028.17 33.30
17036 67.8840 962.40 1028.15 32.20
17037 67.8878 973.10 1028.14 32.20
17038 67.8916 1056.30 1028.12 34.00
17039 67.8953 940.50 1028.10 32.20
17040 67.8991 1050.60 1028.09 33.80
17041 67.9028 1048.60 1028.07 33.60
17042 67.9066 1008.30 1028.05 33.30
17043 67.9103 912.90 1028.04 31.30
17044 67.9141 1002.90 1028.02 32.90
17045 67.9178 1033.40 1028.00 33.60
17046 67.9216 1049.90 1027.99 33.50
17047 67.9254 1030.30 1027.97 33.70
17048 67.9291 1060.30 1027.96 33.80
17049 67.9329 960.20 1027.94 32.00
17050 67.9366 1093.50 1027.93 34.80
17051 67.9404 1000.50 1027.91 32.80
17052 67.9442 1000.80 1027.90 32.60
17053 67.9479 1043.70 1027.89 33.90
17054 67.9517 1036.60 1027.87 33.30
17055 67.9554 982.80 1027.86 31.70
17056 67.9592 1040.70 1027.85 34.30
17057 67.9629 997.60 1027.83 33.30
17058 67.9667 958.80 1027.82 31.90
17059 67.9704 1022.60 1027.81 32.80
17060 67.9742 999.80 1027.80 32.70
17061 67.9780 1037.50 1027.79 33.50
17062 67.9817 1053.00 1027.78 33.70
17063 67.9855 1007.10 1027.77 33.00
17064 67.9892 956.20 1027.76 32.30
17065 67.9930 1037.90 1027.75 33.40
17066 67.9967 1041.30 1027.74 33.80
17067 68.0005 994.70 1027.73 32.70
17068 68.0043 1025.40 1027.72 33.60
17069 68.0080 1076.80 1027.72 34.30
17070 68.0118 1008.30 1027.71 33.40
17071 68.0155 1019.20 1027.71 33.40
17072 68.0193 1006.00 1027.70 33.10
17073 68.0230 947.20 1027.70 32.10
17074 68.0268 990.00 1027.69 33.00
17075 68.0305 1042.10 1027.69 33.70
17076 68.0343 1008.30 1027.69 33.10
17077 68.0381 1042.70 1027.69 33.60
17078 68.0418 1018.00 1027.69 33.40
17079 68.0456 1010.60 1027.69 33.00
17080 68.0493 1041.50 1027.69 33.80
17081 68.0531 1058.90 1027.69 33.40
17082 68.0568 1063.30 1027.69 33.60
17083 68.0606 988.40 1027.70 33.20
17084 68.0643 1007.10 1027.70 33.10
17085 68.0681 982.90 1027.71 32.50
17086 68.0719 1035.50 1027.72 33.40
17087 68.0756 1005.40 1027.73 33.20
17088 68.0794 968.90 1027.74 32.20
17089 68.0831 1011.40 1027.75 33.30
17090 68.0869 1002.60 1027.77 33.30
17091 68.0907 998.40 1027.79 33.10
17092 68.0944 967.00 1027.80 32.30
17093 68.0982 1040.40 1027.82 33.50
17094 68.1019 1020.90 1027.85 33.20
17095 68.1057 1018.40 1027.87 33.30
17096 68.1094 998.20 1027.90 33.20
17097 68.1132 974.30 1027.93 32.70
17098 68.1170 969.70 1027.96 32.60
17099 68.1207 1017.40 1027.99 33.40
17100 68.1245 982.20 1028.03 32.70
17101 68.1282 953.20 1028.07 31.90
17102 68.1320 980.30 1028.12 32.60
17103 68.1357 984.30 1028.17 32.80
17104 68.1395 1082.90 1028.22 34.40
17105 68.1433 1020.30 1028.28 33.10
17106 68.1470 987.30 1028.34 32.80
17107 68.1508 1033.40 1028.40 33.60
17108 68.1545 984.50 1028.48 32.50
17109 68.1583 1012.10 1028.56 33.30
17110 68.1620 941.60 1028.64 32.40
17111 68.1658 1001.00 1028.73 32.90
17112 68.1695 949.20 1028.83 31.60
17113 68.1733 1010.80 1028.94 32.60
17114 68.1771 1007.10 1029.05 33.30
17115 68.1808 1007.20 1029.18 33.00
17116 68.1846 995.80 1029.31 33.10
17117 68.1883 1050.40 1029.46 33.40
17118 68.1921 980.90 1029.62 32.30
17119 68.1958 1060.30 1029.80 33.80
17120 68.1996 1048.90 1029.99 33.20
17121 68.2034 1001.30 1030.19 32.60
17122 68.2071 1024.20 1030.42 33.30
17123 68.2109 1019.90 1030.66 33.00
17124 68.2146 1036.40 1030.93 33.40
17125 68.2184 1038.20 1031.23 33.50
17126 68.2222 985.80 1031.55 32.70
17127 68.2259 1085.10 1031.91 34.20
17128 68.2297 1028.60 1032.30 33.00
17129 68.2334 989.60 1032.74 32.50
17130 68.2372 1029.90 1033.22 33.60
17131 68.2409 967.50 1033.76 32.40
17132 68.2447 1010.70 1034.35 33.10
17133 68.2485 1069.40 1035.02 34.20
17134 68.2522 1000.30 1035.77 32.60
17135 68.2560 1051.50 1036.61 33.30
17136 68.2597 941.50 1037.57 32.20
17137 68.2635 1034.10 1038.65 33.40
17138 68.2672 1029.00 1039.88 33.10
17139 68.2710 1071.70 1041.29 33.80
17140 68.2748 990.40 1042.93 32.60
17141 68.2785 1014.10 1044.82 33.50
17142 68.2823 1023.30 1047.02 33.00
17143 68.2860 1074.60 1049.63 34.40
17144 68.2898 1017.20 1052.72 33.10
17145 68.2935 1039.30 1056.43 33.50
17146 68.2973 1028.60 1060.92 33.50
17147 68.3011 1051.10 1066.41 33.50
17148 68.3048 1049.20 1073.22 33.20
17149 68.3086 1075.90 1081.67 34.20
17150 68.3123 1089.60 1092.28 34.50
17151 68.3161 1086.40 1105.62 34.30
17152 68.3198 1125.80 1122.28 34.90
17153 68.3236 1137.00 1142.89 34.90
17154 68.3273 1095.00 1167.79 34.70
17155 68.3311 1219.90 1196.53 36.10
17156 68.3349 1235.50 1226.99 36.70
17157 68.3386 1293.30 1254.26 37.60
17158 68.3424 1261.80 1271.60 36.80
17159 68.3462 1241.90 1273.09 36.80
17160 68.3499 1258.40 1258.17 36.70
17161 68.3537 1193.30 1232.02 35.80
17162 68.3574 1143.60 1201.68 33.90
17163 68.3612 1138.00 1172.38 35.70
17164 68.3649 1041.70 1146.63 33.90
17165 68.3687 1123.20 1125.27 34.70
17166 68.3724 1108.80 1107.90 34.30
17167 68.3762 1021.50 1093.97 32.90
17168 68.3800 1025.80 1082.87 32.80
17169 68.3837 1089.50 1074.01 33.90
17170 68.3875 1073.10 1066.90 34.30
17171 68.3912 1063.70 1061.15 33.70
17172 68.3950 1072.70 1056.44 33.80
17173 68.3988 979.70 1052.56 31.80
17174 68.4025 981.70 1049.32 32.60
17175 68.4063 1080.80 1046.59 34.40
17176 68.4100 950.00 1044.26 31.80
17177 68.4138 1040.30 1042.27 33.60
17178 68.4175 987.90 1040.54 32.70
17179 68.4213 1055.00 1039.04 33.60
17180 68.4251 1038.70 1037.72 33.80
17181 68.4288 1040.50 1036.56 33.70
17182 68.4326 1016.70 1035.53 33.00
17183 68.4363 996.90 1034.62 32.50
17184 68.4401 990.40 1033.80 32.80
17185 68.4438 994.20 1033.07 33.00
17186 68.4476 1065.70 1032.41 34.00
17187 68.4514 1062.30 1031.81 34.00
17188 68.4551 1013.80 1031.26 32.70
17189 68.4589 1000.40 1030.77 32.70
17190 68.4626 984.90 1030.32 33.00
17191 68.4664 1026.00 1029.90 33.40
17192 68.4702 984.00 1029.52 32.30
17193 68.4739 1013.70 1029.16 32.90
17194 68.4777 953.70 1028.84 31.70
17195 68.4814 1043.50 1028.53 33.60
17196 68.4852 976.60 1028.25 33.00
17197 68.4889 1029.10 1027.99 33.50
17198 68.4927 953.20 1027.74 32.20
17199 68.4965 1028.10 1027.51 33.40
17200 68.5002 994.30 1027.30 32.90
17201 68.5040 988.50 1027.10 32.90
17202 68.5077 974.20 1026.91 32.60
17203 68.5115 1059.10 1026.72 34.20
17204 68.5152 1015.70 1026.55 33.10
17205 68.5190 980.80 1026.39 32.40
17206 68.5228 967.20 1026.24 32.80
17207 68.5265 1019.60 1026.09 33.50
17208 68.5303 1030.80 1025.96 33.30
17209 68.5340 1031.80 1025.82 33.30
17210 68.5378 1003.20 1025.70 33.20
17211 68.5416 976.80 1025.58 32.60
17212 68.5453 987.60 1025.46 33.00
17213 68.5491 1002.30 1025.35 33.10
17214 68.5528 1025.30 1025.24 33.80
17215 68.5566 1013.40 1025.14 32.50
17216 68.5603 994.40 1025.04 33.70
17217 68.5641 1021.20 1024.95 33.60
17218 68.5679 993.10 1024.86 32.70
17219 68.5716 1011.00 1024.77 33.30
17220 68.5754 969.10 1024.68 32.50
17221 68.5791 975.10 1024.60 32.60
17222 68.5829 985.10 1024.52 32.70
17223 68.5866 1066.40 1024.44 34.00
17224 68.5904 1029.80 1024.37 33.60
17225 68.5942 984.30 1024.29 32.70
17226 68.5979 1007.20 1024.22 33.20
17227 68.6017 996.00 1024.15 32.80
17228 68.6054 990.70 1024.08 33.00
17229 68.6092 1033.80 1024.02 33.50
17230 68.6130 1013.10 1023.95 33.10
17231 68.6167 1030.80 1023.89 33.70
17232 68.6205 1042.60 1023.83 33.90
17233 68.6242 968.30 1023.77 32.30
17234 68.6280 1017.40 1023.71 33.20
17235 68.6318 1037.00 1023.65 33.50
17236 68.6355 1007.80 1023.59 32.90
17237 68.6393 998.70 1023.54 32.90
17238 68.6430 973.80 1023.48 33.00
17239 68.6468 1016.00 1023.43 32.90
17240 68.6505 1023.90 1023.38 33.10
17241 68.6543 1049.70 1023.33 33.50
17242 68.6581 1010.80 1023.28 32.40
17243 68.6618 1051.70 1023.22 34.20
17244 68.6656 1001.00 1023.18 32.30
17245 68.6693 1010.90 1023.13 32.80
17246 68.6731 1038.60 1023.08 33.10
17247 68.6769 1023.90 1023.03 32.80
17248 68.6806 976.30 1022.98 31.90
17249 68.6844 1061.60 1022.94 34.00
17250 68.6881 1004.10 1022.89 33.00
17251 68.6919 1034.00 1022.85 33.50
17252 68.6956 1014.60 1022.80 33.50
17253 68.6994 1029.50 1022.76 33.50
17254 68.7032 966.30 1022.72 32.10
17255 68.7069 1013.70 1022.67 33.10
17256 68.7107 989.60 1022.63 32.70
17257 68.7144 973.10 1022.59 32.00
17258 68.7182 985.10 1022.55 32.90
17259 68.7219 989.90 1022.51 32.60
17260 68.7257 1052.40 1022.46 33.80
17261 68.7295 994.20 1022.42 33.00
17262 68.7332 1017.70 1022.38 33.00
17263 68.7370 994.20 1022.34 32.60
17264 68.7408 1033.80 1022.30 33.00
17265 68.7445 1035.50 1022.26 33.60
17266 68.7483 990.50 1022.23 32.80
17267 68.7520 1004.90 1022.19 32.80
17268 68.7558 999.50 1022.15 32.20
17269 68.7595 1023.30 1022.11 33.20
17270 68.7633 998.60 1022.07 33.30
17271 68.7671 1043.70 1022.03 33.50
17272 68.7708 970.00 1022.00 31.90
17273 68.7746 1104.80 1021.96 34.30
17274 68.7783 1013.70 1021.92 33.00
17275 68.7821 951.90 1021.89 32.20
17276 68.7859 944.70 1021.85 31.80
17277 68.7896 1062.20 1021.81 33.10
17278 68.7934 1000.30 1021.78 32.90
17279 68.7971 1071.30 1021.74 33.70
17280 68.8009 1033.90 1021.70 33.40
17281 68.8046 1031.90 1021.67 33.30
17282 68.8084 990.10 1021.63 32.80
17283 68.8122 1038.20 1021.60 32.60
17284 68.8159 1009.10 1021.56 33.10
17285 68.8197 1007.10 1021.53 33.10
17286 68.8234 956.80 1021.49 31.90
17287 68.8272 1047.70 1021.46 33.70
17288 68.8309 975.20 1021.42 32.70
17289 68.8347 1024.40 1021.39 33.20
17290 68.8385 1023.10 1021.35 32.50
17291 68.8422 968.70 1021.32 32.00
17292 68.8460 1020.80 1021.28 33.30
17293 68.8497 1061.90 1021.25 33.80
17294 68.8535 992.50 1021.22 32.20
17295 68.8573 1030.90 1021.18 32.80
17296 68.8610 986.80 1021.15 33.20
17297 68.8648 983.10 1021.11 32.50
17298 68.8685 985.80 1021.08 31.90
17299 68.8723 1060.90 1021.05 33.80
17300 68.8761 1067.30 1021.01 33.60
17301 68.8798 1013.30 1020.98 32.80
17302 68.8836 980.20 1020.95 32.50
17303 68.8873 1012.70 1020.91 33.00
17304 68.8911 982.50 1020.88 32.80
17305 68.8949 997.40 1020.85 32.70
17306 68.8986 1033.60 1020.81 33.60
17307 68.9024 997.90 1020.78 32.50
17308 68.9061 1054.10 1020.75 33.90
17309 68.9099 1007.70 1020.71 32.90
17310 68.9136 1021.70 1020.68 33.30
17311 68.9174 992.40 1020.65 32.50
17312 68.9212 939.70 1020.62 32.30
17313 68.9249 1008.70 1020.58 33.40
17314 68.9287 1074.30 1020.55 34.20
17315 68.9324 1027.70 1020.52 33.30
17316 68.9362 1027.30 1020.49 33.50
17317 68.9400 954.70 1020.45 32.00
17318 68.9437 1053.70 1020.16 33.90
17319 68.9475 966.40 1020.13 32.20
17320 68.9512 1071.30 1020.10 34.40
17321 68.9550 1015.60 1020.07 32.60
17322 68.9587 1012.10 1020.04 32.60
17323 68.9625 1049.00 1020.01 34.40
17324 68.9663 1047.90 1019.98 33.00
17325 68.9700 964.60 1019.96 32.40
17326 68.9738 1003.20 1019.93 32.90
17327 68.9775 1020.00 1019.90 32.80
17328 68.9813 1047.60 1019.87 32.90
17329 68.9851 1024.60 1019.84 33.40
17330 68.9888 982.00 1019.81 32.60
17331 68.9926 1057.50 1019.78 34.20
17332 68.9963 1103.30 1019.75 34.60
17333 69.0001 995.50 1019.72 32.80
17334 69.0039 1014.90 1019.69 33.10
17335 69.0076 1014.80 1019.66 33.60
17336 69.0114 996.70 1019.63 32.80
17337 69.0151 1055.50 1019.60 33.90
17338 69.0189 1033.60 1019.57 33.80
17339 69.0227 1013.60 1019.54 33.00
17340 69.0264 1009.20 1019.52 33.30
17341 69.0302 978.20 1019.49 32.70
17342 69.0339 1031.10 1019.46 33.70
17343 69.0377 994.80 1019.43 32.70
17344 69.0415 1038.70 1019.40 33.80
17345 69.0452 997.50 1019.37 33.20
17346 69.0490 1037.80 1019.34 33.60
17347 69.0527 1017.20 1019.31 33.20
17348 69.0565 969.70 1019.28 31.90
17349 69.0602 1024.80 1019.25 33.80
17350 69.0640 1039.10 1029.51 33.70
17351 69.0678 1031.00 1029.61 33.60
17352 69.0715 980.20 1029.71 32.40
17353 69.0753 1002.20 1029.81 32.80
17354 69.0790 1022.50 1029.91 33.30
17355 69.0828 1026.80 1030.02 33.40
17356 69.0866 1023.60 1030.13 33.30
17357 69.0903 1056.70 1030.24 33.60
17358 69.0941 1005.50 1030.35 33.00
17359 69.0978 1006.30 1030.47 33.30
17360 69.1016 1009.80 1030.59 33.10
17361 69.1053 1042.50 1030.72 33.50
17362 69.1091 997.50 1030.84 33.10
17363 69.1129 955.20 1030.97 31.90
17364 69.1166 1017.90 1031.10 33.00
17365 69.1204 1030.80 1031.24 33.60
17366 69.1242 1020.00 1031.38 33.50
17367 69.1279 1000.90 1031.52 32.50
17368 69.1317 1055.40 1031.67 33.40
17369 69.1354 1035.30 1031.82 32.80
17370 69.1392 1038.10 1031.97 33.20
17371 69.1429 1071.60 1032.13 33.50
17372 69.1467 1046.60 1032.29 33.10
17373 69.1505 960.80 1032.45 31.70
17374 69.1542 1022.30 1032.62 32.60
17375 69.1580 1006.40 1032.80 32.40
17376 69.1617 1047.00 1032.98 33.40
17377 69.1655 1023.60 1033.16 33.30
17378 69.1693 1061.00 1033.35 33.20
17379 69.1730 1026.20 1033.54 32.60
17380 69.1768 944.70 1033.74 31.60
17381 69.1805 1040.50 1033.94 33.20
17382 69.1843 1010.40 1034.15 33.00
17383 69.1881 1016.50 1034.36 33.00
17384 69.1918 1065.10 1034.58 33.60
17385 69.1956 1090.90 1034.80 33.90
17386 69.1993 986.80 1035.03 32.60
17387 69.2031 986.50 1035.27 32.50
17388 69.2068 998.50 1035.51 32.60
17389 69.2106 1075.90 1035.76 33.80
17390 69.2144 1051.90 1036.02 33.90
17391 69.2181 1037.20 1036.28 33.20
17392 69.2219 1050.30 1036.55 33.60
17393 69.2256 1084.80 1036.83 34.30
17394 69.2294 1116.40 1037.12 34.90
17395 69.2332 999.50 1037.41 32.40
17396 69.2369 957.00 1037.71 31.80
17397 69.2407 977.20 1038.02 32.50
17398 69.2445 1068.00 1038.34 33.60
17399 69.2482 1073.80 1038.67 33.70
17400 69.2520 1040.60 1039.01 33.20
17401 69.2557 1066.20 1039.36 33.40
17402 69.2595 1035.60 1039.71 32.70
17403 69.2632 1036.90 1040.08 33.80
17404 69.2670 1023.40 1040.46 32.70
17405 69.2708 995.60 1040.85 32.00
17406 69.2745 1032.50 1041.25 33.10
17407 69.2783 1094.70 1041.67 34.40
17408 69.2820 1078.90 1042.10 34.00
17409 69.2858 1017.70 1042.54 33.20
17410 69.2896 1088.40 1042.99 34.30
17411 69.2933 1044.60 1043.46 33.20
17412 69.2971 1013.60 1043.94 33.00
17413 69.3008 1050.80 1044.44 32.80
17414 69.3046 1081.00 1044.95 33.80
17415 69.3084 1027.70 1045.48 33.10
17416 69.3121 1017.20 1046.03 32.80
17417 69.3159 1086.40 1046.60 34.30
17418 69.3196 1073.70 1047.18 34.00
17419 69.3234 1019.20 1047.78 33.00
17420 69.3271 1080.40 1048.41 34.50
17421 69.3309 1102.40 1049.05 34.30
17422 69.3347 1031.40 1049.72 33.00
17423 69.3384 1060.50 1050.41 33.90
17424 69.3422 1040.10 1051.12 33.20
17425 69.3459 1049.20 1051.86 33.60
17426 69.3497 1025.50 1052.63 33.30
17427 69.3535 1058.80 1053.42 33.50
17428 69.3572 1024.90 1054.24 32.70
17429 69.3610 1039.90 1055.10 33.90
17430 69.3647 1078.80 1055.98 34.20
17431 69.3685 1090.60 1056.90 34.50
17432 69.3723 1060.00 1057.85 33.70
17433 69.3760 1086.70 1058.84 34.10
17434 69.3798 1056.50 1059.86 33.80
17435 69.3835 1058.40 1060.93 33.40
17436 69.3873 1045.80 1062.04 33.40
17437 69.3911 1122.00 1063.20 34.80
17438 69.3948 1093.60 1064.39 34.00
17439 69.3986 1021.90 1065.64 33.20
17440 69.4023 1055.80 1066.94 33.70
17441 69.4061 1063.30 1068.30 34.00
17442 69.4099 1031.90 1069.72 33.50
17443 69.4136 1040.10 1071.19 33.40
17444 69.4174 1048.30 1072.73 33.70
17445 69.4211 1101.20 1074.34 34.40
17446 69.4249 1043.50 1076.02 33.80
17447 69.4287 1062.30 1077.78 33.90
17448 69.4324 1089.20 1079.62 34.40
17449 69.4362 1155.20 1081.54 34.80
17450 69.4399 1111.70 1083.56 34.80
17451 69.4437 1116.90 1085.68 34.40
17452 69.4474 1110.00 1087.89 34.50
17453 69.4512 1059.60 1090.23 33.20
17454 69.4550 1060.10 1092.67 33.80
17455 69.4587 1049.20 1095.25 33.10
17456 69.4625 1140.90 1097.96 36.10
17457 69.4662 1108.10 1100.82 34.80
17458 69.4700 1063.30 1103.82 33.50
17459 69.4738 1111.30 1106.99 33.80
17460 69.4775 1109.80 1110.34 34.70
17461 69.4813 1080.20 1113.88 34.10
17462 69.4850 1124.30 1117.63 35.10
17463 69.4888 1142.00 1121.60 35.30
17464 69.4926 1121.60 1125.81 34.80
17465 69.4963 1135.60 1130.28 34.80
17466 69.5001 1070.60 1135.02 33.90
17467 69.5038 1211.70 1140.08 36.20
17468 69.5076 1173.00 1145.48 35.50
17469 69.5114 1183.00 1151.20 36.20
17470 69.5151 1167.40 1157.34 35.40
17471 69.5189 1241.60 1163.91 37.10
17472 69.5226 1158.00 1170.93 35.20
17473 69.5264 1244.20 1178.47 37.00
17474 69.5302 1241.60 1186.59 36.70
17475 69.5339 1166.10 1195.31 35.20
17476 69.5377 1220.20 1204.73 36.40
17477 69.5414 1198.20 1214.86 36.10
17478 69.5452 1213.50 1225.92 36.30
17479 69.5490 1230.50 1237.85 36.70
17480 69.5527 1271.70 1250.86 36.80
17481 69.5565 1229.00 1265.00 36.10
17482 69.5602 1297.50 1280.45 37.60
17483 69.5640 1336.70 1297.33 38.10
17484 69.5678 1280.10 1316.01 37.40
17485 69.5715 1295.60 1336.47 37.30
17486 69.5753 1358.10 1359.07 38.90
17487 69.5790 1360.20 1384.11 38.50
17488 69.5828 1456.00 1412.01 39.80
17489 69.5865 1422.40 1443.03 39.90
17490 69.5903 1452.60 1477.89 39.90
17491 69.5941 1498.50 1517.13 40.20
17492 69.5978 1519.70 1561.46 41.00
17493 69.6016 1625.40 1611.71 42.20
17494 69.6053 1595.20 1669.17 42.50
17495 69.6091 1672.00 1734.89 43.20
17496 69.6129 1801.90 1811.07 44.10
17497 69.6166 1787.80 1899.73 43.40
17498 69.6204 1922.50 2003.33 45.40
17499 69.6241 1983.90 2126.13 46.70
17500 69.6279 2098.10 2273.73 47.70
17501 69.6317 2229.00 2450.67 49.10
17502 69.6354 2431.40 2666.78 51.50
17503 69.6392 2738.50 2933.24 55.50
17504 69.6429 3022.40 3262.99 57.80
17505 69.6467 3413.70 3673.60 61.50
17506 69.6505 3950.10 4186.45 66.90
17507 69.6542 4735.50 4822.22 73.20
17508 69.6580 5729.40 5604.73 80.30
17509 69.6617 7028.30 6545.19 93.30
17510 69.6655 8356.90 7627.24 100.20
17511 69.6693 9825.70 8782.74 109.40
17512 69.6730 10840.80 9856.97 114.00
17513 69.6768 11894.40 10607.50 121.60
17514 69.6805 11952.30 10808.70 122.00
17515 69.6843 10857.90 10391.60 115.20
17516 69.6881 9660.90 9490.10 109.20
17517 69.6918 7908.10 8363.34 97.60
17518 69.6956 6510.50 7221.39 87.80
17519 69.6993 5349.90 6186.74 78.90
17520 69.7031 4337.30 5303.58 70.00
17521 69.7068 3695.80 4578.22 64.80
17522 69.7106 3244.20 3988.43 59.90
17523 69.7144 2917.80 3514.59 56.70
17524 69.7181 2570.30 3134.62 53.80
17525 69.7219 2446.80 2829.69 51.30
17526 69.7256 2242.60 2582.68 49.80
17527 69.7294 2006.90 2382.04 46.50
17528 69.7332 1929.60 2216.28 45.60
17529 69.7369 1835.80 2078.50 44.40
17530 69.7407 1713.80 1963.18 42.80
17531 69.7444 1690.10 1865.20 42.50
17532 69.7482 1618.10 1780.97 41.70
17533 69.7520 1588.10 1708.91 41.20
17534 69.7557 1589.30 1646.25 40.90
17535 69.7595 1457.70 1591.44 39.30
17536 69.7632 1422.50 1543.41 39.90
17537 69.7670 1365.50 1501.02 38.10
17538 69.7708 1300.40 1463.37 37.00
17539 69.7745 1391.80 1429.90 38.60
17540 69.7783 1359.30 1399.93 38.40
17541 69.7820 1348.00 1373.03 37.90
17542 69.7858 1381.30 1348.84 38.70
17543 69.7896 1254.20 1326.98 36.70
17544 69.7933 1336.20 1307.13 37.90
17545 69.7971 1286.60 1289.11 37.20
17546 69.8008 1280.10 1272.67 37.10
17547 69.8046 1268.00 1257.67 36.60
17548 69.8084 1155.00 1243.82 35.10
17549 69.8121 1248.70 1231.17 36.50
17550 69.8159 1228.50 1219.52 36.30
17551 69.8196 1223.20 1208.76 36.30
17552 69.8234 1213.90 1198.79 36.20
17553 69.8271 1190.70 1189.59 35.60
17554 69.8309 1209.90 1181.02 36.20
17555 69.8347 1172.50 1173.05 35.50
17556 69.8384 1132.20 1165.62 34.80
17557 69.8422 1167.40 1158.71 35.40
17558 69.8459 1190.20 1152.23 35.30
17559 69.8497 1171.90 1146.19 35.20
17560 69.8535 1155.80 1140.51 35.20
17561 69.8572 1173.20 1135.18 34.60
17562 69.8610 1144.90 1130.18 35.00
17563 69.8647 1130.60 1125.48 35.00
17564 69.8685 1094.30 1121.02 34.10
17565 69.8723 1166.90 1116.85 35.50
17566 69.8760 1128.80 1112.89 34.70
17567 69.8798 1131.30 1109.15 34.60
17568 69.8835 1090.90 1105.62 34.10
17569 69.8873 1161.50 1102.27 35.20
17570 69.8911 1112.10 1099.09 34.90
17571 69.8948 1145.00 1096.07 35.50
17572 69.8986 1092.40 1093.20 34.70
17573 69.9023 1100.40 1090.49 34.60
17574 69.9061 1090.60 1087.88 34.20
17575 69.9099 1114.80 1085.42 34.70
17576 69.9136 1127.60 1083.06 35.00
17577 69.9174 1152.20 1080.82 35.50
17578 69.9211 1124.20 1078.67 35.10
17579 69.9249 1144.70 1076.62 35.20
17580 69.9287 1071.70 1074.66 34.10
17581 69.9324 1065.70 1072.79 34.20
17582 69.9362 1111.40 1070.99 34.40
17583 69.9399 1097.80 1069.27 34.50
17584 69.9437 1103.20 1067.62 34.30
17585 69.9474 1066.80 1066.04 34.20
17586 69.9512 1079.10 1064.52 34.30
17587 69.9550 1008.90 1063.06 32.50
17588 69.9587 1047.70 1061.66 33.20
17589 69.9625 1074.50 1060.32 34.70
17590 69.9662 1023.30 1059.01 33.40
17591 69.9700 1140.80 1057.77 34.80
17592 69.9737 1056.30 1056.57 33.40
17593 69.9775 1080.80 1055.41 33.90
17594 69.9813 1003.00 1054.29 32.90
17595 69.9850 1050.30 1053.21 33.60
17596 69.9888 1065.90 1052.17 33.90
17597 69.9926 1039.00 1051.17 33.20
17598 69.9963 1040.50 1050.20 33.50
17599 70.0001 1026.50 1049.26 33.40
17600 70.0038 967.60 1048.35 32.20
17601 70.0076 1029.40 1047.48 33.10
17602 70.0114 1054.40 1046.63 33.90
17603 70.0151 1029.00 1045.81 33.60
17604 70.0189 1051.60 1045.01 33.70
17605 70.0226 1014.60 1044.24 33.00
17606 70.0264 1069.80 1043.49 34.20
17607 70.0301 1062.00 1042.77 34.10
17608 70.0339 1020.10 1042.07 33.10
17609 70.0377 1024.40 1041.38 33.30
17610 70.0414 1094.90 1040.72 34.70
17611 70.0452 1026.20 1040.08 33.40
17612 70.0489 994.90 1039.46 32.80
17613 70.0527 1036.70 1038.85 33.30
17614 70.0565 1021.60 1038.26 32.90
17615 70.0602 1013.30 1037.69 33.00
17616 70.0640 1030.60 1037.13 34.10
17617 70.0677 1087.40 1036.59 34.30
17618 70.0715 1002.70 1036.06 32.80
17619 70.0753 1021.80 1035.54 33.00
17620 70.0790 1071.80 1035.04 34.00
17621 70.0828 1047.40 1034.56 33.70
17622 70.0865 1021.30 1034.08 33.90
17623 70.0903 1022.00 1033.62 32.90
17624 70.0941 1018.10 1033.17 32.70
17625 70.0978 1053.90 1032.72 33.70
17626 70.1016 991.40 1032.30 32.20
17627 70.1053 1045.40 1031.88 33.00
17628 70.1091 1034.80 1031.47 33.10
17629 70.1128 1070.10 1031.07 33.70
17630 70.1166 1035.20 1030.68 33.10
17631 70.1204 987.30 1030.29 32.60
17632 70.1241 1044.80 1029.92 33.40
17633 70.1279 1099.30 1029.56 34.40
17634 70.1317 1052.60 1029.20 33.10
17635 70.1354 1019.70 1028.85 32.60
17636 70.1392 1036.30 1028.51 33.00
17637 70.1429 1091.60 1028.18 34.30
17638 70.1467 1012.50 1027.85 32.60
17639 70.1504 1016.30 1027.54 32.90
17640 70.1542 984.70 1027.22 32.30
17641 70.1580 1032.40 1026.92 32.80
17642 70.1617 1058.30 1026.62 33.70
17643 70.1655 1036.40 1026.32 33.80
17644 70.1692 1035.90 1026.04 33.10
17645 70.1730 1017.10 1025.75 32.50
17646 70.1768 1014.60 1025.48 32.80
17647 70.1805 1044.40 1025.21 33.10
17648 70.1843 1071.90 1024.94 33.70
17649 70.1880 1028.20 1024.68 33.00
17650 70.1918 1017.50 1024.43 33.00
17651 70.1956 991.70 1024.17 32.50
17652 70.1993 984.70 1023.93 32.40
17653 70.2031 1031.70 1023.69 33.20
17654 70.2068 1015.00 1023.45 32.90
17655 70.2106 1033.20 1023.22 32.60
17656 70.2143 1015.50 1022.99 33.00
17657 70.2181 1004.10 1022.76 32.50
17658 70.2219 996.50 1022.54 32.60
17659 70.2256 1026.90 1022.32 33.20
17660 70.2294 1020.20 1022.11 32.80
17661 70.2331 1036.20 1021.90 33.10
17662 70.2369 1002.00 1021.69 32.30
17663 70.2406 1024.40 1021.49 33.30
17664 70.2444 1026.70 1021.29 33.50
17665 70.2482 1050.70 1021.10 33.80
17666 70.2519 992.30 1020.90 32.30
17667 70.2557 1043.90 1020.71 32.50
17668 70.2595 1046.00 1020.52 32.80
17669 70.2632 1019.20 1020.34 33.30
17670 70.2670 984.30 1020.16 32.40
17671 70.2707 964.10 1019.98 31.90
17672 70.2745 1008.10 1019.80 32.80
17673 70.2782 963.10 1019.63 32.10
17674 70.2820 1015.50 1019.46 33.00
17675 70.2858 1026.30 1019.29 32.90
17676 70.2895 964.40 1019.13 31.90
17677 70.2933 976.40 1018.96 32.20
17678 70.2970 1048.50 1008.55 33.50
17679 70.3008 981.00 1008.51 32.00
17680 70.3046 999.90 1008.48 32.60
17681 70.3083 1057.80 1008.44 33.80
17682 70.3121 980.90 1008.41 32.30
17683 70.3158 1008.40 1008.37 32.70
17684 70.3196 1006.70 1008.33 32.90
17685 70.3234 1004.60 1008.30 32.50
17686 70.3271 994.10 1008.26 32.70
17687 70.3309 1004.40 1008.23 32.10
17688 70.3346 1013.00 1008.19 32.90
17689 70.3384 936.50 1008.16 31.60
17690 70.3421 993.10 1008.12 33.00
17691 70.3459 1012.80 1008.09 32.60
17692 70.3497 987.90 1008.05 32.60
17693 70.3534 995.80 1008.01 32.90
17694 70.3572 1030.90 1007.98 32.90
17695 70.3609 1001.60 1007.94 32.50
17696 70.3647 1021.30 1007.91 33.40
17697 70.3684 969.50 1007.87 31.90
17698 70.3722 993.30 1007.84 32.60
17699 70.3760 985.30 1007.80 32.40
17700 70.3797 1023.30 1007.77 33.50
17701 70.3835 997.80 1007.73 32.80
17702 70.3873 980.90 1007.69 32.00
17703 70.3910 1036.60 1007.66 33.80
17704 70.3948 1019.20 1007.62 33.00
17705 70.3985 1034.70 1007.59 32.70
17706 70.4023 983.40 1007.55 32.90
17707 70.4060 1008.80 1007.52 32.90
17708 70.4098 991.70 1007.48 32.80
17709 70.4136 992.10 1007.44 32.60
17710 70.4173 1061.40 1007.41 33.90
17711 70.4211 982.50 1007.37 32.60
17712 70.4248 944.70 1007.34 32.00
17713 70.4286 935.70 1007.30 31.80
17714 70.4324 946.60 1007.26 32.00
17715 70.4361 1002.30 1007.23 32.60
17716 70.4399 998.40 1007.19 32.80
17717 70.4436 964.60 1007.16 32.00
17718 70.4474 1037.30 1007.12 33.70
17719 70.4512 978.30 1007.08 32.60
17720 70.4549 1025.00 1007.05 33.30
17721 70.4587 995.10 1007.01 32.30
17722 70.4624 989.60 1006.98 32.80
17723 70.4662 1007.60 1006.94 33.40
17724 70.4699 984.30 1006.90 32.70
17725 70.4737 1001.20 1006.87 32.70
17726 70.4775 992.90 1006.83 32.80
17727 70.4812 986.50 1006.80 32.60
17728 70.4850 992.90 1006.76 33.00
17729 70.4887 1000.10 1006.72 32.70
17730 70.4925 958.40 1006.69 32.30
17731 70.4962 965.30 1006.65 32.00
17732 70.5000 1017.60 1006.62 33.20
17733 70.5038 1021.60 1006.58 33.50
17734 70.5075 966.00 1006.54 32.30
17735 70.5113 994.60 1006.51 33.10
17736 70.5150 966.30 1006.47 31.90
17737 70.5188 1012.60 1006.43 32.90
17738 70.5226 1046.80 1006.40 34.10
17739 70.5263 991.10 1006.36 33.10
17740 70.5301 958.10 1006.33 32.40
17741 70.5338 977.30 1006.29 32.70
17742 70.5376 970.90 1006.25 32.30
17743 70.5414 1031.90 1006.22 33.50
17744 70.5451 941.30 1006.18 31.90
17745 70.5489 1024.20 1006.14 33.50
17746 70.5526 990.50 1006.11 32.70
17747 70.5564 966.70 1006.07 32.30
17748 70.5601 998.50 1006.04 32.50
17749 70.5639 968.30 1006.00 33.30
17750 70.5677 1002.30 1005.96 33.40
17751 70.5714 1034.30 1005.93 32.60
17752 70.5752 1040.80 1005.89 32.80
17753 70.5789 993.30 1005.85 32.20
17754 70.5827 945.10 1005.82 31.60
17755 70.5864 933.60 1005.78 31.00
17756 70.5902 1053.10 1005.74 33.00
17757 70.5940 983.70 1005.71 32.10
17758 70.5977 1018.10 1005.67 32.40
17759 70.6015 1037.20 1005.63 32.90
17760 70.6052 1063.30 1005.60 33.20
17761 70.6090 984.10 1005.56 32.40
17762 70.6127 1009.40 1005.52 32.50
17763 70.6165 1005.80 1005.49 32.40
17764 70.6203 988.40 1005.45 32.20
17765 70.6240 969.60 1005.41 32.00
17766 70.6278 1010.20 1005.38 32.40
17767 70.6316 1000.00 1005.34 32.30
17768 70.6353 1011.70 1005.30 32.40
17769 70.6391 1002.80 1005.27 32.20
17770 70.6428 1006.70 1005.23 32.70
17771 70.6466 994.90 1005.19 31.60
17772 70.6503 942.60 1005.16 31.50
17773 70.6541 997.20 1005.12 32.10
17774 70.6579 981.60 1005.08 32.10
17775 70.6616 997.30 1005.05 32.00
17776 70.6654 963.70 1005.01 32.70
17777 70.6691 1059.80 1004.97 33.50
17778 70.6729 956.30 1004.94 31.40
17779 70.6766 1089.50 1004.90 34.10
17780 70.6804 997.80 1004.86 32.30
17781 70.6842 999.10 1004.83 32.50
17782 70.6879 1018.70 1004.79 32.90
17783 70.6917 967.90 1004.75 31.50
17784 70.6954 992.40 1004.72 32.50
17785 70.6992 954.20 1004.68 31.70
17786 70.7030 968.10 1004.64 32.10
17787 70.7067 988.70 1004.61 32.30
17788 70.7105 994.00 1004.57 32.60
17789 70.7142 1021.20 1004.53 32.70
17790 70.7180 1022.10 1004.49 32.60
17791 70.7217 1018.80 1004.46 32.80
17792 70.7255 943.80 1004.42 31.50
17793 70.7293 1016.50 1004.38 32.70
17794 70.7330 987.40 1004.35 32.30
17795 70.7368 998.80 1004.31 32.20
17796 70.7405 993.10 1004.27 32.50
17797 70.7443 1014.90 1004.24 32.80
17798 70.7480 954.70 1004.20 31.70
17799 70.7518 964.10 1004.16 31.90
17800 70.7556 1036.40 1004.12 33.20
17801 70.7593 1004.70 1004.09 32.30
17802 70.7631 961.10 1004.05 32.10
17803 70.7668 977.90 1004.01 32.50
17804 70.7706 1043.80 1003.98 33.30
17805 70.7744 1011.60 1003.94 32.60
17806 70.7781 968.40 1003.90 31.60
17807 70.7819 986.60 1003.86 32.10
17808 70.7856 1004.60 1003.83 32.50
17809 70.7894 960.90 1003.79 31.70
17810 70.7931 983.20 1003.75 32.30
17811 70.7969 1058.90 1003.72 33.70
17812 70.8007 985.80 1003.68 32.30
17813 70.8044 968.60 1003.64 31.70
17814 70.8082 948.70 1003.60 31.80
17815 70.8119 995.10 1003.57 32.30
17816 70.8157 956.00 1003.53 31.80
17817 70.8195 942.70 1003.49 31.30
17818 70.8232 997.90 1003.45 32.60
17819 70.8270 1003.20 1003.42 32.40
17820 70.8307 950.30 1003.38 31.60
17821 70.8345 989.50 1003.34 32.10
17822 70.8382 976.00 1003.31 32.20
17823 70.8420 952.00 1003.27 31.40
17824 70.8458 934.60 1003.23 31.70
17825 70.8495 987.50 1003.19 32.20
17826 70.8533 992.30 1003.16 32.40
17827 70.8570 1022.40 1003.12 32.90
17828 70.8608 993.00 1003.08 32.10
17829 70.8645 997.80 1003.04 32.80
17830 70.8683 969.50 1003.01 32.30
17831 70.8721 1032.70 1002.97 32.60
17832 70.8758 1021.60 1002.93 32.60
17833 70.8796 974.90 1002.89 32.00
17834 70.8833 1007.90 1002.86 32.60
17835 70.8871 1018.60 1002.82 32.90
17836 70.8908 943.00 1002.78 31.80
17837 70.8946 998.80 1002.74 32.50
17838 70.8984 999.30 1002.71 32.60
17839 70.9021 984.10 1002.67 32.20
17840 70.9059 995.00 1002.63 32.30
17841 70.9096 995.70 1002.59 32.20
17842 70.9134 1031.70 1002.56 33.20
17843 70.9171 1021.90 1002.52 32.90
17844 70.9209 974.40 1002.48 32.10
17845 70.9247 919.30 1002.44 31.40
17846 70.9284 1007.90 1002.40 32.80
17847 70.9322 997.40 1002.37 32.50
17848 70.9359 1005.00 1002.33 32.60
17849 70.9397 992.00 1002.29 32.30
17850 70.9434 1007.00 1002.25 33.10
17851 70.9472 987.00 1002.22 32.30
17852 70.9510 969.00 1002.18 32.10
17853 70.9547 1001.30 1002.14 32.80
17854 70.9585 1029.00 1002.10 32.70
17855 70.9622 959.60 1002.06 31.40
17856 70.9660 1033.90 1002.03 33.80
17857 70.9698 1013.50 1001.99 32.60
17858 70.9735 1008.90 1001.95 32.70
17859 70.9773 938.40 1001.91 31.20
17860 70.9810 1005.40 1001.88 32.60
17861 70.9848 971.40 1001.84 32.10
17862 70.9885 985.20 1001.80 32.10
17863 70.9923 991.40 1001.76 32.60
17864 70.9960 1021.30 1001.72 33.20
17865 70.9998 1036.80 1001.69 33.20
17866 71.0036 975.50 1001.65 32.10
17867 71.0073 1016.80 1001.61 32.80
17868 71.0111 984.60 1001.57 32.10
17869 71.0148 943.00 1001.54 31.80
17870 71.0186 1022.40 1001.50 32.90
17871 71.0223 1051.60 1001.46 33.50
17872 71.0261 982.70 1001.42 32.20
17873 71.0299 992.60 1001.38 32.30
17874 71.0336 994.40 1001.35 32.20
17875 71.0374 1034.30 1001.31 33.00
17876 71.0411 1045.60 1001.27 33.40
17877 71.0449 1011.80 1001.23 32.60
17878 71.0487 979.30 1001.19 32.50
17879 71.0524 1032.40 1001.16 33.60
17880 71.0562 1031.30 1001.12 33.20
17881 71.0599 990.50 1001.08 31.90
17882 71.0637 991.10 1001.04 33.00
17883 71.0674 987.40 1001.00 32.60
17884 71.0712 952.90 1000.96 31.50
17885 71.0749 1015.60 1000.93 32.40
17886 71.0787 1010.60 1000.89 32.30
17887 71.0825 1011.80 1000.85 32.70
17888 71.0862 990.50 1000.81 32.40
17889 71.0900 979.20 1000.77 32.20
17890 71.0937 925.00 1000.74 31.30
17891 71.0975 1011.60 1000.70 32.90
17892 71.1012 969.40 1000.66 32.10
17893 71.1050 993.20 1000.62 32.80
17894 71.1088 1024.90 1000.58 33.00
17895 71.1125 996.10 1000.55 32.80
17896 71.1163 984.20 1000.51 32.20
17897 71.1200 940.50 1000.47 31.80
17898 71.1238 987.60 1000.43 32.50
17899 71.1275 1007.20 1000.39 32.60
17900 71.1313 989.00 1000.35 32.50
17901 71.1351 1004.40 1000.32 32.70
17902 71.1388 1002.00 1000.28 32.70
17903 71.1426 962.00 1000.24 32.20
17904 71.1463 1012.40 1000.20 32.90
17905 71.1501 923.10 1000.16 31.40
17906 71.1538 949.50 1000.12 31.90
17907 71.1576 958.10 1000.09 31.80
17908 71.1613 986.40 1000.05 31.80
17909 71.1651 976.10 1000.01 32.80
17910 71.1689 1012.90 999.97 32.90
17911 71.1726 986.50 999.93 32.30
17912 71.1764 997.60 999.90 32.40
17913 71.1801 1007.20 999.86 32.80
17914 71.1839 955.80 999.82 31.80
17915 71.1876 1023.50 999.78 32.90
17916 71.1914 979.80 999.74 32.20
17917 71.1952 971.90 999.70 31.90
17918 71.1989 970.40 999.66 32.30
17919 71.2027 1018.80 999.63 32.60
17920 71.2064 946.70 999.59 32.30
17921 71.2102 980.20 999.55 32.50
17922 71.2139 978.90 999.51 32.20
17923 71.2177 955.20 999.47 32.20
17924 71.2215 981.70 999.43 32.20
17925 71.2252 965.40 999.40 32.20
17926 71.2290 1005.50 999.36 32.60
17927 71.2327 1008.40 999.32 32.80
17928 71.2365 1005.70 999.28 32.80
17929 71.2402 931.60 999.24 31.40
17930 71.2440 941.90 999.20 32.10
17931 71.2478 938.60 999.16 31.60
17932 71.2515 991.90 999.13 32.40
17933 71.2553 975.00 999.09 32.20
17934 71.2590 955.40 999.05 31.50
17935 71.2628 951.30 999.01 32.10
17936 71.2665 996.70 998.97 32.50
17937 71.2703 974.10 998.93 32.10
17938 71.2740 948.90 998.89 31.70
17939 71.2778 987.20 998.86 32.30
17940 71.2816 977.80 998.82 32.30
17941 71.2853 952.80 998.78 32.00
17942 71.2891 994.50 998.74 32.40
17943 71.2928 950.20 998.70 31.80
17944 71.2966 985.50 998.66 32.60
17945 71.3003 1036.10 998.62 33.10
17946 71.3041 955.30 998.59 32.00
17947 71.3079 994.30 998.55 32.20
17948 71.3116 998.20 998.51 32.60
17949 71.3154 982.40 998.47 32.30
17950 71.3191 959.00 998.43 31.80
17951 71.3229 1010.80 998.39 33.10
17952 71.3266 1052.40 998.35 33.90
17953 71.3304 1010.70 998.32 32.80
17954 71.3341 978.80 998.28 32.10
17955 71.3379 1027.30 998.24 33.10
17956 71.3417 962.00 998.20 32.20
17957 71.3454 962.10 998.16 32.00
17958 71.3492 969.40 998.12 32.30
17959 71.3529 996.20 998.08 32.40
17960 71.3567 950.00 998.04 32.00
17961 71.3604 975.70 998.01 31.80
17962 71.3642 978.20 997.97 32.90
17963 71.3679 991.60 997.93 32.80
17964 71.3717 1001.60 997.89 32.90
17965 71.3755 1012.40 997.85 32.90
17966 71.3792 978.90 997.81 32.40
17967 71.3830 949.10 997.77 31.80
17968 71.3867 1007.10 997.73 33.20
17969 71.3905 1016.50 997.69 33.20
17970 71.3942 961.00 997.66 32.10
17971 71.3980 1010.80 997.62 33.00
17972 71.4017 1034.10 997.58 33.20
17973 71.4055 992.40 997.54 32.80
17974 71.4093 1018.60 997.50 33.20
17975 71.4130 942.30 997.46 31.90
17976 71.4168 977.40 997.42 32.00
17977 71.4205 982.00 997.38 32.30
17978 71.4243 984.40 997.34 32.70
17979 71.4280 995.50 997.31 32.80
17980 71.4318 976.20 997.27 32.30
17981 71.4355 967.90 997.23 32.20
17982 71.4393 1007.40 997.19 32.70
17983 71.4431 949.50 997.15 31.90
17984 71.4468 984.70 997.11 32.10
17985 71.4506 983.50 997.07 32.70
17986 71.4543 962.60 997.03 32.10
17987 71.4581 973.20 996.99 31.30
17988 71.4618 992.50 996.96 32.10
17989 71.4656 931.10 996.92 32.10
17990 71.4694 1053.30 996.88 33.50
17991 71.4731 1006.90 996.84 32.30
17992 71.4769 946.80 996.80 31.30
17993 71.4806 959.10 996.76 31.80
17994 71.4844 924.50 996.72 31.30
17995 71.4881 1027.20 996.68 33.40
17996 71.4919 933.30 996.64 31.50
17997 71.4956 981.70 996.60 32.20
17998 71.4994 937.90 996.57 31.70
17999 71.5031 1007.40 996.53 32.90
18000 71.5069 974.60 996.49 32.30
18001 71.5107 1028.60 996.45 33.40
18002 71.5144 974.10 996.41 32.10
18003 71.5182 1025.40 996.37 33.20
18004 71.5219 998.50 996.33 33.00
18005 71.5257 970.80 996.29 32.40
18006 71.5294 1058.30 996.25 33.80
18007 71.5332 1030.80 996.21 33.50
18008 71.5369 979.40 996.17 32.10
18009 71.5407 979.90 996.14 32.70
18010 71.5445 882.50 996.10 30.70
18011 71.5482 985.50 996.06 32.30
18012 71.5520 1004.10 996.02 32.90
18013 71.5557 1012.10 995.98 32.90
18014 71.5595 961.90 995.94 31.40
18015 71.5632 968.30 995.90 32.70
18016 71.5670 951.40 995.86 32.10
18017 71.5707 1008.90 995.82 33.00
18018 71.5745 998.10 995.78 32.40
18019 71.5782 963.50 995.74 32.20
18020 71.5820 968.90 995.71 31.90
18021 71.5858 986.00 995.67 32.50
18022 71.5895 994.20 995.63 32.70
18023 71.5933 1017.40 995.59 33.40
18024 71.5970 954.40 995.55 32.10
18025 71.6008 945.10 995.51 31.80
18026 71.6045 992.80 995.47 32.80
18027 71.6083 982.30 995.43 32.20
18028 71.6121 1045.10 995.39 33.40
18029 71.6158 991.40 995.35 32.70
18030 71.6196 999.10 995.32 32.60
18031 71.6233 1036.30 995.28 33.60
18032 71.6271 1008.50 995.24 33.00
18033 71.6308 1003.80 995.20 32.70
18034 71.6346 991.70 995.16 32.90
18035 71.6383 961.20 995.12 32.10
18036 71.6421 1040.00 995.08 33.90
18037 71.6458 995.90 995.04 32.90
18038 71.6496 1003.50 995.00 33.20
18039 71.6533 1064.70 994.96 34.10
18040 71.6571 943.80 994.92 31.50
18041 71.6609 1025.40 994.88 32.80
18042 71.6646 1019.00 998.17 34.10
18043 71.6684 987.20 998.17 32.90
18044 71.6721 969.70 998.17 32.40
18045 71.6759 985.30 998.17 32.60
18046 71.6796 1011.00 998.18 32.80
18047 71.6834 989.90 998.18 32.60
18048 71.6871 1028.60 998.18 33.30
18049 71.6909 940.40 998.18 32.10
18050 71.6946 965.50 998.19 32.20
18051 71.6984 964.30 998.20 32.30
18052 71.7022 1013.30 998.20 33.10
18053 71.7059 985.00 998.21 32.70
18054 71.7097 1023.00 998.22 33.50
18055 71.7134 1057.10 998.22 33.90
18056 71.7172 1001.00 998.23 33.20
18057 71.7209 1020.80 998.24 33.30
18058 71.7247 990.90 998.26 32.70
18059 71.7284 1040.60 998.27 33.80
18060 71.7322 990.50 998.28 33.00
18061 71.7359 1025.00 998.30 33.20
18062 71.7397 986.10 998.31 33.00
18063 71.7434 1049.50 998.33 33.90
18064 71.7472 964.40 998.34 32.40
18065 71.7510 1043.70 998.36 33.90
18066 71.7547 1018.60 998.38 33.60
18067 71.7585 992.00 998.41 32.90
18068 71.7622 1001.80 998.43 32.60
18069 71.7660 1006.20 998.45 33.20
18070 71.7697 973.90 998.47 31.80
18071 71.7735 1037.70 998.50 33.50
18072 71.7772 1007.50 998.53 32.90
18073 71.7810 916.00 998.56 31.50
18074 71.7847 959.80 998.59 32.40
18075 71.7885 988.40 998.62 32.80
18076 71.7923 987.50 998.65 32.40
18077 71.7960 1003.10 998.69 32.90
18078 71.7998 956.60 998.72 32.10
18079 71.8035 957.60 998.76 32.20
18080 71.8073 1001.60 998.80 32.70
18081 71.8110 925.50 998.84 31.10
18082 71.8148 965.90 998.89 32.40
18083 71.8185 986.80 998.93 32.80
18084 71.8223 988.80 998.98 32.80
18085 71.8260 1059.60 999.03 34.30
18086 71.8298 1034.80 999.08 33.70
18087 71.8335 992.50 999.14 32.80
18088 71.8373 991.30 999.19 32.80
18089 71.8411 1002.30 999.25 32.60
18090 71.8448 982.70 999.31 32.80
18091 71.8486 1028.50 999.37 33.50
18092 71.8523 975.30 999.44 32.60
18093 71.8561 999.30 999.51 32.80
18094 71.8598 1034.10 999.58 33.30
18095 71.8636 1044.30 999.65 33.80
18096 71.8673 1009.00 999.72 33.50
18097 71.8711 1051.10 999.80 33.50
18098 71.8748 1054.80 999.89 34.40
18099 71.8786 976.50 999.97 32.40
18100 71.8823 913.10 1000.06 31.40
18101 71.8861 1007.40 1000.15 33.20
18102 71.8898 1045.80 1000.24 33.80
18103 71.8936 1030.80 1000.34 33.80
18104 71.8973 950.30 1000.44 32.40
18105 71.9011 1014.90 1000.55 33.30
18106 71.9049 1026.40 1000.66 33.60
18107 71.9086 1100.10 1000.77 34.50
18108 71.9124 1019.80 1000.89 33.20
18109 71.9161 980.80 1001.02 32.50
18110 71.9199 973.50 1001.14 32.50
18111 71.9236 986.90 1001.28 33.00
18112 71.9274 1011.70 1001.41 33.30
18113 71.9311 1003.00 1001.55 32.90
18114 71.9349 976.60 1001.70 33.10
18115 71.9386 985.20 1001.86 32.80
18116 71.9424 979.80 1002.01 33.30
18117 71.9461 997.00 1002.18 33.20
18118 71.9499 990.20 1002.35 32.70
18119 71.9537 968.20 1002.53 32.60
18120 71.9574 1011.40 1002.71 33.30
18121 71.9612 1004.20 1002.90 32.90
18122 71.9649 1030.40 1003.10 34.40
18123 71.9687 1025.70 1003.31 33.90
18124 71.9724 1044.80 1003.53 34.10
18125 71.9762 991.40 1003.75 32.90
18126 71.9799 984.60 1003.98 32.80
18127 71.9837 1016.00 1004.22 32.90
18128 71.9874 1005.80 1004.47 33.20
18129 71.9912 1019.70 1004.73 32.90
18130 71.9932 1004.30 1004.87 32.80
18131 71.9969 976.60 1005.15 32.30
18132 72.0007 995.30 1005.44 32.80
18133 72.0044 1037.50 1005.74 33.20
18134 72.0082 968.10 1006.05 32.30
18135 72.0119 962.80 1006.38 32.40
18136 72.0157 1052.40 1006.72 33.70
18137 72.0194 1019.00 1007.07 33.20
18138 72.0232 979.00 1007.44 32.60
18139 72.0269 988.20 1007.82 32.20
18140 72.0307 983.00 1008.22 32.80
18141 72.0345 1009.70 1008.64 32.90
18142 72.0382 1009.20 1009.08 32.70
18143 72.0420 1069.60 1009.54 34.00
18144 72.0457 1021.00 1010.01 33.00
18145 72.0495 1031.10 1010.51 32.60
18146 72.0532 975.60 1011.03 32.90
18147 72.0570 1043.80 1011.58 33.70
18148 72.0608 1018.00 1012.15 33.10
18149 72.0645 1009.90 1012.75 32.60
18150 72.0683 1031.10 1013.38 33.40
18151 72.0720 1023.00 1014.03 32.80
18152 72.0758 973.00 1014.73 32.30
18153 72.0795 1016.30 1015.45 33.10
18154 72.0833 986.80 1016.21 32.80
18155 72.0870 1040.10 1017.01 33.60
18156 72.0908 976.10 1017.86 32.30
18157 72.0945 980.70 1018.74 32.60
18158 72.0983 989.20 1019.68 32.30
18159 72.1021 967.60 1020.66 32.10
18160 72.1058 988.40 1021.70 32.70
18161 72.1096 1023.90 1022.80 33.00
18162 72.1133 1040.30 1023.96 33.70
18163 72.1171 992.40 1025.19 32.70
18164 72.1208 1093.20 1026.49 34.20
18165 72.1246 1040.60 1027.87 33.70
18166 72.1283 1056.10 1029.33 33.70
18167 72.1321 1007.10 1030.88 33.40
18168 72.1358 1048.70 1032.53 33.80
18169 72.1396 1094.60 1034.28 34.70
18170 72.1433 1070.80 1036.15 34.20
18171 72.1471 1034.50 1038.15 33.10
18172 72.1509 1041.10 1040.29 33.10
18173 72.1546 1099.00 1042.57 35.50
18174 72.1584 1151.00 1045.02 35.60
18175 72.1621 1066.90 1047.64 34.10
18176 72.1659 1049.60 1050.45 33.70
18177 72.1696 1097.30 1053.49 34.20
18178 72.1734 982.90 1056.76 32.50
18179 72.1771 1052.70 1060.30 33.70
18180 72.1809 1119.90 1064.11 35.20
18181 72.1846 1105.20 1068.25 34.60
18182 72.1884 1083.60 1072.75 34.30
18183 72.1922 1102.10 1077.65 34.60
18184 72.1959 1089.60 1083.00 34.50
18185 72.1997 1066.00 1088.87 34.30
18186 72.2034 1095.70 1095.26 34.60
18187 72.2072 1119.10 1102.32 35.20
18188 72.2109 1160.50 1110.11 35.60
18189 72.2147 1143.00 1118.70 35.20
18190 72.2184 1104.00 1128.24 34.80
18191 72.2222 1167.20 1138.88 35.90
18192 72.2259 1170.70 1150.77 35.60
18193 72.2283 1166.40 1159.01 35.30
18194 72.2321 1139.60 1173.33 35.30
18195 72.2358 1179.90 1189.58 36.00
18196 72.2396 1240.70 1208.03 36.60
18197 72.2433 1145.20 1229.06 35.40
18198 72.2471 1199.50 1253.20 36.30
18199 72.2508 1209.90 1281.18 36.10
18200 72.2546 1326.90 1313.78 37.70
18201 72.2583 1358.20 1352.11 38.10
18202 72.2621 1350.90 1397.48 37.60
18203 72.2658 1463.20 1451.90 40.90
18204 72.2696 1402.10 1517.69 39.10
18205 72.2734 1538.70 1597.70 41.50
18206 72.2771 1678.80 1695.80 42.60
18207 72.2809 1745.40 1816.81 43.60
18208 72.2846 1938.80 1965.62 46.50
18209 72.2884 2209.90 2148.37 48.60
18210 72.2921 2359.80 2371.38 51.20
18211 72.2959 2776.90 2638.79 55.30
18212 72.2996 3258.20 2951.03 61.60
18213 72.3034 3815.90 3295.31 67.30
18214 72.3071 4299.00 3646.44 70.50
18215 72.3109 4611.20 3951.07 73.60
18216 72.3146 4771.00 4143.06 75.20
18217 72.3184 4585.20 4167.53 72.60
18218 72.3222 4285.50 4016.91 69.00
18219 72.3259 3853.50 3735.45 66.20
18220 72.3297 3354.30 3391.87 61.10
18221 72.3334 2749.80 3040.41 55.90
18222 72.3372 2432.70 2718.53 52.30
18223 72.3409 2116.10 2438.30 49.10
18224 72.3447 1890.30 2204.37 47.00
18225 72.3484 1683.90 2010.92 43.10
18226 72.3522 1665.20 1853.18 43.10
18227 72.3559 1525.20 1725.31 41.30
18228 72.3597 1452.80 1621.47 39.60
18229 72.3635 1431.20 1536.33 40.10
18230 72.3672 1311.60 1467.23 38.10
18231 72.3710 1304.60 1409.95 37.80
18232 72.3747 1259.70 1362.30 37.20
18233 72.3785 1306.70 1322.15 38.00
18234 72.3822 1213.30 1288.12 36.00
18235 72.3860 1175.80 1258.91 35.50
18236 72.3897 1156.40 1233.74 35.90
18237 72.3935 1112.20 1211.85 35.00
18238 72.3972 1200.80 1192.63 36.30
18239 72.4010 1153.30 1175.78 35.00
18240 72.4047 1148.30 1160.82 35.30
18241 72.4085 1131.20 1147.61 35.30
18242 72.4122 1098.50 1135.77 35.20
18243 72.4160 1148.00 1125.19 35.90
18244 72.4198 1125.50 1115.65 35.20
18245 72.4235 1124.30 1107.05 35.60
18246 72.4273 1160.20 1099.27 35.50
18247 72.4310 1073.30 1092.21 34.00
18248 72.4348 1031.60 1085.79 33.40
18249 72.4385 1102.20 1079.91 35.00
18250 72.4423 1107.00 1074.54 35.00
18251 72.4460 1068.30 1069.61 34.20
18252 72.4498 1120.40 1065.06 35.20
18253 72.4536 1084.70 1060.87 34.10
18254 72.4573 996.60 1057.00 33.30
18255 72.4611 1085.50 1053.41 34.30
18256 72.4648 1073.20 1050.10 35.10
18257 72.4686 1110.00 1047.01 35.40
18258 72.4723 1067.10 1044.14 33.90
18259 72.4761 999.40 1041.46 32.40
18260 72.4798 957.80 1038.96 32.20
18261 72.4836 1030.20 1036.60 33.70
18262 72.4873 1067.00 1034.41 34.10
18263 72.4911 1012.40 1032.35 33.60
18264 72.4949 1070.60 1030.41 34.30
18265 72.4986 1028.80 1028.59 33.80
18266 72.5024 1028.50 1026.87 33.70
18267 72.5061 1056.70 1025.25 33.90
18268 72.5099 1033.60 1023.72 33.40
18269 72.5136 1091.00 1022.27 35.00
18270 72.5174 956.80 1020.90 32.60
18271 72.5211 1017.00 1019.60 33.50
18272 72.5249 1033.20 1018.37 33.60
18273 72.5286 976.50 1017.20 32.50
18274 72.5324 1065.40 1016.09 34.60
18275 72.5362 1028.80 1015.03 33.30
18276 72.5399 1086.60 1014.02 34.70
18277 72.5437 1048.00 1013.06 33.80
18278 72.5474 949.80 1012.15 32.30
18279 72.5512 1050.30 1011.27 34.20
18280 72.5549 1011.50 1010.43 33.20
18281 72.5587 997.00 1009.63 33.10
18282 72.5624 1014.50 1008.87 32.40
18283 72.5662 1046.50 1008.14 34.70
18284 72.5699 961.10 1007.44 33.20
18285 72.5737 996.50 1006.76 32.90
18286 72.5775 1051.70 1006.11 34.00
18287 72.5812 1059.00 1005.49 33.90
18288 72.5850 987.00 1004.90 33.00
18289 72.5887 1033.30 1004.32 33.90
18290 72.5925 996.60 1003.77 33.30
18291 72.5962 1009.20 1003.24 33.60
18292 72.6000 1016.10 1002.72 33.50
18293 72.6037 1011.20 1002.23 33.50
18294 72.6075 949.10 1001.75 32.50
18295 72.6113 982.60 1001.29 33.50
18296 72.6150 1056.20 1000.85 34.10
18297 72.6188 1048.20 1000.42 33.90
18298 72.6225 1006.50 1000.00 33.40
18299 72.6263 1030.70 999.60 34.00
18300 72.6300 1031.50 999.21 34.50
18301 72.6338 1026.10 998.83 33.50
18302 72.6375 1047.70 998.47 33.50
18303 72.6413 971.70 998.11 33.00
18304 72.6451 1018.10 997.77 34.10
18305 72.6488 1020.60 997.44 33.60
18306 72.6526 977.70 997.11 33.40
18307 72.6563 939.60 996.80 32.20
18308 72.6601 1032.80 996.50 33.60
18309 72.6638 1011.70 996.20 33.10
18310 72.6676 1052.70 995.91 34.20
18311 72.6713 993.60 995.63 33.10
18312 72.6751 1039.00 995.36 33.70
18313 72.6789 1004.80 995.09 33.20
18314 72.6826 968.10 994.84 32.60
18315 72.6864 999.50 994.59 33.90
18316 72.6901 1003.90 994.34 32.90
18317 72.6939 996.90 994.10 32.30
18318 72.6976 1021.40 993.87 32.50
18319 72.7014 1048.40 993.64 33.10
18320 72.7051 1007.90 993.42 32.70
18321 72.7089 1009.60 993.20 32.60
18322 72.7126 1014.60 992.99 32.70
18323 72.7164 1031.30 992.78 33.00
18324 72.7202 995.90 992.58 32.30
18325 72.7239 1051.50 992.38 33.20
18326 72.7277 1042.20 992.19 33.20
18327 72.7314 998.80 992.00 32.50
18328 72.7352 986.90 991.82 31.90
18329 72.7390 1012.40 991.63 32.60
18330 72.7427 1027.50 991.46 32.90
18331 72.7465 1043.90 991.28 33.00
18332 72.7502 1007.50 991.11 32.40
18333 72.7540 945.30 990.95 31.30
18334 72.7577 1013.80 990.78 32.70
18335 72.7615 994.10 990.62 31.50
18336 72.7652 1066.90 990.46 33.80
18337 72.7690 959.20 990.31 31.90
18338 72.7728 1037.90 990.16 32.80
18339 72.7765 972.00 990.01 31.60
18340 72.7803 959.10 989.86 31.40
18341 72.7840 1019.80 989.72 32.40
18342 72.7878 1003.80 989.58 32.70
18343 72.7915 1015.10 989.44 32.60
18344 72.7953 979.10 989.30 32.40
18345 72.7990 942.00 989.17 31.40
18346 72.8028 1011.10 989.04 32.80
18347 72.8066 975.70 988.91 32.00
18348 72.8103 975.10 988.78 32.30
18349 72.8141 962.80 988.66 31.70
18350 72.8178 1027.10 988.53 33.00
18351 72.8216 974.50 988.41 31.90
18352 72.8253 1039.80 988.29 33.30
18353 72.8291 961.20 988.18 31.80
18354 72.8328 1000.00 988.06 32.30
18355 72.8366 971.70 987.95 31.90
18356 72.8403 925.10 987.83 31.00
18357 72.8441 1030.00 987.72 32.60
18358 72.8479 969.40 987.61 32.00
18359 72.8516 1019.10 987.50 32.90
18360 72.8554 977.20 987.40 31.90
18361 72.8591 936.20 987.29 31.00
18362 72.8629 977.70 987.19 31.80
18363 72.8667 1042.50 987.09 33.60
18364 72.8704 1037.50 986.99 33.00
18365 72.8742 942.70 986.89 31.60
18366 72.8779 978.00 986.79 32.10
18367 72.8817 959.10 986.69 31.20
18368 72.8854 951.60 986.59 31.70
18369 72.8892 984.70 986.50 32.40
18370 72.8929 1013.80 986.41 32.60
18371 72.8967 1021.50 986.31 32.60
18372 72.9005 1041.10 986.22 33.20
18373 72.9042 1038.00 986.13 32.40
18374 72.9080 935.20 986.04 31.10
18375 72.9117 988.00 985.95 32.20
18376 72.9155 1000.80 985.87 32.20
18377 72.9192 985.40 985.78 32.20
18378 72.9230 1004.50 985.69 32.30
18379 72.9268 974.40 985.61 32.10
18380 72.9305 1008.90 985.53 32.40
18381 72.9343 952.60 985.44 31.80
18382 72.9380 1010.00 985.36 32.90
18383 72.9418 983.20 985.28 32.10
18384 72.9455 1025.50 985.33 33.00
18385 72.9493 953.10 985.25 32.10
18386 72.9531 960.00 985.17 32.00
18387 72.9568 977.10 985.10 31.80
18388 72.9606 913.90 985.02 30.50
18389 72.9643 1016.60 984.95 33.10
18390 72.9681 1041.70 984.87 33.30
18391 72.9718 976.30 984.80 32.30
18392 72.9756 1048.40 981.45 32.90
18393 72.9793 975.00 981.42 31.80
18394 72.9831 966.80 981.38 31.90
18395 72.9869 930.10 981.35 31.20
18396 72.9906 1036.70 981.31 33.00
18397 72.9944 1020.60 981.28 33.00
18398 72.9981 991.30 981.24 32.30
18399 73.0019 969.40 981.21 32.00
18400 73.0057 1016.70 981.17 33.20
18401 73.0094 1014.20 981.14 32.80
18402 73.0132 1001.00 981.10 32.40
18403 73.0169 959.70 981.07 32.30
18404 73.0207 961.90 981.03 32.30
18405 73.0244 1015.60 981.00 32.70
18406 73.0282 994.70 980.96 32.60
18407 73.0319 1039.50 980.93 33.30
18408 73.0357 1006.20 980.89 32.60
18409 73.0395 1015.10 980.86 32.50
18410 73.0432 1002.70 980.82 32.90
18411 73.0470 1055.00 980.79 33.20
18412 73.0507 1028.30 980.76 33.10
18413 73.0545 1012.30 980.72 33.00
18414 73.0583 1047.70 980.69 33.40
18415 73.0620 994.70 980.65 32.10
18416 73.0658 1022.40 980.62 33.60
18417 73.0695 976.00 980.59 32.20
18418 73.0733 992.10 980.55 32.00
18419 73.0770 950.80 980.52 31.40
18420 73.0808 1042.40 980.48 33.30
18421 73.0846 938.60 980.45 31.60
18422 73.0883 996.70 980.42 32.30
18423 73.0921 933.70 980.38 31.50
18424 73.0958 1011.40 980.35 32.90
18425 73.0996 988.70 980.32 32.20
18426 73.1033 987.60 980.28 32.50
18427 73.1071 982.30 980.25 32.40
18428 73.1108 984.20 980.22 32.20
18429 73.1146 924.90 980.18 31.60
18430 73.1184 961.30 980.15 32.00
18431 73.1221 1033.20 980.12 33.10
18432 73.1259 962.20 980.09 31.70
18433 73.1296 1025.00 980.05 33.00
18434 73.1334 941.80 980.02 31.60
18435 73.1372 975.70 979.99 32.10
18436 73.1409 984.40 979.96 32.00
18437 73.1447 1013.30 979.92 32.80
18438 73.1484 980.20 979.89 32.00
18439 73.1522 983.50 979.86 32.10
18440 73.1559 939.70 979.83 31.30
18441 73.1597 956.20 979.80 31.30
18442 73.1635 995.30 979.76 32.90
18443 73.1672 1013.70 979.73 33.60
18444 73.1710 946.30 979.70 31.60
18445 73.1747 1033.50 979.67 32.70
18446 73.1785 1014.40 979.64 32.10
18447 73.1822 1030.40 979.61 32.60
18448 73.1860 971.90 979.58 31.70
18449 73.1898 940.20 979.55 31.20
18450 73.1935 985.20 979.52 32.00
18451 73.1973 1031.50 979.49 32.80
18452 73.2010 995.80 979.46 32.40
18453 73.2048 983.70 979.43 32.10
18454 73.2085 1001.30 979.40 32.00
18455 73.2123 970.50 979.37 31.60
18456 73.2161 1009.90 979.34 32.80
18457 73.2198 1033.70 979.31 32.90
18458 73.2236 929.60 979.28 31.30
18459 73.2273 965.10 979.25 32.00
18460 73.2311 938.50 979.22 31.10
18461 73.2348 959.30 979.20 31.80
18462 73.2386 967.70 979.17 31.90
18463 73.2424 975.40 979.14 31.80
18464 73.2461 988.20 979.11 32.30
18465 73.2499 988.50 979.09 32.60
18466 73.2536 979.80 979.06 31.80
18467 73.2574 935.10 979.03 31.30
18468 73.2611 1007.00 979.01 32.00
18469 73.2649 970.30 978.98 32.20
18470 73.2687 935.80 978.96 31.70
18471 73.2724 957.30 978.93 31.90
18472 73.2762 969.80 978.91 31.30
18473 73.2799 958.10 978.88 31.80
18474 73.2837 1006.20 978.86 32.40
18475 73.2875 1057.10 978.83 33.50
18476 73.2912 1004.70 978.81 31.90
18477 73.2950 1022.90 978.79 33.10
18478 73.2987 933.10 978.77 31.60
18479 73.3025 1040.90 978.74 33.60
18480 73.3062 1045.60 978.72 33.10
18481 73.3100 1008.90 978.70 32.70
18482 73.3138 970.30 978.68 32.10
18483 73.3175 965.90 978.66 32.30
18484 73.3213 998.50 978.64 32.50
18485 73.3250 1081.30 978.62 33.50
18486 73.3288 994.90 978.61 32.70
18487 73.3326 1015.70 978.59 33.00
18488 73.3363 1036.80 978.57 33.20
18489 73.3401 905.00 978.56 31.00
18490 73.3438 1001.50 978.54 33.10
18491 73.3476 1020.80 978.53 32.60
18492 73.3513 1021.80 978.52 33.40
18493 73.3551 995.80 978.51 32.60
18494 73.3589 992.40 978.49 32.60
18495 73.3626 967.60 978.48 31.80
18496 73.3664 1034.30 978.47 33.60
18497 73.3701 991.10 978.47 32.60
18498 73.3739 973.50 978.46 32.10
18499 73.3776 1038.40 978.46 33.00
18500 73.3814 900.50 978.45 31.00
18501 73.3852 985.40 978.45 31.80
18502 73.3889 997.40 978.45 32.40
18503 73.3927 985.50 978.45 32.50
18504 73.3964 983.00 978.46 32.30
18505 73.4002 942.90 978.46 31.70
18506 73.4040 979.00 978.47 32.20
18507 73.4077 986.40 978.48 32.40
18508 73.4115 989.30 978.49 32.30
18509 73.4152 978.00 978.50 32.50
18510 73.4190 976.10 978.52 32.10
18511 73.4227 986.00 978.54 32.40
18512 73.4265 987.80 978.56 32.30
18513 73.4303 1012.80 978.59 32.40
18514 73.4340 1012.00 978.62 32.90
18515 73.4378 999.50 978.65 32.50
18516 73.4415 984.60 978.69 32.50
18517 73.4453 981.70 978.74 32.50
18518 73.4491 972.40 978.78 31.80
18519 73.4528 924.70 978.84 31.30
18520 73.4566 986.60 978.90 32.60
18521 73.4603 1005.20 978.96 32.30
18522 73.4641 1001.10 979.04 32.40
18523 73.4678 997.40 979.12 33.20
18524 73.4716 951.30 979.21 31.70
18525 73.4754 1005.60 979.31 32.70
18526 73.4791 1070.20 979.42 33.50
18527 73.4829 980.20 979.54 32.30
18528 73.4866 955.60 979.67 32.10
18529 73.4904 994.30 979.82 33.00
18530 73.4942 1004.00 979.98 32.80
18531 73.4979 974.40 980.17 32.10
18532 73.5017 991.70 980.37 33.00
18533 73.5054 931.00 980.59 31.60
18534 73.5092 977.10 980.84 32.60
18535 73.5129 990.60 981.12 32.30
18536 73.5167 984.20 981.43 32.50
18537 73.5205 934.10 981.77 31.70
18538 73.5242 986.80 982.16 32.70
18539 73.5280 967.90 982.60 32.00
18540 73.5317 1007.80 983.09 32.80
18541 73.5355 974.90 983.65 32.40
18542 73.5393 1055.00 984.28 33.80
18543 73.5430 1061.60 985.01 33.90
18544 73.5468 1009.50 985.84 32.60
18545 73.5505 995.70 986.80 32.50
18546 73.5543 951.70 987.91 31.80
18547 73.5580 1066.10 989.21 33.50
18548 73.5618 1004.20 990.75 32.30
18549 73.5656 1019.40 992.58 34.10
18550 73.5693 999.70 994.77 33.50
18551 73.5731 1008.30 997.42 32.70
18552 73.5768 973.20 1000.65 32.30
18553 73.5806 1027.80 1004.60 33.20
18554 73.5844 1045.50 1009.44 33.80
18555 73.5881 1037.20 1015.43 32.90
18556 73.5919 1064.10 1022.69 34.30
18557 73.5956 1021.00 1031.49 33.20
18558 73.5994 1033.80 1041.98 33.20
18559 73.6032 1085.80 1054.11 34.30
18560 73.6069 1181.10 1067.42 35.90
18561 73.6107 1145.70 1080.94 34.90
18562 73.6144 1107.00 1092.68 33.60
18563 73.6182 1093.60 1100.28 34.10
18564 73.6219 1098.70 1101.68 34.60
18565 73.6257 1106.00 1096.46 34.50
18566 73.6295 1087.60 1086.07 34.10
18567 73.6332 1064.30 1072.94 33.70
18568 73.6370 1078.50 1059.35 33.80
18569 73.6407 1044.50 1046.51 33.60
18570 73.6445 1011.60 1035.26 33.10
18571 73.6482 1023.50 1025.72 33.60
18572 73.6520 1003.60 1017.75 31.60
18573 73.6558 1029.20 1011.20 32.20
18574 73.6595 1060.70 1005.85 32.60
18575 73.6633 1012.00 1001.47 31.80
18576 73.6671 1042.10 997.88 33.10
18577 73.6708 986.50 994.95 31.60
18578 73.6746 984.30 992.51 31.10
18579 73.6783 995.10 990.47 31.60
18580 73.6821 992.30 988.76 31.50
18581 73.6858 1014.90 987.30 32.10
18582 73.6896 984.40 986.04 31.90
18583 73.6934 1079.20 984.96 33.10
18584 73.6971 964.90 984.01 31.20
18585 73.7009 1013.00 983.18 32.40
18586 73.7046 938.60 982.44 31.20
18587 73.7084 924.50 981.78 30.70
18588 73.7122 996.10 981.20 31.70
18589 73.7159 1004.30 980.67 31.80
18590 73.7197 980.10 980.20 31.80
18591 73.7234 1054.30 979.77 33.00
18592 73.7272 993.70 979.38 31.90
18593 73.7310 1001.10 979.02 32.10
18594 73.7347 1026.90 978.70 32.50
18595 73.7385 959.70 978.40 31.20
18596 73.7422 967.70 978.12 31.30
18597 73.7460 966.30 977.87 31.30
18598 73.7497 1016.80 977.63 32.10
18599 73.7535 937.70 977.41 30.90
18600 73.7573 1042.30 977.21 32.70
18601 73.7610 988.80 977.01 31.90
18602 73.7648 1005.30 976.83 31.80
18603 73.7685 1005.30 976.66 32.70
18604 73.7723 945.60 976.50 31.00
18605 73.7761 1039.50 976.35 32.60
18606 73.7798 1007.60 976.21 31.60
18607 73.7836 986.10 976.08 32.00
18608 73.7873 997.20 975.95 31.70
18609 73.7911 985.60 975.83 31.60
18610 73.7949 1019.90 975.71 32.60
18611 73.7986 966.50 975.60 31.10
18612 73.8024 1040.20 975.49 32.80
18613 73.8061 1008.50 975.39 32.40
18614 73.8099 956.00 975.29 31.00
18615 73.8137 999.00 975.20 31.90
18616 73.8174 966.10 975.11 31.40
18617 73.8212 1012.30 975.02 32.00
18618 73.8249 980.70 974.94 31.60
18619 73.8287 995.50 974.86 31.90
18620 73.8324 1032.10 974.78 32.40
18621 73.8362 974.50 974.70 31.40
18622 73.8400 957.20 974.63 30.90
18623 73.8437 1011.10 974.56 32.50
18624 73.8475 996.70 974.49 31.90
18625 73.8512 993.00 974.42 32.00
18626 73.8550 991.10 974.36 32.00
18627 73.8588 983.50 974.29 31.60
18628 73.8625 1020.10 974.23 31.90
18629 73.8663 1002.50 974.17 32.60
18630 73.8700 990.90 974.11 32.00
18631 73.8738 943.70 974.05 31.00
18632 73.8776 979.70 973.99 31.60
18633 73.8813 978.30 973.94 31.20
18634 73.8851 945.40 973.88 31.10
18635 73.8888 947.30 973.83 31.20
18636 73.8926 1021.90 973.77 32.90
18637 73.8963 955.40 973.72 31.10
18638 73.9001 911.30 973.67 30.50
18639 73.9039 1054.50 973.62 33.00
18640 73.9076 1039.80 973.57 32.90
18641 73.9114 995.00 973.52 31.80
18642 73.9152 1007.20 973.47 32.20
18643 73.9189 976.50 973.43 31.70
18644 73.9227 1014.90 973.38 31.90
18645 73.9264 957.70 973.34 31.60
18646 73.9302 1002.60 973.29 31.80
18647 73.9339 987.00 973.24 31.80
18648 73.9377 992.30 973.20 32.00
18649 73.9415 988.60 973.16 31.70
18650 73.9452 978.80 973.11 32.10
18651 73.9490 989.90 973.07 31.80
18652 73.9527 1035.90 973.03 32.50
18653 73.9565 974.70 972.99 31.80
18654 73.9603 1025.70 972.95 32.10
18655 73.9640 1017.10 972.90 32.00
18656 73.9678 1014.80 972.86 32.80
18657 73.9715 1028.30 972.82 32.50
18658 73.9753 1045.00 972.78 32.70
18659 73.9791 943.80 972.74 30.90
18660 73.9828 961.20 972.71 31.60
18661 73.9866 954.80 972.67 31.10
18662 73.9903 1023.00 972.63 32.20
18663 73.9941 929.20 972.59 30.80
18664 73.9979 1000.50 972.55 32.20
18665 74.0016 942.90 972.51 31.20
18666 74.0054 941.70 972.48 31.00
18667 74.0091 1039.40 972.44 32.70
18668 74.0129 985.00 972.40 32.00
18669 74.0166 999.50 972.37 32.10
18670 74.0204 973.80 972.33 31.30
18671 74.0242 1012.40 972.29 32.40
18672 74.0279 977.80 972.26 31.60
18673 74.0317 930.70 972.22 30.90
18674 74.0355 1018.00 972.19 32.20
18675 74.0392 911.80 972.15 30.30
18676 74.0430 945.80 972.12 31.20
18677 74.0467 1011.30 972.08 32.10
18678 74.0505 992.90 972.05 32.00
18679 74.0542 981.80 972.01 32.00
18680 74.0580 1028.40 971.98 32.50
18681 74.0618 1009.60 971.95 31.80
18682 74.0655 953.80 971.91 32.10
18683 74.0693 978.90 971.88 32.00
18684 74.0730 996.80 971.84 31.70
18685 74.0768 984.00 971.81 31.50
18686 74.0806 979.80 971.78 31.60
18687 74.0843 979.90 971.74 31.90
18688 74.0881 992.70 971.71 31.80
18689 74.0918 959.60 971.68 31.50
18690 74.0956 1046.70 971.65 32.70
18691 74.0994 986.20 971.61 31.90
18692 74.1031 1061.60 971.58 33.10
18693 74.1069 989.80 971.55 31.80
18694 74.1106 1009.60 971.52 32.30
18695 74.1144 1002.30 971.48 32.10
18696 74.1182 957.80 971.45 31.60
18697 74.1219 982.80 971.42 31.40
18698 74.1257 1010.10 971.39 32.30
18699 74.1294 976.10 971.36 31.90
18700 74.1332 1013.20 971.33 32.20
18701 74.1370 983.30 971.30 31.50
18702 74.1407 959.70 971.27 31.20
18703 74.1445 998.10 971.23 32.30
18704 74.1482 1014.50 971.20 31.90
18705 74.1520 999.60 971.17 31.80
18706 74.1557 992.10 971.14 31.60
18707 74.1595 1030.60 971.11 32.00
18708 74.1633 996.00 971.08 31.40
18709 74.1670 991.70 971.05 32.30
18710 74.1708 964.50 971.02 31.40
18711 74.1746 1014.30 970.99 31.90
18712 74.1783 1001.20 970.96 31.90
18713 74.1821 1024.60 970.93 32.40
18714 74.1858 951.30 970.90 31.00
18715 74.1896 949.90 970.87 30.90
18716 74.1934 986.50 970.84 31.60
18717 74.1971 1003.70 970.81 32.00
18718 74.2009 981.30 970.78 31.70
18719 74.2046 987.50 970.75 31.70
18720 74.2084 973.50 970.72 31.60
18721 74.2122 1033.00 970.69 32.30
18722 74.2159 989.10 970.66 31.70
18723 74.2197 961.00 970.63 31.50
18724 74.2234 1030.80 977.34 32.20
18725 74.2272 892.80 977.38 29.90
18726 74.2310 945.40 977.43 30.60
18727 74.2347 946.10 977.48 31.00
18728 74.2385 1044.90 977.53 32.10
18729 74.2422 1041.80 977.58 32.70
18730 74.2460 1036.80 977.63 32.80
18731 74.2497 990.90 977.68 31.40
18732 74.2535 988.50 977.73 31.90
18733 74.2573 1005.60 977.79 32.20
18734 74.2610 992.30 977.85 31.60
18735 74.2648 981.70 977.91 31.50
18736 74.2685 1003.30 977.97 32.60
18737 74.2723 994.30 978.03 32.00
18738 74.2761 1036.90 978.09 32.80
18739 74.2798 942.90 978.16 30.50
18740 74.2836 1015.30 978.22 32.00
18741 74.2874 1004.00 978.29 32.10
18742 74.2911 976.60 978.36 31.50
18743 74.2949 1007.00 978.44 31.90
18744 74.2986 962.10 978.38 31.50
18745 74.3024 951.50 978.46 31.40
18746 74.3061 987.50 978.54 31.80
18747 74.3099 980.50 978.62 31.70
18748 74.3137 1020.40 978.71 31.90
18749 74.3174 994.90 978.79 32.00
18750 74.3212 1028.40 978.88 32.40
18751 74.3249 980.20 978.97 31.60
18752 74.3287 978.50 979.06 31.40
18753 74.3325 1036.40 979.16 32.50
18754 74.3362 997.00 979.26 31.90
18755 74.3400 987.60 979.36 31.80
18756 74.3437 986.60 979.46 31.60
18757 74.3475 977.60 979.57 31.70
18758 74.3513 1004.70 979.67 32.00
18759 74.3550 972.50 979.78 31.60
18760 74.3588 998.70 979.90 31.70
18761 74.3625 1061.00 980.01 32.60
18762 74.3663 974.00 980.13 31.70
18763 74.3701 1022.20 980.25 32.30
18764 74.3738 1006.60 980.38 32.00
18765 74.3776 1020.50 980.51 32.40
18766 74.3813 997.10 980.64 31.90
18767 74.3851 1032.00 980.77 32.40
18768 74.3889 1008.40 980.91 32.10
18769 74.3926 1027.80 981.05 32.20
18770 74.3964 1021.20 981.20 32.20
18771 74.4001 961.90 981.35 31.00
18772 74.4039 1009.10 981.50 32.10
18773 74.4077 990.60 981.66 31.80
18774 74.4114 997.30 981.82 31.80
18775 74.4152 1002.10 981.99 32.30
18776 74.4189 944.10 982.16 30.80
18777 74.4227 988.30 982.34 31.60
18778 74.4265 1009.00 982.51 32.20
18779 74.4302 1046.20 982.70 32.40
18780 74.4340 979.80 982.89 31.30
18781 74.4377 1025.90 983.08 32.10
18782 74.4415 1041.80 983.28 32.40
18783 74.4453 1032.30 983.49 32.40
18784 74.4490 997.00 983.70 31.60
18785 74.4528 1005.30 983.91 31.80
18786 74.4565 1013.30 984.14 32.50
18787 74.4603 988.20 984.36 31.50
18788 74.4641 1036.20 984.60 32.00
18789 74.4678 976.80 984.84 32.20
18790 74.4716 1015.50 985.09 32.30
18791 74.4753 988.80 985.34 31.30
18792 74.4791 943.80 985.61 31.20
18793 74.4829 935.10 985.88 30.80
18794 74.4866 948.70 986.15 31.00
18795 74.4904 1055.10 986.44 32.90
18796 74.4941 956.90 986.73 30.90
18797 74.4979 993.80 987.03 31.50
18798 74.5017 1001.70 987.35 32.00
18799 74.5054 1006.60 987.67 32.10
18800 74.5092 1048.70 988.00 32.30
18801 74.5129 1010.80 988.34 32.10
18802 74.5167 996.20 988.69 31.50
18803 74.5204 955.40 989.05 31.10
18804 74.5242 1030.00 989.42 32.50
18805 74.5280 1008.30 989.81 32.00
18806 74.5317 1021.60 990.20 32.10
18807 74.5355 966.30 990.61 31.30
18808 74.5393 1071.80 991.03 32.70
18809 74.5430 997.10 991.47 31.60
18810 74.5468 1001.80 991.92 32.10
18811 74.5505 951.10 992.38 30.80
18812 74.5543 1084.00 992.86 33.40
18813 74.5581 1006.80 993.36 31.80
18814 74.5618 1030.90 993.87 31.90
18815 74.5656 1025.70 994.40 32.10
18816 74.5693 1013.20 994.94 32.90
18817 74.5731 952.70 995.51 30.70
18818 74.5769 1023.40 996.09 32.30
18819 74.5806 1002.60 996.70 31.40
18820 74.5844 1053.20 997.33 32.60
18821 74.5881 969.40 997.98 31.60
18822 74.5919 1022.80 998.65 32.20
18823 74.5957 1070.80 999.34 33.10
18824 74.5994 998.20 1000.07 31.90
18825 74.6032 1047.70 1000.82 32.80
18826 74.6069 1051.30 1001.60 32.80
18827 74.6107 1050.80 1002.40 32.70
18828 74.6144 1083.00 1003.24 34.10
18829 74.6182 989.60 1004.11 32.10
18830 74.6220 1004.20 1005.02 32.80
18831 74.6257 1056.00 1005.96 33.40
18832 74.6295 1024.50 1006.94 32.90
18833 74.6332 1029.00 1007.96 33.30
18834 74.6370 1028.70 1009.01 33.10
18835 74.6408 1007.10 1010.12 32.80
18836 74.6445 1079.40 1011.28 33.70
18837 74.6483 994.30 1012.48 32.60
18838 74.6520 1009.80 1013.73 32.60
18839 74.6558 1042.10 1015.04 33.50
18840 74.6596 1041.40 1016.41 33.00
18841 74.6633 1007.80 1017.83 32.60
18842 74.6671 1064.60 1019.33 33.90
18843 74.6709 1014.40 1020.89 33.10
18844 74.6746 1052.30 1022.53 33.40
18845 74.6784 1068.70 1024.24 33.70
18846 74.6821 1030.40 1026.05 33.10
18847 74.6859 1076.30 1027.94 34.30
18848 74.6897 992.90 1029.92 32.30
18849 74.6934 1019.50 1032.00 32.80
18850 74.6972 1060.50 1034.19 33.20
18851 74.7009 1123.10 1036.50 34.60
18852 74.7047 1068.50 1038.94 33.80
18853 74.7085 1059.20 1041.50 33.80
18854 74.7122 1087.00 1044.20 34.20
18855 74.7160 1064.70 1047.06 33.60
18856 74.7197 1087.80 1050.08 34.40
18857 74.7235 1111.10 1053.27 34.70
18858 74.7273 1110.60 1056.68 34.70
18859 74.7310 1098.80 1060.25 34.30
18860 74.7348 1085.10 1064.07 33.70
18861 74.7385 1049.40 1068.14 33.40
18862 74.7423 1063.80 1072.45 33.70
18863 74.7460 1131.70 1077.05 34.70
18864 74.7498 1123.10 1081.98 34.90
18865 74.7536 1096.80 1087.21 34.00
18866 74.7573 1115.40 1092.83 34.60
18867 74.7611 1171.10 1098.86 35.70
18868 74.7648 1116.60 1105.32 34.20
18869 74.7686 1173.10 1112.27 36.10
18870 74.7724 1143.20 1119.76 35.20
18871 74.7761 1168.40 1127.83 35.50
18872 74.7799 1163.50 1136.57 34.90
18873 74.7837 1100.80 1146.04 34.20
18874 74.7874 1155.20 1156.30 35.20
18875 74.7912 1224.80 1167.46 36.70
18876 74.7949 1221.10 1179.65 36.30
18877 74.7987 1243.60 1192.96 36.30
18878 74.8024 1252.90 1207.56 36.80
18879 74.8062 1269.40 1223.60 37.00
18880 74.8100 1273.90 1241.25 36.60
18881 74.8137 1154.50 1260.75 34.80
18882 74.8175 1313.10 1282.41 37.90
18883 74.8212 1326.10 1306.47 37.70
18884 74.8250 1360.10 1333.38 38.40
18885 74.8288 1385.20 1363.38 38.80
18886 74.8325 1391.20 1397.46 39.00
18887 74.8363 1460.10 1435.81 39.60
18888 74.8400 1486.70 1479.51 40.30
18889 74.8438 1489.90 1529.40 40.40
18890 74.8476 1722.90 1586.97 43.90
18891 74.8513 1665.80 1653.39 42.50
18892 74.8551 1675.50 1731.79 42.70
18893 74.8588 1793.40 1823.85 44.00
18894 74.8626 1905.30 1933.67 45.20
18895 74.8664 1989.60 2065.28 47.20
18896 74.8701 2198.60 2224.42 50.10
18897 74.8739 2241.50 2417.49 49.60
18898 74.8776 2543.60 2654.70 53.00
18899 74.8814 2872.20 2942.51 56.60
18900 74.8852 3282.40 3292.98 60.90
18901 74.8889 3807.80 3714.11 65.70
18902 74.8927 4424.70 4216.96 71.50
18903 74.8964 5563.70 4799.52 80.70
18904 74.9002 6584.50 5456.19 88.60
18905 74.9040 7402.20 6141.19 94.40
18906 74.9077 8379.90 6783.13 100.40
18907 74.9115 8890.10 7277.10 105.60
18908 74.9152 8938.60 7507.67 104.30
18909 74.9190 8521.50 7413.42 101.00
18910 74.9228 7541.10 7019.00 95.90
18911 74.9265 6539.10 6425.25 88.60
18912 74.9303 5511.40 5746.78 80.30
18913 74.9340 4564.20 5072.31 72.50
18914 74.9378 3803.30 4455.24 65.90
18915 74.9416 3106.80 3916.29 59.20
18916 74.9453 2788.40 3462.79 55.90
18917 74.9491 2378.70 3082.78 51.80
18918 74.9528 2235.40 2769.87 50.20
18919 74.9566 2078.80 2512.56 48.10
18920 74.9604 1942.80 2302.02 46.00
18921 74.9641 1694.30 2129.10 42.20
18922 74.9679 1739.00 1986.21 44.10
18923 74.9716 1654.30 1867.61 43.10
18924 74.9754 1580.10 1768.53 41.40
18925 74.9792 1498.50 1684.74 40.10
18926 74.9829 1488.50 1613.51 39.80
18927 74.9867 1425.70 1552.31 39.30
18928 74.9904 1385.90 1499.24 38.50
18929 74.9942 1328.90 1452.97 38.10
18930 74.9979 1387.00 1412.59 38.90
18931 75.0017 1294.30 1376.65 37.80
18932 75.0055 1279.50 1344.96 37.40
18933 75.0092 1324.70 1316.73 37.50
18934 75.0130 1300.80 1291.45 37.50
18935 75.0167 1255.40 1268.79 37.10
18936 75.0205 1196.40 1248.42 36.10
18937 75.0243 1158.90 1229.88 35.70
18938 75.0280 1150.20 1213.16 35.70
18939 75.0318 1135.40 1197.96 35.10
18940 75.0356 1240.30 1184.09 36.70
18941 75.0393 1202.00 1171.40 36.20
18942 75.0431 1163.70 1159.81 35.30
18943 75.0468 1152.60 1149.08 35.90
18944 75.0506 1113.10 1139.28 34.40
18945 75.0543 1118.30 1130.21 34.30
18946 75.0581 1188.80 1121.82 36.30
18947 75.0619 1063.00 1114.04 33.40
18948 75.0656 1120.50 1106.85 34.80
18949 75.0694 1127.90 1100.14 35.50
18950 75.0731 1121.90 1093.90 34.50
18951 75.0769 1095.20 1088.08 34.10
18952 75.0807 1110.00 1082.63 34.40
18953 75.0844 1078.90 1077.54 34.00
18954 75.0882 1165.30 1072.79 35.70
18955 75.0919 1067.10 1068.31 34.20
18956 75.0957 1062.50 1064.10 33.80
18957 75.0995 1036.90 1060.15 33.40
18958 75.1032 1021.70 1056.44 33.10
18959 75.1070 1082.20 1052.91 33.80
18960 75.1107 1060.50 1049.61 33.70
18961 75.1145 1037.60 1046.47 33.40
18962 75.1183 1112.50 1043.52 34.60
18963 75.1220 1033.80 1040.71 33.30
18964 75.1258 1000.30 1038.06 32.30
18965 75.1295 1104.20 1035.52 34.60
18966 75.1333 1149.00 1033.13 35.10
18967 75.1370 1067.60 1030.86 33.30
18968 75.1408 1038.10 1028.70 32.80
18969 75.1446 1003.20 1026.63 32.80
18970 75.1483 1074.40 1024.67 33.90
18971 75.1521 1027.90 1022.80 32.50
18972 75.1559 1042.40 1021.01 33.50
18973 75.1596 1077.80 1019.30 33.60
18974 75.1634 1021.70 1017.67 32.70
18975 75.1671 1015.40 1016.11 33.20
18976 75.1709 1061.40 1014.62 34.20
18977 75.1747 1019.10 1013.19 32.60
18978 75.1784 996.80 1011.82 32.60
18979 75.1822 1041.40 1010.51 33.50
18980 75.1859 1018.70 1009.26 33.10
18981 75.1897 1036.00 1008.04 33.40
18982 75.1935 1025.80 1006.88 33.20
18983 75.1972 1011.20 1005.77 32.40
18984 75.2010 1033.20 1004.70 33.50
18985 75.2047 1063.40 1003.66 33.80
18986 75.2085 1032.10 1002.67 33.50
18987 75.2123 993.90 1001.71 32.70
18988 75.2160 992.30 1000.80 32.30
18989 75.2198 1073.50 999.91 33.80
18990 75.2235 991.20 999.05 32.80
18991 75.2273 1000.60 998.22 33.00
18992 75.2310 1002.00 997.43 32.70
18993 75.2348 995.10 996.66 32.50
18994 75.2386 1044.40 995.92 33.40
18995 75.2423 1035.30 995.20 33.60
18996 75.2461 1006.40 994.51 33.10
18997 75.2498 1070.30 993.83 33.60
18998 75.2536 923.40 993.18 31.50
18999 75.2574 985.40 992.55 32.40
19000 75.2611 994.20 991.95 32.70
19001 75.2649 985.70 991.35 32.00
19002 75.2686 1006.00 990.78 33.50
19003 75.2724 1029.40 990.23 33.70
19004 75.2762 1033.50 989.69 33.40
19005 75.2799 943.80 989.17 31.40
19006 75.2837 1052.00 988.67 33.40
19007 75.2874 989.70 988.17 33.00
19008 75.2912 1006.30 987.70 33.00
19009 75.2950 1020.50 987.24 33.20
19010 75.2987 977.30 986.79 32.10
19011 75.3025 1003.40 986.35 32.80
19012 75.3062 1027.00 985.93 33.50
19013 75.3100 1015.90 985.51 33.40
19014 75.3138 953.10 985.11 32.30
19015 75.3175 1049.60 984.72 33.40
19016 75.3213 1069.90 984.34 33.80
19017 75.3250 994.90 983.97 32.60
19018 75.3288 1010.70 983.61 33.20
19019 75.3326 1021.30 983.26 33.30
19020 75.3363 975.10 982.92 32.60
19021 75.3401 933.40 982.59 31.50
19022 75.3438 1002.60 982.26 33.00
19023 75.3476 978.00 981.95 32.90
19024 75.3513 996.20 981.64 32.70
19025 75.3551 984.70 981.34 32.90
19026 75.3589 998.40 981.04 32.60
19027 75.3626 998.10 980.76 32.50
19028 75.3664 1022.30 980.48 32.90
19029 75.3701 1044.30 980.21 34.10
19030 75.3739 1036.40 979.94 33.40
19031 75.3777 984.80 979.68 32.40
19032 75.3814 1009.70 979.43 32.70
19033 75.3852 999.60 979.18 32.40
19034 75.3889 1024.40 978.94 33.50
19035 75.3927 978.50 978.70 32.50
19036 75.3964 999.80 978.47 32.80
19037 75.4002 999.30 978.24 32.70
19038 75.4040 1003.20 978.02 32.80
19039 75.4077 977.80 977.81 32.60
19040 75.4115 1013.80 977.59 32.90
19041 75.4153 967.10 977.39 31.90
19042 75.4190 1020.10 977.19 33.30
19043 75.4228 1026.20 976.99 33.00
19044 75.4265 952.50 976.79 32.10
19045 75.4303 1015.00 976.60 32.90
19046 75.4340 980.80 976.42 32.60
19047 75.4378 941.20 976.24 32.00
19048 75.4416 1015.10 976.06 33.30
19049 75.4453 991.40 975.88 32.50
19050 75.4491 998.20 975.71 32.50
19051 75.4528 990.90 975.54 32.40
19052 75.4566 1053.60 975.38 33.80
19053 75.4604 1008.40 975.22 33.20
19054 75.4641 882.60 975.06 30.50
19055 75.4679 1059.90 974.91 34.10
19056 75.4716 986.80 974.75 33.20
19057 75.4754 961.50 974.60 32.20
19058 75.4792 993.30 974.46 32.40
19059 75.4829 992.30 974.32 32.40
19060 75.4867 967.50 974.17 31.80
19061 75.4904 994.90 974.13 32.50
19062 75.4942 998.60 974.00 33.00
19063 75.4979 948.60 973.87 32.10
19064 75.5017 991.40 973.74 32.60
19065 75.5055 971.10 973.61 32.50
19066 75.5092 1064.30 973.49 34.00
19067 75.5130 942.00 973.36 32.00
19068 75.5167 984.50 973.24 33.00
19069 75.5205 989.90 973.13 32.70
19070 75.5243 946.30 973.01 32.20
19071 75.5280 983.60 972.90 32.70
19072 75.5318 992.50 972.78 32.90
19073 75.5355 1025.80 972.67 33.40
19074 75.5393 962.00 972.57 32.20
19075 75.5431 975.00 972.46 32.30
19076 75.5468 1021.20 972.36 33.70
19077 75.5506 969.00 972.25 32.40
19078 75.5543 957.70 972.15 32.10
19079 75.5581 1018.80 972.05 33.30
19080 75.5619 1006.10 971.96 32.80
19081 75.5656 1021.70 971.86 33.20
19082 75.5694 969.30 971.77 32.70
19083 75.5731 1011.70 971.68 33.20
19084 75.5769 999.90 971.59 32.80
19085 75.5806 1013.00 971.50 33.00
19086 75.5844 991.90 971.41 32.60
19087 75.5882 974.10 971.32 32.40
19088 75.5919 1009.30 971.24 33.00
19089 75.5957 931.90 971.16 31.90
19090 75.5994 1048.40 971.07 34.10
19091 75.6032 1023.40 970.99 33.30
19092 75.6070 990.50 970.91 33.00
19093 75.6107 995.10 970.84 33.10
19094 75.6145 1016.50 964.13 33.30
19095 75.6182 978.80 964.12 32.40
19096 75.6220 992.90 964.12 32.70
19097 75.6257 956.80 964.11 32.00
19098 75.6295 989.90 964.11 32.90
19099 75.6333 986.20 964.11 33.40
19100 75.6370 939.70 964.10 32.00
19101 75.6408 898.00 964.10 31.00
19102 75.6445 917.10 964.09 31.70
19103 75.6483 961.10 964.09 32.60
19104 75.6521 986.60 964.09 32.80
19105 75.6558 967.40 964.08 32.80
19106 75.6596 966.80 964.08 32.90
19107 75.6633 1010.60 964.08 33.60
19108 75.6671 1053.60 964.07 34.00
19109 75.6709 997.60 964.07 33.00
19110 75.6746 954.80 964.07 32.40
19111 75.6784 985.40 964.06 32.80
19112 75.6821 935.40 964.06 31.60
19113 75.6859 996.30 964.06 33.50
19114 75.6896 990.10 964.05 32.50
19115 75.6934 989.40 964.05 32.40
19116 75.6972 907.80 964.05 31.70
19117 75.7009 943.40 964.05 31.90
19118 75.7047 1063.40 964.04 34.10
19119 75.7084 950.30 964.04 32.30
19120 75.7122 919.20 964.04 31.90
19121 75.7160 1015.50 964.04 33.80
19122 75.7197 1024.70 964.04 33.70
19123 75.7235 1038.70 964.03 34.00
19124 75.7272 1001.80 964.03 33.50
19125 75.7310 955.20 964.03 32.60
19126 75.7348 989.50 964.03 33.20
19127 75.7385 961.90 964.03 32.50
19128 75.7423 1017.40 964.03 33.20
19129 75.7460 913.20 964.03 31.30
19130 75.7498 1018.90 964.03 33.40
19131 75.7535 950.40 964.03 32.10
19132 75.7573 980.10 964.03 32.90
19133 75.7610 1006.50 964.03 33.10
19134 75.7648 985.20 964.03 32.70
19135 75.7686 972.20 964.03 32.90
19136 75.7723 1009.50 964.03 33.70
19137 75.7761 936.90 964.03 32.00
19138 75.7798 1045.10 964.03 33.60
19139 75.7836 951.60 964.03 32.40
19140 75.7874 981.20 964.03 32.60
19141 75.7911 904.60 964.03 31.60
19142 75.7949 974.20 964.04 32.20
19143 75.7986 954.60 964.04 32.30
19144 75.8024 941.20 964.04 32.10
19145 75.8062 908.40 964.04 31.60
19146 75.8099 1011.90 964.04 33.80
19147 75.8137 944.30 964.05 32.20
19148 75.8174 1018.20 964.05 33.40
19149 75.8212 1002.50 964.05 33.50
19150 75.8249 931.40 964.06 32.10
19151 75.8287 955.80 964.06 31.90
19152 75.8325 970.60 964.07 32.60
19153 75.8362 975.80 964.07 32.70
19154 75.8400 997.10 964.08 33.00
19155 75.8437 956.40 964.08 31.80
19156 75.8475 942.20 964.09 32.60
19157 75.8513 995.30 964.09 32.80
19158 75.8550 970.50 964.10 33.00
19159 75.8588 930.20 964.10 31.70
19160 75.8625 997.70 964.11 32.90
19161 75.8663 961.00 964.12 32.40
19162 75.8700 990.90 964.13 33.60
19163 75.8738 996.30 964.13 32.90
19164 75.8776 1029.50 964.14 32.90
19165 75.8813 952.90 964.15 32.30
19166 75.8851 947.50 964.16 32.00
19167 75.8888 970.00 964.17 32.60
19168 75.8926 1006.70 964.18 33.90
19169 75.8963 946.40 964.19 32.30
19170 75.9001 1014.00 964.20 33.50
19171 75.9039 964.20 964.21 32.20
19172 75.9076 972.90 964.22 32.60
19173 75.9114 937.50 964.24 32.20
19174 75.9151 946.20 964.25 32.00
19175 75.9189 945.50 964.26 32.20
19176 75.9227 970.90 964.28 32.00
19177 75.9264 1024.00 964.29 33.40
19178 75.9302 968.40 964.31 32.90
19179 75.9339 963.60 964.33 32.70
19180 75.9377 959.40 964.34 32.70
19181 75.9414 1001.00 964.36 32.80
19182 75.9452 995.80 964.38 32.70
19183 75.9490 1009.40 964.40 33.70
19184 75.9527 996.60 964.43 33.20
19185 75.9565 988.80 964.45 33.20
19186 75.9602 966.60 964.47 32.60
19187 75.9640 943.90 964.50 32.10
19188 75.9678 950.50 964.52 31.70
19189 75.9715 1011.80 964.55 34.00
19190 75.9753 1010.00 964.58 33.50
19191 75.9790 960.70 964.61 32.50
19192 75.9828 986.80 964.64 32.60
19193 75.9865 907.10 964.68 31.70
19194 75.9903 964.60 964.72 32.50
19195 75.9941 923.90 964.75 31.90
19196 75.9978 968.10 964.79 32.60
19197 76.0016 979.80 964.84 32.60
19198 76.0053 919.30 964.88 31.70
19199 76.0091 994.60 964.93 32.80
19200 76.0128 975.90 964.98 32.80
19201 76.0166 958.20 965.03 32.40
19202 76.0204 1007.00 965.09 33.40
19203 76.0241 984.70 965.15 32.70
19204 76.0279 982.50 965.21 32.80
19205 76.0316 940.10 965.28 32.50
19206 76.0354 908.60 965.36 31.80
19207 76.0391 1025.30 965.43 33.60
19208 76.0429 1008.40 965.52 32.70
19209 76.0467 1000.80 965.61 33.20
19210 76.0504 971.30 965.70 33.00
19211 76.0542 1040.80 965.81 34.10
19212 76.0579 1039.20 965.92 33.40
19213 76.0617 963.70 966.04 31.50
19214 76.0654 987.40 966.17 31.80
19215 76.0692 967.90 966.30 32.30
19216 76.0730 936.10 966.46 31.00
19217 76.0767 1039.10 966.62 33.10
19218 76.0805 987.50 966.80 31.90
19219 76.0842 1011.30 966.99 32.40
19220 76.0880 942.00 967.21 31.90
19221 76.0917 946.00 967.44 31.20
19222 76.0955 985.40 967.70 32.10
19223 76.0993 960.70 967.98 32.00
19224 76.1030 915.50 968.30 31.10
19225 76.1068 1000.40 968.64 32.70
19226 76.1105 1002.70 969.03 32.70
19227 76.1143 921.40 969.46 31.50
19228 76.1181 1002.60 969.95 32.90
19229 76.1218 1022.30 970.50 33.20
19230 76.1256 988.80 971.12 31.80
19231 76.1293 1001.20 971.83 32.70
19232 76.1331 982.90 972.65 32.30
19233 76.1368 999.60 973.58 32.50
19234 76.1406 961.70 974.68 31.80
19235 76.1443 972.60 975.96 31.70
19236 76.1481 960.40 977.50 32.10
19237 76.1519 1014.10 979.32 32.90
19238 76.1556 979.10 981.50 31.90
19239 76.1594 975.30 984.15 32.30
19240 76.1631 969.70 987.38 31.90
19241 76.1669 1000.50 991.28 32.30
19242 76.1706 1024.40 996.00 33.80
19243 76.1744 1101.30 1001.66 34.30
19244 76.1782 1036.40 1008.43 33.50
19245 76.1819 1038.80 1016.31 33.30
19246 76.1857 1030.00 1025.20 33.10
19247 76.1894 1031.10 1034.77 33.40
19248 76.1932 1023.50 1044.23 33.10
19249 76.1970 1065.30 1052.26 33.80
19250 76.2007 1074.30 1057.38 34.00
19251 76.2045 1112.70 1058.31 34.40
19252 76.2082 1121.00 1054.82 34.50
19253 76.2120 1040.00 1047.81 33.40
19254 76.2157 1029.30 1038.76 32.90
19255 76.2195 1040.10 1029.13 33.20
19256 76.2232 1035.60 1019.91 33.00
19257 76.2270 980.40 1011.58 32.40
19258 76.2308 1005.20 1004.39 32.70
19259 76.2345 1040.70 998.27 33.40
19260 76.2383 938.50 993.18 31.50
19261 76.2420 975.10 988.96 32.50
19262 76.2458 979.80 985.49 32.10
19263 76.2495 989.50 982.62 32.70
19264 76.2533 977.70 980.26 32.20
19265 76.2571 958.80 978.30 31.90
19266 76.2608 999.80 976.67 33.10
19267 76.2646 989.40 975.30 32.10
19268 76.2683 991.50 974.13 32.70
19269 76.2721 988.60 973.14 33.10
19270 76.2758 1012.60 972.28 33.40
19271 76.2796 981.20 971.54 31.80
19272 76.2834 1029.40 970.89 33.10
19273 76.2871 957.40 970.32 31.90
19274 76.2909 932.90 969.82 31.60
19275 76.2946 990.30 969.37 32.60
19276 76.2984 983.40 968.97 32.50
19277 76.3021 958.30 968.61 32.00
19278 76.3059 1024.10 968.29 33.30
19279 76.3096 967.30 968.00 32.30
19280 76.3134 1008.40 967.74 33.20
19281 76.3172 998.60 967.51 32.90
19282 76.3209 983.60 967.29 32.50
19283 76.3247 955.10 967.09 31.80
19284 76.3284 990.70 966.92 32.60
19285 76.3322 939.70 966.75 31.30
19286 76.3360 933.00 966.60 31.60
19287 76.3397 923.10 966.47 31.30
19288 76.3435 1042.50 966.34 33.20
19289 76.3472 953.10 966.22 32.20
19290 76.3510 971.30 966.11 32.20
19291 76.3547 969.70 966.01 32.60
19292 76.3585 1009.10 965.92 33.10
19293 76.3622 972.30 965.84 32.30
19294 76.3660 1038.00 965.76 32.90
19295 76.3698 990.10 965.68 33.30
19296 76.3735 1007.90 965.61 32.90
19297 76.3773 942.40 965.55 31.50
19298 76.3810 960.80 965.49 31.70
19299 76.3848 901.20 965.44 31.10
19300 76.3885 934.30 965.38 31.50
19301 76.3923 991.20 965.34 32.70
19302 76.3961 969.50 965.29 32.20
19303 76.3998 1031.20 965.25 32.90
19304 76.4036 923.70 965.21 31.20
19305 76.4073 1040.80 965.17 33.70
19306 76.4111 1040.20 965.14 33.50
19307 76.4148 984.70 965.10 32.20
19308 76.4186 933.90 965.07 31.60
19309 76.4223 953.50 965.05 31.90
19310 76.4261 951.90 965.02 32.20
19311 76.4299 986.80 964.99 32.80
19312 76.4336 951.50 964.97 32.50
19313 76.4374 917.40 964.95 31.70
19314 76.4411 1017.40 964.93 33.20
19315 76.4449 1010.00 964.91 33.40
19316 76.4486 979.60 964.89 32.50
19317 76.4524 939.00 964.88 32.20
19318 76.4561 949.80 964.86 32.10
19319 76.4599 992.40 964.84 32.80
19320 76.4637 912.90 964.83 31.30
19321 76.4674 973.20 964.82 31.90
19322 76.4712 955.60 964.81 32.60
19323 76.4749 952.70 964.80 32.30
19324 76.4787 948.70 964.79 31.90
19325 76.4824 976.50 964.78 31.90
19326 76.4862 935.40 964.77 31.70
19327 76.4900 998.30 964.76 32.90
19328 76.4937 986.60 964.75 32.30
19329 76.4975 992.00 964.75 32.90
19330 76.5012 975.30 964.74 32.00
19331 76.5050 992.10 964.73 32.60
19332 76.5087 899.80 964.73 31.40
19333 76.5125 1006.70 964.73 32.10
19334 76.5162 981.30 964.72 32.20
19335 76.5200 945.20 964.72 31.70
19336 76.5238 931.80 964.72 31.50
19337 76.5275 1008.80 964.71 33.00
19338 76.5313 1011.40 964.71 32.90
19339 76.5350 997.90 964.71 33.90
19340 76.5388 972.50 964.71 31.30
19341 76.5425 959.80 964.71 31.10
19342 76.5463 924.40 964.71 30.50
19343 76.5500 966.60 964.71 31.50
19344 76.5538 962.50 964.71 31.40
19345 76.5575 1009.80 964.71 32.00
19346 76.5613 981.50 964.71 31.60
19347 76.5651 960.10 964.71 31.10
19348 76.5688 974.00 964.71 31.30
19349 76.5726 970.70 964.71 31.90
19350 76.5763 984.60 964.72 31.70
19351 76.5801 985.30 964.72 31.50
19352 76.5838 984.60 964.72 31.50
19353 76.5876 999.00 964.72 31.90
19354 76.5913 952.50 964.73 31.10
19355 76.5951 1022.00 964.73 32.20
19356 76.5989 982.80 964.73 31.60
19357 76.6026 965.80 964.74 31.20
19358 76.6064 970.80 964.74 31.30
19359 76.6101 1009.10 964.75 32.30
19360 76.6139 1007.10 964.75 32.40
19361 76.6176 1023.00 964.76 32.50
19362 76.6214 1017.60 964.76 32.20
19363 76.6251 890.40 964.77 30.00
19364 76.6289 985.30 964.77 31.80
19365 76.6327 991.40 964.78 31.50
19366 76.6364 954.10 964.78 31.30
19367 76.6402 966.00 964.79 31.40
19368 76.6439 972.00 964.79 31.60
19369 76.6477 964.80 964.80 31.50
19370 76.6514 983.90 964.80 32.10
19371 76.6552 1006.70 964.81 32.50
19372 76.6589 927.20 964.82 31.00
19373 76.6627 1032.80 964.83 32.50
19374 76.6665 966.00 964.83 31.10
19375 76.6702 896.00 964.84 30.30
19376 76.6740 1024.30 964.85 32.80
19377 76.6777 965.70 964.85 31.50
19378 76.6815 920.20 964.86 30.80
19379 76.6852 955.10 964.87 31.10
19380 76.6890 999.20 964.88 32.40
19381 76.6927 976.20 964.88 31.60
19382 76.6965 955.40 964.89 31.30
19383 76.7002 951.30 964.90 31.30
19384 76.7040 1020.60 964.91 32.00
19385 76.7078 1004.10 964.92 32.20
19386 76.7115 1077.90 964.92 33.60
19387 76.7153 1057.30 964.93 32.90
19388 76.7190 937.50 964.94 30.90
19389 76.7228 983.60 964.95 31.80
19390 76.7265 959.70 964.96 31.50
19391 76.7303 981.40 964.97 32.00
19392 76.7340 1019.40 964.98 32.60
19393 76.7378 983.00 964.99 31.70
19394 76.7415 988.80 965.00 31.60
19395 76.7453 1006.10 965.01 31.90
19396 76.7491 1017.30 970.46 32.80
19397 76.7528 1017.80 970.53 32.10
19398 76.7566 969.90 970.59 31.80
19399 76.7603 1065.70 970.66 33.00
19400 76.7641 993.70 970.73 31.80
19401 76.7678 1002.10 970.80 31.90
19402 76.7716 1059.20 970.87 33.60
19403 76.7753 960.20 970.94 31.70
19404 76.7791 981.40 971.02 32.20
19405 76.7829 935.70 971.09 30.70
19406 76.7866 951.40 971.16 31.50
19407 76.7904 989.90 971.24 32.30
19408 76.7941 1020.30 971.32 32.30
19409 76.7979 981.80 971.40 31.80
19410 76.8016 989.50 971.48 32.10
19411 76.8054 967.90 971.56 31.70
19412 76.8091 937.90 971.64 31.30
19413 76.8129 967.40 971.72 31.60
19414 76.8166 993.50 971.81 31.80
19415 76.8204 933.60 971.89 31.10
19416 76.8242 988.50 971.98 31.90
19417 76.8279 972.20 972.07 31.70
19418 76.8317 957.60 972.16 31.10
19419 76.8354 1010.20 972.25 32.40
19420 76.8392 984.60 972.34 31.80
19421 76.8429 1052.70 972.44 33.00
19422 76.8467 961.60 972.54 31.60
19423 76.8504 962.50 972.63 31.70
19424 76.8542 943.00 972.73 31.10
19425 76.8579 1006.20 972.83 32.20
19426 76.8617 1028.40 972.94 32.70
19427 76.8654 961.00 973.04 31.10
19428 76.8692 989.70 973.15 31.70
19429 76.8730 1005.60 973.26 32.50
19430 76.8767 966.70 973.37 31.80
19431 76.8805 930.90 973.48 30.90
19432 76.8842 1007.90 973.59 32.00
19433 76.8880 999.50 973.71 32.00
19434 76.8917 977.40 973.83 31.70
19435 76.8955 942.70 973.95 31.40
19436 76.8992 980.80 974.07 31.80
19437 76.9030 1038.40 974.19 33.30
19438 76.9067 1025.10 974.32 33.10
19439 76.9105 973.10 974.45 32.00
19440 76.9143 1012.30 974.58 32.30
19441 76.9180 1007.70 974.71 32.50
19442 76.9218 988.30 974.75 32.00
19443 76.9255 987.10 974.89 31.80
19444 76.9293 973.40 975.03 31.90
19445 76.9330 988.40 975.18 32.20
19446 76.9368 1046.40 975.33 32.60
19447 76.9405 1008.90 975.48 31.90
19448 76.9443 997.10 975.63 32.20
19449 76.9480 985.60 975.78 32.20
19450 76.9518 968.70 975.94 32.10
19451 76.9555 1014.60 976.11 32.50
19452 76.9593 1025.60 976.27 32.70
19453 76.9630 1023.80 976.44 32.70
19454 76.9668 985.00 976.61 31.50
19455 76.9706 1006.80 976.79 32.50
19456 76.9743 989.80 976.97 32.70
19457 76.9781 977.20 977.15 31.90
19458 76.9818 984.60 977.34 31.80
19459 76.9856 976.50 977.53 31.90
19460 76.9893 1014.50 977.72 32.30
19461 76.9931 997.50 977.92 32.20
19462 76.9968 1041.50 978.13 32.70
19463 76.9987 1041.10 978.23 33.80
19464 77.0025 1002.90 978.44 32.00
19465 77.0062 1005.10 978.66 32.60
19466 77.0100 1025.00 978.88 33.10
19467 77.0138 1004.60 979.10 32.80
19468 77.0175 979.60 979.33 32.50
19469 77.0213 990.40 979.57 32.50
19470 77.0250 1002.20 979.81 34.00
19471 77.0288 986.60 980.05 31.60
19472 77.0325 1008.90 980.30 31.90
19473 77.0363 1063.30 980.56 32.70
19474 77.0400 1022.20 980.83 32.40
19475 77.0438 1014.20 981.10 32.30
19476 77.0475 1007.00 981.38 32.00
19477 77.0513 956.80 981.66 31.20
19478 77.0551 1019.40 981.95 32.10
19479 77.0588 1034.20 982.25 32.30
19480 77.0626 995.20 982.55 32.30
19481 77.0663 1016.00 982.87 32.20
19482 77.0701 1004.10 983.19 31.80
19483 77.0738 1010.80 983.52 31.90
19484 77.0776 993.30 983.86 31.80
19485 77.0814 1040.60 984.21 32.50
19486 77.0851 1010.70 984.57 32.00
19487 77.0889 1025.60 984.93 32.30
19488 77.0926 996.80 985.31 31.70
19489 77.0964 1014.10 985.70 32.00
19490 77.1001 986.90 986.10 31.90
19491 77.1039 1022.70 986.51 32.60
19492 77.1076 960.50 986.93 31.40
19493 77.1114 1019.50 987.37 32.20
19494 77.1152 976.40 987.82 31.40
19495 77.1189 979.50 988.28 31.80
19496 77.1227 926.00 988.75 30.40
19497 77.1264 977.10 989.24 31.70
19498 77.1302 974.60 989.75 31.50
19499 77.1339 993.20 990.27 32.00
19500 77.1377 1018.70 990.80 32.40
19501 77.1414 982.90 991.36 32.10
19502 77.1452 1046.70 991.93 33.10
19503 77.1489 1033.60 992.52 32.70
19504 77.1527 976.70 993.13 31.50
19505 77.1565 1009.80 993.76 31.80
19506 77.1602 1015.00 994.41 32.30
19507 77.1640 1062.50 995.09 33.40
19508 77.1677 990.60 995.79 31.90
19509 77.1715 1016.40 996.51 32.40
19510 77.1752 1017.80 997.26 32.20
19511 77.1790 1034.50 998.03 33.00
19512 77.1827 1020.00 998.83 32.30
19513 77.1865 1042.40 999.67 32.70
19514 77.1902 988.90 1000.53 31.90
19515 77.1940 1016.90 1001.43 32.00
19516 77.1978 1029.20 1002.36 32.60
19517 77.2015 960.00 1003.33 31.60
19518 77.2053 999.10 1004.34 32.00
19519 77.2090 1058.20 1005.38 32.90
19520 77.2128 985.50 1006.47 31.80
19521 77.2165 1031.30 1007.61 32.70
19522 77.2203 1030.20 1008.79 32.80
19523 77.2240 1026.20 1010.02 32.70
19524 77.2278 1058.70 1011.30 33.00
19525 77.2284 1061.60 1011.52 33.20
19526 77.2321 1045.50 1012.87 32.80
19527 77.2359 1062.90 1014.28 33.30
19528 77.2396 1052.80 1015.76 33.00
19529 77.2434 1074.30 1017.29 33.50
19530 77.2472 1086.90 1018.92 33.50
19531 77.2509 1064.40 1020.61 33.50
19532 77.2547 1051.40 1022.39 33.10
19533 77.2584 1122.60 1024.25 34.50
19534 77.2622 1034.30 1026.20 32.70
19535 77.2659 1078.00 1028.25 33.30
19536 77.2697 1011.90 1030.42 32.80
19537 77.2734 1055.00 1032.69 33.50
19538 77.2772 1082.10 1035.08 33.80
19539 77.2809 1052.20 1037.61 33.10
19540 77.2847 1061.40 1040.28 33.30
19541 77.2884 1074.40 1043.09 33.70
19542 77.2922 1057.10 1046.07 33.20
19543 77.2960 1063.90 1049.23 33.70
19544 77.2997 1019.90 1052.58 32.90
19545 77.3035 1050.20 1056.15 33.40
19546 77.3072 1095.20 1059.91 34.30
19547 77.3110 1057.70 1063.93 33.50
19548 77.3147 1081.30 1068.20 34.10
19549 77.3185 1128.40 1072.77 34.70
19550 77.3222 1118.70 1077.64 34.40
19551 77.3260 1104.20 1082.86 34.10
19552 77.3297 1115.90 1088.44 34.30
19553 77.3335 1117.70 1094.43 34.60
19554 77.3372 1096.20 1100.89 34.50
19555 77.3410 1103.00 1107.83 34.30
19556 77.3448 1116.60 1115.33 34.50
19557 77.3485 1143.00 1123.40 35.10
19558 77.3523 1167.70 1132.17 35.30
19559 77.3560 1166.60 1141.65 35.60
19560 77.3598 1157.90 1151.99 35.40
19561 77.3635 1206.00 1163.25 35.70
19562 77.3673 1181.10 1175.57 35.00
19563 77.3710 1309.80 1189.07 37.80
19564 77.3748 1194.30 1203.87 35.80
19565 77.3785 1269.00 1220.21 36.70
19566 77.3823 1197.20 1238.19 35.80
19567 77.3860 1280.70 1258.23 36.50
19568 77.3898 1223.60 1280.44 35.40
19569 77.3935 1314.20 1305.34 37.80
19570 77.3973 1399.20 1333.14 38.80
19571 77.4010 1407.00 1364.46 38.80
19572 77.4048 1439.10 1399.97 39.60
19573 77.4085 1375.10 1440.31 38.30
19574 77.4123 1525.80 1486.53 40.30
19575 77.4161 1536.00 1540.28 40.80
19576 77.4198 1559.20 1602.24 41.10
19577 77.4236 1674.00 1675.14 42.50
19578 77.4273 1776.00 1761.16 44.10
19579 77.4311 1844.70 1863.80 44.50
19580 77.4348 1868.80 1986.61 44.50
19581 77.4386 2083.90 2134.82 47.60
19582 77.4423 2177.60 2313.82 48.70
19583 77.4461 2414.80 2529.15 52.00
19584 77.4499 2716.60 2789.88 55.50
19585 77.4536 3152.00 3100.78 59.40
19586 77.4574 3491.60 3470.23 63.00
19587 77.4611 4406.40 3897.71 71.20
19588 77.4649 5069.60 4383.11 75.70
19589 77.4686 5876.40 4908.23 82.30
19590 77.4724 6805.40 5435.03 90.80
19591 77.4761 7264.60 5902.76 93.50
19592 77.4799 7484.40 6232.59 94.10
19593 77.4836 7576.00 6351.74 94.60
19594 77.4874 7046.30 6231.70 90.80
19595 77.4911 6217.40 5900.46 84.70
19596 77.4949 5295.80 5430.35 78.30
19597 77.4987 4497.80 4903.37 71.60
19598 77.5024 3700.90 4378.54 64.60
19599 77.5062 3318.60 3894.50 60.80
19600 77.5099 2830.40 3466.80 56.00
19601 77.5137 2580.10 3097.96 53.70
19602 77.5174 2242.60 2787.60 49.60
19603 77.5212 2177.20 2527.37 49.00
19604 77.5249 1890.80 2312.45 45.50
19605 77.5287 1747.80 2133.81 43.40
19606 77.5324 1691.00 1986.15 43.20
19607 77.5362 1550.50 1863.34 41.00
19608 77.5400 1580.70 1760.74 41.40
19609 77.5437 1517.30 1674.78 40.50
19610 77.5475 1424.80 1602.20 39.40
19611 77.5512 1393.70 1540.28 39.30
19612 77.5550 1356.70 1486.85 38.70
19613 77.5587 1380.30 1440.81 38.80
19614 77.5625 1311.60 1400.47 37.40
19615 77.5662 1299.20 1365.04 36.60
19616 77.5700 1311.20 1333.80 37.90
19617 77.5738 1255.70 1305.97 36.90
19618 77.5775 1209.80 1281.15 35.80
19619 77.5813 1223.00 1259.04 35.40
19620 77.5850 1212.40 1239.10 35.80
19621 77.5888 1202.90 1221.14 35.60
19622 77.5925 1116.30 1204.86 35.00
19623 77.5963 1159.10 1190.14 35.10
19624 77.6000 1199.50 1176.62 36.20
19625 77.6038 1156.50 1164.37 35.70
19626 77.6075 1118.40 1153.16 34.70
19627 77.6113 1112.10 1142.86 34.80
19628 77.6150 1119.30 1133.42 34.60
19629 77.6188 1047.80 1124.70 33.60
19630 77.6226 1132.60 1116.66 35.00
19631 77.6263 1110.10 1109.20 35.00
19632 77.6301 1097.00 1102.30 34.40
19633 77.6338 1126.70 1095.90 35.40
19634 77.6376 1157.00 1089.96 35.40
19635 77.6413 1066.10 1084.42 33.90
19636 77.6451 1105.80 1079.24 34.30
19637 77.6488 1097.00 1074.40 34.50
19638 77.6526 1085.20 1069.88 34.00
19639 77.6564 1097.80 1065.64 34.60
19640 77.6601 1104.20 1061.67 34.60
19641 77.6639 1089.80 1057.94 33.90
19642 77.6676 1066.80 1054.43 33.70
19643 77.6714 1105.90 1051.12 35.20
19644 77.6826 1041.30 1042.28 33.70
19645 77.6864 1050.60 1039.66 34.30
19646 77.6901 983.50 1037.16 32.50
19647 77.6939 1076.90 1034.81 33.50
19648 77.6976 1048.60 1032.57 33.40
19649 77.7014 991.70 1030.46 32.50
19650 77.7052 1043.70 1028.44 33.50
19651 77.7089 1022.10 1026.52 33.10
19652 77.7127 1003.50 1024.70 32.80
19653 77.7164 1036.40 1022.96 33.50
19654 77.7202 1035.90 1021.31 33.50
19655 77.7239 1021.10 1019.74 32.80
19656 77.7277 1011.60 1018.22 32.90
19657 77.7315 1073.00 1016.79 34.10
19658 77.7352 1011.10 1015.42 32.90
19659 77.7390 986.80 1014.10 32.60
19660 77.7427 1036.20 1012.85 33.30
19661 77.7465 967.00 1011.64 31.70
19662 77.7502 1040.90 1010.49 33.50
19663 77.7540 1025.20 1009.39 32.90
19664 77.7577 1038.00 1008.33 33.20
19665 77.7615 1030.10 1007.32 33.10
19666 77.7653 1030.20 1006.34 32.50
19667 77.7690 1001.60 1005.40 32.30
19668 77.7728 1031.90 1004.51 33.80
19669 77.7765 961.00 1003.64 32.10
19670 77.7803 1045.20 1002.81 33.30
19671 77.7840 1060.60 1002.01 33.70
19672 77.7878 962.80 1001.24 32.30
19673 77.7915 1037.50 1000.50 32.90
19674 77.7953 1016.60 999.78 32.70
19675 77.7991 1002.10 999.09 33.20
19676 77.8028 1010.00 998.43 32.90
19677 77.8066 1002.70 997.79 33.10
19678 77.8103 1042.70 997.17 33.70
19679 77.8141 963.50 996.58 31.90
19680 77.8178 989.50 996.00 32.00
19681 77.8216 1020.40 995.44 33.40
19682 77.8253 1046.10 994.91 33.60
19683 77.8291 980.40 994.39 32.70
19684 77.8328 982.80 993.89 31.90
19685 77.8366 945.20 993.40 31.80
19686 77.8404 1007.70 992.93 32.80
19687 77.8441 1031.20 992.47 32.70
19688 77.8479 1003.50 992.03 32.80
19689 77.8516 985.10 991.60 32.30
19690 77.8554 1051.30 991.19 33.60
19691 77.8591 988.20 990.79 32.80
19692 77.8629 1034.60 990.40 33.00
19693 77.8667 965.30 990.03 31.00
19694 77.8704 1086.40 989.66 34.50
19695 77.8742 1034.50 989.31 33.10
19696 77.8779 1019.90 988.97 33.00
19697 77.8817 1030.60 988.63 33.30
19698 77.8854 1027.10 988.31 32.70
19699 77.8892 1009.20 988.00 32.70
19700 77.8929 990.30 987.69 32.30
19701 77.8967 1039.80 987.40 33.60
19702 77.9005 1068.20 987.11 34.00
19703 77.9042 962.30 986.83 32.20
19704 77.9080 1005.80 986.56 32.80
19705 77.9117 1032.60 986.29 33.30
19706 77.9155 1030.70 986.04 33.30
19707 77.9192 990.60 985.79 32.70
19708 77.9230 1035.50 985.54 33.40
19709 77.9268 1002.00 985.31 32.60
19710 77.9305 1028.60 985.08 33.50
19711 77.9343 1096.20 984.85 34.10
19712 77.9380 998.00 984.64 32.70
19713 77.9418 997.60 984.43 32.70
19714 77.9455 1017.30 984.22 32.70
19715 77.9493 997.80 984.02 32.70
19716 77.9530 943.70 983.82 31.30
19717 77.9568 1018.40 983.63 33.10
19718 77.9606 1028.30 983.45 32.90
19719 77.9643 1019.30 983.27 33.00
19720 77.9681 950.20 983.09 30.90
19721 77.9718 964.60 982.92 32.20
19722 77.9756 986.20 982.75 32.00
19723 77.9793 1002.80 982.59 32.70
19724 77.9831 987.10 982.43 32.50
19725 77.9868 1005.10 982.27 32.20
19726 77.9906 981.60 982.12 32.30
19727 77.9944 1002.30 981.97 32.60
19728 77.9981 996.30 981.83 32.20
19729 78.0019 1028.60 981.74 32.30
19730 78.0169 981.30 981.21 32.20
19731 78.0207 942.70 981.09 31.40
19732 78.0244 1006.80 980.97 32.60
19733 78.0282 977.20 980.85 32.40
19734 78.0319 1019.90 980.73 33.00
19735 78.0357 949.90 980.62 31.70
19736 78.0394 1026.90 980.51 33.00
19737 78.0432 1017.60 980.40 32.70
19738 78.0470 1018.60 980.30 32.70
19739 78.0507 932.20 980.20 31.50
19740 78.0545 967.40 980.10 32.40
19741 78.0582 1023.70 980.00 33.20
19742 78.0620 990.00 979.90 32.50
19743 78.0657 1028.00 979.81 32.90
19744 78.0695 998.90 979.72 32.30
19745 78.0733 1054.60 979.63 33.80
19746 78.0770 1003.50 979.54 32.70
19747 78.0808 981.50 979.46 32.10
19748 78.0845 994.30 979.38 32.40
19749 78.0883 992.60 979.29 32.20
19750 78.0920 1029.70 979.22 33.20
19751 78.0958 1008.90 979.14 32.90
19752 78.0995 1014.50 979.06 33.00
19753 78.1033 975.40 978.99 31.90
19754 78.1071 919.00 978.91 31.40
19755 78.1108 1022.30 978.84 33.20
19756 78.1146 1005.10 978.78 32.80
19757 78.1183 936.80 978.71 31.50
19758 78.1221 977.00 978.64 32.30
19759 78.1258 1002.90 978.58 32.60
19760 78.1296 966.10 978.51 31.80
19761 78.1333 995.80 978.45 32.50
19762 78.1371 1009.50 978.39 32.90
19763 78.1409 1008.00 978.33 32.90
19764 78.1446 1009.40 978.27 32.80
19765 78.1484 949.00 978.22 31.50
19766 78.1521 954.20 978.16 31.70
19767 78.1559 966.10 978.11 32.10
19768 78.1597 1003.60 978.05 32.70
19769 78.1634 937.20 978.00 31.70
19770 78.1672 977.00 977.95 32.10
19771 78.1709 1039.20 977.90 33.70
19772 78.1747 1064.00 977.85 33.70
19773 78.1784 984.10 977.81 32.20
19774 78.1822 968.40 977.76 31.80
19775 78.1860 1005.40 977.72 32.60
19776 78.1897 1004.50 977.67 32.60
19777 78.1935 986.20 977.63 32.40
19778 78.1972 984.30 977.59 32.20
19779 78.2010 1017.70 977.54 32.40
19780 78.2047 913.90 977.50 30.90
19781 78.2085 976.00 977.47 32.00
19782 78.2123 1004.30 977.43 32.80
19783 78.2160 957.00 977.39 31.70
19784 78.2198 1022.80 971.92 33.00
19785 78.2235 997.80 971.94 32.70
19786 78.2273 1014.70 971.96 32.40
19787 78.2310 970.00 971.98 32.20
19788 78.2348 1015.20 972.00 32.90
19789 78.2385 1007.70 972.02 32.80
19790 78.2423 999.30 972.03 32.20
19791 78.2461 992.70 972.05 32.20
19792 78.2498 986.60 972.07 32.50
19793 78.2536 1027.10 972.09 32.80
19794 78.2573 955.50 972.11 32.10
19795 78.2611 989.30 972.13 32.30
19796 78.2648 967.60 972.15 31.70
19797 78.2686 943.70 972.16 31.10
19798 78.2724 1047.20 972.18 34.10
19799 78.2761 1030.70 972.20 33.10
19800 78.2799 941.00 972.22 31.50
19801 78.2836 1010.10 972.24 32.40
19802 78.2874 1017.00 972.26 32.60
19803 78.2912 949.90 972.28 31.70
19804 78.2949 965.00 972.29 32.30
19805 78.2987 956.90 972.31 32.00
19806 78.3024 935.90 972.33 31.20
19807 78.3062 977.00 972.35 32.30
19808 78.3099 990.50 972.37 31.90
19809 78.3137 981.70 972.39 32.20
19810 78.3175 1011.40 972.41 32.80
19811 78.3212 1000.00 972.42 32.50
19812 78.3250 959.30 972.44 31.80
19813 78.3287 1046.90 972.46 33.40
19814 78.3325 942.50 972.48 31.70
19815 78.3362 974.40 972.50 32.30
19816 78.3400 1000.20 972.52 32.40
19817 78.3438 948.80 972.54 31.70
19818 78.3475 1027.30 972.55 32.80
19819 78.3513 979.10 972.57 32.30
19820 78.3550 1008.90 972.59 32.60
19821 78.3588 958.80 972.61 31.80
19822 78.3625 1032.50 972.63 33.40
19823 78.3663 941.10 972.65 31.30
19824 78.3701 1040.80 972.67 33.40
19825 78.3738 971.40 972.69 32.30
19826 78.3776 937.40 972.71 31.40
19827 78.3813 1009.60 972.72 32.40
19828 78.3851 1030.50 972.74 33.10
19829 78.3888 985.70 972.76 32.70
19830 78.3926 960.80 972.78 32.10
19831 78.3964 971.70 972.80 32.10
19832 78.4001 998.60 972.82 32.20
19833 78.4039 944.70 972.84 31.70
19834 78.4076 1030.20 972.86 33.00
19835 78.4114 994.90 972.88 32.60
19836 78.4152 975.80 972.90 32.00
19837 78.4189 1061.10 972.92 33.50
19838 78.4227 986.60 972.94 32.50
19839 78.4264 1028.60 972.96 33.00
19840 78.4302 985.30 972.98 31.80
19841 78.4339 946.50 973.00 32.00
19842 78.4377 899.90 973.02 30.60
19843 78.4415 976.90 973.04 32.40
19844 78.4452 977.70 973.06 31.50
19845 78.4490 934.50 973.08 31.50
19846 78.4527 993.60 973.10 32.10
19847 78.4565 979.40 973.12 32.30
19848 78.4602 990.80 973.14 32.20
19849 78.4640 974.40 973.17 32.30
19850 78.4678 957.80 973.19 31.70
19851 78.4715 1057.50 973.21 34.00
19852 78.4753 1011.10 973.23 32.70
19853 78.4790 1007.10 973.26 32.10
19854 78.4828 962.20 973.28 31.90
19855 78.4866 957.80 973.30 32.20
19856 78.4903 980.30 973.33 32.20
19857 78.4941 995.00 973.35 32.70
19858 78.4978 1004.00 973.37 32.70
19859 78.5016 977.80 973.40 32.20
19860 78.5053 985.60 973.42 32.50
19861 78.5091 949.70 973.45 31.80
19862 78.5129 1056.00 973.48 33.50
19863 78.5166 966.90 973.50 32.00
19864 78.5204 922.30 973.53 31.30
19865 78.5241 972.20 973.56 32.30
19866 78.5279 980.20 973.59 32.00
19867 78.5316 995.80 973.62 32.40
19868 78.5354 996.60 973.65 32.70
19869 78.5392 964.70 973.68 32.20
19870 78.5429 1055.30 973.71 33.80
19871 78.5467 938.80 973.74 31.70
19872 78.5504 998.00 973.78 32.80
19873 78.5542 918.00 973.82 30.90
19874 78.5580 990.30 973.85 32.30
19875 78.5617 1016.90 973.89 33.00
19876 78.5655 986.10 973.93 32.20
19877 78.5692 937.90 973.97 31.10
19878 78.5730 1004.30 974.01 33.70
19879 78.5767 1006.90 974.06 33.00
19880 78.5805 1003.40 974.11 32.50
19881 78.5843 948.80 974.16 31.80
19882 78.5880 1009.40 974.21 33.10
19883 78.5918 966.10 974.26 32.20
19884 78.5955 984.50 974.32 31.80
19885 78.5993 1031.60 974.38 33.10
19886 78.6031 1005.60 974.44 32.60
19887 78.6068 984.20 974.51 32.40
19888 78.6106 954.30 974.58 32.00
19889 78.6143 934.90 974.66 31.50
19890 78.6181 997.60 974.74 32.40
19891 78.6218 971.80 974.83 31.90
19892 78.6256 977.50 974.92 32.00
19893 78.6294 982.10 975.02 32.20
19894 78.6331 981.60 975.13 32.50
19895 78.6369 933.70 975.24 31.50
19896 78.6406 1008.80 975.37 32.90
19897 78.6444 935.80 975.51 31.60
19898 78.6481 984.10 975.66 32.60
19899 78.6519 929.70 975.82 31.60
19900 78.6557 979.30 976.00 32.40
19901 78.6594 1006.30 976.20 33.00
19902 78.6632 984.60 976.42 32.70
19903 78.6669 969.30 976.67 32.30
19904 78.6707 1017.20 976.94 32.50
19905 78.6745 1038.30 977.24 34.20
19906 78.6782 959.30 977.59 31.90
19907 78.6820 992.60 977.98 32.40
19908 78.6857 1041.70 978.43 33.10
19909 78.6895 1001.50 978.94 32.80
19910 78.6932 1023.10 979.54 31.40
19911 78.7008 996.20 981.06 30.90
19912 78.7045 1001.30 982.03 32.80
19913 78.7083 1005.00 983.20 32.50
19914 78.7120 1090.60 984.59 34.30
19915 78.7158 977.20 986.27 32.30
19916 78.7196 1011.20 988.28 32.90
19917 78.7233 990.20 990.70 32.50
19918 78.7271 1070.20 993.57 34.20
19919 78.7308 980.60 996.95 32.20
19920 78.7346 1053.00 1000.84 33.50
19921 78.7384 1080.20 1005.26 34.00
19922 78.7421 971.00 1010.00 32.60
19923 78.7459 1050.50 1014.75 33.60
19924 78.7496 1081.80 1019.02 34.20
19925 78.7534 1046.90 1022.11 33.80
19926 78.7571 1031.80 1023.39 33.30
19927 78.7609 1029.90 1022.57 33.60
19928 78.7647 1027.00 1019.84 32.90
19929 78.7684 1065.30 1015.79 33.00
19930 78.7722 1058.60 1011.10 33.60
19931 78.7759 1034.40 1006.32 33.80
19932 78.7797 974.80 1001.85 32.50
19933 78.7834 973.30 997.84 32.20
19934 78.7872 1032.70 994.37 33.40
19935 78.7910 981.90 991.38 32.40
19936 78.7947 982.30 988.89 32.50
19937 78.7985 967.80 986.81 32.40
19938 78.8023 963.90 985.07 32.20
19939 78.8060 1066.60 983.62 33.90
19940 78.8098 1002.30 982.42 32.90
19941 78.8135 1009.60 981.42 32.70
19942 78.8173 1037.20 980.58 33.60
19943 78.8210 942.40 979.87 31.60
19944 78.8248 1002.90 979.27 32.80
19945 78.8286 988.90 978.74 32.60
19946 78.8323 960.80 978.30 32.00
19947 78.8361 978.60 977.90 32.30
19948 78.8398 1038.30 977.56 33.50
19949 78.8436 925.50 977.26 31.10
19950 78.8474 1000.30 976.99 32.80
19951 78.8511 973.40 976.75 31.90
19952 78.8549 1017.70 976.53 33.20
19953 78.8586 996.60 976.34 32.70
19954 78.8624 959.00 976.17 32.00
19955 78.8661 940.90 976.01 31.60
19956 78.8699 924.50 975.87 30.70
19957 78.8737 901.00 975.74 31.60
19958 78.8774 948.50 975.62 31.80
19959 78.8812 1005.90 975.51 32.60
19960 78.8849 972.20 975.41 32.10
19961 78.8887 967.40 975.32 32.20
19962 78.8925 884.00 975.24 30.60
19963 78.8962 936.30 975.16 31.40
19964 78.9000 1055.90 975.09 33.40
19965 78.9037 993.00 975.02 32.70
19966 78.9075 960.60 974.96 31.60
19967 78.9112 947.20 974.90 31.70
19968 78.9150 987.80 974.84 32.30
19969 78.9188 942.10 974.79 31.80
19970 78.9225 935.80 974.75 31.30
19971 78.9263 926.70 974.70 31.30
19972 78.9300 1008.00 974.66 32.90
19973 78.9338 948.10 974.62 31.60
19974 78.9376 942.90 974.58 30.80
19975 78.9413 942.40 974.55 31.50
19976 78.9451 937.70 974.51 31.10
19977 78.9488 1023.20 974.48 32.80
19978 78.9526 965.80 974.45 32.40
19979 78.9564 976.60 974.42 32.30
19980 78.9601 977.20 974.39 32.40
19981 78.9639 921.40 974.37 31.40
19982 78.9676 944.20 974.34 31.10
19983 78.9714 982.60 974.32 32.40
19984 78.9752 960.20 974.29 32.60
19985 78.9789 963.80 974.27 31.80
19986 78.9827 1026.70 974.25 32.40
19987 78.9864 935.20 974.23 31.90
19988 78.9902 1011.00 974.21 33.00
19989 78.9939 894.30 974.19 30.90
19990 78.9977 929.30 974.17 31.60
19991 79.0015 961.60 974.15 31.90
19992 79.0052 936.70 974.13 31.80
19993 79.0090 937.90 974.11 31.60
19994 79.0127 901.00 974.10 31.00
19995 79.0165 1003.70 974.08 32.60
19996 79.0203 1055.40 974.06 33.60
19997 79.0240 931.70 974.05 31.20
19998 79.0278 904.20 974.03 30.90
19999 79.0315 979.80 974.02 32.20
20000 79.0353 921.80 974.00 31.50
20001 79.0390 969.50 973.99 31.80
20002 79.0428 953.90 973.97 32.00
20003 79.0466 930.20 973.96 31.40
20004 79.0503 933.50 973.94 31.40
20005 79.0541 948.10 973.93 31.80
20006 79.0579 937.80 973.91 32.10
20007 79.0616 931.30 973.90 31.60
20008 79.0654 946.00 973.88 31.40
20009 79.0691 956.00 973.87 31.30
20010 79.0729 997.40 973.86 33.00
20011 79.0766 956.10 973.84 32.00
20012 79.0804 898.50 973.83 30.90
20013 79.0842 921.40 973.82 31.20
20014 79.0879 954.10 973.80 31.80
20015 79.0917 968.40 973.79 31.50
20016 79.0954 942.90 973.77 31.50
20017 79.0992 958.30 973.76 31.90
20018 79.1030 968.40 973.75 32.20
20019 79.1067 960.70 973.73 32.10
20020 79.1105 980.50 973.72 31.90
20021 79.1142 1000.60 973.70 32.00
20022 79.1180 1001.10 973.69 32.70
20023 79.1218 965.70 973.68 31.90
20024 79.1255 957.80 973.66 32.10
20025 79.1293 957.70 973.65 32.40
20026 79.1330 981.80 973.63 32.30
20027 79.1368 962.80 973.62 31.70
20028 79.1405 986.50 973.60 32.30
20029 79.1443 972.20 973.59 31.90
20030 79.1481 932.90 973.58 31.20
20031 79.1518 1004.80 973.56 32.80
20032 79.1556 979.00 973.55 31.70
20033 79.1593 952.60 973.53 31.70
20034 79.1631 953.70 973.52 31.90
20035 79.1668 909.60 973.50 30.80
20036 79.1706 986.70 973.49 31.80
20037 79.1744 1014.70 973.47 33.30
20038 79.1781 987.10 973.46 32.30
20039 79.1819 975.40 973.44 32.00
20040 79.1857 965.60 973.42 31.80
20041 79.1894 935.00 973.41 31.40
20042 79.1932 995.40 973.39 32.20
20043 79.1969 883.30 973.38 30.40
20044 79.2007 933.40 973.36 31.40
20045 79.2044 971.50 973.34 31.90
20046 79.2082 948.40 973.33 31.80
20047 79.2120 895.90 973.31 30.90
20048 79.2157 1004.00 973.29 32.60
20049 79.2195 922.10 973.28 31.00
20050 79.2232 967.20 973.26 32.00
20051 79.2270 947.80 973.24 31.70
20052 79.2308 977.90 973.23 32.20
20053 79.2345 952.80 973.21 31.60
20054 79.2383 915.80 973.19 31.00
20055 79.2420 933.40 973.17 31.50
20056 79.2458 965.00 973.15 31.80
20057 79.2496 944.70 979.89 31.60
20058 79.2533 891.80 979.94 30.90
20059 79.2571 962.10 979.98 32.30
20060 79.2608 956.70 980.03 32.10
20061 79.2646 1006.00 980.08 32.60
20062 79.2684 998.60 980.13 32.10
20063 79.2721 950.60 980.18 31.70
20064 79.2759 939.90 980.24 32.00
20065 79.2796 941.20 980.29 31.50
20066 79.2834 992.10 980.34 32.10
20067 79.2871 969.90 980.40 31.90
20068 79.2909 970.50 980.46 31.60
20069 79.2947 984.20 980.51 32.40
20070 79.2984 912.30 980.57 31.00
20071 79.3022 949.00 980.63 31.90
20072 79.3059 991.10 980.69 32.40
20073 79.3097 971.60 980.75 32.10
20074 79.3135 959.70 980.81 32.00
20075 79.3172 990.40 980.88 32.50
20076 79.3210 921.20 980.94 31.40
20077 79.3248 939.60 981.01 31.60
20078 79.3285 968.40 981.07 32.10
20079 79.3323 987.80 981.14 32.70
20080 79.3360 940.70 981.21 31.80
20081 79.3398 990.50 981.28 32.60
20082 79.3435 947.60 981.35 31.60
20083 79.3473 992.10 981.42 32.50
20084 79.3511 967.20 981.50 32.00
20085 79.3548 969.90 981.58 32.10
20086 79.3586 963.80 981.65 31.90
20087 79.3623 1003.10 981.73 32.50
20088 79.3661 990.20 981.81 32.10
20089 79.3699 984.70 981.90 31.70
20090 79.3736 992.00 981.98 32.90
20091 79.3774 916.60 982.07 31.20
20092 79.3811 1017.70 982.15 32.60
20093 79.3849 899.40 982.24 31.00
20094 79.3887 944.60 982.33 31.60
20095 79.3924 966.70 982.42 32.10
20096 79.3962 960.90 982.52 31.60
20097 79.3999 946.50 982.62 31.70
20098 79.4037 972.70 982.72 32.30
20099 79.4074 964.40 982.82 32.00
20100 79.4112 980.70 982.92 32.10
20101 79.4150 912.70 983.02 31.10
20102 79.4187 931.30 983.13 31.40
20103 79.4225 995.90 983.24 32.60
20104 79.4262 987.80 983.35 31.90
20105 79.4300 993.30 983.47 32.20
20106 79.4338 975.30 983.58 32.30
20107 79.4375 967.50 983.70 32.20
20108 79.4413 1002.80 983.82 32.70
20109 79.4450 945.30 983.95 31.60
20110 79.4488 951.00 984.07 31.70
20111 79.4526 961.60 984.20 31.50
20112 79.4563 1012.20 984.34 32.80
20113 79.4601 1001.90 984.47 32.60
20114 79.4638 959.50 984.61 32.00
20115 79.4676 924.80 984.75 31.20
20116 79.4714 1060.70 984.90 33.60
20117 79.4751 936.70 985.05 32.00
20118 79.4789 929.60 985.20 31.50
20119 79.4826 1018.90 985.36 32.90
20120 79.4864 947.70 985.52 31.80
20121 79.4902 943.20 985.68 31.40
20122 79.4939 903.20 985.84 31.10
20123 79.4977 892.60 986.02 30.80
20124 79.5014 982.70 986.19 32.10
20125 79.5052 966.80 986.37 31.90
20126 79.5090 963.90 986.56 31.80
20127 79.5127 932.90 986.74 31.90
20128 79.5165 982.30 986.89 32.50
20129 79.5202 960.90 987.09 32.00
20130 79.5240 948.70 987.29 31.90
20131 79.5277 945.80 987.50 31.90
20132 79.5315 888.90 987.71 30.60
20133 79.5353 1009.80 987.93 32.70
20134 79.5390 979.00 988.16 32.20
20135 79.5428 965.90 988.39 32.00
20136 79.5465 881.70 988.62 30.20
20137 79.5503 945.20 988.86 31.70
20138 79.5541 945.20 989.11 31.60
20139 79.5578 997.80 989.37 32.90
20140 79.5616 980.70 989.63 32.20
20141 79.5653 1018.50 989.90 32.80
20142 79.5691 926.80 990.18 30.90
20143 79.5729 1014.40 990.46 33.60
20144 79.5766 921.10 990.76 31.50
20145 79.5804 988.50 991.06 32.40
20146 79.5841 980.30 991.36 31.80
20147 79.5879 956.80 991.68 31.90
20148 79.5917 993.80 992.01 32.80
20149 79.5954 1007.60 992.34 32.80
20150 79.5992 943.00 992.69 31.70
20151 79.6029 1007.80 993.05 32.80
20152 79.6067 987.30 993.41 32.10
20153 79.6105 964.00 993.79 32.00
20154 79.6142 975.20 994.17 32.40
20155 79.6180 979.30 994.58 32.10
20156 79.6217 1035.00 994.98 32.80
20157 79.6255 983.10 995.41 32.20
20158 79.6293 958.80 995.85 31.90
20159 79.6330 930.60 996.30 31.20
20160 79.6368 920.50 996.76 31.10
20161 79.6405 1008.30 997.24 32.40
20162 79.6443 968.60 997.73 31.80
20163 79.6480 978.40 998.24 31.90
20164 79.6518 1006.00 998.77 31.80
20165 79.6556 976.80 999.31 31.80
20166 79.6593 990.50 999.87 32.50
20167 79.6631 1028.30 1000.45 32.70
20168 79.6668 1018.90 1001.05 32.60
20169 79.6706 973.80 1001.67 31.70
20170 79.6744 1014.90 1002.31 33.20
20171 79.6781 986.40 1002.97 32.30
20172 79.6819 935.20 1003.65 31.50
20173 79.6856 954.50 1004.36 31.60
20174 79.6894 948.40 1005.09 31.40
20175 79.6932 1005.10 1005.85 32.30
20176 79.6969 985.90 1006.64 32.00
20177 79.7007 989.00 1007.45 31.90
20178 79.7044 995.70 1008.30 31.70
20179 79.7082 1015.00 1009.17 32.70
20180 79.7120 967.50 1010.08 31.90
20181 79.7157 992.40 1011.03 32.30
20182 79.7195 996.90 1012.01 32.40
20183 79.7232 973.30 1013.02 31.50
20184 79.7270 981.00 1014.09 32.30
20185 79.7308 1023.50 1015.18 32.70
20186 79.7345 1002.30 1016.33 32.50
20187 79.7383 1023.50 1017.52 32.80
20188 79.7420 996.70 1018.75 32.20
20189 79.7458 997.20 1020.04 32.00
20190 79.7496 1048.80 1021.39 32.90
20191 79.7533 958.00 1022.79 31.60
20192 79.7571 995.60 1024.25 31.90
20193 79.7608 1026.30 1025.78 32.90
20194 79.7646 1070.30 1027.37 33.40
20195 79.7683 1024.20 1029.04 32.60
20196 79.7721 1011.60 1030.78 32.40
20197 79.7759 1044.90 1032.60 33.30
20198 79.7796 1092.80 1034.51 34.10
20199 79.7834 1076.20 1036.50 33.50
20200 79.7871 1052.30 1038.60 33.10
20201 79.7909 1002.40 1040.79 32.40
20202 79.7946 1038.20 1043.09 32.50
20203 79.7984 1096.70 1045.51 33.80
20204 79.8022 1108.20 1048.05 34.10
20205 79.8059 1060.00 1050.72 33.30
20206 79.8097 1013.30 1053.53 32.40
20207 79.8135 1079.90 1056.50 33.80
20208 79.8172 1051.20 1059.63 33.20
20209 79.8210 1048.40 1062.93 33.10
20210 79.8247 1055.00 1066.42 33.00
20211 79.8285 1111.80 1070.09 34.40
20212 79.8323 984.90 1073.99 32.10
20213 79.8360 1096.50 1078.13 33.90
20214 79.8398 1072.70 1082.50 33.30
20215 79.8435 1104.40 1087.14 34.20
20216 79.8473 1142.20 1092.10 34.30
20217 79.8511 1176.50 1097.36 35.30
20218 79.8548 1116.20 1102.96 34.50
20219 79.8586 1118.40 1108.94 34.00
20220 79.8623 1145.80 1115.32 34.70
20221 79.8661 1150.30 1122.14 34.30
20222 79.8698 1094.10 1129.47 33.40
20223 79.8736 1120.80 1137.31 34.40
20224 79.8774 1148.00 1145.75 35.10
20225 79.8811 1213.40 1154.83 35.60
20226 79.8849 1187.70 1164.59 35.30
20227 79.8886 1190.50 1175.17 35.10
20228 79.8924 1181.50 1186.62 35.10
20229 79.8962 1232.40 1198.98 36.20
20230 79.8999 1186.80 1212.44 34.70
20231 79.9037 1150.20 1227.18 34.40
20232 79.9074 1200.50 1243.14 35.50
20233 79.9112 1236.20 1260.64 35.90
20234 79.9150 1284.50 1279.86 37.00
20235 79.9187 1330.70 1300.97 37.70
20236 79.9225 1356.10 1324.24 37.30
20237 79.9262 1311.90 1350.04 37.30
20238 79.9300 1445.80 1378.62 39.50
20239 79.9337 1458.90 1410.52 39.50
20240 79.9375 1413.90 1446.00 38.90
20241 79.9413 1534.90 1486.23 40.40
20242 79.9450 1557.30 1531.42 41.20
20243 79.9488 1626.40 1582.84 42.20
20244 79.9526 1642.20 1641.37 42.20
20245 79.9563 1686.80 1708.97 42.30
20246 79.9601 1679.30 1787.05 43.00
20247 79.9638 1880.60 1878.95 45.00
20248 79.9676 1877.90 1986.33 44.90
20249 79.9713 2044.10 2113.74 46.70
20250 79.9751 2161.50 2265.80 49.00
20251 79.9789 2294.10 2447.66 50.00
20252 79.9826 2675.70 2664.67 54.30
20253 79.9864 2804.60 2925.38 55.60
20254 79.9901 3144.70 3236.58 58.50
20255 79.9939 3740.50 3604.31 63.90
20256 79.9977 4262.10 4036.89 68.30
20257 80.0014 5018.00 4540.18 76.20
20258 80.0052 6134.30 5103.73 83.00
20259 80.0089 7170.70 5720.90 91.30
20260 80.0127 8229.20 6355.29 98.80
20261 80.0165 9231.30 6947.70 103.80
20262 80.0202 9521.00 7419.00 106.90
20263 80.0240 9840.30 7684.86 109.00
20264 80.0277 9424.10 7687.71 106.60
20265 80.0315 8496.00 7426.91 100.90
20266 80.0352 7542.90 6961.00 94.20
20267 80.0390 6248.20 6367.02 84.30
20268 80.0428 5139.60 5733.78 78.00
20269 80.0465 4447.30 5117.83 70.50
20270 80.0503 3803.20 4549.68 64.30
20271 80.0540 3327.80 4046.60 60.00
20272 80.0578 2873.30 3613.02 55.30
20273 80.0616 2590.00 3242.35 53.50
20274 80.0653 2382.20 2929.83 51.00
20275 80.0691 2161.90 2668.38 47.80
20276 80.0728 2135.70 2450.29 48.50
20277 80.0766 1841.40 2266.89 45.10
20278 80.0804 1827.50 2114.63 44.10
20279 80.0841 1620.30 1986.32 41.60
20280 80.0879 1737.50 1878.21 42.90
20281 80.0916 1579.30 1786.32 41.30
20282 80.0954 1631.00 1707.64 42.40
20283 80.0992 1464.60 1639.64 39.10
20284 80.1029 1443.80 1580.65 39.50
20285 80.1067 1422.00 1528.92 39.20
20286 80.1104 1450.90 1483.59 39.50
20287 80.1142 1344.70 1443.07 38.00
20288 80.1180 1354.80 1407.20 38.40
20289 80.1217 1316.10 1375.05 37.70
20290 80.1255 1331.10 1346.28 38.40
20291 80.1292 1285.40 1320.26 37.50
20292 80.1330 1179.10 1296.80 35.60
20293 80.1367 1170.40 1275.44 35.40
20294 80.1405 1215.90 1256.00 36.40
20295 80.1443 1202.10 1238.30 36.20
20296 80.1480 1110.80 1222.07 34.20
20297 80.1518 1169.90 1207.19 35.10
20298 80.1555 1131.50 1193.56 34.70
20299 80.1593 1114.40 1180.96 34.90
20300 80.1631 1135.80 1169.34 35.30
20301 80.1668 1111.90 1158.59 34.60
20302 80.1706 1106.50 1148.63 34.00
20303 80.1743 1132.10 1139.35 35.30
20304 80.1781 1094.60 1130.74 34.30
20305 80.1818 1121.80 1122.70 34.20
20306 80.1856 1166.10 1115.20 34.90
20307 80.1894 1072.30 1108.19 34.30
20308 80.1931 1053.60 1101.63 33.70
20309 80.1969 1150.60 1095.47 34.90
20310 80.2007 1113.60 1089.70 34.70
20311 80.2044 1069.40 1084.26 34.00
20312 80.2082 1090.10 1079.15 34.50
20313 80.2119 1088.00 1074.31 33.60
20314 80.2157 1033.00 1069.75 33.40
20315 80.2194 1043.90 1065.45 33.60
20316 80.2232 1072.00 1061.38 33.80
20317 80.2270 1013.50 1057.50 33.30
20318 80.2307 1060.40 1053.85 33.30
20319 80.2345 1038.70 1050.37 33.40
20320 80.2382 994.30 1047.07 32.90
20321 80.2420 1021.60 1043.93 33.30
20322 80.2458 1024.90 1040.94 33.30
20323 80.2495 1015.30 1038.09 32.90
20324 80.2533 1007.40 1035.38 33.00
20325 80.2570 1037.00 1032.78 33.30
20326 80.2608 1093.10 1030.31 34.30
20327 80.2646 1029.50 1027.93 33.10
20328 80.2683 1032.00 1025.66 33.30
20329 80.2721 988.60 1023.50 32.10
20330 80.2758 1003.70 1021.41 33.60
20331 80.2796 1014.90 1019.42 32.90
20332 80.2833 995.90 1017.50 32.30
20333 80.2871 1028.40 1015.66 33.00
20334 80.2909 1027.40 1013.89 32.50
20335 80.2946 1004.80 1012.19 32.70
20336 80.2984 1072.20 1010.55 34.10
20337 80.3021 969.00 1008.97 32.10
20338 80.3059 991.00 1007.45 32.70
20339 80.3096 986.30 1005.99 32.60
20340 80.3134 995.90 1004.57 32.40
20341 80.3172 1029.90 1003.20 33.50
20342 80.3209 981.80 1001.88 32.50
20343 80.3247 990.10 1000.60 32.90
20344 80.3285 917.20 999.37 31.20
20345 80.3322 967.70 998.18 32.30
20346 80.3360 1033.70 997.02 33.20
20347 80.3397 1011.80 995.90 32.30
20348 80.3435 963.00 994.81 32.40
20349 80.3472 972.40 993.76 32.50
20350 80.3510 947.60 992.74 32.00
20351 80.3548 926.50 991.74 31.20
20352 80.3585 919.60 990.78 31.50
20353 80.3623 937.20 989.84 31.70
20354 80.3660 987.20 988.92 32.60
20355 80.3698 1015.10 988.04 32.50
20356 80.3736 972.00 987.17 32.60
20357 80.3773 1015.80 986.33 33.30
20358 80.3811 993.90 985.51 32.30
20359 80.3848 923.10 984.72 31.30
20360 80.3886 955.20 983.94 31.60
20361 80.3924 892.00 983.18 30.90
20362 80.3961 942.80 982.44 31.80
20363 80.3999 991.40 981.71 32.60
20364 80.4036 1016.60 981.01 32.60
20365 80.4074 897.20 980.31 30.80
20366 80.4111 946.80 979.64 31.80
20367 80.4149 1002.60 978.98 32.80
20368 80.4187 992.60 978.33 32.70
20369 80.4224 927.80 977.70 31.60
20370 80.4262 983.50 977.08 32.60
20371 80.4299 949.80 976.47 31.80
20372 80.4337 953.30 975.88 31.80
20373 80.4374 993.00 975.30 32.80
20374 80.4412 924.30 974.73 31.50
20375 80.4450 936.60 974.16 31.30
20376 80.4487 924.30 973.61 31.40
20377 80.4525 940.80 973.08 32.10
20378 80.4563 951.70 972.54 31.10
20379 80.4600 976.60 972.02 32.40
20380 80.4638 923.40 971.51 31.50
20381 80.4675 898.60 971.01 30.90
20382 80.4713 973.70 970.51 31.90
20383 80.4750 949.60 970.03 32.20
20384 80.4788 879.60 969.55 30.80
20385 80.4826 988.50 969.08 32.60
20386 80.4863 990.70 968.61 32.60
20387 80.4901 966.30 968.16 31.20
20388 80.4938 929.00 967.71 31.50
20389 80.4976 984.40 967.26 32.30
20390 80.5013 1001.10 966.82 32.80
20391 80.5051 912.60 966.39 30.80
20392 80.5089 972.20 965.97 32.20
20393 80.5126 945.10 965.54 31.90
20394 80.5164 920.40 965.13 31.20
20395 80.5201 916.60 964.72 31.20
20396 80.5239 965.30 964.32 32.30
20397 80.5277 967.20 963.92 32.40
20398 80.5314 914.50 963.52 31.10
20399 80.5352 915.10 963.13 31.10
20400 80.5389 965.10 962.75 31.60
20401 80.5427 961.10 962.36 32.10
20402 80.5464 974.40 961.99 31.90
20403 80.5502 877.40 961.61 30.20
20404 80.5540 957.60 961.25 32.30
20405 80.5577 913.70 960.88 31.10
20406 80.5615 941.20 960.52 31.70
20407 80.5652 908.00 960.16 31.00
20408 80.5690 943.90 959.81 31.90
20409 80.5727 883.30 959.45 30.50
20410 80.5765 941.70 959.10 31.90
20411 80.5803 913.10 958.76 30.90
20412 80.5840 963.60 958.42 31.50
20413 80.5878 917.00 958.08 31.00
20414 80.5916 960.40 957.74 32.00
20415 80.5953 958.50 957.41 31.40
20416 80.5991 935.80 957.08 31.30
20417 80.6028 974.40 956.75 31.90
20418 80.6066 844.90 956.42 29.50
20419 80.6103 900.90 956.09 31.00
20420 80.6141 964.20 955.77 31.80
20421 80.6179 900.10 955.45 31.10
20422 80.6216 887.70 955.14 30.70
20423 80.6254 916.90 954.82 31.10
20424 80.6291 990.80 954.51 32.30
20425 80.6329 969.90 954.19 32.20
20426 80.6366 915.50 953.89 30.80
20427 80.6404 911.00 953.58 31.10
20428 80.6442 959.70 953.27 31.80
20429 80.6479 883.30 952.97 30.40
20430 80.6517 909.10 952.66 30.80
20431 80.6554 904.20 952.36 31.00
20432 80.6592 893.10 952.06 30.50
20433 80.6629 915.70 951.76 31.30
20434 80.6667 936.50 951.46 31.40
20435 80.6705 962.40 951.17 31.30
20436 80.6742 954.10 950.87 31.40
20437 80.6780 989.70 950.58 32.90
20438 80.6817 925.60 950.29 31.30
20439 80.6855 939.60 950.00 31.40
20440 80.6892 980.90 949.71 32.00
20441 80.6930 914.90 949.42 31.00
20442 80.6968 898.20 949.13 30.90
20443 80.7005 943.20 948.84 31.40
20444 80.7043 952.60 948.56 32.10
20445 80.7081 988.30 948.27 32.20
20446 80.7118 918.70 947.99 31.00
20447 80.7156 921.40 947.70 31.00
20448 80.7193 934.00 947.42 31.30
20449 80.7231 927.20 947.14 31.20
20450 80.7268 922.10 946.86 30.80
20451 80.7306 936.50 946.58 31.30
20452 80.7344 945.00 946.30 31.60
20453 80.7381 936.40 946.02 31.40
20454 80.7419 879.50 945.74 30.40
20455 80.7456 897.60 945.46 30.70
20456 80.7494 926.00 945.18 31.10
20457 80.7531 864.00 944.91 30.30
20458 80.7569 920.70 944.63 31.20
20459 80.7607 895.20 944.35 31.10
20460 80.7644 947.10 944.08 31.10
20461 80.7682 939.30 943.80 31.70
20462 80.7719 953.30 943.53 30.80
20463 80.7757 940.60 943.26 32.30
20464 80.7795 930.30 942.98 31.60
20465 80.7832 875.40 942.71 30.30
20466 80.7870 907.70 942.43 30.40
20467 80.7907 925.40 942.16 31.10
20468 80.7945 948.60 941.89 31.40
20469 80.7982 947.80 941.61 31.80
20470 80.8020 874.50 941.34 30.20
20471 80.8057 949.00 934.37 31.90
20472 80.8095 961.50 934.16 31.90
20473 80.8133 939.70 933.95 31.70
20474 80.8170 869.80 933.74 30.70
20475 80.8208 913.80 933.53 31.40
20476 80.8245 930.40 933.32 31.40
20477 80.8283 916.80 933.11 31.20
20478 80.8320 942.30 932.89 31.70
20479 80.8358 944.90 932.68 31.50
20480 80.8396 891.40 932.46 30.80
20481 80.8433 889.20 932.25 30.20
20482 80.8471 876.60 932.03 30.40
20483 80.8509 876.60 931.82 30.30
20484 80.8546 914.60 931.60 31.30
20485 80.8584 880.20 931.38 30.10
20486 80.8621 908.90 931.16 31.20
20487 80.8659 934.30 930.94 31.20
20488 80.8696 881.30 930.72 30.30
20489 80.8734 879.00 930.50 30.60
20490 80.8771 884.10 930.28 30.50
20491 80.8809 930.80 930.05 31.20
20492 80.8847 874.60 929.83 30.20
20493 80.8884 968.80 929.60 32.00
20494 80.8922 928.80 929.38 31.70
20495 80.8959 872.50 929.15 30.50
20496 80.8997 922.50 928.92 30.90
20497 80.9035 901.10 928.69 30.80
20498 80.9072 931.70 928.46 31.60
20499 80.9110 887.70 928.23 30.70
20500 80.9147 900.00 928.00 31.10
20501 80.9185 942.90 927.77 31.60
20502 80.9222 876.20 927.54 30.30
20503 80.9260 918.50 927.31 31.10
20504 80.9297 858.80 927.07 29.90
20505 80.9335 864.10 926.84 30.10
20506 80.9373 874.20 926.60 29.80
20507 80.9410 869.50 926.36 29.90
20508 80.9448 879.20 926.13 29.80
20509 80.9485 917.40 925.89 30.90
20510 80.9523 924.00 925.65 31.10
20511 80.9560 943.20 925.41 31.20
20512 80.9598 897.30 925.17 30.70
20513 80.9636 870.50 924.93 29.90
20514 80.9673 883.60 924.68 30.40
20515 80.9711 931.30 924.44 31.00
20516 80.9748 896.80 924.20 30.60
20517 80.9786 886.60 923.95 30.40
20518 80.9824 902.10 923.71 30.50
20519 80.9861 935.20 923.46 31.60
20520 80.9899 905.40 923.21 31.20
20521 80.9936 932.90 922.96 31.10
20522 80.9974 884.50 922.71 30.40
20523 81.0011 922.50 922.46 31.10
20524 81.0049 933.50 922.21 31.30
20525 81.0087 963.20 921.96 31.70
20526 81.0124 942.30 921.71 31.30
20527 81.0162 906.60 921.45 31.30
20528 81.0199 880.40 921.20 30.60
20529 81.0237 923.80 920.94 31.30
20530 81.0274 916.00 920.68 31.10
20531 81.0312 955.90 920.43 31.70
20532 81.0350 898.60 920.17 30.30
20533 81.0387 905.80 919.91 30.50
20534 81.0425 870.50 919.65 29.70
20535 81.0462 878.70 919.39 30.30
20536 81.0500 908.40 919.12 30.60
20537 81.0537 896.40 918.86 30.90
20538 81.0575 945.90 918.60 31.50
20539 81.0613 873.60 918.33 30.40
20540 81.0650 898.60 918.07 30.50
20541 81.0688 851.80 917.80 29.70
20542 81.0725 890.00 917.53 30.10
20543 81.0763 961.80 917.27 31.80
20544 81.0800 836.60 917.00 29.80
20545 81.0838 933.30 916.73 31.40
20546 81.0875 932.40 916.46 31.60
20547 81.0913 925.30 916.18 31.40
20548 81.0951 903.00 915.91 30.90
20549 81.0988 898.60 915.64 31.10
20550 81.1026 883.70 915.36 30.30
20551 81.1063 920.60 915.09 31.40
20552 81.1101 928.80 914.81 31.20
20553 81.1139 897.40 914.53 30.70
20554 81.1176 852.80 914.25 30.30
20555 81.1214 867.00 913.97 30.60
20556 81.1251 954.40 913.69 31.90
20557 81.1289 833.00 913.41 29.80
20558 81.1326 902.90 913.13 31.40
20559 81.1364 903.20 912.84 30.90
20560 81.1401 923.30 912.56 31.40
20561 81.1439 920.90 912.28 31.50
20562 81.1477 917.30 911.99 31.10
20563 81.1514 875.90 911.70 30.70
20564 81.1552 954.30 911.41 31.90
20565 81.1589 880.80 911.12 30.40
20566 81.1627 856.80 910.83 30.30
20567 81.1664 907.40 910.54 31.20
20568 81.1702 887.90 910.25 30.60
20569 81.1740 915.70 909.96 30.90
20570 81.1777 822.20 909.66 30.30
20571 81.1815 880.80 909.37 30.70
20572 81.1852 890.10 909.07 31.10
20573 81.1890 924.80 908.78 31.60
20574 81.1927 868.90 908.48 29.90
20575 81.1965 945.10 908.18 32.10
20576 81.2002 861.40 907.88 30.50
20577 81.2040 838.10 907.58 30.10
20578 81.2078 930.40 907.28 31.20
20579 81.2115 912.00 906.97 31.60
20580 81.2153 939.10 906.67 32.10
20581 81.2190 905.30 906.36 31.30
20582 81.2228 893.70 906.06 31.20
20583 81.2265 862.30 905.75 30.30
20584 81.2303 926.10 905.44 31.70
20585 81.2340 879.50 905.14 30.80
20586 81.2378 848.10 904.83 30.20
20587 81.2416 895.80 904.51 30.50
20588 81.2453 906.90 904.20 31.40
20589 81.2491 893.00 903.89 31.10
20590 81.2528 880.50 903.58 31.20
20591 81.2566 915.60 903.26 31.70
20592 81.2604 886.60 902.95 30.90
20593 81.2641 861.20 902.63 30.40
20594 81.2679 885.40 902.31 30.90
20595 81.2716 931.30 901.99 30.60
20596 81.2754 888.50 901.67 31.20
20597 81.2791 902.70 901.35 31.90
20598 81.2829 949.50 901.03 31.90
20599 81.2866 876.80 900.70 30.50
20600 81.2904 886.60 900.38 31.10
20601 81.2942 887.10 900.05 31.40
20602 81.2979 886.30 899.73 30.90
20603 81.3017 921.40 899.40 31.40
20604 81.3054 934.00 899.07 31.80
20605 81.3092 899.60 898.74 31.30
20606 81.3129 881.70 898.41 30.60
20607 81.3167 937.80 898.08 31.90
20608 81.3205 853.10 897.74 30.40
20609 81.3242 842.60 897.41 30.20
20610 81.3280 882.00 897.08 31.20
20611 81.3317 908.10 896.74 31.40
20612 81.3355 886.60 896.40 31.20
20613 81.3392 911.70 896.07 31.60
20614 81.3430 857.70 895.73 30.50
20615 81.3467 879.30 895.39 31.20
20616 81.3505 844.30 895.04 30.40
20617 81.3542 898.20 894.70 31.40
20618 81.3580 910.80 894.36 31.40
20619 81.3618 934.90 894.01 31.60
20620 81.3655 852.10 893.67 30.60
20621 81.3693 879.70 893.32 30.90
20622 81.3730 921.60 892.97 31.00
20623 81.3768 880.80 892.62 31.40
20624 81.3805 910.40 892.27 31.60
20625 81.3843 904.40 891.92 30.50
20626 81.3880 909.50 891.57 31.60
20627 81.3918 908.90 891.22 31.30
20628 81.3956 931.80 890.86 31.80
20629 81.3993 854.00 890.51 30.40
20630 81.4031 896.00 890.15 31.30
20631 81.4068 910.50 889.79 31.20
20632 81.4106 907.70 889.43 31.00
20633 81.4143 913.80 889.07 31.20
20634 81.4181 866.80 888.71 30.30
20635 81.4219 862.10 888.35 30.50
20636 81.4256 844.00 887.98 29.90
20637 81.4294 886.80 887.62 31.20
20638 81.4331 872.20 887.25 30.90
20639 81.4369 918.80 886.89 31.70
20640 81.4406 895.80 886.52 31.10
20641 81.4444 894.60 886.15 31.40
20642 81.4481 895.50 885.78 30.60
20643 81.4519 878.30 885.41 31.00
20644 81.4557 901.30 885.03 31.30
20645 81.4594 876.30 884.66 30.80
20646 81.4632 838.80 884.28 29.60
20647 81.4669 887.80 883.91 31.00
20648 81.4707 899.70 883.53 30.50
20649 81.4744 879.60 883.15 30.90
20650 81.4782 883.90 882.77 30.60
20651 81.4819 949.80 882.39 32.00
20652 81.4857 866.70 882.01 30.30
20653 81.4894 871.00 881.63 30.60
20654 81.4932 935.80 881.24 32.10
20655 81.4970 911.50 880.86 31.60
20656 81.5007 863.00 880.47 30.60
20657 81.5045 877.10 880.08 30.90
20658 81.5082 892.90 879.69 31.40
20659 81.5120 841.40 879.30 30.10
20660 81.5157 852.20 878.91 30.50
20661 81.5195 902.40 878.52 31.50
20662 81.5232 893.60 878.12 31.20
20663 81.5270 872.70 877.73 30.50
20664 81.5308 924.00 877.33 31.90
20665 81.5345 863.20 876.93 30.70
20666 81.5383 941.10 876.53 31.40
20667 81.5420 878.20 876.14 30.20
20668 81.5458 923.10 875.73 31.00
20669 81.5495 898.10 875.33 30.40
20670 81.5533 902.70 874.93 30.80
20671 81.5570 919.30 874.52 30.90
20672 81.5608 923.00 874.12 30.90
20673 81.5646 862.40 873.71 30.10
20674 81.5683 936.70 873.30 31.30
20675 81.5721 866.20 872.89 29.60
20676 81.5758 934.10 872.48 31.80
20677 81.5796 833.20 872.07 29.80
20678 81.5833 937.30 871.66 31.30
20679 81.5871 849.90 871.24 29.70
20680 81.5908 893.90 870.82 30.70
20681 81.5946 912.90 870.41 31.20
20682 81.5984 847.50 869.99 29.70
20683 81.6021 868.10 869.57 30.40
20684 81.6059 917.60 869.15 31.20
20685 81.6096 913.30 868.72 30.90
20686 81.6134 889.60 868.30 30.90
20687 81.6171 918.40 867.88 30.90
20688 81.6209 936.40 867.45 31.30
20689 81.6246 902.70 867.02 30.70
20690 81.6284 901.00 866.59 30.50
20691 81.6321 887.50 866.16 30.40
20692 81.6359 925.20 865.73 30.90
20693 81.6396 906.80 865.30 30.60
20694 81.6434 950.80 864.87 31.90
20695 81.6472 828.80 864.43 29.50
20696 81.6509 921.20 863.99 31.10
20697 81.6547 853.40 863.56 30.00
20698 81.6584 879.40 863.12 29.80
20699 81.6622 904.20 862.68 31.00
20700 81.6659 906.60 862.24 31.00
20701 81.6697 837.60 861.79 29.70
20702 81.6734 851.70 861.35 29.60
20703 81.6772 864.40 860.90 30.00
20704 81.6809 871.00 860.46 30.50
20705 81.6847 862.60 860.01 30.10
20706 81.6885 878.90 859.56 30.30
20707 81.6922 885.90 859.11 30.20
20708 81.6960 853.60 858.66 30.10
20709 81.6997 874.10 858.20 30.30
20710 81.7035 877.10 857.75 30.30
20711 81.7072 894.20 857.29 30.20
20712 81.7110 857.90 856.84 30.00
20713 81.7147 890.60 856.38 30.60
20714 81.7185 919.00 855.92 31.10
20715 81.7222 867.60 855.46 30.20
20716 81.7260 848.00 854.99 29.60
20717 81.7298 889.90 854.53 30.60
20718 81.7335 948.40 857.04 31.50
20719 81.7373 846.60 856.61 29.30
20720 81.7410 839.30 856.17 29.60
20721 81.7448 854.90 855.72 29.70
20722 81.7485 892.80 855.28 30.50
20723 81.7523 915.10 854.84 31.10
20724 81.7560 905.40 854.40 30.80
20725 81.7598 817.50 853.95 29.30
20726 81.7635 868.10 853.51 30.30
20727 81.7673 868.10 853.06 29.90
20728 81.7711 847.70 852.61 29.70
20729 81.7748 892.90 852.16 30.40
20730 81.7786 931.60 851.71 31.60
20731 81.7823 916.20 851.26 30.80
20732 81.7861 870.00 850.81 30.20
20733 81.7898 893.90 850.36 30.80
20734 81.7936 865.50 849.91 30.30
20735 81.7973 900.20 849.45 30.70
20736 81.8011 848.70 849.00 30.10
20737 81.8048 822.70 848.54 29.60
20738 81.8086 949.40 848.08 31.70
20739 81.8123 861.00 847.63 30.20
20740 81.8161 925.40 847.17 31.20
20741 81.8198 893.20 846.71 30.80
20742 81.8236 876.80 846.25 30.40
20743 81.8274 851.40 845.79 29.90
20744 81.8311 936.20 845.33 31.50
20745 81.8349 878.60 844.86 30.90
20746 81.8386 875.20 844.40 30.40
20747 81.8424 856.90 843.94 29.90
20748 81.8461 973.90 843.47 32.20
20749 81.8499 897.80 843.01 30.50
20750 81.8536 913.10 842.54 31.10
20751 81.8574 901.80 842.07 30.90
20752 81.8612 864.70 841.60 30.40
20753 81.8649 910.90 841.14 31.00
20754 81.8687 878.40 840.67 30.70
20755 81.8724 910.90 840.20 30.90
20756 81.8762 863.20 839.72 30.00
20757 81.8799 896.40 839.26 31.30
20758 81.8837 886.50 838.78 30.90
20759 81.8874 849.80 838.31 29.90
20760 81.8912 861.50 837.84 29.80
20761 81.8949 894.20 837.36 30.80
20762 81.8987 913.00 836.89 31.20
20763 81.9024 881.40 836.42 30.70
20764 81.9062 864.10 835.94 30.00
20765 81.9099 887.30 835.47 30.60
20766 81.9137 879.30 834.99 30.10
20767 81.9174 836.70 834.51 29.60
20768 81.9212 852.00 834.03 30.10
20769 81.9250 920.80 833.56 31.10
20770 81.9287 854.20 833.08 29.70
20771 81.9325 915.30 832.60 31.00
20772 81.9362 908.50 832.12 31.10
20773 81.9400 864.40 831.64 30.40
20774 81.9437 840.60 831.16 30.00
20775 81.9475 871.20 830.68 30.30
20776 81.9512 942.90 830.20 31.10
20777 81.9550 898.80 829.72 30.40
20778 81.9587 862.90 829.24 29.60
20779 81.9625 881.90 828.77 30.30
20780 81.9662 902.80 828.28 31.00
20781 81.9700 881.00 827.80 29.70
20782 81.9737 918.30 827.32 31.20
20783 81.9775 861.80 826.84 30.70
20784 81.9812 906.60 826.36 31.00
20785 81.9850 851.20 825.88 29.60
20786 81.9887 870.50 825.40 29.10
20787 81.9925 881.90 824.92 29.60
20788 81.9962 862.30 824.44 30.50
20789 82.0000 888.50 823.96 30.90
20790 82.0038 902.40 823.48 30.20
20791 82.0075 917.40 823.00 29.80
20792 82.0113 933.80 822.52 29.50
20793 82.0150 876.40 822.04 27.80
loop_
_pd_proc_info_excluded_regions
'from 2.179 to 3.839'
loop_
_refln_index_h
_refln_index_k
_refln_index_l
_refln_F_squared_calc
_refln_F_squared_meas
_refln_F_squared_sigma
_refln_observed_status
_refln_d_spacing
0 0 1 58.88 54.55 1.31 o 3.956674
1 0 1 1852.16 1750.63 33.24 o 2.797791
1 1 1 217.48 248.11 4.68 o 2.284387
0 0 2 3106.15 3052.37 58.91 o 1.978337
1 0 2 16.12 17.13 0.49 o 1.769478
1 1 2 1181.98 1179.47 22.19 o 1.615305
2 0 2 1872.84 1826.91 34.99 o 1.398896
0 0 3 6.31 6.18 0.26 o 1.318891
2 1 2 6.31 6.18 0.26 o 1.318891
1 0 3 851.01 840.15 15.73 o 1.251210
1 1 3 52.43 47.76 0.96 o 1.192982
2 2 2 1287.93 1294.75 24.85 o 1.142193
2 0 3 3.01 2.82 0.25 o 1.097384
2 1 3 649.86 647.84 12.04 o 1.057466
0 0 4 952.50 956.16 18.61 o 0.989169
2 2 3 1.77 1.74 0.15 o 0.959634
1 0 4 1.77 1.74 0.15 o 0.959634
3 0 3 512.67 518.69 9.64 o 0.932597
1 1 4 512.67 518.69 9.64 o 0.932597
3 1 3 22.38 19.15 0.72 o 0.907723
2 0 4 734.90 710.66 13.46 o 0.884739
2 1 4 1.28 1.47 0.18 o 0.863417
3 2 3 412.12 405.43 7.61 o 0.843566
2 2 4 581.90 578.65 10.98 o 0.807653
0 0 5 1.07 1.13 0.30 o 0.791335
3 0 4 1.07 1.13 0.30 o 0.791335
1 0 5 335.15 333.96 6.14 o 0.775968
3 1 4 335.15 333.96 6.14 o 0.775968
3 3 3 11.32 8.31 0.68 o 0.761462
1 1 5 11.32 8.31 0.68 o 0.761462
2 0 5 0.98 0.84 0.13 o 0.734736
3 2 4 0.98 0.84 0.13 o 0.734736
2 1 5 274.75 263.84 4.90 o 0.722387
4 0 4 381.29 383.89 7.76 o 0.699448
4 1 4 0.95 1.00 0.24 o 0.688769
2 2 5 0.95 1.00 0.24 o 0.688769
3 3 4 226.54 225.07 4.20 o 0.678564
3 0 5 226.54 225.07 4.20 o 0.678564
3 1 5 6.06 6.37 0.72 o 0.668800
0 0 6 312.90 309.29 5.94 o 0.659446
4 2 4 312.90 309.29 5.94 o 0.659446
1 0 6 0.92 1.00 0.66 < 0.650473
3 2 5 187.63 189.47 3.50 o 0.641857
1 1 6 187.63 189.47 3.50 o 0.641857
