#------------------------------------------------------------------------------
#$Date: 2017-05-25 04:59:11 +0300 (Thu, 25 May 2017) $
#$Revision: 196963 $
#$URL: file:///home/coder/svn-repositories/cod/cif/7/04/31/7043107.cif $
#------------------------------------------------------------------------------
#
# This file is available in the Crystallography Open Database (COD),
# http://www.crystallography.net/
#
# All data on this site have been placed in the public domain by the
# contributors.
#
data_7043107
loop_
_publ_author_name
'Whittle, Thomas A.'
'Brant, William R.'
'Hester, James R.'
'Gu, Qinfen'
'Schmid, Siegbert'
_publ_section_title
;
 Tailoring phase transition temperatures in perovskites via A-site vacancy
 generation
;
_journal_name_full               'Dalton Trans.'
_journal_paper_doi               10.1039/C7DT00352H
_journal_year                    2017
_chemical_formula_sum            'Nb0.4 O3 Sr0.8 Ti0.12 Zr0.48'
_chemical_formula_weight         204.8
_chemical_name_systematic        ' ?'
_space_group_IT_number           140
_symmetry_cell_setting           tetragonal
_symmetry_Int_Tables_number      140
_symmetry_space_group_name_Hall  '-I 4 2c'
_symmetry_space_group_name_H-M   'I 4/m c m'
_cell_angle_alpha                90
_cell_angle_beta                 90
_cell_angle_gamma                90
_cell_formula_units_Z            4
_cell_length_a                   5.694282(6)
_cell_length_b                   5.694282(6)
_cell_length_c                   8.077236(10)
_cell_measurement_temperature    293
_cell_volume                     261.9031(5)
_diffrn_ambient_temperature      293
_diffrn_radiation_probe          x-ray
_diffrn_radiation_wavelength     0.82647
_exptl_absorpt_coefficient_mu    9.457
_exptl_crystal_density_diffrn    5.1936
_exptl_crystal_F_000             371
_pd_instr_location               ' ?'
_pd_meas_2theta_range_max        82.007
_pd_meas_2theta_range_min        2.186
_pd_meas_number_of_points        21243
_pd_proc_2theta_range_max        82.007
_pd_proc_2theta_range_min        2.186
_pd_proc_ls_background_function  '15 Legendre polynoms'
_pd_proc_ls_pref_orient_corr     none
_pd_proc_ls_profile_function     Pseudo-Voigt
_pd_proc_ls_prof_R_factor        0.0316
_pd_proc_ls_prof_wR_expected     0.0087
_pd_proc_ls_prof_wR_factor       0.0391
_refine_ls_goodness_of_fit_all   4.47
_refine_ls_number_constraints    0
_refine_ls_number_parameters     28
_refine_ls_number_restraints     0
_refine_ls_R_factor_all          0.0291
_refine_ls_R_factor_gt           0.0272
_refine_ls_shift/su_max          0.0292
_refine_ls_shift/su_mean         0.0024
_refine_ls_weighting_scheme      sigma
_refine_ls_wR_factor_all         0.0536
_refine_ls_wR_factor_gt          0.0531
_cod_data_source_file            c7dt00352h10.cif
_cod_data_source_block           I
_cod_depositor_comments
;
The following automatic conversions were performed:

'_diffrn_radiation_probe' value 'X-ray' changed to 'x-ray' according
to
/home/data/users/saulius/crontab/automatic-downloads/rss-feeds/RSC/lib/dictionaries/cif_core.dic
dictionary named 'cif_core.dic' version 2.4.2 from 2011-04-26.

Automatic conversion script
Id: cif_fix_values 4973 2017-02-22 13:04:09Z antanas 
;
_cod_original_sg_symbol_Hall     '-I 4;-2c'
_cod_database_code               7043107
loop_
_space_group_symop_id
_space_group_symop_operation_xyz
1 x,y,z
2 -x,-y,z
3 -y,x,z
4 y,-x,z
5 -x,y,-z+1/2
6 x,-y,-z+1/2
7 y,x,-z+1/2
8 -y,-x,-z+1/2
9 -x,-y,-z
10 x,y,-z
11 y,-x,-z
12 -y,x,-z
13 x,-y,z+1/2
14 -x,y,z+1/2
15 -y,-x,z+1/2
16 y,x,z+1/2
17 x+1/2,y+1/2,z+1/2
18 -x+1/2,-y+1/2,z+1/2
19 -y+1/2,x+1/2,z+1/2
20 y+1/2,-x+1/2,z+1/2
21 -x+1/2,y+1/2,-z
22 x+1/2,-y+1/2,-z
23 y+1/2,x+1/2,-z
24 -y+1/2,-x+1/2,-z
25 -x+1/2,-y+1/2,-z+1/2
26 x+1/2,y+1/2,-z+1/2
27 y+1/2,-x+1/2,-z+1/2
28 -y+1/2,x+1/2,-z+1/2
29 x+1/2,-y+1/2,z
30 -x+1/2,y+1/2,z
31 -y+1/2,-x+1/2,z
32 y+1/2,x+1/2,z
loop_
_atom_site_label
_atom_site_type_symbol
_atom_site_fract_x
_atom_site_fract_y
_atom_site_fract_z
_atom_site_adp_type
_atom_site_U_iso_or_equiv
_atom_site_site_symmetry_multiplicity
_atom_site_occupancy
_atom_site_calc_flag
Sr Sr 0 0.5 0.25 Uiso 0.01053(5) 4 0.8 d
Ti Ti 0 0 0 Uiso 0.00642(4) 4 0.12 d
Zr Zr 0 0 0 Uiso 0.00642(4) 4 0.48 d
Nb Nb 0 0 0 Uiso 0.00642(4) 4 0.4 d
O1 O 0 0 0.25 Uiso 0.0220(5) 4 1 d
O2 O 0.27276(18) 0.77276(18) 0 Uiso 0.0208(4) 8 1 d
loop_
_atom_type_symbol
_atom_type_scat_dispersion_real
_atom_type_scat_dispersion_imag
_atom_type_scat_source
Nb -1.2547 0.8343 'International Tables Vol C tables 4.2.6.8 and 6.1.1.1'
O 0.0160 0.0088 'International Tables Vol C tables 4.2.6.8 and 6.1.1.1'
Sr -2.2366 0.6060 'International Tables Vol C tables 4.2.6.8 and 6.1.1.1'
Ti 0.3254 0.5997 'International Tables Vol C tables 4.2.6.8 and 6.1.1.1'
Zr -1.4554 0.7527 'International Tables Vol C tables 4.2.6.8 and 6.1.1.1'
loop_
_geom_angle_atom_site_label_1
_geom_angle_atom_site_label_2
_geom_angle_atom_site_label_3
_geom_angle_site_symmetry_1
_geom_angle_site_symmetry_3
_geom_angle
O1 Sr O1 . 1_565 180.0(5)
O1 Sr O1 . 25_455 90
O1 Sr O1 . 25_555 90
O1 Sr O2 . . 121.370(18)
O1 Sr O2 . 17_445 61.65(2)
O1 Sr O2 . 2_565 58.630(18)
O1 Sr O2 . 18_565 118.35(2)
O1 Sr O2 . 3_655 61.65(2)
O1 Sr O2 . 19_555 121.370(18)
O1 Sr O2 . 4_465 118.35(2)
O1 Sr O2 . 20_455 58.630(18)
O1 Sr O1 1_565 25_455 90
O1 Sr O1 1_565 25_555 90
O1 Sr O2 1_565 . 58.630(18)
O1 Sr O2 1_565 17_445 118.35(2)
O1 Sr O2 1_565 2_565 121.370(18)
O1 Sr O2 1_565 18_565 61.65(2)
O1 Sr O2 1_565 3_655 118.35(2)
O1 Sr O2 1_565 19_555 58.630(18)
O1 Sr O2 1_565 4_465 61.65(2)
O1 Sr O2 1_565 20_455 121.370(18)
O1 Sr O1 25_455 25_555 180.0(5)
O1 Sr O2 25_455 . 121.370(18)
O1 Sr O2 25_455 17_445 61.65(2)
O1 Sr O2 25_455 2_565 58.630(18)
O1 Sr O2 25_455 18_565 118.35(2)
O1 Sr O2 25_455 3_655 118.35(2)
O1 Sr O2 25_455 19_555 58.630(18)
O1 Sr O2 25_455 4_465 61.65(2)
O1 Sr O2 25_455 20_455 121.370(18)
O1 Sr O2 25_555 . 58.630(18)
O1 Sr O2 25_555 17_445 118.35(2)
O1 Sr O2 25_555 2_565 121.370(18)
O1 Sr O2 25_555 18_565 61.65(2)
O1 Sr O2 25_555 3_655 61.65(2)
O1 Sr O2 25_555 19_555 121.370(18)
O1 Sr O2 25_555 4_465 118.35(2)
O1 Sr O2 25_555 20_455 58.630(18)
O2 Sr O2 . 17_445 174.78(2)
O2 Sr O2 . 2_565 94.815(19)
O2 Sr O2 . 18_565 90.41(2)
O2 Sr O2 . 3_655 59.90(3)
O2 Sr O2 . 19_555 117.26(3)
O2 Sr O2 . 4_465 59.90(3)
O2 Sr O2 . 20_455 117.26(3)
O2 Sr O2 17_445 2_565 90.41(2)
O2 Sr O2 17_445 18_565 84.37(2)
O2 Sr O2 17_445 3_655 123.30(3)
O2 Sr O2 17_445 19_555 59.90(3)
O2 Sr O2 17_445 4_465 123.30(3)
O2 Sr O2 17_445 20_455 59.90(3)
O2 Sr O2 2_565 18_565 174.78(2)
O2 Sr O2 2_565 3_655 59.90(3)
O2 Sr O2 2_565 19_555 117.26(3)
O2 Sr O2 2_565 4_465 59.90(3)
O2 Sr O2 2_565 20_455 117.26(3)
O2 Sr O2 18_565 3_655 123.30(3)
O2 Sr O2 18_565 19_555 59.90(3)
O2 Sr O2 18_565 4_465 123.30(3)
O2 Sr O2 18_565 20_455 59.90(3)
O2 Sr O2 3_655 19_555 174.78(2)
O2 Sr O2 3_655 4_465 84.37(2)
O2 Sr O2 3_655 20_455 90.41(2)
O2 Sr O2 19_555 4_465 90.41(2)
O2 Sr O2 19_555 20_455 94.815(19)
O2 Sr O2 4_465 20_455 174.78(2)
O1 Ti O1 . 9_555 180.0(5)
O1 Ti O2 . 1_545 90
O1 Ti O2 . 2_565 90
O1 Ti O2 . 3_655 90
O1 Ti O2 . 4_455 90
O1 Ti O2 9_555 1_545 90
O1 Ti O2 9_555 2_565 90
O1 Ti O2 9_555 3_655 90
O1 Ti O2 9_555 4_455 90
O2 Ti O2 1_545 2_565 180.0(5)
O2 Ti O2 1_545 3_655 90.00(4)
O2 Ti O2 1_545 4_455 90.00(4)
O2 Ti O2 2_565 3_655 90.00(4)
O2 Ti O2 2_565 4_455 90.00(4)
O2 Ti O2 3_655 4_455 180.0(5)
O1 Zr O1 . 9_555 180.0(5)
O1 Zr O2 . 1_545 90
O1 Zr O2 . 2_565 90
O1 Zr O2 . 3_655 90
O1 Zr O2 . 4_455 90
O1 Zr O2 9_555 1_545 90
O1 Zr O2 9_555 2_565 90
O1 Zr O2 9_555 3_655 90
O1 Zr O2 9_555 4_455 90
O2 Zr O2 1_545 2_565 180.0(5)
O2 Zr O2 1_545 3_655 90.00(4)
O2 Zr O2 1_545 4_455 90.00(4)
O2 Zr O2 2_565 3_655 90.00(4)
O2 Zr O2 2_565 4_455 90.00(4)
O2 Zr O2 3_655 4_455 180.0(5)
O1 Nb O1 . 9_555 180.0(5)
O1 Nb O2 . 1_545 90
O1 Nb O2 . 2_565 90
O1 Nb O2 . 3_655 90
O1 Nb O2 . 4_455 90
O1 Nb O2 9_555 1_545 90
O1 Nb O2 9_555 2_565 90
O1 Nb O2 9_555 3_655 90
O1 Nb O2 9_555 4_455 90
O2 Nb O2 1_545 2_565 180.0(5)
O2 Nb O2 1_545 3_655 90.00(4)
O2 Nb O2 1_545 4_455 90.00(4)
O2 Nb O2 2_565 3_655 90.00(4)
O2 Nb O2 2_565 4_455 90.00(4)
O2 Nb O2 3_655 4_455 180.0(5)
loop_
_geom_bond_atom_site_label_1
_geom_bond_atom_site_label_2
_geom_bond_site_symmetry_2
_geom_bond_distance
Sr O1 . 2.8471
Sr O1 1_565 2.8471
Sr O1 25_455 2.8471
Sr O1 25_555 2.8471
Sr O2 . 2.9837(8)
Sr O2 17_445 2.7251(7)
Sr O2 2_565 2.9837(8)
Sr O2 18_565 2.7251(7)
Sr O2 3_655 2.7251(7)
Sr O2 19_555 2.9837(8)
Sr O2 4_465 2.7251(7)
Sr O2 20_455 2.9837(8)
Ti O1 . 2.0193
Ti O1 9_555 2.0193
Ti O2 1_545 2.0216(10)
Ti O2 2_565 2.0216(10)
Ti O2 3_655 2.0216(10)
Ti O2 4_455 2.0216(10)
Zr O1 . 2.0193
Zr O1 9_555 2.0193
Zr O2 1_545 2.0216(10)
Zr O2 2_565 2.0216(10)
Zr O2 3_655 2.0216(10)
Zr O2 4_455 2.0216(10)
Nb O1 . 2.0193
Nb O1 9_555 2.0193
Nb O2 1_545 2.0216(10)
Nb O2 2_565 2.0216(10)
Nb O2 3_655 2.0216(10)
Nb O2 4_455 2.0216(10)
loop_
_pd_proc_point_id
_pd_proc_2theta_corrected
_pd_proc_intensity_net
_pd_calc_intensity_net
_pd_proc_ls_weight
1 2.1846 45311.70 43702.80 256.08
2 2.1884 45166.20 43739.10 260.39
3 2.1922 45514.60 43775.20 270.01
4 2.1959 44772.30 43811.30 270.52
5 2.1997 45403.90 43847.00 275.46
6 2.2034 44150.40 43882.70 272.24
7 2.2072 45590.30 43918.30 278.44
8 2.2109 44538.90 43953.70 274.97
9 2.2147 45803.70 43989.10 277.68
10 2.2184 44859.10 44024.20 277.42
11 2.2222 45860.80 44059.20 279.56
12 2.2260 44879.70 44094.10 276.34
13 2.2297 45746.90 44128.80 278.89
14 2.2335 44673.40 44163.50 275.11
15 2.2372 45150.90 44197.90 276.69
16 2.2410 44810.10 44232.30 276.54
17 2.2447 45086.60 44266.50 276.19
18 2.2485 44889.90 44300.60 275.67
19 2.2522 45396.80 44334.60 278.17
20 2.2560 44888.00 44368.30 276.39
21 2.2597 45799.80 44402.10 281.32
22 2.2635 45053.00 44435.60 277.96
23 2.2673 45947.30 44469.10 278.97
24 2.2710 45431.80 44502.30 278.35
25 2.2748 45584.80 44535.50 279.70
26 2.2785 44757.60 44568.50 276.99
27 2.2823 45451.70 44601.30 279.73
28 2.2860 44757.30 44634.20 275.61
29 2.2898 46099.30 44666.80 281.55
30 2.2935 45357.90 44699.30 277.27
31 2.2973 46110.70 44731.70 280.81
32 2.3010 44894.40 44764.00 275.12
33 2.3048 45723.70 44796.10 281.28
34 2.3085 44981.60 44828.10 274.71
35 2.3123 46203.70 44859.90 281.90
36 2.3161 44837.90 44891.70 275.91
37 2.3198 45794.30 44923.30 277.79
38 2.3236 45427.00 44954.90 278.89
39 2.3273 45517.80 44986.20 277.72
40 2.3311 45207.00 45017.40 276.97
41 2.3348 46284.30 45048.50 279.98
42 2.3386 44756.70 45079.50 276.43
43 2.3423 45686.70 45110.40 278.45
44 2.3461 45492.40 45141.10 276.78
45 2.3498 46094.00 45171.80 282.71
46 2.3536 45657.80 45202.20 279.94
47 2.3574 46299.50 45232.70 281.42
48 2.3611 45407.90 45262.90 278.79
49 2.3649 46246.70 45293.10 282.22
50 2.3686 45285.00 45323.00 278.66
51 2.3724 45741.90 45353.00 279.18
52 2.3761 45214.80 45382.70 276.82
53 2.3799 46533.00 45412.40 282.35
54 2.3836 45638.70 45441.90 278.12
55 2.3874 45781.30 45471.30 279.42
56 2.3911 45274.40 45500.60 278.64
57 2.3949 46201.10 45529.80 279.77
58 2.3987 45564.80 45558.80 278.90
59 2.4024 46370.90 45587.80 281.39
60 2.4062 46253.00 45616.50 280.96
61 2.4099 46069.10 45645.30 279.94
62 2.4137 45465.70 45673.90 278.88
63 2.4174 46088.80 45702.30 280.59
64 2.4212 45715.20 45730.70 279.69
65 2.4249 47081.80 45758.90 284.11
66 2.4287 45938.80 45787.00 280.59
67 2.4325 46662.50 45815.00 284.75
68 2.4362 45547.80 45842.90 278.96
69 2.4400 46614.50 45870.60 281.71
70 2.4437 45944.80 45898.30 280.32
71 2.4475 46876.20 45925.80 282.50
72 2.4512 45964.00 45953.20 280.77
73 2.4550 46958.30 45980.50 285.32
74 2.4588 45692.30 46007.70 277.86
75 2.4625 46647.90 46034.80 284.52
76 2.4663 46026.10 46061.80 279.24
77 2.4700 46309.40 46088.70 282.68
78 2.4738 46029.90 46115.40 279.61
79 2.4775 46810.70 46142.00 283.79
80 2.4813 45877.40 46168.50 281.67
81 2.4850 46666.60 46194.90 283.48
82 2.4888 46063.60 46221.20 282.17
83 2.4925 47153.30 46247.40 286.31
84 2.4963 46283.30 46273.40 282.50
85 2.5001 46911.50 46299.40 285.48
86 2.5038 46307.30 46325.20 282.00
87 2.5076 46584.70 46351.00 283.82
88 2.5113 46285.50 46376.70 281.90
89 2.5151 47108.60 46402.20 284.90
90 2.5188 45831.60 46427.60 280.25
91 2.5226 46879.00 46452.90 284.32
92 2.5264 46025.00 46478.10 282.01
93 2.5301 46698.00 46503.20 283.68
94 2.5339 46546.30 46528.20 282.29
95 2.5376 47310.30 46553.10 286.44
96 2.5414 46456.50 46577.80 284.42
97 2.5451 46992.30 46602.50 284.79
98 2.5489 46717.40 46627.00 283.54
99 2.5526 47248.20 46651.50 285.02
100 2.5564 46087.80 46675.90 282.96
101 2.5601 47629.00 46700.10 287.54
102 2.5639 46237.90 46724.30 282.47
103 2.5677 47162.50 46748.30 285.98
104 2.5714 46377.40 46772.20 282.55
105 2.5752 46946.40 46796.10 283.98
106 2.5789 46321.00 46819.80 282.89
107 2.5827 47161.90 46843.40 286.67
108 2.5864 46514.20 46866.90 284.07
109 2.5902 46784.70 46890.30 284.14
110 2.5940 46390.70 46913.70 283.88
111 2.5977 47262.50 46936.90 285.10
112 2.6015 46582.00 46960.00 281.99
113 2.6052 47599.00 46982.90 287.61
114 2.6090 46575.30 47005.90 284.30
115 2.6127 47197.40 47028.70 285.73
116 2.6165 46591.90 47051.40 283.40
117 2.6202 47165.50 47074.00 285.72
118 2.6240 46478.10 47096.50 283.18
119 2.6278 47400.30 47118.90 286.42
120 2.6315 46695.60 47141.20 283.42
121 2.6353 47344.10 47163.40 284.73
122 2.6390 46676.10 47185.50 283.37
123 2.6428 47345.80 47207.50 286.00
124 2.6465 46223.30 47229.40 279.83
125 2.6503 47635.90 47251.30 286.81
126 2.6541 46757.50 47272.90 284.51
127 2.6578 47269.40 47294.60 286.10
128 2.6616 46933.70 47316.10 286.47
129 2.6653 47055.50 47337.50 286.80
130 2.6691 46836.80 47358.90 284.91
131 2.6728 47093.10 47380.10 287.32
132 2.6766 46763.50 47401.20 285.00
133 2.6804 47559.90 47422.30 288.60
134 2.6841 46842.20 47443.20 285.34
135 2.6879 47704.30 47464.00 289.85
136 2.6916 46710.80 47484.80 283.04
137 2.6954 47550.60 47505.40 287.00
138 2.6991 46871.10 47526.00 285.94
139 2.7029 47296.60 47546.50 286.87
140 2.7067 46786.80 47566.90 285.71
141 2.7104 47745.40 47587.20 284.76
142 2.7142 47128.60 47607.40 286.95
143 2.7179 47678.10 47627.50 289.21
144 2.7217 46946.10 47647.50 285.30
145 2.7254 47419.20 47667.40 288.31
146 2.7292 46996.80 47687.20 287.20
147 2.7329 48333.60 47706.90 287.20
148 2.7367 46911.90 47726.60 285.47
149 2.7404 46887.80 47746.10 285.77
150 2.7442 47128.30 47765.60 285.83
151 2.7480 47501.90 47784.90 284.86
152 2.7517 46793.50 47804.20 285.11
153 2.7555 47704.30 47823.40 288.40
154 2.7592 47064.50 47842.50 285.08
155 2.7630 47602.00 47861.50 288.79
156 2.7668 47107.70 47880.40 285.87
157 2.7705 47722.20 47899.20 288.10
158 2.7743 46581.90 47918.00 284.69
159 2.7780 47772.20 47936.60 289.03
160 2.7818 47199.00 47955.20 287.49
161 2.7855 47922.00 47973.70 290.27
162 2.7893 47349.00 47992.00 286.74
163 2.7931 47653.50 48010.40 288.06
164 2.7968 46803.50 48028.60 284.47
165 2.8006 47537.10 48046.70 285.74
166 2.8043 47595.90 48064.70 289.35
167 2.8081 47762.70 48082.70 290.57
168 2.8118 47128.70 48100.60 286.81
169 2.8156 47775.60 48118.30 288.22
170 2.8194 47331.50 48136.00 287.02
171 2.8231 47373.70 48153.70 286.90
172 2.8269 46681.40 48171.10 283.87
173 2.8306 47973.90 48188.60 289.44
174 2.8344 47233.00 48206.00 286.87
175 2.8381 47913.00 48223.20 288.70
176 2.8419 47173.90 48240.40 286.82
177 2.8456 47965.40 48257.50 289.76
178 2.8494 47494.00 48274.60 288.30
179 2.8532 48333.50 48291.50 289.52
180 2.8569 47054.70 48308.30 285.99
181 2.8607 47993.20 48325.10 288.28
182 2.8644 46983.00 48341.80 285.95
183 2.8682 47914.80 48358.40 288.65
184 2.8719 47430.70 48374.90 284.44
185 2.8757 48178.40 48391.40 290.23
186 2.8795 47177.60 48407.70 286.81
187 2.8832 48202.00 48424.00 288.18
188 2.8870 47011.30 48440.20 286.16
189 2.8907 48105.70 48456.30 286.44
190 2.8945 47606.40 48472.40 288.46
191 2.8983 48686.70 48488.30 291.32
192 2.9020 47466.80 48504.20 284.65
193 2.9058 48150.50 48520.00 289.89
194 2.9095 47413.90 48535.70 286.84
195 2.9133 48188.70 48551.40 290.91
196 2.9170 47689.20 48566.90 288.12
197 2.9208 48456.80 48582.40 290.23
198 2.9246 47770.10 48597.80 287.35
199 2.9283 48438.30 48613.20 291.79
200 2.9321 47372.50 48628.40 287.25
201 2.9358 48391.50 48643.60 291.64
202 2.9396 47653.10 48658.70 289.98
203 2.9433 48202.30 48673.70 289.85
204 2.9471 47865.00 48688.60 289.21
205 2.9509 48426.20 48703.50 291.61
206 2.9546 48000.40 48718.30 289.55
207 2.9584 48481.20 48733.00 291.54
208 2.9621 48352.90 48747.60 289.32
209 2.9659 48299.60 48762.10 292.42
210 2.9696 47475.40 48776.60 288.40
211 2.9734 48732.20 48791.10 293.31
212 2.9772 47134.70 48805.40 285.48
213 2.9809 48783.80 48819.70 293.75
214 2.9847 48114.20 48833.80 290.51
215 2.9884 49077.70 48847.90 293.99
216 2.9922 47805.90 48862.00 289.90
217 2.9959 48865.20 48875.90 293.38
218 2.9997 47931.10 48889.80 289.75
219 3.0035 49289.00 48903.60 294.18
220 3.0072 47877.00 48917.40 290.53
221 3.0110 48708.80 48931.10 293.09
222 3.0147 47986.60 48944.60 289.99
223 3.0185 48616.80 48958.10 292.61
224 3.0222 47476.70 48971.60 288.10
225 3.0260 48769.70 48985.00 294.34
226 3.0298 48009.20 48998.30 288.87
227 3.0335 48786.40 49011.50 292.60
228 3.0373 47930.30 49024.70 291.81
229 3.0410 48648.40 49037.80 289.21
230 3.0448 48204.20 49050.80 291.57
231 3.0485 48998.30 49063.70 294.94
232 3.0523 48117.50 49076.60 290.84
233 3.0561 48982.80 49089.40 294.06
234 3.0598 47665.20 49102.20 288.66
235 3.0636 48475.30 49114.90 292.16
236 3.0673 48371.80 49127.40 291.59
237 3.0711 48805.90 49140.00 292.41
238 3.0749 48303.30 49152.40 292.19
239 3.0786 48986.40 49164.80 293.32
240 3.0824 47922.70 49177.20 290.86
241 3.0861 49148.70 49189.40 294.48
242 3.0899 48404.20 49201.60 292.65
243 3.0937 48672.80 49213.70 292.53
244 3.0974 48355.30 49225.80 292.37
245 3.1012 48987.90 49237.80 290.44
246 3.1049 48295.50 49249.60 290.26
247 3.1087 48773.10 49261.50 294.20
248 3.1124 48017.90 49273.30 291.33
249 3.1162 48771.20 49285.00 292.50
250 3.1200 48214.20 49296.70 289.80
251 3.1237 48984.40 49308.20 292.07
252 3.1275 47914.90 49319.70 287.86
253 3.1312 48965.10 49331.20 292.42
254 3.1350 47924.20 49342.60 291.02
255 3.1388 49121.20 49353.90 295.27
256 3.1425 47736.60 49365.20 289.84
257 3.1463 48951.90 49376.40 296.03
258 3.1500 48218.60 49387.50 291.52
259 3.1538 49080.70 49398.50 295.51
260 3.1575 48224.50 49409.50 291.26
261 3.1613 49280.20 49420.50 293.77
262 3.1651 48161.10 49431.30 287.97
263 3.1688 49075.90 49442.10 294.49
264 3.1726 48115.60 49452.90 287.93
265 3.1763 48766.50 49463.50 293.76
266 3.1801 48521.60 49474.20 288.53
267 3.1839 49392.20 49484.70 295.83
268 3.1876 48313.50 49495.20 292.52
269 3.1914 49419.60 49505.60 294.79
270 3.1951 48268.10 49516.00 290.65
271 3.1989 48804.80 49526.30 294.68
272 3.2026 48406.50 49536.50 291.90
273 3.2064 49270.10 49546.70 296.21
274 3.2102 48285.00 49556.80 290.88
275 3.2139 49301.20 49566.90 293.66
276 3.2177 48162.10 49576.90 289.75
277 3.2214 49569.20 49586.80 294.61
278 3.2252 48654.80 49596.70 292.91
279 3.2290 49483.30 49606.50 295.95
280 3.2327 48447.20 49616.20 292.73
281 3.2365 49115.80 49625.90 294.51
282 3.2402 48399.60 49635.60 291.07
283 3.2440 49261.50 49645.10 294.22
284 3.2477 48705.90 49654.60 291.61
285 3.2515 49540.10 49664.10 296.40
286 3.2553 48090.10 49673.50 289.71
287 3.2590 48812.90 49682.80 292.21
288 3.2628 48009.10 49692.10 290.31
289 3.2665 49067.10 49701.30 294.55
290 3.2703 48584.70 49710.50 293.48
291 3.2740 49144.90 49719.60 294.33
292 3.2778 48055.20 49728.60 290.72
293 3.2816 49363.90 49737.60 291.39
294 3.2853 48818.60 49746.50 293.15
295 3.2891 49334.30 49755.40 294.94
296 3.2929 48197.90 49764.20 290.29
297 3.2966 49298.60 49773.00 294.87
298 3.3004 48146.40 49781.70 290.42
299 3.3041 49600.90 49790.30 295.79
300 3.3079 48596.20 49798.90 290.34
301 3.3116 49098.60 49807.40 294.64
302 3.3154 48488.90 49815.90 291.52
303 3.3192 49199.00 49824.30 294.04
304 3.3229 48736.90 49832.70 293.14
305 3.3267 49509.00 49841.00 295.11
306 3.3304 48598.20 49849.30 292.74
307 3.3342 49402.60 49857.50 295.56
308 3.3379 48501.80 49865.60 293.30
309 3.3417 49345.40 49873.70 294.50
310 3.3455 48984.20 49881.70 295.37
311 3.3492 49320.00 49889.70 293.89
312 3.3530 49295.20 49897.60 296.67
313 3.3568 49540.00 49905.50 293.87
314 3.3605 48553.80 49913.30 292.26
315 3.3643 49493.20 49921.10 292.54
316 3.3680 48231.50 49928.80 290.02
317 3.3718 49436.70 49936.40 295.93
318 3.3755 48514.30 49944.10 292.17
319 3.3793 49904.90 49951.60 297.02
320 3.3831 49093.10 49959.10 295.12
321 3.3868 49900.70 49966.60 296.09
322 3.3906 49160.60 49973.90 294.76
323 3.3943 49168.80 49981.30 295.44
324 3.3981 48656.50 49988.60 292.79
325 3.4018 49555.80 49995.80 295.50
326 3.4056 48795.80 50003.00 293.86
327 3.4094 49533.90 50010.10 296.72
328 3.4131 48532.10 50017.20 292.25
329 3.4169 49957.60 50024.30 298.52
330 3.4207 49215.40 50031.20 294.16
331 3.4244 50107.20 50038.20 295.39
332 3.4282 48492.40 50045.00 291.55
333 3.4319 49687.80 50051.90 298.67
334 3.4357 49064.70 50058.60 292.07
335 3.4394 49625.20 50065.40 296.17
336 3.4432 49186.30 50072.10 295.94
337 3.4470 49701.90 50078.70 297.94
338 3.4507 48892.40 50085.30 294.54
339 3.4545 49596.00 50091.80 296.86
340 3.4582 49283.50 50098.30 296.01
341 3.4620 50348.50 50104.70 300.52
342 3.4658 49731.10 50111.10 297.71
343 3.4695 50056.40 50117.40 299.00
344 3.4733 49516.40 50123.70 295.62
345 3.4770 49831.30 50130.00 297.78
346 3.4808 49713.80 50136.10 298.45
347 3.4845 49864.80 50142.30 297.39
348 3.4883 49240.50 50148.40 296.22
349 3.4921 49947.80 50154.40 297.85
350 3.4958 48913.10 50160.40 295.44
351 3.4996 50502.30 50166.40 300.70
352 3.5034 49415.70 50172.30 296.47
353 3.5071 50012.70 50178.20 299.32
354 3.5109 49000.90 50184.00 294.38
355 3.5146 50140.70 50189.70 300.51
356 3.5184 48888.80 50195.40 295.15
357 3.5222 50457.30 50201.10 299.14
358 3.5259 49326.60 50206.70 296.57
359 3.5297 50163.70 50212.30 300.59
360 3.5334 49009.20 50217.90 292.65
361 3.5372 50555.30 50223.30 299.28
362 3.5409 49328.20 50228.80 294.12
363 3.5447 50000.40 50234.20 297.20
364 3.5485 49332.00 50239.50 295.07
365 3.5522 50358.80 50244.80 299.97
366 3.5560 49171.90 50250.10 294.83
367 3.5597 50201.10 50255.30 299.60
368 3.5635 49505.00 50260.50 295.49
369 3.5673 50177.40 50265.60 300.82
370 3.5710 49312.50 50270.70 297.30
371 3.5748 50646.40 50275.70 299.42
372 3.5785 49628.90 50280.70 296.55
373 3.5823 50258.90 50285.70 302.52
374 3.5861 49687.80 50290.60 295.94
375 3.5898 50234.60 50295.50 298.45
376 3.5936 48973.30 50300.30 295.05
377 3.5973 49952.50 50305.10 297.60
378 3.6011 49332.70 50309.80 296.91
379 3.6049 50548.30 50314.50 301.98
380 3.6086 49401.20 50319.10 297.86
381 3.6124 50235.70 50323.80 299.02
382 3.6161 49479.60 50328.30 297.05
383 3.6199 50188.10 50332.80 300.06
384 3.6237 49523.80 50337.30 299.26
385 3.6274 50657.70 50341.80 302.08
386 3.6312 49373.90 50346.20 295.94
387 3.6349 50461.90 50350.50 300.29
388 3.6387 49524.50 50354.80 295.12
389 3.6425 50217.10 50359.10 296.85
390 3.6462 49345.70 50363.30 293.08
391 3.6500 50423.40 50367.50 300.39
392 3.6537 49460.40 50371.70 295.17
393 3.6575 49936.10 50375.80 296.92
394 3.6612 49237.00 50379.80 294.73
395 3.6650 50640.20 50383.90 299.52
396 3.6688 49636.60 50387.90 298.18
397 3.6725 49815.10 50391.80 296.20
398 3.6763 49137.30 50395.70 293.43
399 3.6800 50064.20 50399.60 296.42
400 3.6838 49306.00 50403.40 295.62
401 3.6876 50595.30 50407.20 294.17
402 3.6913 49671.60 50410.90 295.44
403 3.6951 49600.60 50414.70 295.59
404 3.6988 49162.10 50418.30 292.57
405 3.7026 50345.40 50422.00 298.42
406 3.7064 49184.00 50425.50 294.92
407 3.7101 50235.80 50429.10 299.09
408 3.7139 49515.50 50432.60 294.57
409 3.7176 50143.10 50436.10 297.87
410 3.7214 49363.60 50439.50 295.62
411 3.7252 50103.60 50442.90 298.36
412 3.7289 49477.00 50446.30 294.75
413 3.7327 50547.40 50449.60 300.23
414 3.7364 49444.10 50452.90 294.49
415 3.7402 50080.60 50456.20 294.62
416 3.7440 49154.10 50459.40 294.39
417 3.7477 50179.50 50462.50 296.08
418 3.7515 49542.80 50465.70 293.50
419 3.7552 50133.00 50468.80 296.29
420 3.7590 49992.60 50471.80 297.74
421 3.7628 50239.80 50474.90 298.19
422 3.7665 49321.70 50477.90 294.17
423 3.7703 50490.80 50480.80 299.30
424 3.7740 49199.20 50483.70 294.62
425 3.7778 50128.20 50486.60 297.48
426 3.7816 49169.80 50489.50 293.54
427 3.7853 50530.20 50492.30 299.50
428 3.7891 49029.80 50495.00 293.71
429 3.7928 50009.30 50497.80 296.91
430 3.7966 49887.50 50500.50 296.91
431 3.8004 50208.20 50503.10 297.45
432 3.8041 49642.40 50505.80 296.85
433 3.8079 50673.20 50508.40 299.17
434 3.8116 49269.10 50510.90 294.96
435 3.8154 50500.90 50513.50 299.03
436 3.8192 49398.40 50515.90 294.39
437 3.8229 50012.20 50518.40 298.15
438 3.8267 49984.70 50520.80 297.13
439 3.8304 50572.70 50523.20 297.85
440 3.8342 49637.20 50525.60 295.40
441 3.8380 50087.90 50527.90 298.70
442 3.8417 49489.10 50530.20 291.27
443 3.8455 50589.30 50532.40 298.83
444 3.8492 49754.30 50534.60 295.82
445 3.8530 50195.50 50536.80 297.92
446 3.8568 49392.90 50539.00 293.67
447 3.8605 49923.10 50541.10 298.17
448 3.8643 49926.50 50543.20 296.99
449 3.8680 50270.10 50545.20 298.57
450 3.8718 50404.00 50547.30 298.32
451 3.8756 50345.60 50549.20 299.69
452 3.8793 49546.40 50551.20 296.74
453 3.8831 50729.30 50553.10 300.38
454 3.8868 49968.90 50555.00 297.68
455 3.8906 50103.70 50556.90 297.22
456 3.8944 49443.00 50558.70 295.12
457 3.8981 50878.40 50560.50 301.84
458 3.9019 49730.90 50562.20 297.52
459 3.9056 51216.20 50564.00 303.12
460 3.9094 49749.50 50565.70 296.38
461 3.9132 50747.70 50567.30 299.49
462 3.9169 50037.40 50568.90 297.80
463 3.9207 50773.20 50570.60 301.45
464 3.9244 49817.40 50572.10 297.65
465 3.9282 51053.70 50573.70 300.36
466 3.9320 49587.70 50575.20 295.81
467 3.9357 51180.40 50576.60 300.22
468 3.9395 50198.80 50578.10 298.62
469 3.9432 50203.00 50579.50 299.50
470 3.9470 49820.40 50580.90 297.21
471 3.9508 50964.60 50582.30 301.43
472 3.9545 50352.40 50583.60 301.02
473 3.9583 51071.10 50584.90 302.29
474 3.9620 50151.20 50586.10 297.84
475 3.9658 50812.50 50587.40 300.01
476 3.9696 49788.20 50588.60 297.84
477 3.9733 50416.50 50589.80 299.38
478 3.9771 49798.20 50590.90 297.76
479 3.9808 50373.60 50592.00 297.41
480 3.9846 49788.50 50593.10 297.52
481 3.9884 51007.60 50594.20 301.50
482 3.9921 49987.30 50595.20 299.85
483 3.9959 50917.30 50596.20 302.26
484 3.9996 50010.80 50597.20 297.82
485 4.0034 50537.40 50598.10 299.19
486 4.0072 49923.20 50599.00 297.34
487 4.0109 50662.50 50599.90 300.67
488 4.0147 50323.70 50600.80 300.00
489 4.0184 51051.60 50601.60 303.98
490 4.0222 50200.40 50602.40 299.31
491 4.0260 50878.00 50603.20 303.17
492 4.0297 50413.70 50603.90 299.39
493 4.0335 51005.70 50604.60 301.97
494 4.0372 50043.40 50605.30 298.53
495 4.0410 51301.20 50606.00 303.24
496 4.0448 50365.60 50606.60 301.11
497 4.0485 51024.40 50607.20 301.94
498 4.0523 50186.80 50607.80 300.02
499 4.0560 51212.50 50608.30 303.38
500 4.0598 50681.10 50608.90 300.70
501 4.0636 51183.60 50609.40 301.02
502 4.0673 50147.50 50609.80 298.25
503 4.0711 50725.60 50610.30 301.30
504 4.0749 49930.80 50610.70 298.38
505 4.0786 51379.30 50611.10 303.74
506 4.0824 50624.80 50611.50 300.44
507 4.0861 50785.00 50611.80 298.73
508 4.0899 50062.60 50612.10 296.81
509 4.0936 51036.00 50612.40 302.12
510 4.0974 50350.00 50612.70 299.58
511 4.1012 51137.00 50612.90 303.03
512 4.1049 50106.60 50613.10 300.09
513 4.1087 51430.80 50613.30 303.05
514 4.1125 50559.90 50613.40 298.64
515 4.1162 51025.40 50613.60 300.01
516 4.1200 50501.00 50613.70 297.55
517 4.1237 51470.90 50613.80 300.06
518 4.1275 50703.20 50613.80 298.56
519 4.1312 51535.10 50613.80 301.07
520 4.1350 50060.50 50613.80 295.40
521 4.1388 51491.60 50613.80 299.09
522 4.1425 50315.70 50613.80 297.16
523 4.1463 51211.40 50613.70 300.62
524 4.1501 50427.00 50613.60 298.40
525 4.1538 51092.40 50613.50 299.62
526 4.1576 50480.30 50613.40 297.83
527 4.1613 50961.30 50613.20 298.58
528 4.1651 49953.60 50613.00 294.38
529 4.1688 51148.40 50612.80 299.15
530 4.1726 50264.00 50612.60 297.48
531 4.1764 51132.10 50612.30 299.71
532 4.1801 50408.20 50612.00 296.38
533 4.1839 51346.40 50611.70 300.06
534 4.1877 50342.90 50611.40 298.27
535 4.1914 51353.60 50611.00 301.48
536 4.1952 50278.50 50610.60 298.04
537 4.1989 51190.30 50610.20 298.77
538 4.2027 50203.30 50609.80 296.99
539 4.2065 51616.70 50609.30 301.69
540 4.2102 50117.90 50608.90 295.10
541 4.2140 51245.00 50608.40 301.42
542 4.2177 50476.40 50607.90 297.67
543 4.2215 51341.90 50607.30 300.99
544 4.2253 50379.20 50606.80 297.18
545 4.2290 51207.50 50606.20 300.08
546 4.2328 50340.20 50605.60 294.56
547 4.2365 51279.60 50604.90 301.18
548 4.2403 50214.20 50604.30 296.02
549 4.2441 51465.70 50603.60 301.41
550 4.2478 50217.20 50602.90 297.14
551 4.2516 50926.00 50602.20 298.64
552 4.2554 50585.10 50601.40 298.19
553 4.2591 51471.20 50600.70 301.39
554 4.2629 50142.50 50599.90 296.97
555 4.2666 50874.70 50599.10 299.27
556 4.2704 50461.70 50598.30 297.49
557 4.2741 50959.60 50597.40 299.02
558 4.2779 50435.90 50596.60 297.16
559 4.2817 51251.50 50595.70 298.54
560 4.2854 50464.80 50594.70 297.35
561 4.2892 51461.80 50593.80 300.86
562 4.2930 50096.50 50592.90 296.81
563 4.2967 50612.50 50591.90 295.81
564 4.3005 50746.40 50590.90 299.51
565 4.3042 51788.90 50589.90 303.52
566 4.3080 50679.00 50588.80 297.53
567 4.3117 50919.40 50587.80 299.49
568 4.3155 50591.40 50586.70 294.10
569 4.3193 51197.10 50585.60 297.17
570 4.3230 50028.40 50584.50 295.71
571 4.3268 50771.60 50583.30 297.39
572 4.3306 50238.40 50582.20 297.20
573 4.3343 50984.90 50581.00 299.15
574 4.3381 50025.40 50579.80 293.43
575 4.3418 51122.40 50578.60 300.49
576 4.3456 50272.70 50577.40 297.50
577 4.3494 51442.20 50576.10 301.03
578 4.3531 50389.30 50574.80 296.58
579 4.3569 51126.40 50573.50 298.80
580 4.3606 50248.20 50572.20 297.10
581 4.3644 51278.60 50570.90 301.32
582 4.3682 50062.70 50569.50 296.28
583 4.3719 50823.30 50568.10 299.36
584 4.3757 50863.00 50566.80 298.80
585 4.3794 51403.30 50565.30 301.01
586 4.3832 50144.80 50563.90 296.91
587 4.3870 50983.60 50562.50 299.53
588 4.3907 49850.00 50561.00 295.71
589 4.3945 51025.90 50559.50 300.64
590 4.3983 50376.20 50558.00 296.45
591 4.4020 50961.70 50556.50 298.69
592 4.4058 50320.90 50554.90 296.37
593 4.4095 51249.10 50553.40 300.50
594 4.4133 50017.10 50551.80 295.37
595 4.4170 51109.70 50550.20 300.71
596 4.4208 50355.60 50548.60 297.22
597 4.4246 51553.30 50547.00 301.75
598 4.4283 50472.30 50545.30 297.78
599 4.4321 51770.40 50543.60 303.13
600 4.4359 50602.20 50542.00 297.65
601 4.4396 50708.50 50540.30 298.82
602 4.4434 50452.60 50538.50 297.28
603 4.4471 51595.10 50536.80 301.79
604 4.4509 50519.00 50535.00 299.70
605 4.4546 51665.10 50533.30 303.20
606 4.4584 50493.40 50531.50 297.47
607 4.4622 50800.20 50529.70 298.78
608 4.4659 50283.40 50527.80 297.45
609 4.4697 51315.50 50526.00 302.01
610 4.4735 50857.60 50524.10 297.46
611 4.4772 50932.10 50522.30 299.90
612 4.4810 50207.50 50520.40 296.67
613 4.4847 51176.90 50518.50 300.65
614 4.4885 50438.40 50516.50 297.45
615 4.4923 51428.40 50514.60 301.59
616 4.4960 50359.80 50512.60 299.05
617 4.4998 51336.70 50510.70 298.58
618 4.5035 50684.40 50508.70 298.45
619 4.5073 51276.60 50506.70 301.29
620 4.5111 49999.90 50504.60 296.90
621 4.5148 51358.30 50502.60 300.82
622 4.5186 50479.80 50500.50 298.69
623 4.5223 51378.90 50498.50 300.61
624 4.5261 50530.80 50496.40 297.41
625 4.5299 51039.90 50494.30 300.08
626 4.5336 50388.40 50492.20 297.39
627 4.5374 51180.10 50490.00 298.10
628 4.5412 50633.00 50487.90 296.86
629 4.5449 51091.90 50485.70 301.16
630 4.5487 50651.30 50483.50 297.60
631 4.5524 51068.70 50481.30 298.86
632 4.5562 50294.80 50479.10 297.56
633 4.5599 51204.30 50476.90 302.60
634 4.5637 50605.90 50474.70 299.16
635 4.5675 51711.30 50472.40 302.81
636 4.5712 50748.40 50470.10 300.92
637 4.5750 51013.20 50467.80 300.07
638 4.5788 50818.30 50465.50 299.02
639 4.5825 51453.70 50463.20 302.69
640 4.5863 50678.20 50460.90 301.61
641 4.5900 51278.10 50458.50 302.04
642 4.5938 50570.60 50456.20 298.56
643 4.5976 51146.20 50453.80 298.96
644 4.6013 50587.90 50451.40 295.89
645 4.6051 51744.40 50449.00 303.41
646 4.6088 50879.20 50446.60 299.80
647 4.6126 51253.60 50444.10 301.13
648 4.6164 50786.60 50441.70 299.04
649 4.6201 51474.50 50439.20 300.56
650 4.6239 50604.80 50436.80 297.70
651 4.6276 51568.20 50434.30 302.42
652 4.6314 49945.70 50431.80 294.76
653 4.6352 51262.00 50429.30 299.68
654 4.6389 50932.70 50426.70 298.50
655 4.6427 51214.90 50424.20 300.02
656 4.6465 50336.40 50421.60 297.96
657 4.6502 50909.70 50419.00 298.86
658 4.6540 50254.90 50416.50 296.58
659 4.6577 51656.20 50413.90 301.35
660 4.6615 50175.30 50411.20 297.15
661 4.6652 51837.40 50408.60 303.33
662 4.6690 51011.80 50406.00 298.47
663 4.6728 51544.70 50403.30 301.80
664 4.6765 50620.20 50400.70 296.47
665 4.6803 51166.80 50398.00 299.87
666 4.6841 50878.10 50395.30 299.29
667 4.6878 51686.60 50392.60 302.48
668 4.6916 50772.60 50389.90 299.26
669 4.6953 51313.50 50387.10 300.71
670 4.6991 50265.20 50384.40 297.47
671 4.7028 51081.40 50381.60 297.58
672 4.7066 50798.10 50378.90 295.47
673 4.7104 51054.50 50376.10 299.69
674 4.7141 50330.10 50373.30 292.61
675 4.7179 51112.90 50370.50 300.62
676 4.7217 50678.20 50367.70 297.15
677 4.7292 50871.80 50362.00 299.71
678 4.7367 50458.10 50356.30 297.59
679 4.7405 51428.70 50353.40 301.76
680 4.7442 50261.40 50350.50 296.30
681 4.7480 51729.40 50347.60 302.92
682 4.7517 50723.60 50344.70 297.42
683 4.7555 51321.60 50341.70 301.13
684 4.7593 50395.50 50338.80 297.93
685 4.7630 50949.40 50335.90 299.55
686 4.7668 50968.30 50332.90 299.16
687 4.7705 51214.80 50329.90 300.60
688 4.7743 50646.40 50326.90 298.83
689 4.7781 51231.00 50323.90 300.94
690 4.7818 50955.30 50320.90 298.79
691 4.7856 51330.30 50317.90 300.57
692 4.7894 50683.10 50314.90 297.30
693 4.7931 51544.90 50311.80 302.16
694 4.7969 50402.50 50308.80 297.24
695 4.8006 51034.30 50305.70 301.72
696 4.8044 49833.40 50302.60 295.46
697 4.8081 50922.60 50299.50 300.30
698 4.8119 50761.60 50296.40 298.11
699 4.8157 51304.80 50293.30 300.29
700 4.8194 50869.70 50290.20 300.02
701 4.8232 51177.70 50287.10 300.66
702 4.8270 49569.20 50283.90 294.95
703 4.8307 51146.20 50280.80 302.14
704 4.8345 50769.00 50277.60 299.33
705 4.8382 51384.10 50274.40 300.55
706 4.8420 50494.20 50271.30 298.02
707 4.8457 51141.70 50268.10 300.01
708 4.8495 50362.70 50264.90 297.66
709 4.8533 51583.50 50261.60 301.83
710 4.8570 51154.90 50258.40 301.57
711 4.8608 51663.30 50255.20 302.10
712 4.8646 50690.90 50251.90 300.31
713 4.8683 51396.30 50248.70 300.92
714 4.8721 50046.90 50245.40 296.30
715 4.8758 51303.90 50242.10 299.64
716 4.8796 50185.00 50238.80 297.96
717 4.8834 50987.50 50235.50 298.25
718 4.8871 50063.60 50232.20 296.23
719 4.8909 51390.60 50228.90 302.48
720 4.8946 50388.70 50225.60 298.73
721 4.8984 51332.60 50222.30 300.90
722 4.9022 50259.80 50218.90 297.77
723 4.9059 51170.40 50215.50 299.59
724 4.9097 50743.80 50212.20 299.06
725 4.9134 51363.20 50208.80 299.48
726 4.9172 50295.30 50205.40 297.80
727 4.9210 51285.90 50202.00 300.64
728 4.9247 50856.60 50198.60 299.83
729 4.9285 51665.50 50195.20 304.08
730 4.9323 50529.20 50191.80 298.55
731 4.9360 51588.00 50188.30 302.52
732 4.9398 50240.40 50184.90 297.14
733 4.9435 51360.20 50181.40 302.35
734 4.9473 50203.00 50178.00 297.21
735 4.9510 51780.60 50174.50 302.66
736 4.9548 50990.40 50171.00 300.49
737 4.9586 51389.60 50167.60 302.76
738 4.9623 50550.20 50164.10 297.42
739 4.9661 51111.80 50160.60 299.58
740 4.9699 51045.50 50157.00 300.44
741 4.9736 51885.20 50153.50 303.42
742 4.9774 50156.90 50150.00 295.34
743 4.9811 51084.00 50146.50 300.97
744 4.9849 50679.10 50142.90 299.66
745 4.9886 51697.90 50139.30 303.54
746 4.9924 50438.60 50135.80 298.13
747 4.9962 51125.60 50132.20 300.45
748 4.9999 50491.80 50128.60 298.52
749 5.0037 51922.10 50125.00 305.77
750 5.0075 50358.80 50121.40 298.49
751 5.0112 51483.40 50117.80 303.23
752 5.0150 51230.30 50114.20 301.39
753 5.0187 51498.90 50110.60 303.16
754 5.0225 50879.20 50106.90 300.85
755 5.0263 51790.10 50103.30 304.08
756 5.0300 50710.10 50099.70 300.10
757 5.0338 51699.20 50096.00 303.25
758 5.0375 50591.40 50092.30 299.99
759 5.0413 51471.10 50088.70 303.39
760 5.0451 51169.90 50085.00 302.44
761 5.0488 51594.20 50081.30 302.55
762 5.0526 51026.00 50077.60 300.86
763 5.0563 51912.60 50073.90 302.97
764 5.0601 50606.30 50070.20 299.87
765 5.0639 51078.30 50066.50 301.28
766 5.0676 51201.40 50062.70 302.49
767 5.0714 51762.50 50059.00 305.44
768 5.0751 50785.80 50055.30 300.65
769 5.0789 51302.30 50051.50 302.50
770 5.0827 50713.50 50047.80 300.31
771 5.0864 51426.60 50044.00 299.79
772 5.0902 50662.10 50040.20 300.94
773 5.0939 51869.70 50036.40 305.13
774 5.0977 50482.40 50032.60 301.84
775 5.1015 51749.60 50028.90 303.07
776 5.1052 50570.80 50025.10 298.33
777 5.1090 51622.70 50021.20 303.48
778 5.1128 50810.50 50017.40 298.68
779 5.1165 51947.00 50013.60 305.08
780 5.1203 51006.00 50009.80 301.51
781 5.1240 51394.30 50005.90 303.83
782 5.1278 50590.10 50002.10 299.83
783 5.1315 51617.00 49998.20 302.07
784 5.1353 50127.70 49994.40 296.02
785 5.1391 51448.50 49990.50 302.51
786 5.1428 50385.50 49986.60 300.02
787 5.1466 51494.50 49982.80 303.09
788 5.1504 50316.30 49978.90 297.67
789 5.1541 51486.00 49975.00 302.47
790 5.1579 50807.50 49971.10 302.00
791 5.1616 51804.40 49967.20 304.74
792 5.1654 50525.90 49963.30 297.62
793 5.1691 51270.10 49959.30 302.95
794 5.1729 50477.00 49955.40 299.70
795 5.1767 51360.20 49951.50 302.70
796 5.1804 50511.50 49947.50 298.81
797 5.1842 51431.50 49943.60 303.75
798 5.1880 50316.40 49939.60 297.13
799 5.1917 51570.30 49935.70 305.11
800 5.1955 50299.00 49931.70 297.48
801 5.1992 51228.60 49927.80 300.56
802 5.2030 50399.80 49923.80 296.98
803 5.2067 51586.30 49919.80 303.97
804 5.2105 50238.60 49915.80 297.04
805 5.2143 51521.20 49911.80 303.16
806 5.2180 50685.80 49907.80 299.12
807 5.2218 51203.00 49903.80 302.32
808 5.2256 50448.90 49899.80 299.68
809 5.2293 51543.70 49895.80 299.67
810 5.2331 50646.00 49891.70 296.72
811 5.2368 51607.90 49887.70 303.84
812 5.2406 50419.50 49883.70 299.49
813 5.2443 51864.70 49879.60 302.69
814 5.2481 50555.80 49875.60 299.58
815 5.2519 51038.00 49871.50 302.09
816 5.2556 50539.60 49867.50 298.92
817 5.2594 51332.70 49863.40 301.89
818 5.2632 50541.90 49859.30 298.96
819 5.2669 50952.90 49855.20 300.52
820 5.2707 49918.00 49851.20 296.99
821 5.2744 51216.50 49847.10 301.26
822 5.2782 50229.10 49843.00 299.18
823 5.2819 51012.90 49838.90 297.07
824 5.2857 50097.40 49834.80 297.27
825 5.2895 51127.20 49830.70 302.14
826 5.2932 50517.80 49826.60 299.93
827 5.2970 51223.00 49822.40 299.15
828 5.3007 50799.80 49818.30 298.80
829 5.3045 51256.60 49814.20 302.32
830 5.3083 50321.90 49810.00 297.24
831 5.3120 51383.70 49805.90 301.35
832 5.3158 50488.50 49801.70 299.19
833 5.3196 51580.20 49797.60 299.89
834 5.3233 50194.00 49793.40 295.92
835 5.3271 50711.40 49789.30 299.32
836 5.3308 50460.40 49785.10 298.98
837 5.3346 50902.00 49780.90 301.05
838 5.3383 50144.30 49776.80 298.08
839 5.3421 51425.40 49772.60 301.39
840 5.3459 50549.10 49768.40 299.19
841 5.3496 51848.00 49764.20 304.84
842 5.3534 50109.50 49760.00 297.57
843 5.3572 51507.20 49755.80 301.80
844 5.3609 50444.20 49751.60 299.87
845 5.3647 50710.10 49747.40 300.87
846 5.3684 50238.50 49743.10 299.21
847 5.3722 51562.80 49738.90 304.34
848 5.3759 50244.30 49734.70 298.53
849 5.3797 51303.20 49730.50 300.37
850 5.3835 50818.90 49726.20 298.43
851 5.3872 51411.40 49722.00 304.89
852 5.3910 50677.60 49717.70 301.01
853 5.3948 50817.00 49713.50 300.01
854 5.3985 50778.90 49709.20 298.70
855 5.4023 51283.10 49705.00 299.87
856 5.4060 50602.20 49700.70 300.15
857 5.4098 51629.50 49696.40 304.37
858 5.4135 50246.90 49692.20 297.60
859 5.4173 51036.60 49687.90 301.88
860 5.4211 50072.40 49683.60 294.79
861 5.4248 51501.40 49679.30 298.67
862 5.4286 50132.40 49675.00 297.70
863 5.4324 51255.80 49670.70 300.79
864 5.4361 50766.10 49666.40 302.13
865 5.4399 51230.70 49662.10 301.26
866 5.4436 49826.00 49657.80 295.50
867 5.4474 51748.40 49653.50 304.23
868 5.4511 50518.50 49649.20 299.82
869 5.4549 51306.60 49644.90 302.42
870 5.4587 50600.70 49640.60 299.60
871 5.4624 51328.60 49636.20 303.23
872 5.4662 50163.50 49631.90 298.05
873 5.4700 51343.30 49627.60 300.79
874 5.4737 50163.70 49623.20 299.13
875 5.4775 51151.30 49618.90 302.10
876 5.4812 50947.90 49614.50 300.05
877 5.4850 51147.00 49610.20 303.21
878 5.4887 50713.00 49605.80 300.41
879 5.4925 51596.20 49601.40 302.04
880 5.4963 50556.70 49597.10 300.73
881 5.5000 50975.30 49592.70 298.84
882 5.5038 50545.00 49588.40 300.16
883 5.5075 51495.90 49584.00 304.36
884 5.5113 50689.60 49579.60 298.68
885 5.5151 51402.60 49575.20 303.94
886 5.5188 50649.40 49570.80 301.80
887 5.5226 50726.60 49566.40 300.14
888 5.5263 50524.30 49562.10 298.95
889 5.5301 51141.00 49557.70 302.81
890 5.5339 50381.20 49553.30 297.04
891 5.5376 51339.80 49548.80 300.96
892 5.5414 50551.40 49544.40 299.88
893 5.5451 51191.90 49540.00 302.64
894 5.5489 50412.10 49535.60 300.23
895 5.5527 51166.30 49531.20 301.99
896 5.5564 50554.70 49526.80 300.29
897 5.5602 51678.70 49522.30 301.90
898 5.5639 50404.20 49517.90 298.59
899 5.5677 51399.20 49513.50 301.62
900 5.5715 50467.60 49509.00 299.21
901 5.5752 51075.40 49504.60 300.89
902 5.5790 50697.50 49500.20 298.70
903 5.5827 51225.80 49495.70 300.75
904 5.5865 50202.10 49491.30 297.59
905 5.5903 51352.80 49486.80 301.34
906 5.5940 50203.90 49482.40 297.47
907 5.5978 51433.80 49477.90 300.07
908 5.6015 50343.10 49473.50 297.46
909 5.6053 50993.60 49469.00 300.39
910 5.6090 50395.50 49464.50 299.40
911 5.6128 51144.30 49460.00 300.42
912 5.6166 49986.50 49455.60 295.99
913 5.6203 51041.60 49451.10 299.10
914 5.6241 50371.70 49446.60 297.73
915 5.6279 50638.90 49442.10 298.81
916 5.6316 50381.90 49437.60 298.64
917 5.6354 50812.10 49433.20 299.23
918 5.6391 50037.60 49428.70 296.22
919 5.6429 51047.10 49424.20 299.97
920 5.6466 50561.10 49419.70 296.72
921 5.6504 51178.60 49415.20 300.99
922 5.6542 49749.40 49410.70 294.34
923 5.6579 51056.20 49406.20 299.80
924 5.6617 50121.30 49401.70 295.86
925 5.6654 50788.90 49397.10 299.85
926 5.6692 50017.10 49392.60 296.61
927 5.6730 50979.50 49388.10 298.32
928 5.6767 50152.70 49383.60 296.99
929 5.6805 51013.40 49379.10 299.40
930 5.6842 50008.10 49374.50 297.31
931 5.6880 50245.50 49370.00 297.14
932 5.6918 49916.50 49365.50 295.13
933 5.6955 50823.20 49360.90 296.57
934 5.6993 49526.70 49356.40 292.93
935 5.7030 50376.50 49351.90 295.41
936 5.7068 49851.10 49347.30 296.55
937 5.7105 50554.10 49342.80 297.49
938 5.7143 49712.00 49338.20 295.18
939 5.7181 50742.40 49333.70 298.74
940 5.7218 49882.70 49329.10 295.78
941 5.7256 50621.90 49324.60 294.21
942 5.7294 50215.30 49320.00 298.07
943 5.7331 50436.70 49315.40 296.70
944 5.7369 50166.10 49310.90 296.54
945 5.7406 50598.00 49306.30 295.62
946 5.7444 49797.10 49301.70 292.50
947 5.7481 50679.80 49297.20 298.29
948 5.7519 49134.40 49292.60 292.22
949 5.7557 50771.20 49288.00 299.77
950 5.7594 49980.60 49283.50 297.21
951 5.7632 50873.70 49278.90 299.00
952 5.7669 49713.70 49274.30 296.49
953 5.7707 50338.00 49269.70 296.86
954 5.7745 49753.50 49265.10 292.67
955 5.7782 50325.40 49260.50 297.57
956 5.7820 49829.10 49255.90 296.86
957 5.7857 50275.10 49251.40 297.56
958 5.7895 49620.50 49246.80 294.80
959 5.7933 50231.10 49242.20 294.89
960 5.7970 49587.60 49237.60 294.47
961 5.8008 50048.30 49233.00 295.18
962 5.8045 49423.50 49228.30 294.93
963 5.8083 50233.10 49223.70 296.39
964 5.8120 49352.50 49219.10 294.02
965 5.8158 50506.10 49214.50 297.33
966 5.8196 49791.60 49209.90 295.88
967 5.8233 50778.60 49205.30 296.18
968 5.8271 49407.40 49200.70 291.98
969 5.8308 50638.90 49196.10 299.36
970 5.8346 49418.80 49191.40 294.36
971 5.8384 50590.20 49186.80 299.49
972 5.8421 49433.00 49182.20 294.91
973 5.8459 50232.90 49177.60 297.14
974 5.8496 49422.80 49172.90 293.13
975 5.8534 50431.40 49168.30 296.99
976 5.8572 49672.90 49163.70 292.80
977 5.8609 50573.50 49159.00 299.10
978 5.8647 49415.80 49154.40 290.00
979 5.8684 50144.60 49149.80 295.64
980 5.8722 50061.60 49145.10 297.17
981 5.8759 50197.30 49140.50 296.63
982 5.8797 49331.30 49135.80 294.34
983 5.8835 50187.70 49131.20 296.76
984 5.8872 49503.30 49126.50 294.17
985 5.8910 50253.30 49121.90 297.76
986 5.8947 49952.90 49117.20 298.14
987 5.8985 50404.90 49112.60 295.83
988 5.9023 49448.40 49107.90 295.46
989 5.9060 50503.20 49103.30 298.31
990 5.9098 49538.20 49098.60 295.81
991 5.9135 49735.80 49093.90 296.60
992 5.9173 49307.40 49089.30 293.37
993 5.9211 50423.50 49084.60 298.68
994 5.9248 49628.50 49079.90 295.67
995 5.9286 50227.90 49075.30 298.04
996 5.9323 50132.60 49070.60 298.39
997 5.9361 50364.30 49065.90 298.79
998 5.9398 49865.10 49061.30 297.66
999 5.9436 50839.70 49056.60 302.05
1000 5.9474 49602.80 49051.90 294.85
1001 5.9511 50518.80 49047.20 298.92
1002 5.9549 49428.80 49042.60 295.13
1003 5.9586 50395.90 49037.90 297.09
1004 5.9624 49756.80 49033.20 297.63
1005 5.9661 50822.90 49028.50 300.80
1006 5.9699 49827.10 49023.80 296.41
1007 5.9737 50466.80 49019.10 299.07
1008 5.9774 49730.20 49014.40 296.87
1009 5.9812 50622.10 49009.80 300.30
1010 5.9849 49801.30 49005.10 298.06
1011 5.9887 50463.50 49000.40 297.05
1012 5.9925 49153.60 48995.70 293.98
1013 5.9962 50261.50 48991.00 298.21
1014 6.0000 49316.20 48986.30 295.74
1015 6.0037 50407.10 48981.60 298.95
1016 6.0075 49500.10 48976.90 297.29
1017 6.0113 50542.20 48972.20 301.71
1018 6.0150 49899.20 48967.50 298.55
1019 6.0188 50420.40 48962.80 299.23
1020 6.0225 50017.60 48958.10 296.51
1021 6.0263 50806.50 48953.40 300.80
1022 6.0300 49607.10 48948.60 297.08
1023 6.0338 50575.50 48943.90 299.87
1024 6.0376 49370.10 48939.20 292.55
1025 6.0413 50361.50 48934.50 293.35
1026 6.0451 49386.70 48929.80 293.92
1027 6.0488 50025.40 48925.10 296.92
1028 6.0526 49846.40 48920.40 295.56
1029 6.0564 50552.20 48915.60 299.68
1030 6.0601 50135.70 48910.90 296.05
1031 6.0639 50519.70 48906.20 298.55
1032 6.0676 49939.70 48901.50 296.94
1033 6.0714 50328.40 48896.70 298.30
1034 6.0751 49484.10 48892.00 294.52
1035 6.0789 50237.90 48887.30 299.78
1036 6.0827 49488.90 48882.60 293.95
1037 6.0864 50621.60 48877.80 297.89
1038 6.0902 49298.80 48873.10 295.23
1039 6.0939 50485.90 48868.40 299.07
1040 6.0977 49355.50 48863.60 293.36
1041 6.1014 50649.30 48858.90 300.38
1042 6.1052 49539.60 48854.20 296.56
1043 6.1090 50535.80 48849.40 298.24
1044 6.1127 49806.40 48844.70 297.34
1045 6.1165 50220.40 48839.90 298.30
1046 6.1202 49570.10 48835.20 296.94
1047 6.1240 50774.10 48830.50 299.58
1048 6.1277 49172.90 48825.70 294.22
1049 6.1315 50545.10 48821.00 296.92
1050 6.1353 49565.00 48816.20 295.45
1051 6.1390 50055.40 48811.50 296.88
1052 6.1428 49183.90 48806.70 293.98
1053 6.1465 50242.80 48802.00 297.20
1054 6.1503 49451.80 48797.20 294.79
1055 6.1541 49994.10 48792.50 296.86
1056 6.1578 49445.50 48787.70 296.00
1057 6.1616 50006.30 48783.00 293.75
1058 6.1653 49255.60 48778.20 295.36
1059 6.1691 49850.40 48773.50 295.91
1060 6.1729 49334.10 48768.70 293.60
1061 6.1766 50573.30 48764.00 298.68
1062 6.1804 49532.20 48759.20 296.97
1063 6.1841 49991.80 48754.40 297.36
1064 6.1879 49296.60 48749.70 294.02
1065 6.1916 49923.40 48744.90 296.85
1066 6.1954 49149.50 48740.20 292.72
1067 6.1992 50220.40 48735.40 296.23
1068 6.2029 49401.20 48730.60 292.67
1069 6.2067 50086.30 48725.90 298.42
1070 6.2104 49559.80 48721.10 296.44
1071 6.2142 49786.70 48716.30 294.81
1072 6.2179 49491.20 48711.60 295.55
1073 6.2217 49828.60 48706.80 295.80
1074 6.2255 49032.40 48702.00 293.35
1075 6.2292 49950.60 48697.30 297.12
1076 6.2330 48326.30 48692.50 291.22
1077 6.2367 49945.10 48687.70 295.99
1078 6.2405 49071.10 48682.90 293.08
1079 6.2442 49600.50 48678.20 293.13
1080 6.2480 49102.00 48673.40 294.69
1081 6.2518 50027.50 48668.60 296.91
1082 6.2555 49156.60 48663.80 293.70
1083 6.2593 49927.10 48659.10 296.08
1084 6.2630 49113.90 48654.30 293.87
1085 6.2668 49594.10 48649.50 294.97
1086 6.2705 48923.50 48644.70 292.68
1087 6.2743 49589.40 48639.90 293.77
1088 6.2781 48836.40 48635.10 292.37
1089 6.2818 50005.10 48630.40 296.67
1090 6.2856 48890.20 48625.60 292.57
1091 6.2893 49332.40 48620.80 294.25
1092 6.2931 48699.00 48616.00 291.17
1093 6.2968 49349.30 48611.20 293.70
1094 6.3006 49087.90 48606.40 292.80
1095 6.3044 49781.70 48601.60 294.52
1096 6.3081 48806.50 48596.80 292.48
1097 6.3119 50195.90 48592.00 296.11
1098 6.3156 49309.90 48587.20 294.86
1099 6.3194 49330.50 48582.50 291.95
1100 6.3231 48899.10 48577.70 293.31
1101 6.3269 49437.80 48572.90 293.86
1102 6.3307 48665.00 48568.10 290.39
1103 6.3344 49452.90 48563.30 292.63
1104 6.3382 48664.60 48558.50 290.93
1105 6.3419 49452.90 48553.70 293.47
1106 6.3457 48506.20 48548.90 290.61
1107 6.3494 49527.70 48544.10 294.23
1108 6.3532 48706.30 48539.30 292.45
1109 6.3570 49546.60 48534.50 295.92
1110 6.3607 48688.00 48529.70 291.30
1111 6.3645 49514.80 48524.90 294.12
1112 6.3682 48519.40 48520.10 289.73
1113 6.3720 49322.80 48515.30 294.77
1114 6.3757 48073.90 48510.50 288.34
1115 6.3795 49235.90 48505.70 293.74
1116 6.3833 49180.70 48500.80 293.54
1117 6.3870 49534.80 48496.00 294.60
1118 6.3908 48680.80 48491.20 291.20
1119 6.3945 49407.40 48486.40 295.55
1120 6.3983 48086.10 48481.60 289.84
1121 6.4020 49098.90 48476.80 293.82
1122 6.4058 48614.20 48472.00 290.86
1123 6.4096 49483.10 48467.20 290.22
1124 6.4133 48382.00 48462.40 290.63
1125 6.4171 49404.10 48457.50 295.65
1126 6.4208 48155.00 48452.70 290.62
1127 6.4246 49296.00 48447.90 293.46
1128 6.4283 48445.20 48443.10 291.03
1129 6.4321 49429.60 48438.30 294.95
1130 6.4359 47998.70 48433.50 289.39
1131 6.4396 48990.90 48428.60 291.98
1132 6.4434 48513.10 48423.80 291.38
1133 6.4471 49325.70 48419.00 295.08
1134 6.4509 48931.30 48414.20 293.16
1135 6.4546 48930.80 48409.40 293.16
1136 6.4584 48461.70 48404.60 291.39
1137 6.4622 49589.90 48399.70 296.55
1138 6.4659 48735.20 48394.90 292.70
1139 6.4697 49278.50 48390.10 294.32
1140 6.4734 48321.00 48385.20 291.10
1141 6.4772 49240.30 48380.40 294.53
1142 6.4809 48601.80 48375.60 291.48
1143 6.4847 49248.90 48370.80 293.67
1144 6.4884 48171.10 48365.90 290.04
1145 6.4922 48964.00 48361.10 292.99
1146 6.4960 48386.50 48356.30 290.85
1147 6.4997 49310.60 48351.50 293.68
1148 6.5035 48476.70 48346.60 292.47
1149 6.5072 49316.90 48341.80 293.40
1150 6.5110 48694.80 48337.00 293.09
1151 6.5147 49268.90 48332.10 293.23
1152 6.5185 48829.30 48327.30 293.22
1153 6.5223 48759.20 48322.50 291.77
1154 6.5260 48523.60 48317.60 291.63
1155 6.5298 49621.30 48312.80 294.00
1156 6.5335 48391.90 48308.00 290.64
1157 6.5373 48945.90 48303.10 293.10
1158 6.5410 48790.40 48298.30 292.55
1159 6.5448 49356.50 48293.40 294.77
1160 6.5486 48568.80 48288.60 290.58
1161 6.5523 49209.40 48283.80 295.01
1162 6.5561 47972.50 48278.90 288.42
1163 6.5598 49019.60 48274.10 292.72
1164 6.5636 48709.30 48269.20 291.73
1165 6.5673 49320.40 48264.40 294.57
1166 6.5711 48222.10 48259.60 290.25
1167 6.5748 49073.10 48254.70 294.29
1168 6.5786 48501.60 48249.90 291.24
1169 6.5823 49557.90 48245.00 294.98
1170 6.5861 48053.60 48240.20 289.37
1171 6.5899 49157.60 48235.30 294.28
1172 6.5936 48373.00 48230.50 291.02
1173 6.5974 49065.20 48225.60 292.36
1174 6.6011 48460.20 48220.80 291.01
1175 6.6049 49569.50 48215.90 295.66
1176 6.6086 48363.40 48211.10 291.29
1177 6.6124 49298.30 48206.20 292.74
1178 6.6161 48059.60 48201.40 290.40
1179 6.6199 49197.40 48196.50 293.33
1180 6.6237 48061.50 48191.70 288.63
1181 6.6274 49029.10 48186.80 293.12
1182 6.6312 48230.30 48182.00 290.31
1183 6.6349 48810.80 48177.10 292.40
1184 6.6387 47671.00 48172.30 287.65
1185 6.6424 48262.40 48167.40 288.69
1186 6.6462 47708.80 48162.60 288.93
1187 6.6500 48531.40 48157.70 290.64
1188 6.6537 48093.40 48152.80 288.62
1189 6.6575 48888.50 48148.00 293.98
1190 6.6650 48616.10 48138.30 290.59
1191 6.6687 47895.70 48133.40 288.04
1192 6.6725 48488.60 48128.50 289.61
1193 6.6762 47594.90 48123.70 288.02
1194 6.6800 48293.80 48118.80 289.90
1195 6.6838 47674.40 48113.90 287.79
1196 6.6875 48582.00 48109.10 291.26
1197 6.6913 47745.50 48104.20 286.99
1198 6.6950 48553.70 48099.40 290.95
1199 6.6988 47754.60 48094.50 286.89
1200 6.7025 48378.30 48089.60 289.83
1201 6.7063 47854.00 48084.80 288.14
1202 6.7101 48350.20 48079.90 288.95
1203 6.7138 47584.30 48075.00 287.53
1204 6.7176 48581.50 48070.10 291.41
1205 6.7213 47554.00 48065.30 287.20
1206 6.7251 48524.10 48060.40 288.69
1207 6.7288 47577.60 48055.50 287.99
1208 6.7326 48547.30 48050.70 290.45
1209 6.7363 47432.40 48045.80 286.57
1210 6.7401 48237.60 48040.90 289.37
1211 6.7438 47399.90 48036.10 287.25
1212 6.7476 47982.30 48031.20 289.13
1213 6.7513 47583.80 48026.30 285.56
1214 6.7551 47841.80 48021.40 287.69
1215 6.7589 47299.00 48016.50 285.58
1216 6.7626 48058.40 48011.70 289.40
1217 6.7664 47867.30 48006.80 289.14
1218 6.7701 48573.10 48001.90 291.62
1219 6.7739 47170.50 47997.00 286.12
1220 6.7776 48249.60 47992.10 285.65
1221 6.7814 47324.20 47987.30 287.08
1222 6.7852 48247.00 47982.40 290.04
1223 6.7889 47097.30 47977.50 282.73
1224 6.7927 47976.90 47972.60 287.70
1225 6.7964 47479.30 47967.70 284.95
1226 6.8002 48080.00 47962.80 288.51
1227 6.8039 47368.00 47958.00 288.08
1228 6.8077 48559.10 47953.10 291.25
1229 6.8114 47515.00 47948.20 287.47
1230 6.8152 48535.20 47943.30 291.99
1231 6.8190 47328.80 47938.40 288.04
1232 6.8227 48514.80 47933.50 291.23
1233 6.8264 47310.30 47928.60 285.69
1234 6.8302 48191.40 47923.70 290.02
1235 6.8340 47169.30 47918.80 282.87
1236 6.8377 48123.90 47914.00 290.49
1237 6.8415 47474.90 47909.10 287.97
1238 6.8452 47700.70 47904.20 283.79
1239 6.8490 47550.40 47899.30 287.06
1240 6.8527 48337.60 47894.40 290.33
1241 6.8565 47606.40 47889.50 287.91
1242 6.8602 48351.00 47884.60 288.19
1243 6.8640 48053.60 47879.70 290.97
1244 6.8678 48065.00 47874.80 290.25
1245 6.8715 47008.80 47869.90 286.63
1246 6.8753 48379.60 47865.00 292.11
1247 6.8790 47296.70 47860.10 286.16
1248 6.8828 48096.60 47855.20 289.31
1249 6.8865 47461.30 47850.30 287.82
1250 6.8903 48476.10 47845.40 290.13
1251 6.8940 46992.80 47840.50 284.13
1252 6.8978 48140.00 47835.60 288.43
1253 6.9015 47315.20 47830.70 287.59
1254 6.9053 48232.70 47825.80 287.30
1255 6.9091 47518.20 47820.80 288.02
1256 6.9128 48301.00 47815.90 291.64
1257 6.9166 47736.20 47811.00 290.06
1258 6.9203 48429.70 47806.10 291.65
1259 6.9241 47751.90 47801.20 288.11
1260 6.9278 48347.20 47796.30 289.85
1261 6.9316 47650.20 47791.40 290.15
1262 6.9353 48186.60 47786.50 291.65
1263 6.9429 48053.00 47776.60 290.81
1264 6.9503 48271.40 47766.80 290.99
1265 6.9541 47567.80 47761.90 288.77
1266 6.9579 48232.00 47757.00 290.23
1267 6.9616 47924.40 47752.10 288.95
1268 6.9654 48559.50 47747.10 289.94
1269 6.9691 47560.60 47742.20 287.57
1270 6.9708 48283.00 47740.00 290.35
1271 6.9746 47127.10 47735.10 286.40
1272 6.9783 48201.00 47730.20 290.42
1273 6.9821 47436.70 47725.20 287.57
1274 6.9858 48093.60 47720.30 289.43
1275 6.9896 47326.60 47715.40 288.42
1276 6.9934 47704.20 47710.40 287.68
1277 6.9971 47336.80 47705.50 288.27
1278 7.0009 48449.00 47700.60 290.46
1279 7.0046 47086.60 47695.70 286.95
1280 7.0084 48265.70 47690.70 290.21
1281 7.0121 47445.00 47685.80 287.87
1282 7.0159 48092.40 47680.90 288.61
1283 7.0196 47287.80 47675.90 286.79
1284 7.0234 47969.00 47671.00 289.73
1285 7.0272 47406.40 47666.10 287.65
1286 7.0309 48137.30 47661.10 290.50
1287 7.0347 47139.90 47656.20 285.52
1288 7.0384 48402.90 47651.20 292.27
1289 7.0422 47071.20 47646.30 285.32
1290 7.0459 47996.60 47641.40 289.19
1291 7.0497 47427.90 47636.40 287.21
1292 7.0535 48120.90 47631.50 290.38
1293 7.0572 47856.10 47626.50 289.16
1294 7.0610 47839.70 47621.60 289.96
1295 7.0647 47423.40 47616.60 287.48
1296 7.0685 47976.00 47611.70 289.37
1297 7.0722 47113.80 47606.70 286.12
1298 7.0760 48153.10 47601.80 290.80
1299 7.0797 47344.80 47596.80 287.44
1300 7.0835 47785.30 47591.90 287.87
1301 7.0873 47117.80 47586.90 286.26
1302 7.0910 48068.00 47582.00 290.34
1303 7.0948 47245.80 47577.00 287.37
1304 7.0985 48176.20 47572.10 288.86
1305 7.1023 47072.80 47567.10 286.97
1306 7.1060 48111.90 47562.10 289.57
1307 7.1098 46861.20 47557.20 284.41
1308 7.1135 47938.80 47552.20 289.33
1309 7.1173 47198.20 47547.30 286.71
1310 7.1210 47645.70 47542.30 288.32
1311 7.1248 46762.30 47537.30 284.52
1312 7.1286 47315.80 47532.40 285.43
1313 7.1323 46817.40 47527.40 285.85
1314 7.1361 47171.50 47522.40 285.84
1315 7.1398 47115.20 47517.50 285.24
1316 7.1436 48162.40 47512.50 291.54
1317 7.1511 47823.00 47502.60 287.91
1318 7.1549 46647.60 47497.60 283.64
1319 7.1586 47372.60 47492.60 285.73
1320 7.1624 46403.00 47487.60 283.81
1321 7.1661 47490.70 47482.70 287.17
1322 7.1699 46693.50 47477.70 284.38
1323 7.1736 47706.40 47472.70 288.27
1324 7.1774 46357.10 47467.70 282.06
1325 7.1811 47833.00 47462.80 288.53
1326 7.1849 46454.40 47457.80 282.29
1327 7.1887 47721.90 47452.80 287.65
1328 7.1924 46754.70 47447.80 284.29
1329 7.1962 47398.20 47442.80 285.69
1330 7.1999 46834.90 47437.90 284.98
1331 7.2037 47429.20 47432.90 287.37
1332 7.2074 46399.30 47427.90 283.13
1333 7.2076 47165.40 47427.70 285.40
1334 7.2114 47871.80 47422.70 289.79
1335 7.2151 47045.40 47417.70 285.92
1336 7.2189 47456.70 47412.70 288.97
1337 7.2226 47059.80 47407.70 284.82
1338 7.2264 47557.90 47402.70 288.96
1339 7.2301 46943.60 47397.70 286.26
1340 7.2339 47759.30 47392.70 289.08
1341 7.2376 46603.80 47387.70 285.67
1342 7.2414 47491.30 47382.70 286.97
1343 7.2452 46990.70 47377.70 284.27
1344 7.2489 47851.90 47372.70 289.25
1345 7.2527 46862.80 47367.70 286.41
1346 7.2564 47442.20 47362.70 287.31
1347 7.2602 46637.10 47357.70 285.38
1348 7.2639 47777.00 47352.70 290.15
1349 7.2677 46715.60 47347.70 285.02
1350 7.2714 47546.60 47342.70 288.34
1351 7.2752 46703.60 47337.70 285.90
1352 7.2790 47202.50 47332.70 285.23
1353 7.2827 46747.50 47327.70 283.86
1354 7.2865 47369.00 47322.70 288.10
1355 7.2902 46961.00 47317.70 286.43
1356 7.2940 47500.30 47312.60 285.68
1357 7.2977 46761.60 47307.60 286.61
1358 7.3015 47127.00 47302.60 286.78
1359 7.3052 46978.50 47297.60 285.26
1360 7.3090 47232.60 47292.60 286.32
1361 7.3127 46320.20 47287.60 284.04
1362 7.3165 47398.20 47282.50 286.46
1363 7.3203 47032.60 47277.50 284.51
1364 7.3240 47708.00 47272.50 289.25
1365 7.3278 46421.60 47267.50 284.61
1366 7.3315 47607.60 47262.40 288.51
1367 7.3353 46784.60 47257.40 285.07
1368 7.3390 47663.10 47252.40 288.72
1369 7.3428 46524.80 47247.30 284.74
1370 7.3465 47444.20 47242.30 288.81
1371 7.3503 46622.50 47237.30 286.85
1372 7.3540 47387.50 47232.20 288.03
1373 7.3578 46740.60 47227.20 286.49
1374 7.3615 47700.40 47222.20 289.54
1375 7.3653 46203.30 47217.10 279.56
1376 7.3691 46952.40 47212.10 285.86
1377 7.3728 46447.70 47207.00 282.73
1378 7.3766 47290.00 47202.00 288.24
1379 7.3803 46434.00 47196.90 283.90
1380 7.3841 47005.10 47191.90 286.52
1381 7.3878 46226.90 47186.80 281.94
1382 7.3916 47008.90 47181.80 285.40
1383 7.3953 46570.10 47176.70 283.92
1384 7.3991 47260.80 47171.70 287.30
1385 7.4029 46651.70 47166.60 284.49
1386 7.4066 47114.80 47161.60 286.85
1387 7.4104 46226.90 47156.50 284.33
1388 7.4141 47130.00 47151.50 286.46
1389 7.4179 46599.30 47146.40 284.61
1390 7.4216 46915.30 47141.30 283.31
1391 7.4254 46137.80 47136.30 283.70
1392 7.4291 47144.50 47131.20 284.43
1393 7.4329 46217.70 47126.10 282.22
1394 7.4366 47043.90 47121.10 286.39
1395 7.4404 46655.10 47116.00 284.70
1396 7.4442 46884.80 47110.90 285.87
1397 7.4479 46140.70 47105.90 283.00
1398 7.4517 46584.70 47100.80 283.85
1399 7.4554 45870.00 47095.70 282.65
1400 7.4592 46623.20 47090.60 279.82
1401 7.4629 46197.60 47085.60 283.48
1402 7.4667 47417.40 47080.50 286.01
1403 7.4704 46143.60 47075.40 283.92
1404 7.4742 47302.00 47070.30 286.19
1405 7.4780 46517.40 47065.20 282.12
1406 7.4817 47226.00 47060.10 287.86
1407 7.4855 46028.60 47055.00 281.59
1408 7.4892 47021.60 47050.00 287.69
1409 7.4930 46179.90 47044.90 283.18
1410 7.4967 47268.60 47039.80 288.06
1411 7.5005 46410.00 47034.70 283.32
1412 7.5043 46871.60 47029.60 286.62
1413 7.5080 46404.50 47024.50 284.96
1414 7.5118 47387.50 47019.40 286.96
1415 7.5155 46175.70 47014.30 282.84
1416 7.5193 47121.30 47009.20 287.55
1417 7.5230 46508.20 47004.10 285.77
1418 7.5268 46737.90 46998.90 286.04
1419 7.5306 46706.30 46993.80 286.63
1420 7.5343 46951.90 46988.70 286.12
1421 7.5381 46323.50 46983.60 284.56
1422 7.5418 47188.00 46978.50 287.51
1423 7.5456 46930.90 46973.40 286.35
1424 7.5493 46878.10 46968.30 286.58
1425 7.5531 46018.20 46963.10 282.23
1426 7.5568 47634.40 46958.00 289.11
1427 7.5606 46227.10 46952.90 283.80
1428 7.5644 47168.30 46947.80 287.82
1429 7.5681 46490.20 46942.70 284.54
1430 7.5719 47150.20 46937.50 288.14
1431 7.5756 46582.90 46932.40 287.12
1432 7.5794 46449.60 46927.30 285.84
1433 7.5831 45902.60 46922.10 282.57
1434 7.5869 47281.70 46917.00 289.26
1435 7.5906 46272.00 46911.90 283.57
1436 7.5944 47002.50 46906.70 286.34
1437 7.5981 46106.40 46901.60 284.06
1438 7.6019 47158.20 46896.40 287.68
1439 7.6057 45948.90 46891.30 283.80
1440 7.6094 46728.60 46886.10 286.01
1441 7.6132 46328.20 46881.00 285.39
1442 7.6169 46950.60 46875.80 285.71
1443 7.6207 46262.40 46870.70 284.67
1444 7.6245 46850.20 46865.50 286.89
1445 7.6282 45863.80 46860.40 281.67
1446 7.6320 46818.40 46855.20 286.10
1447 7.6357 46054.80 46850.10 282.19
1448 7.6395 46346.00 46844.90 285.11
1449 7.6432 45900.40 46839.70 281.29
1450 7.6470 46923.80 46834.60 286.72
1451 7.6507 46357.00 46829.40 284.63
1452 7.6545 45965.60 46824.20 284.38
1453 7.6582 45450.30 46819.10 279.65
1454 7.6620 46346.50 46813.90 282.44
1455 7.6658 45713.00 46808.70 282.43
1456 7.6695 46732.80 46803.50 286.01
1457 7.6733 45553.90 46798.30 279.93
1458 7.6770 46599.10 46793.20 284.95
1459 7.6808 45720.60 46788.00 280.30
1460 7.6845 46490.30 46782.80 282.45
1461 7.6883 45738.30 46777.60 279.98
1462 7.6921 46595.80 46772.40 284.01
1463 7.6958 45744.30 46767.20 280.53
1464 7.6996 46537.90 46762.00 282.56
1465 7.7033 46005.90 46756.80 282.64
1466 7.7071 46628.40 46751.60 282.47
1467 7.7108 45405.80 46746.50 278.03
1468 7.7146 46086.00 46741.20 282.09
1469 7.7184 45821.70 46736.00 279.09
1470 7.7221 46159.60 46730.80 281.05
1471 7.7259 45597.20 46725.60 279.11
1472 7.7296 46011.70 46720.40 280.25
1473 7.7334 45411.80 46715.20 279.44
1474 7.7371 46372.60 46710.00 281.83
1475 7.7409 45547.50 46704.80 278.07
1476 7.7446 46232.40 46699.60 282.65
1477 7.7484 45100.60 46694.30 276.59
1478 7.7522 45853.50 46689.10 280.95
1479 7.7559 45323.10 46683.90 277.33
1480 7.7597 46224.00 46678.70 281.57
1481 7.7634 45650.90 46673.40 280.21
1482 7.7672 45941.90 46668.20 280.15
1483 7.7709 44721.20 46663.00 276.18
1484 7.7747 45782.40 46657.70 280.65
1485 7.7785 45733.80 46652.50 280.03
1486 7.7822 45967.50 46647.30 281.39
1487 7.7860 45471.60 46642.00 278.77
1488 7.7897 46468.70 46636.80 282.73
1489 7.7935 45640.20 46631.50 279.99
1490 7.7972 46223.20 46626.30 281.73
1491 7.8010 45055.70 46621.00 278.32
1492 7.8048 45909.00 46615.80 280.77
1493 7.8085 45374.70 46610.50 278.89
1494 7.8123 45506.60 46605.30 278.10
1495 7.8160 45035.60 46600.00 277.92
1496 7.8198 46239.60 46594.80 280.12
1497 7.8236 45291.30 46589.50 279.68
1498 7.8273 46147.50 46584.20 283.49
1499 7.8311 45380.20 46579.00 279.52
1500 7.8348 45746.00 46573.70 280.37
1501 7.8386 45349.90 46568.40 279.70
1502 7.8423 46279.40 46563.10 283.35
1503 7.8461 45117.50 46557.90 278.62
1504 7.8499 46260.50 46552.60 283.00
1505 7.8536 45150.10 46547.30 278.29
1506 7.8574 46221.80 46542.00 281.58
1507 7.8611 45820.40 46536.70 282.14
1508 7.8649 46279.10 46531.40 283.32
1509 7.8686 45369.50 46526.20 279.05
1510 7.8724 46451.00 46520.90 284.71
1511 7.8762 45348.40 46515.60 279.23
1512 7.8799 45941.30 46510.30 281.59
1513 7.8837 45360.40 46505.00 279.43
1514 7.8874 45680.40 46499.70 280.62
1515 7.8912 45352.70 46494.40 279.39
1516 7.8949 46176.50 46489.00 282.63
1517 7.8987 45414.10 46483.70 280.52
1518 7.9025 45747.30 46478.40 281.43
1519 7.9062 45332.40 46473.10 280.02
1520 7.9100 46087.80 46467.80 283.06
1521 7.9137 45426.90 46462.50 278.59
1522 7.9175 46375.50 46457.20 285.45
1523 7.9212 45539.50 46451.80 281.44
1524 7.9250 46148.90 46446.50 281.07
1525 7.9288 44895.00 46441.20 277.61
1526 7.9325 45706.20 46435.80 280.52
1527 7.9363 45600.80 46430.50 280.82
1528 7.9400 46235.80 46425.20 282.88
1529 7.9438 45439.00 46419.80 281.72
1530 7.9475 46096.70 46414.50 284.15
1531 7.9513 45170.00 46409.10 278.91
1532 7.9551 46524.80 46403.80 285.66
1533 7.9588 45729.30 46398.40 280.92
1534 7.9626 45773.90 46393.10 279.59
1535 7.9663 45380.10 46387.70 280.97
1536 7.9701 45905.30 46382.40 281.97
1537 7.9738 45026.40 46377.00 279.38
1538 7.9776 46150.00 46371.70 281.46
1539 7.9814 45597.40 46366.30 280.13
1540 7.9851 46081.60 46360.90 282.32
1541 7.9889 45392.90 46355.60 280.70
1542 7.9926 46079.10 46350.20 282.77
1543 7.9964 45084.70 46344.80 279.73
1544 8.0001 45747.30 46339.40 281.41
1545 8.0039 44784.60 46334.00 276.69
1546 8.0077 45748.10 46328.70 282.34
1547 8.0114 45045.30 46323.30 279.36
1548 8.0152 45697.30 46317.90 281.43
1549 8.0189 45252.10 46312.50 279.08
1550 8.0227 46019.20 46307.10 282.28
1551 8.0265 45184.30 46301.70 280.36
1552 8.0302 45917.20 46296.30 279.99
1553 8.0340 44918.50 46290.90 279.05
1554 8.0377 45443.90 46285.50 280.46
1555 8.0415 45157.70 46280.10 278.01
1556 8.0452 45834.90 46274.70 280.63
1557 8.0490 45339.30 46269.30 280.25
1558 8.0528 46097.70 46263.90 283.50
1559 8.0565 45753.90 46258.50 281.74
1560 8.0603 46413.40 46253.00 284.46
1561 8.0640 44912.90 46247.60 279.53
1562 8.0678 45956.00 46242.20 278.74
1563 8.0716 45149.40 46236.80 279.61
1564 8.0753 45800.30 46231.30 282.76
1565 8.0791 45105.10 46225.90 278.68
1566 8.0828 45931.90 46220.50 283.25
1567 8.0866 44982.10 46215.00 279.71
1568 8.0903 45640.20 46209.60 280.48
1569 8.0941 44683.70 46204.10 278.30
1570 8.0978 45724.80 46198.70 281.86
1571 8.1016 44789.70 46193.20 278.53
1572 8.1054 45646.80 46187.80 282.18
1573 8.1091 45296.10 46182.30 281.58
1574 8.1129 45678.70 46176.90 281.82
1575 8.1166 44831.20 46171.40 278.88
1576 8.1204 45763.30 46166.00 279.65
1577 8.1242 45255.00 46160.50 278.80
1578 8.1279 45469.50 46155.00 281.45
1579 8.1317 45126.90 46149.50 278.76
1580 8.1354 45865.50 46144.10 284.54
1581 8.1392 45353.20 46138.60 279.99
1582 8.1430 45823.60 46133.10 283.19
1583 8.1467 45033.10 46127.60 282.28
1584 8.1505 45762.40 46122.10 278.29
1585 8.1542 45125.80 46116.60 276.42
1586 8.1580 45780.60 46111.20 279.28
1587 8.1617 44937.50 46105.70 275.85
1588 8.1655 46032.90 46100.20 279.79
1589 8.1693 44669.70 46094.70 274.15
1590 8.1730 45608.60 46089.20 275.87
1591 8.1768 44781.30 46083.60 274.17
1592 8.1805 45215.50 46078.10 277.36
1593 8.1843 44821.90 46072.60 274.92
1594 8.1881 45602.40 46067.10 276.23
1595 8.1918 44992.60 46061.60 274.40
1596 8.1956 45599.30 46056.10 278.52
1597 8.1993 45338.00 46050.50 274.52
1598 8.2031 45341.80 46045.00 274.61
1599 8.2069 44529.70 46039.50 274.38
1600 8.2106 45567.60 46034.00 277.48
1601 8.2144 44706.90 46028.40 274.31
1602 8.2181 45696.80 46022.90 278.00
1603 8.2219 45024.70 46017.30 274.39
1604 8.2256 45203.10 46011.80 274.94
1605 8.2294 44591.80 46006.20 273.07
1606 8.2331 45498.10 46000.70 277.91
1607 8.2369 44915.20 45995.10 275.70
1608 8.2407 45799.40 45989.60 278.93
1609 8.2444 44732.40 45984.00 274.05
1610 8.2482 45429.40 45978.50 277.16
1611 8.2520 44523.60 45972.90 271.53
1612 8.2557 45408.00 45967.30 275.67
1613 8.2595 45023.20 45961.80 275.29
1614 8.2632 45642.20 45956.20 278.81
1615 8.2670 44280.60 45950.60 272.87
1616 8.2707 45104.90 45945.00 276.15
1617 8.2745 44966.10 45939.40 274.76
1618 8.2783 45160.10 45933.80 275.90
1619 8.2820 44706.40 45928.20 274.50
1620 8.2858 45350.60 45922.60 276.92
1621 8.2895 44345.50 45917.10 272.90
1622 8.2933 45040.90 45911.50 276.58
1623 8.2971 44485.10 45905.80 273.82
1624 8.3008 45288.20 45900.20 275.09
1625 8.3046 44409.70 45894.60 271.21
1626 8.3083 45348.80 45889.00 278.11
1627 8.3121 44063.30 45883.40 271.99
1628 8.3159 45251.20 45877.80 276.42
1629 8.3196 44538.50 45872.10 274.58
1630 8.3234 45199.20 45866.50 276.38
1631 8.3271 44096.60 45860.90 272.27
1632 8.3309 45763.70 45855.30 278.17
1633 8.3346 44352.90 45849.60 272.35
1634 8.3384 45301.70 45844.00 277.31
1635 8.3422 44306.90 45838.30 271.71
1636 8.3459 44921.50 45832.70 275.40
1637 8.3497 44659.00 45827.00 272.50
1638 8.3534 45307.90 45821.40 275.45
1639 8.3572 44324.20 45815.80 270.62
1640 8.3610 45347.10 45810.10 275.18
1641 8.3647 44359.40 45804.40 272.02
1642 8.3685 45135.00 45798.80 275.82
1643 8.3722 44494.70 45793.10 273.94
1644 8.3760 45105.80 45787.40 277.70
1645 8.3798 44462.10 45781.70 273.98
1646 8.3835 44761.10 45776.10 274.62
1647 8.3873 44131.90 45770.40 272.92
1648 8.3910 45026.40 45764.70 275.22
1649 8.3948 44290.60 45759.00 273.33
1650 8.3985 44733.20 45753.30 273.83
1651 8.4023 44273.40 45747.60 272.77
1652 8.4061 44891.90 45741.90 273.70
1653 8.4098 44202.70 45736.20 272.44
1654 8.4136 45020.00 45730.50 275.94
1655 8.4173 44551.60 45724.80 274.15
1656 8.4211 44902.60 45719.10 275.23
1657 8.4249 43913.10 45713.40 272.37
1658 8.4286 44771.20 45707.70 274.72
1659 8.4324 44145.40 45702.00 272.04
1660 8.4361 44857.80 45696.20 275.69
1661 8.4399 44024.00 45690.50 272.15
1662 8.4437 44922.10 45684.80 276.63
1663 8.4474 44655.80 45679.00 273.27
1664 8.4512 45255.00 45673.30 275.03
1665 8.4549 44207.60 45667.50 272.28
1666 8.4587 45210.30 45661.80 276.39
1667 8.4625 44422.90 45656.00 273.15
1668 8.4662 44886.80 45650.30 276.02
1669 8.4700 44447.40 45644.50 271.66
1670 8.4737 44934.50 45638.80 276.91
1671 8.4775 44331.90 45633.00 273.07
1672 8.4812 45044.10 45627.30 275.96
1673 8.4850 44016.60 45621.50 273.05
1674 8.4888 45212.30 45615.70 278.30
1675 8.4925 43854.00 45609.90 271.78
1676 8.4963 44950.80 45604.20 277.19
1677 8.5000 43509.00 45598.40 270.53
1678 8.5038 44874.80 45592.60 276.10
1679 8.5076 43767.00 45586.80 269.40
1680 8.5113 44698.10 45581.00 273.86
1681 8.5151 44193.20 45575.20 272.73
1682 8.5188 44996.10 45569.40 274.14
1683 8.5226 43853.00 45563.60 271.08
1684 8.5264 44659.50 45557.80 273.64
1685 8.5301 44449.80 45552.00 272.75
1686 8.5339 44788.80 45546.20 275.43
1687 8.5376 44073.00 45540.30 273.36
1688 8.5414 44656.40 45534.50 273.35
1689 8.5451 44241.60 45528.70 273.25
1690 8.5489 45183.80 45522.90 276.99
1691 8.5527 44030.00 45517.00 272.25
1692 8.5564 44426.40 45511.20 274.04
1693 8.5602 43724.10 45505.30 271.00
1694 8.5639 44429.10 45499.50 273.07
1695 8.5677 43998.90 45493.60 272.33
1696 8.5715 44397.50 45487.80 273.14
1697 8.5752 44266.70 45481.90 273.13
1698 8.5790 44697.80 45476.10 275.73
1699 8.5828 43914.70 45470.20 272.03
1700 8.5865 44892.60 45464.30 275.43
1701 8.5903 43983.60 45458.50 272.35
1702 8.5940 44637.00 45452.60 274.21
1703 8.5978 43916.90 45446.70 271.20
1704 8.6015 44570.80 45440.90 274.32
1705 8.6053 43875.90 45435.00 271.76
1706 8.6091 44872.20 45429.10 277.41
1707 8.6128 44027.10 45423.20 272.23
1708 8.6166 44232.90 45417.30 272.52
1709 8.6203 43968.60 45411.40 272.36
1710 8.6241 44713.70 45405.50 275.54
1711 8.6279 43883.50 45399.60 274.29
1712 8.6316 44560.20 45393.70 275.50
1713 8.6354 43727.50 45387.80 270.85
1714 8.6391 44478.40 45381.80 273.62
1715 8.6429 43905.80 45375.90 272.37
1716 8.6467 44531.20 45370.00 274.42
1717 8.6504 43870.80 45364.10 270.92
1718 8.6542 44212.80 45358.10 273.86
1719 8.6579 43868.60 45352.20 272.93
1720 8.6617 44597.50 45346.20 275.14
1721 8.6655 43798.30 45340.30 272.30
1722 8.6692 44352.80 45334.30 273.56
1723 8.6730 43114.10 45328.40 269.55
1724 8.6767 43925.60 45322.40 271.16
1725 8.6805 43173.20 45316.50 271.19
1726 8.6843 44420.40 45310.50 274.50
1727 8.6880 43582.10 45304.50 270.77
1728 8.6918 44508.50 45298.60 273.20
1729 8.6955 43792.10 45292.60 270.40
1730 8.6993 44538.80 45286.60 275.05
1731 8.7031 43353.30 45280.60 267.29
1732 8.7068 43753.30 45274.70 271.10
1733 8.7106 43757.50 45268.70 271.57
1734 8.7143 44139.80 45262.70 272.48
1735 8.7181 43425.00 45256.70 271.41
1736 8.7219 44090.00 45250.70 271.25
1737 8.7256 43582.90 45244.70 270.99
1738 8.7294 43970.10 45238.70 271.33
1739 8.7331 43883.60 45232.60 273.14
1740 8.7369 44338.10 45226.60 274.47
1741 8.7407 43468.30 45220.60 267.33
1742 8.7444 44249.70 45214.60 273.52
1743 8.7482 43943.70 45208.60 270.64
1744 8.7519 44063.80 45202.50 271.67
1745 8.7557 43405.60 45196.50 271.07
1746 8.7594 43613.90 45190.40 270.99
1747 8.7632 43178.80 45184.40 270.10
1748 8.7670 44453.20 45178.30 274.49
1749 8.7707 43597.30 45172.30 270.56
1750 8.7745 43970.10 45166.20 271.83
1751 8.7782 43386.60 45160.20 271.13
1752 8.7820 43924.00 45154.10 270.91
1753 8.7858 43055.00 45148.00 269.64
1754 8.7895 44606.30 45142.00 274.42
1755 8.7933 43160.00 45135.90 269.74
1756 8.7971 44165.70 45129.80 273.86
1757 8.8008 43148.30 45123.70 267.01
1758 8.8046 44423.50 45117.60 275.39
1759 8.8083 43651.70 45111.50 272.14
1760 8.8121 44129.40 45105.40 273.47
1761 8.8159 43969.20 45099.30 271.80
1762 8.8196 44205.50 45093.20 273.72
1763 8.8234 43600.30 45087.10 270.50
1764 8.8271 44413.20 45081.00 273.83
1765 8.8309 43890.60 45074.90 272.18
1766 8.8347 44077.10 45068.80 273.31
1767 8.8384 43477.20 45062.70 270.02
1768 8.8422 44346.70 45056.50 273.61
1769 8.8459 43503.10 45050.40 270.66
1770 8.8497 43898.20 45044.30 271.86
1771 8.8534 43436.00 45038.10 270.21
1772 8.8572 43859.50 45032.00 271.30
1773 8.8610 43144.50 45025.80 269.08
1774 8.8647 43858.50 45019.70 272.95
1775 8.8685 43284.40 45013.50 269.36
1776 8.8722 44197.00 45007.30 272.20
1777 8.8760 43451.30 45001.20 271.26
1778 8.8798 44367.10 44995.00 274.49
1779 8.8835 43604.90 44988.80 271.26
1780 8.8873 43895.20 44982.70 272.27
1781 8.8911 42942.40 44976.50 267.75
1782 8.8948 43914.50 44970.30 271.91
1783 8.8986 43495.60 44964.10 270.35
1784 8.9023 44166.50 44957.90 272.19
1785 8.9061 43347.30 44951.70 270.82
1786 8.9099 44069.80 44945.50 272.43
1787 8.9136 43521.60 44939.30 270.10
1788 8.9174 43546.60 44933.10 271.62
1789 8.9211 42981.60 44926.90 268.93
1790 8.9249 43902.10 44920.60 271.95
1791 8.9286 43417.70 44914.40 269.19
1792 8.9324 43418.20 44908.20 269.48
1793 8.9362 43017.90 44902.00 267.96
1794 8.9399 43738.40 44895.70 270.00
1795 8.9437 43318.80 44889.50 268.32
1796 8.9474 43961.20 44883.20 272.04
1797 8.9512 42915.00 44877.00 267.30
1798 8.9550 44130.20 44870.70 272.79
1799 8.9587 43439.40 44864.50 270.10
1800 8.9625 43898.60 44858.20 272.16
1801 8.9663 42978.90 44851.90 267.84
1802 8.9700 43943.30 44845.70 273.53
1803 8.9738 43590.80 44839.40 272.11
1804 8.9775 43822.00 44833.10 275.08
1805 8.9813 43364.50 44826.80 272.32
1806 8.9851 44786.40 44820.50 280.20
1807 8.9888 43209.20 44814.30 273.65
1808 8.9926 44176.70 44808.00 271.60
1809 8.9963 43202.80 44801.70 268.51
1810 9.0001 44201.90 44795.40 272.33
1811 9.0039 43108.30 44789.00 268.84
1812 9.0076 43685.10 44782.70 269.98
1813 9.0114 43150.50 44776.40 268.31
1814 9.0151 43686.90 44770.10 270.10
1815 9.0189 42776.90 44763.80 267.02
1816 9.0227 43918.20 44757.40 271.83
1817 9.0264 43198.90 44751.10 270.58
1818 9.0302 43840.00 44744.80 272.20
1819 9.0339 43155.70 44738.40 269.43
1820 9.0377 43715.00 44732.10 272.57
1821 9.0415 43342.20 44725.70 270.40
1822 9.0452 44012.00 44719.40 272.49
1823 9.0490 43161.40 44713.00 270.25
1824 9.0527 43788.10 44706.60 271.59
1825 9.0565 43142.30 44700.30 268.26
1826 9.0603 43869.00 44693.90 273.28
1827 9.0640 43209.50 44687.50 270.23
1828 9.0678 44080.60 44681.10 274.63
1829 9.0715 43385.50 44674.80 271.47
1830 9.0753 43927.20 44668.40 273.52
1831 9.0791 43233.10 44662.00 269.98
1832 9.0828 44309.60 44655.60 274.18
1833 9.0866 42916.80 44649.20 268.58
1834 9.0904 43984.30 44642.80 273.53
1835 9.0941 43370.30 44636.30 269.91
1836 9.0979 43449.40 44629.90 269.99
1837 9.1016 42734.30 44623.50 267.90
1838 9.1054 43426.80 44617.10 271.69
1839 9.1091 42993.80 44610.60 270.60
1840 9.1129 43189.20 44604.20 272.56
1841 9.1167 42985.40 44597.80 268.42
1842 9.1204 43129.90 44591.30 269.12
1843 9.1242 43296.90 44584.90 270.68
1844 9.1279 43666.90 44578.40 270.09
1845 9.1317 42739.60 44572.00 267.34
1846 9.1355 43785.80 44565.50 271.57
1847 9.1392 43133.90 44559.00 268.14
1848 9.1430 43712.00 44552.60 272.26
1849 9.1468 42888.80 44546.10 268.31
1850 9.1505 43901.10 44539.60 272.74
1851 9.1543 42949.90 44533.10 268.06
1852 9.1580 43949.00 44526.70 272.86
1853 9.1618 43426.90 44520.20 270.36
1854 9.1656 43980.80 44513.70 273.18
1855 9.1693 43375.80 44507.20 269.35
1856 9.1731 43936.80 44500.70 272.40
1857 9.1768 43251.40 44494.10 269.20
1858 9.1806 43756.70 44487.60 271.41
1859 9.1844 43478.60 44481.10 271.44
1860 9.1881 43503.50 44474.60 270.82
1861 9.1919 43004.10 44468.00 268.91
1862 9.1956 43767.80 44461.50 272.58
1863 9.1994 42836.90 44455.00 266.92
1864 9.2032 43237.60 44448.40 268.52
1865 9.2069 42513.10 44441.90 266.75
1866 9.2107 43804.70 44435.30 272.59
1867 9.2144 42868.80 44428.80 266.62
1868 9.2182 43361.80 44422.20 269.16
1869 9.2220 43126.60 44415.70 269.64
1870 9.2257 43507.90 44409.10 270.22
1871 9.2295 42818.30 44402.50 268.02
1872 9.2332 43128.80 44395.90 268.14
1873 9.2370 43257.90 44389.40 268.96
1874 9.2408 43448.50 44382.80 271.21
1875 9.2445 42851.30 44376.20 267.44
1876 9.2483 43048.70 44369.60 267.49
1877 9.2520 42595.90 44363.00 266.08
1878 9.2558 43062.80 44356.40 267.93
1879 9.2596 42894.10 44349.70 267.92
1880 9.2633 43769.20 44343.10 273.13
1881 9.2671 42955.30 44336.50 269.82
1882 9.2709 43538.60 44329.90 270.71
1883 9.2746 42720.80 44323.30 267.02
1884 9.2784 43374.60 44316.60 270.43
1885 9.2821 43070.30 44310.00 269.50
1886 9.2859 43245.60 44303.30 270.27
1887 9.2896 42990.50 44296.70 268.65
1888 9.2934 43277.40 44290.00 269.58
1889 9.2972 42732.60 44283.40 267.44
1890 9.3009 43492.20 44276.70 270.02
1891 9.3047 42868.30 44270.10 268.09
1892 9.3084 43344.20 44263.40 268.96
1893 9.3122 43243.50 44256.70 270.18
1894 9.3160 43535.90 44250.00 271.42
1895 9.3197 43094.10 44243.30 268.30
1896 9.3235 43534.40 44236.70 269.15
1897 9.3273 43014.00 44230.00 269.38
1898 9.3310 43490.10 44223.30 270.14
1899 9.3348 42521.10 44216.60 266.92
1900 9.3385 43350.40 44209.90 269.52
1901 9.3423 42903.80 44203.10 267.55
1902 9.3461 42948.70 44196.40 268.80
1903 9.3498 42940.90 44189.70 268.63
1904 9.3536 43240.70 44183.00 267.57
1905 9.3573 42590.90 44176.20 267.46
1906 9.3611 43214.80 44169.50 268.87
1907 9.3649 42514.70 44162.80 266.58
1908 9.3686 43489.50 44156.00 269.75
1909 9.3724 42439.00 44149.30 266.84
1910 9.3761 43539.90 44142.50 270.41
1911 9.3799 42350.30 44135.70 266.46
1912 9.3837 43002.00 44129.00 270.15
1913 9.3874 42895.90 44122.20 268.38
1914 9.3912 43414.70 44115.40 270.70
1915 9.3949 42205.20 44108.70 266.57
1916 9.3987 43430.40 44101.90 271.03
1917 9.4025 42558.80 44095.10 264.50
1918 9.4062 42870.30 44088.30 268.56
1919 9.4100 42551.60 44081.50 267.94
1920 9.4137 43416.10 44074.70 270.88
1921 9.4175 42531.30 44067.90 267.29
1922 9.4213 43316.40 44061.10 270.94
1923 9.4250 42752.20 44054.30 267.28
1924 9.4288 43127.30 44047.50 269.14
1925 9.4326 42527.80 44040.60 265.54
1926 9.4363 43299.20 44033.80 270.99
1927 9.4401 42605.80 44026.90 267.68
1928 9.4438 43195.50 44020.10 269.62
1929 9.4476 42201.30 44013.30 265.93
1930 9.4514 43318.40 44006.40 270.39
1931 9.4551 42745.10 43999.60 268.28
1932 9.4589 43047.20 43992.70 269.39
1933 9.4626 42396.10 43985.80 266.81
1934 9.4664 43334.70 43979.00 268.24
1935 9.4702 42690.20 43972.10 267.85
1936 9.4739 43275.10 43965.20 271.65
1937 9.4777 42430.30 43958.30 267.04
1938 9.4814 43350.10 43951.50 270.74
1939 9.4852 42645.90 43944.60 268.52
1940 9.4890 42988.80 43937.70 269.93
1941 9.4927 42342.10 43930.80 267.27
1942 9.4965 42749.10 43923.80 268.64
1943 9.5002 42710.70 43916.90 267.73
1944 9.5040 43107.30 43910.00 270.86
1945 9.5078 42279.50 43903.10 266.40
1946 9.5115 43263.00 43896.20 269.82
1947 9.5153 42733.80 43889.20 269.50
1948 9.5190 43033.30 43882.30 269.98
1949 9.5228 42049.70 43875.40 265.31
1950 9.5266 43251.20 43868.40 270.98
1951 9.5303 42162.60 43861.50 266.64
1952 9.5341 43122.80 43854.50 269.55
1953 9.5379 42702.50 43847.60 267.95
1954 9.5416 43092.30 43840.60 269.12
1955 9.5454 42633.50 43833.60 267.92
1956 9.5491 43114.70 43826.60 269.67
1957 9.5529 42001.40 43819.70 265.67
1958 9.5567 43142.90 43812.70 270.42
1959 9.5604 42343.30 43805.70 266.70
1960 9.5642 43087.80 43798.70 269.45
1961 9.5679 42346.70 43791.70 266.81
1962 9.5717 42987.70 43784.70 268.93
1963 9.5755 42379.60 43777.70 267.30
1964 9.5792 42955.60 43770.70 269.69
1965 9.5830 42170.70 43763.60 266.82
1966 9.5867 42873.60 43756.60 268.44
1967 9.5905 42117.50 43749.60 266.13
1968 9.5943 42733.60 43742.60 272.63
1969 9.5980 42360.20 43735.50 267.49
1970 9.6018 43044.20 43728.50 269.35
1971 9.6055 42249.80 43721.40 270.30
1972 9.6093 42850.60 43714.40 270.84
1973 9.6131 41924.70 43707.30 266.09
1974 9.6168 42953.10 43700.20 270.07
1975 9.6206 42150.00 43693.20 268.04
1976 9.6243 42871.90 43686.10 271.96
1977 9.6281 42090.30 43679.00 267.06
1978 9.6319 42996.10 43672.00 269.69
1979 9.6356 42076.60 43664.90 267.13
1980 9.6394 42948.00 43657.80 269.32
1981 9.6432 42009.80 43650.70 267.12
1982 9.6469 42943.70 43643.60 269.54
1983 9.6507 42020.00 43636.50 266.94
1984 9.6544 42876.00 43629.40 269.45
1985 9.6582 42263.00 43622.30 266.48
1986 9.6620 42876.10 43615.10 266.56
1987 9.6657 42319.20 43608.00 266.85
1988 9.6695 42604.70 43600.90 268.39
1989 9.6732 42073.00 43593.70 267.82
1990 9.6770 42525.80 43586.60 265.25
1991 9.6808 41827.80 43579.40 264.83
1992 9.6845 42488.50 43572.30 265.87
1993 9.6883 41957.80 43565.10 266.57
1994 9.6920 42617.50 43558.00 267.65
1995 9.6958 41971.30 43550.80 266.75
1996 9.6996 42630.60 43543.60 268.71
1997 9.7033 42249.70 43536.50 266.48
1998 9.7071 42805.50 43529.30 268.87
1999 9.7108 42067.90 43522.10 266.09
2000 9.7146 42782.50 43514.90 270.05
2001 9.7184 41999.10 43507.70 267.17
2002 9.7221 42007.70 43500.50 264.79
2003 9.7259 41797.30 43493.30 264.47
2004 9.7296 42559.20 43486.10 268.61
2005 9.7334 41976.00 43478.90 266.34
2006 9.7372 42485.80 43471.70 267.50
2007 9.7409 41657.90 43464.40 264.09
2008 9.7447 42173.30 43457.20 266.68
2009 9.7485 41865.60 43450.00 265.10
2010 9.7522 42761.30 43442.70 266.73
2011 9.7560 42137.00 43435.50 267.12
2012 9.7597 42595.50 43428.20 267.89
2013 9.7635 41591.30 43421.00 265.15
2014 9.7673 42557.30 43413.70 268.38
2015 9.7710 41796.30 43406.50 265.19
2016 9.7748 42577.90 43399.20 266.54
2017 9.7785 41921.50 43391.90 266.84
2018 9.7823 42372.50 43384.60 265.72
2019 9.7860 42118.60 43377.30 266.55
2020 9.7898 42464.10 43370.00 268.98
2021 9.7936 41932.00 43362.70 265.71
2022 9.7973 42493.70 43355.40 268.98
2023 9.8011 42077.50 43348.10 267.35
2024 9.8049 42283.00 43340.80 266.86
2025 9.8086 41746.30 43333.50 264.99
2026 9.8124 42201.10 43326.20 265.88
2027 9.8161 41823.50 43318.90 263.85
2028 9.8199 42278.60 43311.50 265.83
2029 9.8237 41797.70 43304.20 266.33
2030 9.8274 42428.10 43296.90 268.78
2031 9.8312 42431.60 43289.50 265.70
2032 9.8349 42645.90 43282.20 269.46
2033 9.8387 41918.30 43274.80 266.42
2034 9.8425 42573.70 43267.50 268.86
2035 9.8462 41945.90 43260.10 263.88
2036 9.8500 42590.70 43252.70 269.03
2037 9.8538 42180.00 43245.30 267.04
2038 9.8575 42401.80 43238.00 267.86
2039 9.8613 42024.70 43230.60 267.37
2040 9.8650 42386.60 43223.20 268.37
2041 9.8688 41783.50 43215.80 265.78
2042 9.8726 42278.00 43208.40 265.54
2043 9.8763 41762.80 43201.00 265.04
2044 9.8801 42578.30 43193.60 267.94
2045 9.8838 41654.70 43186.20 265.96
2046 9.8876 42474.90 43178.70 267.59
2047 9.8913 41789.40 43171.30 265.67
2048 9.8951 42514.00 43163.90 269.14
2049 9.8989 41835.40 43156.50 265.31
2050 9.9026 42333.60 43149.00 265.29
2051 9.9064 42072.50 43141.60 268.10
2052 9.9101 42481.90 43134.10 266.48
2053 9.9139 41832.40 43126.70 266.01
2054 9.9177 42851.70 43119.20 270.98
2055 9.9214 42013.10 43111.70 267.09
2056 9.9252 42551.70 43104.30 270.02
2057 9.9290 41680.40 43096.80 267.14
2058 9.9327 42867.10 43089.30 270.49
2059 9.9365 41768.70 43081.80 265.40
2060 9.9402 42655.90 43074.30 269.62
2061 9.9440 42037.10 43066.80 266.34
2062 9.9478 42587.10 43059.30 268.72
2063 9.9515 41699.40 43051.80 265.53
2064 9.9553 42511.30 43044.30 269.28
2065 9.9590 41816.30 43036.80 267.35
2066 9.9628 42275.40 43029.30 268.04
2067 9.9666 42101.70 43021.80 266.23
2068 9.9703 42524.20 43014.20 269.20
2069 9.9741 41720.70 43006.70 265.62
2070 9.9778 42429.70 42999.10 268.05
2071 9.9816 41781.80 42991.60 266.63
2072 9.9854 42478.80 42984.00 270.66
2073 9.9891 41925.30 42976.50 265.74
2074 9.9929 42808.50 42968.90 270.76
2075 9.9966 42101.90 42961.30 266.61
2076 10.0005 42266.60 42953.70 267.35
2077 10.0042 41842.30 42946.20 266.96
2078 10.0079 42918.90 42938.60 271.52
2079 10.0117 41945.80 42931.10 266.23
2080 10.0154 42445.50 42923.40 266.88
2081 10.0192 41629.70 42915.80 265.52
2082 10.0230 42780.20 42908.30 268.62
2083 10.0267 41780.60 42900.60 267.28
2084 10.0304 42588.90 42893.10 269.43
2085 10.0343 41848.00 42885.40 268.51
2086 10.0380 42406.20 42877.70 268.76
2087 10.0417 41929.70 42870.20 266.68
2088 10.0456 42263.60 42862.50 265.64
2089 10.0492 41795.80 42855.00 266.08
2090 10.0531 42571.80 42847.20 269.87
2091 10.0569 42070.40 42839.50 266.08
2092 10.0605 42699.90 42832.00 270.36
2093 10.0644 41820.90 42824.20 266.19
2094 10.0681 42499.70 42816.70 270.80
2095 10.0718 41756.50 42809.00 268.55
2096 10.0757 42286.30 42801.20 268.28
2097 10.0794 42310.30 42793.70 268.79
2098 10.0831 42616.10 42785.90 270.40
2099 10.0869 41672.70 42778.30 265.36
2100 10.0906 42701.10 42770.50 270.45
2101 10.0944 41772.60 42762.80 266.72
2102 10.0982 41903.60 42755.20 268.10
2103 10.1019 41885.30 42747.40 267.05
2104 10.1056 42386.80 42739.80 268.85
2105 10.1095 41879.30 42732.00 265.67
2106 10.1132 42137.70 42724.20 268.13
2107 10.1170 41571.50 42716.60 266.69
2108 10.1208 41989.20 42708.80 268.37
2109 10.1245 41303.10 42701.00 263.65
2110 10.1283 42224.70 42693.30 267.73
2111 10.1320 41899.90 42685.50 265.59
2112 10.1357 42235.10 42677.90 268.64
2113 10.1396 42245.40 42670.00 268.91
2114 10.1433 42647.40 42662.20 270.09
2115 10.1470 41399.00 42654.50 264.71
2116 10.1509 42175.80 42646.70 269.76
2117 10.1545 41726.90 42639.00 267.02
2118 10.1583 42114.10 42631.20 266.36
2119 10.1622 41648.80 42623.30 266.45
2120 10.1658 42502.80 42615.60 269.77
2121 10.1697 40839.30 42607.70 264.42
2122 10.1734 42385.70 42600.10 269.95
2123 10.1771 41617.20 42592.20 265.60
2124 10.1810 42016.30 42584.30 266.81
2125 10.1847 41747.30 42576.60 266.18
2126 10.1884 41873.70 42568.70 266.58
2127 10.1922 41556.20 42561.00 265.09
2128 10.1959 42060.10 42553.00 267.47
2129 10.1997 41895.00 42545.10 267.25
2130 10.2035 42310.30 42537.40 267.81
2131 10.2072 41820.60 42529.50 267.37
2132 10.2109 42053.70 42521.70 267.57
2133 10.2148 41757.50 42513.80 267.24
2134 10.2185 42333.90 42505.80 267.63
2135 10.2222 41381.10 42498.10 262.74
2136 10.2261 42136.60 42490.10 268.33
2137 10.2297 41701.30 42482.40 264.73
2138 10.2336 42273.00 42474.40 268.97
2139 10.2374 41483.90 42466.40 264.69
2140 10.2410 42125.40 42458.70 266.30
2141 10.2449 41554.10 42450.70 266.41
2142 10.2486 42015.00 42442.90 266.30
2143 10.2523 41829.20 42434.90 264.17
2144 10.2562 42144.80 42426.90 268.21
2145 10.2598 41558.20 42419.10 263.79
2146 10.2636 42133.00 42411.10 266.95
2147 10.2674 41306.20 42403.30 264.32
2148 10.2711 42253.00 42395.30 264.24
2149 10.2750 41128.50 42387.20 262.39
2150 10.2787 42358.70 42379.40 268.90
2151 10.2824 41337.70 42371.40 265.57
2152 10.2861 41769.70 42363.50 264.65
2153 10.2900 41285.30 42355.50 264.06
2154 10.2937 41674.70 42347.40 265.32
2155 10.2975 41611.70 42339.60 262.59
2156 10.3013 42276.40 42331.50 267.39
2157 10.3049 41312.00 42323.70 264.16
2158 10.3088 41939.70 42315.60 266.87
2159 10.3125 41005.00 42307.50 262.16
2160 10.3162 42041.40 42299.60 267.56
2161 10.3201 41232.80 42291.60 263.60
2162 10.3237 41787.70 42283.70 266.35
2163 10.3275 41389.40 42275.60 264.07
2164 10.3314 42325.30 42267.50 269.16
2165 10.3350 41353.30 42259.60 264.67
2166 10.3389 41943.50 42251.50 267.99
2167 10.3426 41242.20 42243.60 263.17
2168 10.3463 42099.90 42235.40 266.29
2169 10.3502 41171.70 42227.30 263.35
2170 10.3539 41708.50 42219.40 267.14
2171 10.3576 40836.90 42211.20 261.64
2172 10.3614 41447.50 42203.30 264.14
2173 10.3652 40655.80 42195.20 259.32
2174 10.3689 41371.40 42187.00 264.53
2175 10.3727 41177.60 42179.10 264.15
2176 10.3764 42114.10 42170.90 268.33
2177 10.3801 41366.90 42162.90 265.10
2178 10.3840 42205.30 42154.80 267.45
2179 10.3877 41172.70 42146.60 265.66
2180 10.3914 41513.60 42138.60 265.49
2181 10.3953 41428.50 42130.40 266.19
2182 10.3989 41890.90 42122.40 266.23
2183 10.4028 40832.00 42114.20 262.12
2184 10.4066 42057.10 42106.00 266.82
2185 10.4102 40892.40 42098.00 263.36
2186 10.4141 41955.00 42089.80 266.18
2187 10.4178 41124.30 42081.80 264.46
2188 10.4215 41420.70 42073.60 265.49
2189 10.4254 41522.10 42065.40 266.79
2190 10.4291 42022.20 42057.30 264.35
2191 10.4328 41046.80 42049.10 263.89
2192 10.4366 41512.90 42041.10 266.77
2193 10.4403 40817.10 42032.80 261.04
2194 10.4441 41885.90 42024.60 265.35
2195 10.4479 41212.30 42016.50 264.63
2196 10.4516 42228.50 42008.20 269.14
2197 10.4553 41246.30 42000.20 264.00
2198 10.4592 41581.50 41991.90 265.42
2199 10.4629 41470.60 41983.60 265.70
2200 10.4667 41740.50 41975.60 266.99
2201 10.4705 41268.00 41967.30 263.73
2202 10.4741 41697.50 41959.20 265.85
2203 10.4780 41079.40 41950.90 264.56
2204 10.4817 41564.20 41942.60 265.59
2205 10.4854 41448.30 41934.50 266.16
2206 10.4893 41968.60 41926.10 269.45
2207 10.4930 40822.60 41918.00 264.09
2208 10.4967 41597.10 41909.70 265.43
2209 10.5006 41220.80 41901.40 266.46
2210 10.5042 41454.60 41893.30 265.00
2211 10.5080 40838.90 41884.90 261.41
2212 10.5118 42118.50 41876.80 269.43
2213 10.5155 40991.00 41868.40 262.94
2214 10.5194 41840.30 41860.10 265.60
2215 10.5231 40904.70 41851.90 264.68
2216 10.5268 41451.70 41843.60 266.80
2217 10.5306 41179.70 41835.40 264.54
2218 10.5344 41864.90 41827.00 268.15
2219 10.5381 41052.20 41818.60 265.93
2220 10.5419 41765.60 41810.50 267.08
2221 10.5456 41115.70 41802.10 262.79
2222 10.5493 41969.50 41793.90 268.33
2223 10.5532 40997.20 41785.50 264.62
2224 10.5569 41982.50 41777.10 265.87
2225 10.5606 41058.60 41768.90 261.62
2226 10.5645 41655.10 41760.50 264.37
2227 10.5681 41166.50 41752.20 263.49
2228 10.5719 41678.20 41743.80 264.50
2229 10.5757 41501.00 41735.60 263.79
2230 10.5794 41652.20 41727.20 264.64
2231 10.5833 41366.10 41718.70 263.65
2232 10.5870 41775.90 41710.50 263.80
2233 10.5907 41193.60 41702.00 262.89
2234 10.5944 42116.80 41693.80 265.95
2235 10.5983 41326.80 41685.30 260.71
2236 10.6020 41703.10 41676.90 265.54
2237 10.6058 41475.30 41668.60 260.93
2238 10.6096 41339.40 41660.10 263.15
2239 10.6132 41472.20 41651.90 263.45
2240 10.6171 41556.30 41643.40 265.16
2241 10.6208 40899.50 41634.90 260.75
2242 10.6245 41354.80 41626.60 263.49
2243 10.6284 41247.70 41618.10 264.20
2244 10.6320 41843.00 41609.80 264.94
2245 10.6358 40483.50 41601.30 259.91
2246 10.6397 41843.70 41592.80 266.11
2247 10.6433 41134.80 41584.50 262.39
2248 10.6472 42128.70 41575.90 265.85
2249 10.6509 41109.80 41567.60 261.63
2250 10.6546 41237.90 41559.10 262.41
2251 10.6585 40816.40 41550.50 260.22
2252 10.6622 41412.60 41542.20 264.01
2253 10.6659 40562.50 41533.60 260.00
2254 10.6697 41576.10 41525.30 261.97
2255 10.6735 41229.70 41516.70 259.50
2256 10.6772 41352.50 41508.20 261.23
2257 10.6810 41167.80 41499.80 263.00
2258 10.6847 40941.10 41491.20 260.55
2259 10.6884 40634.60 41482.90 260.37
2260 10.6923 41325.00 41474.30 261.38
2261 10.6960 41065.20 41465.70 262.43
2262 10.6997 41554.20 41457.30 262.52
2263 10.7036 40485.40 41448.70 259.62
2264 10.7072 41313.40 41440.30 262.77
2265 10.7111 40987.60 41431.70 261.79
2266 10.7148 41417.70 41423.30 262.95
2267 10.7185 40764.30 41414.70 260.45
2268 10.7224 40885.40 41406.00 261.49
2269 10.7261 40660.30 41397.60 258.85
2270 10.7298 41472.40 41389.00 263.41
2271 10.7336 40837.90 41380.50 261.76
2272 10.7374 41775.90 41371.90 263.80
2273 10.7411 41031.80 41363.20 261.99
2274 10.7449 41581.10 41354.80 263.27
2275 10.7486 40333.80 41346.10 258.97
2276 10.7523 41308.40 41337.70 260.65
2277 10.7562 40605.80 41329.00 260.87
2278 10.7599 41245.90 41320.30 262.19
2279 10.7636 40676.80 41311.90 262.04
2280 10.7675 41115.90 41303.20 260.58
2281 10.7711 40684.60 41294.70 260.62
2282 10.7750 41249.10 41286.00 261.02
2283 10.7788 40648.50 41277.30 259.61
2284 10.7824 40804.70 41268.80 260.33
2285 10.7863 40761.20 41260.10 256.95
2286 10.7900 40961.90 41251.60 261.22
2287 10.7937 40896.70 41242.90 260.76
2288 10.7975 41209.60 41234.40 261.19
2289 10.8013 40353.40 41225.60 259.56
2290 10.8050 40944.20 41216.90 262.48
2291 10.8088 40732.40 41208.40 258.50
2292 10.8125 41296.30 41199.60 263.51
2293 10.8162 40797.00 41191.10 260.69
2294 10.8201 41451.40 41182.30 263.50
2295 10.8238 40581.40 41173.60 260.17
2296 10.8275 41182.90 41165.00 262.54
2297 10.8314 40558.10 41156.30 259.51
2298 10.8350 41473.80 41147.70 261.52
2299 10.8389 40784.10 41138.90 259.67
2300 10.8427 41183.90 41130.10 260.24
2301 10.8463 40122.90 41121.60 258.21
2302 10.8502 40895.50 41112.80 261.10
2303 10.8539 40201.40 41104.20 257.43
2304 10.8576 41410.40 41095.40 261.63
2305 10.8614 40692.90 41086.80 260.35
2306 10.8652 41143.60 41078.00 262.18
2307 10.8689 40995.60 41069.10 262.45
2308 10.8727 41100.10 41060.50 261.48
2309 10.8764 40808.40 41051.70 258.55
2310 10.8801 41450.50 41043.10 263.69
2311 10.8840 41014.20 41034.30 262.66
2312 10.8877 41418.20 41025.40 263.48
2313 10.8914 40651.40 41016.80 259.61
2314 10.8953 41237.60 41007.90 263.74
2315 10.8989 40752.00 40999.30 260.95
2316 10.9028 40838.50 40990.40 261.94
2317 10.9066 40996.70 40981.50 260.73
2318 10.9102 41354.20 40972.90 263.85
2319 10.9141 40671.40 40964.00 260.43
2320 10.9178 41179.50 40955.40 263.45
2321 10.9215 40670.40 40946.50 260.05
2322 10.9253 41085.80 40937.80 262.66
2323 10.9291 41084.20 40928.90 261.62
2324 10.9328 41626.00 40920.00 265.20
2325 10.9366 40664.70 40911.30 259.97
2326 10.9403 41125.10 40902.40 261.82
2327 10.9440 40683.00 40893.70 262.05
2328 10.9479 41321.80 40884.80 263.38
2329 10.9516 40433.30 40875.80 260.75
2330 10.9553 40813.60 40867.10 262.17
2331 10.9592 40657.60 40858.20 260.53
2332 10.9628 41290.30 40849.50 263.09
2333 10.9667 40957.80 40840.50 262.10
2334 10.9704 41549.70 40831.80 265.43
2335 10.9741 40303.30 40822.80 260.74
2336 10.9780 41223.60 40813.90 260.68
2337 10.9817 40497.10 40805.10 261.21
2338 10.9854 41212.70 40796.20 263.29
2339 10.9892 40737.90 40787.40 261.96
2340 10.9930 41068.70 40778.40 261.81
2341 10.9967 40796.00 40769.40 263.16
2342 11.0005 41311.80 40760.70 265.39
2343 11.0042 40642.00 40751.70 262.33
2344 11.0079 41140.00 40742.90 264.31
2345 11.0118 40749.80 40733.90 262.59
2346 11.0154 41194.00 40725.10 262.32
2347 11.0192 40732.10 40716.10 262.48
2348 11.0231 41440.80 40707.10 264.89
2349 11.0267 41012.40 40698.30 262.24
2350 11.0306 41429.30 40689.20 265.75
2351 11.0343 40614.40 40680.40 263.99
2352 11.0380 41236.80 40671.40 262.35
2353 11.0419 40782.70 40662.30 261.19
2354 11.0456 41187.70 40653.50 262.23
2355 11.0493 40697.70 40644.50 261.02
2356 11.0531 41414.60 40635.70 261.98
2357 11.0569 40652.20 40626.60 261.67
2358 11.0605 41082.80 40617.70 262.11
2359 11.0644 40308.50 40608.70 258.26
2360 11.0681 41246.00 40599.60 262.65
2361 11.0718 40738.70 40590.70 260.47
2362 11.0757 41359.10 40581.70 261.44
2363 11.0794 40554.50 40572.80 260.80
2364 11.0831 41078.30 40563.70 262.00
2365 11.0870 40673.00 40554.60 262.10
2366 11.0906 41228.80 40545.70 263.42
2367 11.0944 40979.60 40536.60 262.24
2368 11.0982 40958.50 40527.70 263.90
2369 11.1019 40549.30 40518.60 260.77
2370 11.1056 41167.90 40509.70 263.00
2371 11.1095 40465.60 40500.60 260.55
2372 11.1132 40883.40 40491.40 260.68
2373 11.1170 40999.50 40482.50 257.52
2374 11.1208 41225.60 40473.40 265.44
2375 11.1244 40543.70 40464.50 260.43
2376 11.1283 41394.40 40455.30 264.27
2377 11.1320 40525.10 40446.20 261.20
2378 11.1357 41280.80 40437.20 264.25
2379 11.1396 40586.30 40428.10 260.33
2380 11.1433 41149.40 40419.10 262.01
2381 11.1470 40502.80 40409.90 260.68
2382 11.1508 41248.30 40401.00 262.75
2383 11.1545 40610.50 40391.80 261.62
2384 11.1583 41071.50 40382.60 261.90
2385 11.1621 40095.00 40373.70 260.01
2386 11.1658 41386.80 40364.40 263.74
2387 11.1695 40326.30 40355.50 259.77
2388 11.1734 40940.50 40346.30 262.59
2389 11.1770 40839.90 40337.30 262.08
2390 11.1809 40879.50 40328.10 262.11
2391 11.1847 40649.60 40318.80 260.13
2392 11.1883 41065.60 40309.80 264.21
2393 11.1922 40385.40 40300.60 260.42
2394 11.1959 41224.20 40291.60 263.63
2395 11.1996 40784.90 40282.40 260.92
2396 11.2035 41111.60 40273.10 263.20
2397 11.2072 40258.50 40264.10 260.22
2398 11.2109 40957.70 40254.80 262.05
2399 11.2147 40449.40 40245.80 259.92
2400 11.2184 41120.90 40236.60 262.76
2401 11.2221 40448.30 40227.50 260.71
2402 11.2260 40866.00 40218.20 261.72
2403 11.2297 40000.30 40209.00 259.70
2404 11.2334 41281.70 40199.90 265.41
2405 11.2373 40212.90 40190.60 258.49
2406 11.2409 40902.60 40181.60 262.83
2407 11.2448 39937.40 40172.30 258.91
2408 11.2485 40756.10 40163.20 262.36
2409 11.2522 40227.20 40153.90 260.37
2410 11.2561 40672.80 40144.60 261.89
2411 11.2598 39814.60 40135.50 258.23
2412 11.2635 40584.00 40126.20 261.54
2413 11.2673 40207.20 40117.10 258.84
2414 11.2711 40513.40 40107.80 261.39
2415 11.2747 40280.50 40098.70 259.00
2416 11.2786 40814.60 40089.30 261.38
2417 11.2823 40262.60 40080.00 259.55
2418 11.2860 40759.20 40070.90 261.98
2419 11.2899 40211.20 40061.50 259.15
2420 11.2935 40662.70 40052.40 260.43
2421 11.2973 40303.30 40043.10 259.90
2422 11.3011 40611.10 40033.90 261.16
2423 11.3048 40050.40 40024.60 258.20
2424 11.3087 40693.40 40015.20 262.59
2425 11.3124 39935.50 40006.00 258.50
2426 11.3161 40415.50 39996.70 259.95
2427 11.3198 39840.00 39987.50 257.96
2428 11.3237 40240.20 39978.10 259.47
2429 11.3273 40079.00 39969.00 258.76
2430 11.3312 40886.80 39959.50 260.23
2431 11.3350 40019.20 39950.10 258.16
2432 11.3386 39773.30 39941.00 257.60
2433 11.3425 39726.30 39931.60 257.49
2434 11.3462 40624.40 39922.40 261.30
2435 11.3499 39675.20 39913.00 256.69
2436 11.3537 40577.90 39903.80 261.13
2437 11.3574 40437.90 39894.30 259.39
2438 11.3612 40730.80 39884.90 261.94
2439 11.3650 40153.60 39875.70 259.09
2440 11.3687 40690.80 39866.20 259.85
2441 11.3724 40037.90 39857.00 258.81
2442 11.3763 40387.10 39847.60 260.17
2443 11.3799 39960.50 39838.40 258.55
2444 11.3837 40686.10 39828.90 261.10
2445 11.3876 40275.70 39819.40 261.58
2446 11.3912 40601.40 39810.20 257.69
2447 11.3951 40318.50 39800.70 260.42
2448 11.3988 40267.20 39791.50 259.56
2449 11.4025 40062.70 39782.00 260.12
2450 11.4062 40732.40 39772.70 262.45
2451 11.4101 39954.60 39763.20 259.82
2452 11.4138 40444.20 39753.70 260.28
2453 11.4176 40279.70 39744.50 260.96
2454 11.4213 40676.70 39735.00 261.80
2455 11.4250 39929.10 39725.70 258.25
2456 11.4289 40352.70 39716.20 259.80
2457 11.4326 39784.40 39706.90 256.93
2458 11.4363 40620.50 39697.40 262.48
2459 11.4402 39838.90 39687.80 257.55
2460 11.4438 40416.80 39678.60 259.78
2461 11.4476 39620.70 39669.00 256.49
2462 11.4514 40479.50 39659.70 260.90
2463 11.4551 39868.80 39650.20 258.19
2464 11.4588 40941.40 39640.90 263.63
2465 11.4627 39884.50 39631.30 259.60
2466 11.4664 40753.60 39621.80 262.47
2467 11.4701 39867.20 39612.40 259.36
2468 11.4740 40415.40 39602.90 259.85
2469 11.4776 39986.90 39593.50 258.91
2470 11.4815 41024.20 39648.40 263.63
2471 11.4852 40234.00 39640.90 260.02
2472 11.4889 40694.50 39633.30 256.26
2473 11.4927 40050.40 39626.00 260.23
2474 11.4965 40753.60 39618.50 260.40
2475 11.5002 40061.50 39611.20 259.37
2476 11.5040 40543.20 39604.10 262.67
2477 11.5077 40339.90 39597.00 261.67
2478 11.5114 40572.30 39590.20 262.75
2479 11.5153 40225.70 39583.30 268.49
2480 11.5190 40411.00 39701.80 258.59
2481 11.5227 40278.40 39698.80 258.60
2482 11.5266 40735.20 39696.20 261.12
2483 11.5302 40027.20 39694.00 256.54
2484 11.5340 40771.80 39692.10 261.82
2485 11.5378 39969.90 39690.60 256.11
2486 11.5415 40588.50 39689.50 261.02
2487 11.5452 40714.30 39688.90 259.94
2488 11.5491 40334.70 39688.70 257.48
2489 11.5528 40356.20 39689.00 259.10
2490 11.5566 41122.70 39689.80 264.01
2491 11.5604 40321.90 39691.20 257.72
2492 11.5640 41096.80 39693.20 261.19
2493 11.5679 40302.20 39695.90 259.67
2494 11.5716 40870.70 39699.30 262.26
2495 11.5753 40310.20 39703.60 259.64
2496 11.5791 40948.10 39708.60 260.50
2497 11.5829 40565.80 39714.60 260.01
2498 11.5866 40505.60 39721.70 260.37
2499 11.5904 40092.00 39729.60 257.59
2500 11.5941 41068.10 39739.00 261.30
2501 11.5978 40105.10 39749.40 257.80
2502 11.6017 40790.50 39761.50 261.66
2503 11.6053 40280.70 39774.90 259.76
2504 11.6091 40900.00 39790.40 259.72
2505 11.6129 40247.40 39807.30 257.76
2506 11.6166 40917.70 39826.80 260.99
2507 11.6205 39927.70 39848.70 256.36
2508 11.6242 40566.60 39872.50 258.66
2509 11.6279 39724.40 39900.00 255.43
2510 11.6316 40779.90 39929.90 260.05
2511 11.6355 40071.00 39964.40 257.29
2512 11.6391 40571.90 40002.00 259.46
2513 11.6430 40320.70 40045.30 259.04
2514 11.6468 41357.10 40094.00 261.83
2515 11.6504 40654.30 40147.40 258.75
2516 11.6543 40850.10 40209.40 261.02
2517 11.6580 40541.70 40277.60 258.93
2518 11.6617 41398.00 40357.00 262.11
2519 11.6655 40629.10 40445.20 259.58
2520 11.6692 41795.70 40548.70 263.37
2521 11.6729 41213.10 40664.40 262.00
2522 11.6768 42106.60 40801.70 265.66
2523 11.6805 41929.50 40961.40 264.73
2524 11.6842 42746.40 41143.40 267.33
2525 11.6881 42321.00 41363.60 265.99
2526 11.6917 43164.60 41618.80 268.12
2527 11.6955 42770.60 41933.80 267.65
2528 11.6993 44083.50 42306.60 272.96
2529 11.7030 43859.30 42779.20 271.70
2530 11.7067 46062.20 43357.00 280.08
2531 11.7106 46881.40 44125.10 283.97
2532 11.7143 49605.40 45197.60 292.76
2533 11.7181 52342.80 46903.60 304.51
2534 11.7219 58101.10 50513.50 323.28
2535 11.7255 66765.40 58759.10 352.79
2536 11.7294 85676.30 77823.40 415.87
2537 11.7331 113391.00 113199.00 498.25
2538 11.7368 162742.00 168270.00 637.49
2539 11.7406 213920.00 228443.00 768.97
2540 11.7444 250824.00 269236.00 858.17
2541 11.7481 237149.00 261525.00 828.58
2542 11.7519 198309.00 214335.00 726.61
2543 11.7556 154974.00 157473.00 614.98
2544 11.7593 135267.00 119864.00 561.93
2545 11.7632 134960.00 114793.00 562.20
2546 11.7669 167835.00 150896.00 650.65
2547 11.7706 233804.00 232683.00 815.88
2548 11.7744 353994.00 342239.00 1103.47
2549 11.7781 455126.00 443532.00 1326.21
2550 11.7819 482619.00 472383.00 1389.52
2551 11.7857 381865.00 408380.00 1167.57
2552 11.7894 247552.00 293955.00 850.37
2553 11.7931 149293.00 188988.00 601.98
2554 11.7970 99623.50 115228.00 457.37
2555 11.8006 73470.00 76615.30 375.54
2556 11.8045 61903.10 58811.40 335.17
2557 11.8082 54786.40 51632.90 311.85
2558 11.8119 52187.80 48268.30 302.27
2559 11.8156 48176.90 46397.90 287.60
2560 11.8195 47521.60 45070.60 285.04
2561 11.8232 45360.50 44071.00 276.78
2562 11.8270 45233.30 43307.70 277.48
2563 11.8308 43397.00 42679.40 269.59
2564 11.8344 44043.70 42180.90 273.59
2565 11.8383 42427.20 41757.60 265.83
2566 11.8420 42832.60 41412.70 267.71
2567 11.8457 41577.60 41112.70 262.91
2568 11.8495 42325.70 40863.00 266.16
2569 11.8532 41106.70 40641.60 261.42
2570 11.8569 41783.40 40454.00 264.12
2571 11.8608 40732.50 40284.90 260.26
2572 11.8645 41342.50 40136.00 261.83
2573 11.8682 40657.90 40007.00 260.55
2574 11.8721 41167.60 39888.60 262.29
2575 11.8757 40190.90 39784.80 259.05
2576 11.8795 40825.80 39688.50 260.33
2577 11.8833 40034.70 39603.40 258.78
2578 11.8870 40678.80 39523.60 259.74
2579 11.8907 40074.30 39452.30 256.99
2580 11.8946 40549.80 39385.10 259.96
2581 11.8983 39463.30 39322.90 255.80
2582 11.9021 40106.00 39266.90 255.56
2583 11.9059 39520.60 39213.30 256.90
2584 11.9095 40643.50 39164.70 259.99
2585 11.9134 39291.40 39117.80 253.82
2586 11.9171 40005.60 39075.10 257.34
2587 11.9208 39282.10 39033.70 255.46
2588 11.9246 40420.70 38995.60 259.20
2589 11.9284 40001.80 38958.60 257.79
2590 11.9320 40335.90 38924.50 259.29
2591 11.9359 39760.30 38891.10 256.67
2592 11.9396 40072.00 38859.30 258.80
2593 11.9433 39520.70 38829.70 255.77
2594 11.9472 39910.30 38800.60 257.83
2595 11.9508 39349.80 38773.50 255.02
2596 11.9546 40000.00 38746.60 257.20
2597 11.9584 39215.70 38721.50 254.50
2598 11.9621 40089.10 38696.60 257.29
2599 11.9658 38921.40 38673.30 253.71
2600 11.9697 39775.60 38650.00 257.07
2601 11.9733 39322.80 38628.10 254.01
2602 11.9771 39167.80 38606.30 250.89
2603 11.9789 38937.70 38596.70 256.03
2604 11.9825 39582.80 38576.30 256.04
2605 11.9864 39069.40 38555.90 255.67
2606 11.9901 39706.20 38536.60 259.59
2607 11.9938 39400.70 38517.20 258.17
2608 11.9977 39485.30 38498.30 258.67
2609 12.0014 39021.40 38480.30 263.80
2610 12.0051 39321.60 38462.30 254.54
2611 12.0089 39459.40 38445.00 255.61
2612 12.0126 39183.20 38364.60 255.23
2613 12.0163 39169.60 38349.70 253.41
2614 12.0202 39357.90 38334.60 256.47
2615 12.0239 38940.60 38320.20 252.31
2616 12.0276 39758.60 38305.60 257.99
2617 12.0315 39256.70 38291.20 254.45
2618 12.0351 39684.40 38277.30 255.18
2619 12.0389 39328.90 38263.30 255.29
2620 12.0427 39675.00 38249.70 258.52
2621 12.0464 39356.80 38236.00 254.17
2622 12.0501 39652.00 38103.90 255.77
2623 12.0540 39434.00 38093.70 256.48
2624 12.0577 39748.00 38083.50 258.08
2625 12.0615 39049.20 38073.60 254.89
2626 12.0653 39638.30 38063.40 255.61
2627 12.0689 39185.00 38053.50 254.81
2628 12.0728 39119.80 38043.30 255.13
2629 12.0765 39195.70 38033.30 254.30
2630 12.0802 39651.50 38023.10 255.99
2631 12.0840 38949.20 38013.20 253.48
2632 12.0878 39296.80 38003.00 256.00
2633 12.0915 38816.60 37992.80 254.19
2634 12.0953 39410.60 37982.80 254.13
2635 12.0990 38751.10 37972.60 252.10
2636 12.1027 38975.70 37962.70 253.58
2637 12.1066 38622.80 37952.40 251.45
2638 12.1103 39034.80 37942.50 252.89
2639 12.1140 38562.20 37932.20 251.08
2640 12.1178 38841.80 37922.30 252.66
2641 12.1215 38786.40 37912.00 252.46
2642 12.1253 38887.80 37901.80 253.06
2643 12.1291 38992.50 37891.80 254.03
2644 12.1328 38851.00 37881.60 252.24
2645 12.1365 38799.70 37871.60 251.71
2646 12.1404 39039.30 37861.30 254.12
2647 12.1440 38485.80 37851.30 251.06
2648 12.1479 38918.40 37841.10 252.62
2649 12.1517 38058.50 37830.80 249.65
2650 12.1553 38955.50 37820.80 252.50
2651 12.1592 38824.60 37810.50 252.84
2652 12.1629 39044.20 37800.50 253.89
2653 12.1666 38699.10 37790.30 252.29
2654 12.1704 39278.00 37780.20 254.06
2655 12.1742 38606.80 37770.00 251.68
2656 12.1778 39352.30 37759.90 253.57
2657 12.1817 38266.80 37749.70 250.25
2658 12.1854 39416.30 37739.40 255.08
2659 12.1891 38647.60 37729.30 251.65
2660 12.1930 39141.00 37719.00 253.64
2661 12.1966 38379.60 37709.00 251.34
2662 12.2004 39047.60 37698.70 252.84
2663 12.2042 38675.80 37688.60 252.85
2664 12.2079 38935.40 37678.30 252.46
2665 12.2088 38326.90 37675.90 249.64
2666 12.2126 39236.30 37665.80 252.07
2667 12.2163 38940.70 37655.50 253.03
2668 12.2200 39410.30 37645.50 256.07
2669 12.2239 38599.40 37635.10 252.07
2670 12.2275 39313.80 37625.10 255.46
2671 12.2313 38660.00 37614.70 252.32
2672 12.2351 38794.30 37604.70 253.39
2673 12.2388 38530.10 37594.30 251.37
2674 12.2425 38921.70 37584.30 252.52
2675 12.2464 38004.30 37573.90 250.57
2676 12.2501 39043.10 37563.60 253.37
2677 12.2538 38216.20 37553.50 249.91
2678 12.2577 39023.80 37543.10 254.90
2679 12.2613 38197.00 37533.00 248.89
2680 12.2652 39163.60 37522.70 254.99
2681 12.2689 38085.20 37512.60 250.65
2682 12.2726 38919.50 37502.20 253.61
2683 12.2764 38264.20 37492.10 250.40
2684 12.2802 38837.20 37481.70 248.49
2685 12.2839 38036.80 37471.40 250.65
2686 12.2877 38440.10 37461.20 251.86
2687 12.2914 38374.00 37450.90 251.87
2688 12.2951 38503.20 37440.80 252.08
2689 12.2990 37877.10 37430.40 248.47
2690 12.3027 39016.90 37420.20 253.24
2691 12.3064 37924.00 37409.80 249.59
2692 12.3102 38660.20 37399.70 251.76
2693 12.3139 38531.00 37389.30 251.35
2694 12.3176 38821.10 37379.20 253.05
2695 12.3215 38417.60 37368.80 252.95
2696 12.3252 38795.40 37358.40 253.28
2697 12.3289 37717.20 37348.20 249.71
2698 12.3328 38849.50 37337.80 251.41
2699 12.3364 38089.90 37327.60 249.93
2700 12.3403 38582.30 37317.20 252.70
2701 12.3440 38600.50 37307.10 252.66
2702 12.3477 38895.60 37296.60 253.25
2703 12.3514 37827.60 37286.50 248.34
2704 12.3553 38809.10 37276.00 253.49
2705 12.3590 38287.60 37265.60 251.26
2706 12.3628 38874.20 37255.40 249.64
2707 12.3666 38388.70 37245.00 251.39
2708 12.3702 38674.20 37234.80 252.33
2709 12.3741 38244.20 37224.40 251.06
2710 12.3778 38386.20 37214.20 251.88
2711 12.3815 37923.70 37203.70 249.21
2712 12.3853 38409.30 37193.50 250.11
2713 12.3890 38275.80 37183.10 251.61
2714 12.3928 38479.90 37172.60 251.52
2715 12.3966 38025.60 37162.40 250.88
2716 12.4003 38430.60 37152.00 251.80
2717 12.4040 38560.50 37141.80 251.93
2718 12.4079 38404.20 37131.30 250.67
2719 12.4115 38154.10 37121.10 250.86
2720 12.4153 38483.90 37110.60 251.48
2721 12.4191 37963.90 37100.40 249.92
2722 12.4228 38825.80 37089.90 253.59
2723 12.4267 38014.20 37079.40 249.94
2724 12.4304 38569.10 37069.20 252.42
2725 12.4341 37718.90 37058.70 249.10
2726 12.4378 38679.70 37048.50 251.75
2727 12.4417 37957.30 37038.00 248.28
2728 12.4453 38633.90 37027.70 252.60
2729 12.4492 38342.60 37017.20 252.01
2730 12.4529 38691.30 37007.00 253.40
2731 12.4566 37925.70 36996.50 249.49
2732 12.4605 38676.10 36985.90 253.68
2733 12.4642 37697.60 36975.70 249.43
2734 12.4679 38612.10 36965.20 253.55
2735 12.4717 37996.90 36954.90 249.47
2736 12.4754 38754.80 36944.40 252.41
2737 12.4791 37726.50 36934.20 249.60
2738 12.4830 39202.80 36923.60 255.78
2739 12.4867 38574.20 36913.40 252.95
2740 12.4904 38231.20 36902.80 251.05
2741 12.4943 37825.10 36892.30 250.66
2742 12.4979 38742.70 36882.00 254.35
2743 12.5017 37587.00 36871.50 248.41
2744 12.5055 38372.10 36861.20 252.56
2745 12.5092 37886.70 36850.60 249.39
2746 12.5129 38462.30 36840.40 251.76
2747 12.5168 37578.00 36829.80 249.18
2748 12.5204 38602.10 36819.50 252.04
2749 12.5243 37918.60 36809.00 250.88
2750 12.5281 38411.40 36798.40 251.53
2751 12.5317 37589.20 36788.10 249.47
2752 12.5356 38411.00 36777.50 252.50
2753 12.5393 37936.70 36767.20 250.48
2754 12.5430 38236.90 36756.70 251.80
2755 12.5468 37621.70 36746.40 249.61
2756 12.5506 38274.40 36735.80 251.74
2757 12.5543 38223.70 36725.20 251.94
2758 12.5581 38355.90 36714.90 251.55
2759 12.5618 37517.00 36704.30 248.76
2760 12.5655 38330.40 36694.00 251.63
2761 12.5694 37477.60 36683.40 248.24
2762 12.5730 38505.60 36673.10 253.44
2763 12.5768 37628.40 36662.50 248.74
2764 12.5806 38113.80 36652.10 250.10
2765 12.5843 37608.70 36641.50 248.88
2766 12.5882 38580.40 36630.90 253.07
2767 12.5919 37676.80 36620.60 248.84
2768 12.5956 38157.30 36610.00 251.12
2769 12.5993 37832.60 36599.60 250.57
2770 12.6032 38199.00 36589.00 250.70
2771 12.6068 37625.20 36578.70 248.68
2772 12.6107 38433.20 36568.10 252.64
2773 12.6145 37437.80 36557.40 247.68
2774 12.6181 38324.50 36547.10 252.76
2775 12.6220 37355.80 36536.50 248.01
2776 12.6257 38460.70 36526.10 252.99
2777 12.6294 37322.50 36515.50 247.26
2778 12.6332 38060.20 36505.10 250.29
2779 12.6369 37574.20 36494.50 248.96
2780 12.6407 38043.30 36483.80 250.61
2781 12.6445 37603.00 36473.50 249.60
2782 12.6482 37829.80 36462.80 248.66
2783 12.6519 37121.80 36452.40 245.63
2784 12.6558 38346.30 36441.80 251.11
2785 12.6594 37374.90 36431.40 246.13
2786 12.6632 38140.50 36420.80 250.19
2787 12.6671 37413.10 36410.10 247.90
2788 12.6707 37898.10 36399.70 250.76
2789 12.6746 36908.30 36389.10 242.90
2790 12.6783 37577.60 36378.70 245.90
2791 12.6820 37821.10 36368.00 253.95
2792 12.6858 37949.70 36357.60 251.41
2793 12.6896 37645.10 36346.90 247.65
2794 12.6932 38055.70 36336.50 250.24
2795 12.6971 37229.00 36325.90 247.88
2796 12.7008 37976.50 36315.20 249.81
2797 12.7045 36956.60 36304.80 247.05
2798 12.7084 38170.90 36294.10 251.65
2799 12.7121 37214.50 36283.70 245.72
2800 12.7158 38032.10 36273.00 252.60
2801 12.7196 37200.50 36262.60 243.88
2802 12.7233 38078.50 36251.90 250.55
2803 12.7271 37123.80 36241.20 247.07
2804 12.7309 38086.70 36230.80 252.38
2805 12.7346 37295.60 36220.10 247.98
2806 12.7383 37789.70 36209.60 247.75
2807 12.7422 36905.00 36198.90 247.01
2808 12.7458 38060.20 36188.50 250.61
2809 12.7497 37110.10 36177.80 247.06
2810 12.7535 37656.70 36167.10 249.46
2811 12.7571 37206.90 36156.70 246.39
2812 12.7610 37443.10 36145.90 248.82
2813 12.7647 36994.40 36135.50 246.39
2814 12.7684 37641.90 36124.80 246.42
2815 12.7722 37488.70 36114.30 248.05
2816 12.7760 37547.90 36103.60 248.83
2817 12.7797 37124.10 36092.90 244.52
2818 12.7835 37714.40 36082.40 248.86
2819 12.7872 36997.50 36071.70 242.57
2820 12.7909 37699.00 36061.20 248.96
2821 12.7948 36802.80 36050.50 246.46
2822 12.7985 37533.00 36040.10 248.41
2823 12.8022 37126.80 36029.30 246.43
2824 12.8061 37878.70 36018.60 249.75
2825 12.8097 36972.30 36008.10 245.27
2826 12.8135 37921.40 35997.30 250.44
2827 12.8173 37317.70 35986.90 248.14
2828 12.8210 37978.70 35976.10 250.37
2829 12.8247 37234.20 35965.70 247.62
2830 12.8286 38290.40 35954.90 252.76
2831 12.8323 37620.20 35944.10 250.18
2832 12.8361 38129.30 35933.70 250.90
2833 12.8399 37419.40 35922.90 246.75
2834 12.8435 38577.90 35912.40 253.73
2835 12.8474 37717.80 35901.60 249.89
2836 12.8511 38017.20 35890.90 251.06
2837 12.8548 37600.70 35880.40 248.35
2838 12.8587 37774.90 35869.60 249.92
2839 12.8624 37466.70 35859.10 248.26
2840 12.8661 37676.10 35848.30 249.63
2841 12.8699 37326.50 35837.90 247.80
2842 12.8736 37651.60 35827.10 249.12
2843 12.8774 37297.00 35816.30 248.36
2844 12.8812 37609.80 35805.80 248.90
2845 12.8849 37028.40 35795.00 247.15
2846 12.8886 37316.50 35784.50 248.24
2847 12.8925 37022.90 35773.70 246.67
2848 12.8961 38001.70 35763.20 250.95
2849 12.9000 36750.60 35752.40 244.81
2850 12.9038 37398.70 35741.60 247.66
2851 12.9074 36631.00 35731.10 245.85
2852 12.9113 37387.00 35720.30 249.09
2853 12.9150 36885.50 35709.80 245.82
2854 12.9187 37015.00 35699.00 245.81
2855 12.9225 36660.10 35688.40 246.26
2856 12.9263 37112.70 35677.60 246.84
2857 12.9300 36553.50 35666.80 244.60
2858 12.9338 37670.90 35656.30 249.17
2859 12.9375 36792.00 35645.50 246.21
2860 12.9412 37082.50 35634.90 247.82
2861 12.9451 36895.00 35624.10 247.21
2862 12.9488 37269.80 35613.30 248.18
2863 12.9525 36459.00 35602.80 244.43
2864 12.9564 37463.10 35591.90 249.15
2865 12.9600 36356.80 35581.40 244.96
2866 12.9639 37612.90 35570.60 248.42
2867 12.9676 36825.30 35560.00 245.41
2868 12.9713 37478.20 35549.20 248.12
2869 12.9752 36481.10 35538.40 243.55
2870 12.9789 37206.80 35527.80 247.65
2871 12.9826 36840.10 35517.00 245.98
2872 12.9864 36954.90 35506.40 245.30
2873 12.9902 36847.20 35495.60 245.30
2874 12.9938 37115.20 35485.00 245.95
2875 12.9977 36750.10 35474.20 243.45
2876 13.0014 37217.60 35463.30 242.59
2877 13.0051 36288.10 35452.80 243.84
2878 13.0090 37902.10 35441.90 254.44
2879 13.0126 37282.10 35431.40 254.60
2880 13.0164 37808.10 35420.50 252.13
2881 13.0203 36880.40 35409.70 248.29
2882 13.0239 37581.90 35399.10 249.91
2883 13.0278 36722.90 35388.20 243.46
2884 13.0315 36925.30 35377.60 242.50
2885 13.0352 36400.00 35366.80 243.01
2886 13.0389 37403.10 35356.20 247.87
2887 13.0428 36907.70 35345.30 244.90
2888 13.0465 37471.10 35334.50 248.47
2889 13.0503 36889.90 35323.90 246.48
2890 13.0541 37744.40 35313.00 249.33
2891 13.0577 36495.30 35302.40 244.80
2892 13.0616 37399.10 35291.60 248.30
2893 13.0653 36798.20 35280.70 246.22
2894 13.0690 37353.30 35270.10 249.27
2895 13.0729 36687.70 35259.20 246.66
2896 13.0765 37549.80 35248.60 249.70
2897 13.0803 36808.70 35237.70 244.70
2898 13.0841 37274.60 35227.10 247.94
2899 13.0878 36677.70 35216.30 246.63
2900 13.0917 37123.70 35205.40 247.89
2901 13.0954 36627.70 35194.80 245.68
2902 13.0991 37122.10 35183.90 246.83
2903 13.1028 36824.20 35173.30 245.59
2904 13.1067 36661.10 35162.40 246.38
2905 13.1104 36727.40 35151.50 246.26
2906 13.1142 36823.40 35140.90 246.69
2907 13.1180 36404.70 35130.00 243.97
2908 13.1216 36671.70 35119.40 245.17
2909 13.1255 36351.40 35108.50 242.85
2910 13.1292 36687.90 35097.90 245.61
2911 13.1329 36029.60 35087.00 242.16
2912 13.1368 36658.30 35076.10 245.41
2913 13.1404 35993.70 35065.40 241.55
2914 13.1442 37173.60 35054.50 245.79
2915 13.1480 35997.10 35043.90 247.23
2916 13.1517 36996.50 35033.00 245.80
2917 13.1556 36319.50 35022.10 241.45
2918 13.1593 36631.30 35011.50 241.93
2919 13.1630 36485.80 35000.50 242.98
2920 13.1667 37025.50 34989.90 245.46
2921 13.1706 36226.20 34979.00 241.49
2922 13.1743 37115.70 34968.10 245.57
2923 13.1781 36510.90 34957.40 242.94
2924 13.1819 36893.50 34946.50 244.31
2925 13.1855 36056.50 34935.90 239.45
2926 13.1894 36804.00 34925.00 243.40
2927 13.1931 36594.80 34914.30 242.79
2928 13.1968 36489.70 34903.40 241.38
2929 13.2007 35842.40 34892.50 238.28
2930 13.2044 37030.80 34881.80 244.96
2931 13.2081 36236.00 34870.90 240.94
2932 13.2119 36908.50 34860.20 243.71
2933 13.2156 36232.30 34849.30 241.91
2934 13.2194 36544.00 34838.40 242.29
2935 13.2232 36036.70 34827.70 240.97
2936 13.2269 36600.10 34816.80 241.72
2937 13.2306 36145.90 34806.10 239.72
2938 13.2345 36651.00 34795.20 243.44
2939 13.2382 36123.90 34784.20 241.61
2940 13.2420 36842.00 34773.60 245.00
2941 13.2458 35996.50 34762.60 240.40
2942 13.2494 36746.10 34752.00 244.46
2943 13.2533 36397.90 34741.00 243.27
2944 13.2570 36336.00 34730.40 241.87
2945 13.2607 36191.70 34719.40 240.24
2946 13.2646 36048.10 34708.50 240.17
2947 13.2683 35802.40 34697.80 240.49
2948 13.2720 36412.00 34686.90 242.57
2949 13.2758 35699.60 34676.20 239.80
2950 13.2795 36369.60 34665.20 242.02
2951 13.2833 35954.60 34654.30 239.45
2952 13.2871 36296.30 34643.60 242.87
2953 13.2908 35392.50 34632.60 238.18
2954 13.2945 36603.80 34622.00 242.34
2955 13.2984 35516.30 34611.00 238.74
2956 13.3021 36203.70 34600.00 240.23
2957 13.3059 35790.20 34589.40 240.26
2958 13.3097 36052.80 34578.40 240.02
2959 13.3133 35787.00 34567.70 240.48
2960 13.3172 36527.30 34556.80 242.55
2961 13.3209 35733.40 34545.80 239.03
2962 13.3246 36086.60 34535.10 241.13
2963 13.3285 35180.10 34524.10 237.95
2964 13.3322 36166.60 34513.40 240.97
2965 13.3359 35619.20 34502.50 241.21
2966 13.3397 36386.60 34491.80 242.33
2967 13.3434 35784.80 34480.80 239.90
2968 13.3472 35970.80 34469.80 240.84
2969 13.3510 35359.00 34459.10 236.96
2970 13.3547 35913.30 34448.20 239.64
2971 13.3584 35628.60 34437.50 238.78
2972 13.3623 35892.60 34426.50 238.58
2973 13.3660 35450.60 34415.50 239.74
2974 13.3698 36076.90 34404.80 240.41
2975 13.3736 35571.50 34393.80 238.97
2976 13.3772 36018.50 34383.10 241.91
2977 13.3811 35404.40 34372.10 238.17
2978 13.3848 35883.20 34361.20 238.96
2979 13.3885 35585.40 34350.50 239.28
2980 13.3924 35930.40 34339.50 241.13
2981 13.3961 35491.50 34328.80 239.99
2982 13.3998 36270.70 34317.80 243.30
2983 13.4037 35415.80 34306.80 240.10
2984 13.4073 36212.40 34296.10 242.69
2985 13.4111 35217.00 34285.10 238.44
2986 13.4149 36387.10 34274.40 242.60
2987 13.4186 35581.80 34263.40 239.90
2988 13.4225 35998.90 34252.40 242.07
2989 13.4262 35710.90 34241.70 239.36
2990 13.4299 36199.10 34230.70 243.04
2991 13.4337 35717.50 34220.00 239.52
2992 13.4375 36050.00 34209.00 242.01
2993 13.4411 35641.00 34198.20 240.03
2994 13.4450 35872.30 34187.20 240.28
2995 13.4487 35313.20 34176.20 238.83
2996 13.4524 36126.40 34165.50 242.03
2997 13.4563 35480.70 34154.50 238.39
2998 13.4600 35802.20 34143.80 240.48
2999 13.4637 35610.80 34132.80 240.39
3000 13.4676 36126.70 34121.80 241.88
3001 13.4712 35207.40 34111.10 237.95
3002 13.4750 35917.60 34100.10 241.20
3003 13.4788 35419.80 34089.30 238.97
3004 13.4825 36006.20 34078.30 242.33
3005 13.4864 35700.50 34067.30 240.92
3006 13.4901 35620.60 34056.60 240.39
3007 13.4938 35221.90 34045.60 238.65
3008 13.4976 35979.60 34034.90 240.41
3009 13.5014 35046.20 34023.80 237.61
3010 13.5051 35606.40 34012.80 240.18
3011 13.5089 35528.50 34002.10 239.21
3012 13.5126 36115.90 33991.10 241.29
3013 13.5163 35016.00 33980.30 238.88
3014 13.5202 35772.20 33969.30 240.12
3015 13.5239 35144.60 33958.30 237.62
3016 13.5276 35668.40 33947.60 241.04
3017 13.5315 34707.40 33936.60 235.94
3018 13.5351 36055.30 33925.80 243.67
3019 13.5389 35030.00 33914.80 236.94
3020 13.5428 35883.30 33903.80 241.36
3021 13.5464 35259.90 33893.00 238.75
3022 13.5503 35567.70 33882.00 238.50
3023 13.5540 34977.60 33871.30 236.18
3024 13.5577 35544.90 33860.30 240.00
3025 13.5616 34915.40 33849.20 238.21
3026 13.5653 35617.90 33838.50 240.33
3027 13.5690 35507.70 33827.50 240.52
3028 13.5728 35632.30 33816.70 239.90
3029 13.5765 35204.60 33805.70 237.79
3030 13.5803 35337.60 33794.70 239.71
3031 13.5841 34819.60 33783.90 238.05
3032 13.5878 35281.20 33772.90 238.30
3033 13.5915 34888.50 33762.20 237.69
3034 13.5954 35496.40 33751.10 239.97
3035 13.5991 34841.40 33740.10 237.83
3036 13.6028 35641.10 33729.30 240.75
3037 13.6067 35075.00 33718.30 238.45
3038 13.6103 35700.00 33707.60 240.03
3039 13.6142 34503.20 33696.50 235.63
3040 13.6180 35302.80 33685.50 239.08
3041 13.6216 34731.80 33674.70 237.08
3042 13.6255 35470.50 33663.70 240.54
3043 13.6292 34698.80 33653.00 236.99
3044 13.6329 35309.50 33641.90 239.54
3045 13.6368 34350.40 33630.90 236.13
3046 13.6404 35197.40 33620.10 238.78
3047 13.6442 34636.50 33609.10 235.43
3048 13.6480 35107.10 33598.30 238.16
3049 13.6517 34547.00 33587.30 236.25
3050 13.6556 35178.10 33576.30 238.29
3051 13.6593 34504.80 33565.50 236.11
3052 13.6630 34769.00 33554.50 237.64
3053 13.6667 34821.60 33543.70 236.90
3054 13.6706 35052.60 33532.70 238.30
3055 13.6743 34509.80 33521.60 235.93
3056 13.6781 35045.90 33510.90 238.31
3057 13.6819 34515.50 33499.80 235.92
3058 13.6855 34636.70 33489.10 234.74
3059 13.6894 34260.70 33478.00 234.31
3060 13.6931 34844.20 33467.00 237.63
3061 13.6968 34393.20 33456.20 233.10
3062 13.7007 34849.90 33445.20 237.88
3063 13.7044 34438.50 33434.40 234.63
3064 13.7081 34722.30 33423.40 236.04
3065 13.7120 34415.40 33412.30 235.96
3066 13.7156 34541.30 33401.60 234.80
3067 13.7194 34256.10 33390.50 235.74
3068 13.7232 34975.50 33379.80 239.44
3069 13.7269 34176.10 33368.70 234.59
3070 13.7308 34383.00 33357.70 235.60
3071 13.7345 34751.10 33346.90 237.49
3072 13.7382 34822.10 33335.90 236.62
3073 13.7420 34467.80 33325.10 235.16
3074 13.7458 34800.50 33314.10 236.03
3075 13.7495 34241.40 33303.00 234.28
3076 13.7533 34654.30 33292.20 236.92
3077 13.7570 34060.40 33281.20 231.74
3078 13.7607 34623.30 33270.40 234.66
3079 13.7646 34422.90 33259.40 236.03
3080 13.7683 34811.80 33248.30 238.09
3081 13.7720 34019.50 33237.60 233.55
3082 13.7759 34699.10 33226.50 234.22
3083 13.7795 34085.80 33215.80 234.13
3084 13.7833 34754.10 33204.70 237.44
3085 13.7872 33862.50 33193.60 232.77
3086 13.7908 34509.60 33182.90 234.69
3087 13.7947 33819.20 33171.80 234.44
3088 13.7984 34311.10 33161.10 236.09
3089 13.8021 34077.60 33150.00 233.81
3090 13.8060 34432.80 33139.00 236.54
3091 13.8097 34024.10 33128.20 233.62
3092 13.8134 34669.60 33117.10 236.77
3093 13.8172 34053.00 33106.40 233.75
3094 13.8209 34290.40 33095.30 235.12
3095 13.8247 33696.90 33084.30 232.68
3096 13.8285 33775.50 33073.50 231.74
3097 13.8322 33494.10 33062.40 232.50
3098 13.8359 34759.30 33051.70 237.52
3099 13.8398 33731.60 33040.60 232.27
3100 13.8435 34314.40 33029.60 234.33
3101 13.8472 34194.20 33018.80 234.56
3102 13.8511 33952.00 33007.80 233.77
3103 13.8547 33733.70 32997.00 234.20
3104 13.8586 34109.20 32985.90 232.70
3105 13.8624 33929.90 32974.90 234.12
3106 13.8660 34523.60 32964.10 236.25
3107 13.8699 33703.80 32953.10 232.94
3108 13.8736 34095.20 32942.30 235.00
3109 13.8773 33580.30 32931.20 231.86
3110 13.8812 34099.10 32920.20 233.93
3111 13.8848 33686.10 32909.40 232.76
3112 13.8886 34425.50 32898.40 235.53
3113 13.8925 33514.30 32887.30 232.81
3114 13.8961 34008.50 32876.50 234.55
3115 13.9000 33616.70 32865.50 233.29
3116 13.9037 34373.90 32854.70 235.97
3117 13.9074 33694.50 32843.70 232.74
3118 13.9113 34063.30 32832.60 234.98
3119 13.9150 33566.80 32821.80 232.57
3120 13.9187 34007.70 32810.80 234.96
3121 13.9225 33448.90 32800.00 232.67
3122 13.9263 33827.40 32789.00 234.94
3123 13.9300 33573.40 32777.90 232.98
3124 13.9338 33638.10 32767.10 230.45
3125 13.9375 33670.90 32756.10 233.53
3126 13.9412 34148.80 32745.30 235.08
3127 13.9451 33373.80 32734.30 232.84
3128 13.9488 33770.60 32723.20 232.87
3129 13.9525 33820.20 32712.40 233.69
3130 13.9564 33799.40 32701.40 232.89
3131 13.9600 33117.00 32690.60 231.71
3132 13.9639 33790.80 32679.60 233.43
3133 13.9677 33652.30 32668.50 233.33
3134 13.9713 33952.80 32657.70 236.16
3135 13.9752 33408.00 32646.70 232.64
3136 13.9789 33772.80 32635.90 233.91
3137 13.9826 33468.10 32624.90 233.37
3138 13.9865 33657.40 32613.80 232.38
3139 13.9902 33438.30 32603.10 232.55
3140 13.9939 34013.00 32592.00 234.43
3141 13.9977 33311.30 32581.20 231.99
3142 14.0014 34109.70 32570.20 234.28
3143 14.0052 33456.30 32559.10 233.38
3144 14.0090 33524.30 32548.40 232.20
3145 14.0127 33424.10 32537.30 232.15
3146 14.0164 33986.00 32526.60 234.17
3147 14.0203 32917.80 32515.50 229.59
3148 14.0240 33869.90 32504.50 235.05
3149 14.0278 33157.20 32493.70 233.24
3150 14.0316 33642.00 32482.60 234.29
3151 14.0353 33123.20 32471.60 230.36
3152 14.0391 33869.70 32460.80 234.10
3153 14.0428 32886.00 32449.80 229.93
3154 14.0465 33812.80 32439.00 231.64
3155 14.0504 33227.80 32428.00 231.31
3156 14.0541 33707.50 32416.90 233.29
3157 14.0578 33520.90 32406.20 233.73
3158 14.0617 33663.00 32395.10 233.93
3159 14.0653 33059.30 32384.40 232.31
3160 14.0691 33351.10 32373.30 231.25
3161 14.0730 33019.40 32362.30 228.47
3162 14.0766 33647.30 32351.50 233.27
3163 14.0805 33202.40 32340.50 230.73
3164 14.0842 33478.70 32329.70 232.09
3165 14.0879 33092.30 32318.70 231.17
3166 14.0918 34046.10 32307.60 235.29
3167 14.0955 33188.90 32296.90 232.08
3168 14.0992 33908.40 32285.80 234.98
3169 14.1030 32773.20 32275.10 229.85
3170 14.1067 33683.20 32264.00 233.65
3171 14.1105 33052.80 32253.00 231.96
3172 14.1143 33367.20 32242.20 232.92
3173 14.1180 32971.70 32231.20 230.98
3174 14.1217 33397.40 32220.40 234.05
3175 14.1256 33006.20 32209.40 231.17
3176 14.1293 33519.00 32198.30 231.90
3177 14.1330 33049.00 32187.60 231.66
3178 14.1369 33542.00 32176.50 233.06
3179 14.1406 33139.50 32165.50 229.89
3180 14.1444 33657.90 32154.70 233.09
3181 14.1482 33138.90 32143.70 232.54
3182 14.1518 33010.50 32133.00 228.93
3183 14.1557 32861.10 32121.90 231.24
3184 14.1594 33135.60 32110.90 231.23
3185 14.1631 32658.40 32100.10 230.38
3186 14.1670 33099.50 32089.10 231.61
3187 14.1706 32635.80 32078.40 230.04
3188 14.1744 32913.00 32067.30 231.19
3189 14.1783 32811.20 32056.30 229.08
3190 14.1819 32859.80 32045.50 231.50
3191 14.1858 32484.60 32034.50 228.89
3192 14.1895 33410.60 32023.80 232.29
3193 14.1932 32559.90 32012.70 229.28
3194 14.1971 33088.80 32001.70 231.62
3195 14.2008 32982.80 31991.00 231.10
3196 14.2045 33139.70 31979.90 230.65
3197 14.2083 32960.90 31969.20 230.64
3198 14.2121 32999.20 31958.10 230.87
3199 14.2158 32421.30 31947.10 228.59
3200 14.2196 32985.40 31936.40 231.62
3201 14.2233 32360.60 31925.30 227.32
3202 14.2270 32895.80 31914.60 230.01
3203 14.2309 32294.80 31903.60 228.95
3204 14.2346 32995.30 31892.60 231.65
3205 14.2383 32661.80 31881.80 229.28
3206 14.2422 32996.10 31870.80 230.78
3207 14.2459 32426.90 31859.80 226.29
3208 14.2497 33028.80 31849.00 231.35
3209 14.2535 32297.40 31838.00 228.04
3210 14.2571 32636.80 31827.30 229.80
3211 14.2610 31981.10 31816.30 226.57
3212 14.2647 32666.20 31805.20 229.84
3213 14.2684 31927.90 31794.50 226.67
3214 14.2723 32825.80 31783.50 229.71
3215 14.2760 32088.50 31772.80 227.90
3216 14.2797 32461.60 31761.70 227.15
3217 14.2836 32038.70 31750.70 225.73
3218 14.2872 32599.40 31740.00 228.82
3219 14.2910 31631.40 31729.00 226.06
3220 14.2948 32640.20 31718.30 228.03
3221 14.2985 32163.10 31707.20 226.00
3222 14.3024 32464.10 31696.20 228.46
3223 14.3061 32175.00 31685.50 226.65
3224 14.3098 32586.00 31674.50 227.12
3225 14.3135 32017.20 31663.80 226.28
3226 14.3174 31972.90 31652.80 225.71
3227 14.3211 32078.90 31641.80 226.55
3228 14.3249 32244.40 31631.00 227.50
3229 14.3287 32001.30 31620.00 227.11
3230 14.3324 32395.20 31609.00 228.30
3231 14.3362 31852.70 31598.30 227.18
3232 14.3399 32195.30 31587.30 227.14
3233 14.3436 31864.50 31576.60 225.77
3234 14.3475 31920.00 31565.60 226.72
3235 14.3512 31423.80 31554.60 223.72
3236 14.3549 32199.80 31543.90 226.69
3237 14.3588 31822.50 31532.90 226.77
3238 14.3624 32233.20 31522.20 226.82
3239 14.3663 31838.00 31511.20 226.48
3240 14.3701 32391.50 31500.20 228.11
3241 14.3737 31818.00 31489.50 224.69
3242 14.3776 32215.80 31478.50 227.56
3243 14.3813 31263.30 31467.80 223.22
3244 14.3850 32058.70 31456.80 226.17
3245 14.3889 31818.80 31445.80 224.35
3246 14.3926 32199.40 31435.10 228.44
3247 14.3963 31869.20 31424.10 225.30
3248 14.4002 31838.70 31413.10 225.62
3249 14.4038 31586.60 31402.40 224.24
3250 14.4076 32060.60 31391.40 228.04
3251 14.4114 31691.40 31380.70 224.85
3252 14.4151 32394.60 31369.70 228.68
3253 14.4190 31902.50 31358.70 226.78
3254 14.4227 31929.70 31348.00 225.86
3255 14.4264 31519.20 31337.00 224.90
3256 14.4302 31682.80 31326.40 225.67
3257 14.4340 31807.50 31315.40 225.94
3258 14.4377 31640.50 31304.40 225.66
3259 14.4415 31394.40 31293.70 225.00
3260 14.4452 32112.50 31282.70 227.19
3261 14.4489 31760.30 31272.00 225.49
3262 14.4528 32175.20 31261.10 227.51
3263 14.4565 31489.90 31250.10 224.73
3264 14.4602 31744.70 31239.40 227.14
3265 14.4641 31638.20 31228.40 226.03
3266 14.4677 31677.90 31217.70 224.92
3267 14.4715 31247.20 31206.80 222.81
3268 14.4754 31843.80 31195.80 225.59
3269 14.4790 31249.30 31185.10 224.17
3270 14.4829 31822.80 31174.10 225.68
3271 14.4867 31110.70 31163.20 223.80
3272 14.4903 31679.30 31152.50 225.43
3273 14.4942 31480.50 31141.50 225.37
3274 14.4979 31862.80 31130.90 226.42
3275 14.5016 30858.30 31119.90 222.74
3276 14.5055 31796.20 31108.90 224.82
3277 14.5091 31532.30 31098.30 226.00
3278 14.5129 31630.60 31087.30 225.12
3279 14.5167 31472.10 31076.70 225.25
3280 14.5204 31811.70 31065.70 226.10
3281 14.5243 31052.60 31054.70 223.10
3282 14.5280 31592.80 31044.10 224.32
3283 14.5317 31621.60 31033.10 224.71
3284 14.5354 30994.50 31022.50 222.98
3285 14.5393 30947.50 31011.50 222.09
3286 14.5430 31666.40 31000.60 225.91
3287 14.5468 31340.40 30989.90 224.18
3288 14.5506 31890.70 30979.00 226.82
3289 14.5543 31109.90 30968.00 223.93
3290 14.5581 31446.50 30957.30 224.60
3291 14.5618 31277.60 30946.40 223.82
3292 14.5655 31839.70 30935.80 225.19
3293 14.5694 31220.60 30924.80 223.80
3294 14.5731 31476.90 30913.90 224.45
3295 14.5768 30834.50 30903.20 222.10
3296 14.5807 31007.10 30892.30 223.20
3297 14.5843 31117.80 30881.60 223.79
3298 14.5882 31458.50 30870.70 224.22
3299 14.5920 31107.00 30859.80 225.50
3300 14.5956 31380.50 30849.10 222.84
3301 14.5995 30685.30 30838.20 219.09
3302 14.6032 31319.70 30827.60 223.64
3303 14.6069 30740.20 30816.60 218.66
3304 14.6108 31658.50 30805.70 224.02
3305 14.6145 30981.60 30795.10 221.51
3306 14.6182 31033.80 30784.20 221.83
3307 14.6221 30956.70 30773.20 220.70
3308 14.6257 31386.20 30762.60 222.25
3309 14.6295 30591.70 30751.70 219.25
3310 14.6333 31334.70 30741.10 223.19
3311 14.6370 30708.80 30730.10 220.16
3312 14.6409 31652.80 30719.20 224.19
3313 14.6446 30924.60 30708.60 221.01
3314 14.6483 31117.10 30697.70 221.64
3315 14.6521 30854.80 30687.10 220.78
3316 14.6559 31284.50 30676.20 222.63
3317 14.6596 30812.20 30665.30 220.05
3318 14.6634 31312.40 30654.60 222.04
3319 14.6671 30725.50 30643.70 220.50
3320 14.6708 31266.30 30633.10 222.62
3321 14.6747 30452.40 30622.20 219.37
3322 14.6784 30737.30 30611.30 221.18
3323 14.6821 30752.10 30600.70 220.04
3324 14.6860 30657.60 30589.80 218.86
3325 14.6896 30581.00 30579.20 218.76
3326 14.6934 30806.00 30568.30 220.60
3327 14.6973 30657.80 30557.40 219.36
3328 14.7009 30732.30 30546.80 219.86
3329 14.7048 30702.90 30535.90 218.05
3330 14.7086 30575.50 30525.00 218.31
3331 14.7122 30559.80 30514.40 219.53
3332 14.7161 30870.40 30503.50 220.43
3333 14.7198 30389.10 30493.00 217.50
3334 14.7235 31037.90 30482.10 221.37
3335 14.7274 30257.70 30471.20 219.48
3336 14.7348 30617.70 30449.70 220.29
3337 14.7423 30422.80 30428.30 219.05
3338 14.7462 30891.00 30417.40 221.28
3339 14.7499 30086.40 30406.80 218.12
3340 14.7536 31067.20 30395.90 218.76
3341 14.7573 30252.40 30385.40 218.95
3342 14.7612 30609.80 30374.50 219.95
3343 14.7649 30005.30 30363.60 217.84
3344 14.7687 30480.60 30353.00 218.10
3345 14.7725 30378.00 30342.20 218.54
3346 14.7762 30280.80 30331.30 217.74
3347 14.7800 30157.30 30320.80 215.95
3348 14.7837 30770.70 30309.90 219.57
3349 14.7874 30034.80 30299.30 216.57
3350 14.7913 30803.50 30288.50 220.01
3351 14.7950 30173.10 30277.60 217.47
3352 14.7987 30452.30 30267.10 218.83
3353 14.8026 29875.30 30256.20 217.30
3354 14.8062 30642.50 30245.70 220.75
3355 14.8101 30279.80 30234.80 218.85
3356 14.8139 30715.60 30224.00 219.79
3357 14.8175 29917.30 30213.40 216.79
3358 14.8214 30603.10 30202.60 220.36
3359 14.8251 29898.20 30192.00 214.59
3360 14.8288 30515.30 30181.20 219.27
3361 14.8327 30701.10 30170.40 220.37
3362 14.8364 30739.10 30159.80 219.76
3363 14.8401 30305.20 30149.00 218.80
3364 14.8439 30377.30 30138.40 218.78
3365 14.8476 30152.20 30127.60 217.26
3366 14.8514 30566.10 30116.80 219.87
3367 14.8552 30288.00 30106.20 218.20
3368 14.8589 30551.90 30095.40 219.19
3369 14.8628 29869.20 30084.60 216.73
3370 14.8665 30588.00 30074.10 219.61
3371 14.8702 30268.00 30063.30 219.37
3372 14.8740 30437.70 30052.70 218.86
3373 14.8778 29772.10 30041.90 216.17
3374 14.8815 30214.90 30031.10 219.09
3375 14.8853 29788.10 30020.60 214.76
3376 14.8890 30308.80 30009.80 219.26
3377 14.8927 29625.60 29999.30 215.85
3378 14.8966 30328.30 29988.50 218.53
3379 14.9003 29506.60 29977.70 214.52
3380 14.9040 30145.80 29967.10 218.12
3381 14.9079 29528.90 29956.30 214.96
3382 14.9115 30393.20 29945.80 218.25
3383 14.9153 29945.20 29935.00 216.88
3384 14.9192 30159.70 29924.20 218.16
3385 14.9228 29655.30 29913.70 214.64
3386 14.9267 30215.60 29903.00 218.46
3387 14.9305 29701.80 29892.20 215.92
3388 14.9341 30007.40 29881.70 217.62
3389 14.9380 29841.40 29870.90 216.12
3390 14.9417 30113.30 29860.40 217.42
3391 14.9454 29793.00 29849.60 215.69
3392 14.9493 30278.70 29838.80 218.45
3393 14.9529 30043.70 29828.30 216.84
3394 14.9567 30344.00 29817.60 218.89
3395 14.9605 29754.20 29807.10 216.69
3396 14.9642 30461.90 29796.30 219.71
3397 14.9681 29988.50 29785.60 218.50
3398 14.9718 30432.70 29775.10 219.96
3399 14.9755 30174.90 29764.30 218.50
3400 14.9792 30869.20 29753.80 221.22
3401 14.9831 30150.10 29743.10 218.46
3402 14.9868 30890.20 29732.30 220.93
3403 14.9906 30798.10 29721.80 220.58
3404 14.9944 31391.00 29711.10 223.54
3405 14.9980 31349.30 29700.60 224.22
3406 15.0019 32204.90 29689.90 227.02
3407 15.0056 32112.40 29679.10 226.77
3408 15.0093 32919.60 29668.70 231.38
3409 15.0132 32856.50 29657.90 229.38
3410 15.0169 33249.80 29647.50 231.77
3411 15.0206 32722.60 29636.70 230.46
3412 15.0245 32149.90 29626.00 226.36
3413 15.0281 31719.20 29615.50 226.10
3414 15.0319 31604.70 29604.80 223.38
3415 15.0358 31256.60 29594.10 222.69
3416 15.0394 31505.70 29583.60 223.69
3417 15.0433 30387.00 29572.90 219.32
3418 15.0470 30819.40 29562.50 221.28
3419 15.0507 30051.80 29551.80 217.60
3420 15.0546 30219.30 29541.00 219.42
3421 15.0583 29761.80 29530.60 216.01
3422 15.0620 29905.70 29519.90 218.02
3423 15.0658 29601.90 29509.50 213.72
3424 15.0695 30148.80 29498.80 217.53
3425 15.0733 29995.60 29488.00 218.67
3426 15.0771 29905.30 29477.60 217.34
3427 15.0808 29724.30 29466.90 215.74
3428 15.0845 29830.60 29456.50 217.26
3429 15.0884 29704.60 29445.80 216.40
3430 15.0921 30045.70 29435.10 217.17
3431 15.0958 29064.60 29424.70 213.14
3432 15.0997 30049.50 29414.00 218.01
3433 15.1033 29421.70 29403.60 214.70
3434 15.1072 29850.00 29392.90 217.40
3435 15.1110 29517.40 29382.20 216.28
3436 15.1146 29525.70 29371.80 215.43
3437 15.1185 29222.20 29361.10 212.77
3438 15.1222 29812.10 29350.40 216.25
3439 15.1259 29376.60 29340.00 215.46
3440 15.1298 29606.50 29329.40 215.44
3441 15.1334 29464.60 29319.00 215.40
3442 15.1372 29288.00 29308.30 214.23
3443 15.1411 28994.40 29297.60 212.85
3444 15.1447 29676.50 29287.30 217.34
3445 15.1486 28793.90 29276.60 212.22
3446 15.1523 29397.30 29266.20 214.95
3447 15.1560 28776.30 29255.50 212.02
3448 15.1599 29321.90 29244.90 211.15
3449 15.1636 29045.50 29234.50 213.81
3450 15.1673 29385.90 29223.90 214.67
3451 15.1711 28797.80 29213.50 212.38
3452 15.1749 29396.80 29202.80 214.65
3453 15.1786 28784.50 29192.20 213.18
3454 15.1824 29453.20 29181.80 215.85
3455 15.1861 28910.50 29171.20 213.03
3456 15.1898 29426.40 29160.80 215.14
3457 15.1937 28690.00 29150.20 213.27
3458 15.1974 29382.70 29139.60 216.02
3459 15.2011 28667.90 29129.20 210.71
3460 15.2050 29153.60 29118.60 213.45
3461 15.2086 28580.60 29108.20 210.95
3462 15.2125 29289.30 29097.60 214.55
3463 15.2163 28840.10 29087.00 213.33
3464 15.2199 28640.90 29076.70 212.07
3465 15.2238 28674.10 29066.00 211.36
3466 15.2275 29081.00 29055.70 212.32
3467 15.2312 28772.30 29045.10 212.48
3468 15.2351 29021.10 29034.50 213.86
3469 15.2388 28763.90 29024.20 211.95
3470 15.2425 29203.10 29013.50 215.17
3471 15.2464 28683.90 29002.90 212.35
3472 15.2500 28857.70 28992.60 212.47
3473 15.2538 28397.60 28982.00 211.01
3474 15.2576 28507.60 28971.70 210.24
3475 15.2613 28535.90 28961.10 210.93
3476 15.2652 28846.90 28950.50 212.84
3477 15.2689 28405.40 28940.20 209.46
3478 15.2726 28772.20 28929.60 212.11
3479 15.2764 28186.00 28919.30 210.31
3480 15.2802 28982.20 28908.70 212.65
3481 15.2839 28344.60 28898.20 210.38
3482 15.2877 28845.20 28887.90 212.61
3483 15.2914 28306.00 28877.30 210.38
3484 15.2951 28646.60 28867.00 210.94
3485 15.2990 28267.20 28856.40 210.25
3486 15.3027 28696.20 28845.90 210.69
3487 15.3064 28426.00 28835.60 210.99
3488 15.3103 28486.70 28825.00 209.74
3489 15.3139 28505.40 28814.70 211.52
3490 15.3177 28872.90 28804.20 212.17
3491 15.3216 28596.60 28793.60 212.25
3492 15.3252 28736.80 28783.40 212.00
3493 15.3291 28123.60 28772.80 209.96
3494 15.3328 28605.70 28762.60 211.52
3495 15.3365 28142.20 28752.00 207.76
3496 15.3404 28707.00 28741.50 212.32
3497 15.3441 28428.50 28731.20 208.64
3498 15.3478 28666.00 28720.70 212.07
3499 15.3516 28446.30 28710.40 210.01
3500 15.3553 28391.10 28699.90 210.78
3501 15.3591 28048.00 28689.40 210.26
3502 15.3629 28523.20 28679.10 210.55
3503 15.3666 28168.20 28668.60 209.22
3504 15.3703 28540.70 28658.40 212.11
3505 15.3742 28346.80 28647.80 210.48
3506 15.3779 28305.30 28637.30 211.55
3507 15.3816 28388.40 28627.10 211.16
3508 15.3855 28628.20 28616.60 212.48
3509 15.3891 28296.60 28606.40 210.01
3510 15.3930 28945.40 28595.80 213.08
3511 15.3968 28325.70 28585.40 210.88
3512 15.4004 28512.10 28575.10 211.34
3513 15.4043 28163.10 28564.60 207.65
3514 15.4080 28764.10 28554.40 212.76
3515 15.4117 28422.40 28543.90 210.29
3516 15.4156 28738.10 28533.40 213.08
3517 15.4192 28136.30 28523.20 209.48
3518 15.4230 28707.80 28512.80 212.82
3519 15.4268 27934.90 28502.60 208.97
3520 15.4305 28656.70 28492.10 212.69
3521 15.4344 28227.30 28481.60 208.92
3522 15.4381 28586.40 28471.40 212.32
3523 15.4418 28139.10 28460.90 209.65
3524 15.4455 28286.10 28450.70 211.50
3525 15.4494 28080.60 28440.30 209.35
3526 15.4531 28620.10 28429.80 212.89
3527 15.4569 28328.90 28419.60 211.17
3528 15.4607 28204.30 28409.20 211.17
3529 15.4643 28287.90 28399.00 209.13
3530 15.4682 28460.40 28388.60 212.04
3531 15.4719 27848.60 28378.10 207.66
3532 15.4756 28383.00 28367.90 211.30
3533 15.4795 27550.30 28357.50 207.69
3534 15.4832 28201.40 28347.10 210.85
3535 15.4869 27901.70 28336.90 209.34
3536 15.4908 28311.30 28326.50 210.93
3537 15.4944 28085.20 28316.30 209.09
3538 15.4983 28453.50 28305.90 210.58
3539 15.5021 27903.80 28295.50 208.23
3540 15.5057 28119.60 28285.30 209.30
3541 15.5096 27597.70 28274.90 205.04
3542 15.5133 28406.60 28264.80 211.77
3543 15.5170 28053.20 28254.40 210.35
3544 15.5209 28265.50 28243.90 210.77
3545 15.5246 27861.20 28233.80 208.93
3546 15.5283 28108.10 28223.40 209.21
3547 15.5321 27594.50 28213.30 208.46
3548 15.5358 28144.50 28202.90 210.66
3549 15.5396 27698.90 28192.50 208.96
3550 15.5434 28296.20 28182.40 210.27
3551 15.5471 27550.70 28172.00 208.14
3552 15.5508 28240.80 28161.90 210.70
3553 15.5547 27691.40 28151.50 208.98
3554 15.5584 28060.20 28141.10 207.10
3555 15.5622 27807.00 28131.00 206.82
3556 15.5660 28265.80 28120.60 207.93
3557 15.5696 27885.80 28110.50 207.29
3558 15.5735 28316.40 28100.20 209.37
3559 15.5772 27847.30 28089.80 206.82
3560 15.5809 28165.80 28079.70 208.11
3561 15.5848 27940.90 28069.30 207.06
3562 15.5885 28327.90 28059.30 209.26
3563 15.5922 27970.60 28048.90 206.70
3564 15.5960 28347.70 28038.80 209.75
3565 15.5997 27613.60 28028.50 205.85
3566 15.6035 28143.40 28018.10 208.87
3567 15.6073 27727.90 28008.10 206.20
3568 15.6110 28021.50 27997.70 208.02
3569 15.6147 27324.70 27987.70 204.08
3570 15.6186 27383.70 27977.30 204.26
3571 15.6223 27834.60 27967.00 205.48
3572 15.6260 27851.00 27956.90 206.39
3573 15.6299 27657.70 27946.60 205.55
3574 15.6335 27840.00 27936.60 206.87
3575 15.6374 27914.90 27926.20 207.29
3576 15.6412 28276.40 27915.90 207.93
3577 15.6448 27659.80 27905.90 205.76
3578 15.6487 27961.60 27895.60 207.28
3579 15.6524 27776.30 27885.50 205.77
3580 15.6561 27983.40 27875.20 207.21
3581 15.6600 27471.20 27864.90 204.13
3582 15.6636 27798.80 27854.90 206.45
3583 15.6674 27414.80 27844.60 203.81
3584 15.6712 27811.10 27834.60 205.12
3585 15.6749 27531.50 27824.30 205.04
3586 15.6788 27485.30 27814.00 204.22
3587 15.6825 27340.10 27804.00 204.51
3588 15.6862 28033.70 27793.70 207.45
3589 15.6899 26964.30 27783.70 202.11
3590 15.6938 27539.60 27773.50 204.25
3591 15.6975 27195.50 27763.20 203.88
3592 15.7013 27740.20 27753.20 205.44
3593 15.7051 27124.70 27742.90 202.12
3594 15.7087 27799.70 27732.90 207.21
3595 15.7126 27336.90 27722.70 203.09
3596 15.7163 27516.90 27712.40 204.27
3597 15.7200 26939.60 27702.40 200.53
3598 15.7239 27523.90 27692.20 205.15
3599 15.7275 27554.60 27682.20 206.22
3600 15.7313 27634.10 27672.00 204.61
3601 15.7352 27470.60 27661.70 205.34
3602 15.7388 27236.80 27651.80 203.07
3603 15.7427 26961.20 27641.50 202.23
3604 15.7464 27360.10 27631.60 203.26
3605 15.7501 26931.90 27621.40 201.71
3606 15.7540 27154.20 27611.10 202.71
3607 15.7577 27216.90 27601.20 203.45
3608 15.7614 26944.50 27591.00 203.27
3609 15.7652 26873.10 27581.00 201.64
3610 15.7690 27211.80 27570.80 203.68
3611 15.7727 27020.50 27560.60 202.83
3612 15.7765 27419.20 27550.70 204.64
3613 15.7802 27201.60 27540.50 203.80
3614 15.7839 27441.90 27530.60 205.02
3615 15.7878 26805.50 27520.40 202.49
3616 15.7914 27328.30 27510.40 203.78
3617 15.7952 27109.50 27500.20 202.71
3618 15.7991 27640.10 27490.10 205.78
3619 15.8027 26779.40 27480.20 201.42
3620 15.8066 26893.20 27470.00 202.26
3621 15.8103 26944.80 27460.10 202.68
3622 15.8140 27209.40 27449.90 203.02
3623 15.8179 27026.00 27439.70 203.62
3624 15.8216 27191.20 27429.80 203.80
3625 15.8253 26914.50 27419.70 202.13
3626 15.8291 27073.00 27409.80 203.07
3627 15.8329 26934.00 27399.60 202.47
3628 15.8366 27125.20 27389.50 203.69
3629 15.8404 26910.60 27379.60 202.57
3630 15.8441 27054.20 27369.50 201.65
3631 15.8478 26905.80 27359.60 202.30
3632 15.8517 27179.50 27349.40 203.98
3633 15.8554 26713.90 27339.30 201.35
3634 15.8591 27088.20 27329.40 202.78
3635 15.8630 26757.90 27319.30 200.99
3636 15.8666 27075.30 27309.40 203.77
3637 15.8705 26622.10 27299.30 201.13
3638 15.8743 27188.30 27289.20 203.49
3639 15.8779 26554.20 27279.40 201.27
3640 15.8818 27124.60 27269.20 204.11
3641 15.8855 26948.30 27259.40 203.80
3642 15.8892 27281.40 27249.30 203.97
3643 15.8930 26766.60 27239.50 202.95
3644 15.8968 27046.60 27229.40 202.51
3645 15.9005 26817.90 27219.30 202.15
3646 15.9043 26938.80 27209.40 203.32
3647 15.9080 26941.90 27199.40 203.57
3648 15.9117 27039.00 27189.50 204.39
3649 15.9156 26586.70 27179.50 201.45
3650 15.9193 26819.90 27169.40 201.76
3651 15.9230 26794.40 27159.60 202.34
3652 15.9269 27168.00 27149.50 204.89
3653 15.9305 26752.40 27139.70 201.51
3654 15.9344 27261.90 27129.60 204.93
3655 15.9382 26816.90 27119.60 202.24
3656 15.9418 27067.00 27109.80 203.88
3657 15.9457 26652.70 27099.70 202.31
3658 15.9494 26995.90 27089.90 203.10
3659 15.9531 26429.50 27079.90 201.40
3660 15.9570 26803.70 27069.90 202.76
3661 15.9607 26779.90 27060.10 201.58
3662 15.9644 26973.10 27050.00 203.57
3663 15.9682 26497.20 27040.30 200.93
3664 15.9719 27197.80 27030.20 204.29
3665 15.9756 26442.90 27020.50 200.59
3666 15.9795 26742.10 27010.50 202.70
3667 15.9832 26899.50 27000.40 202.36
3668 15.9869 26984.70 26990.70 203.62
3669 15.9908 26488.50 26980.70 201.18
3670 15.9944 27063.10 26970.90 203.89
3671 15.9983 26443.20 26960.90 201.15
3672 16.0021 27059.00 26950.90 203.92
3673 16.0058 26570.70 26941.20 201.90
3674 16.0096 26977.10 26931.20 203.64
3675 16.0133 26688.70 26921.50 200.58
3676 16.0170 26875.10 26911.50 203.40
3677 16.0208 26518.70 26901.50 201.28
3678 16.0245 26657.80 26891.80 201.98
3679 16.0284 26488.70 26881.80 201.86
3680 16.0320 26915.30 26872.10 203.59
3681 16.0359 26582.40 26862.10 205.54
3682 16.0396 27030.30 26852.40 203.17
3683 16.0434 26618.00 26842.40 202.29
3684 16.0471 26690.60 26832.50 200.27
3685 16.0508 26722.20 26822.80 202.41
3686 16.0546 27112.10 26812.80 204.76
3687 16.0583 26616.50 26803.10 201.63
3688 16.0621 27427.40 26793.20 204.29
3689 16.0660 26824.00 26783.30 201.85
3690 16.0697 27499.90 26773.60 205.84
3691 16.0735 26877.70 26763.60 204.02
3692 16.0772 26886.50 26754.00 204.12
3693 16.0809 26635.30 26744.00 201.84
3694 16.0847 27003.30 26734.40 203.58
3695 16.0884 26469.40 26724.50 201.52
3696 16.0923 26926.50 26714.50 203.38
3697 16.0959 26915.60 26704.90 203.47
3698 16.0998 26659.40 26695.00 202.45
3699 16.1035 26852.20 26685.30 202.41
3700 16.1073 26634.10 26675.40 201.82
3701 16.1110 26799.00 26665.50 203.30
3702 16.1147 26811.00 26655.90 202.49
3703 16.1185 26448.20 26646.00 202.21
3704 16.1222 26820.90 26636.40 203.11
3705 16.1261 26585.50 26626.50 202.88
3706 16.1297 27118.50 26616.90 204.50
3707 16.1336 26560.60 26607.00 201.79
3708 16.1374 26673.00 26597.10 202.33
3709 16.1411 26607.00 26587.50 201.92
3710 16.1448 26936.40 26577.70 203.39
3711 16.1486 26231.60 26568.00 200.84
3712 16.1523 26923.90 26558.20 202.92
3713 16.1562 26698.00 26548.30 202.47
3714 16.1598 26790.10 26538.70 203.65
3715 16.1637 26253.50 26528.90 200.29
3716 16.1674 26927.50 26519.30 203.62
3717 16.1712 26415.20 26509.50 201.72
3718 16.1749 26649.20 26499.90 201.27
3719 16.1786 26496.60 26490.10 201.11
3720 16.1824 26949.00 26480.20 202.91
3721 16.1861 26493.80 26470.70 201.04
3722 16.1900 26656.10 26460.80 203.06
3723 16.1936 26281.00 26451.30 201.12
3724 16.1975 26624.90 26441.50 201.70
3725 16.2013 26212.90 26431.70 200.77
3726 16.2050 26579.60 26422.10 201.53
3727 16.2087 26488.70 26412.30 201.34
3728 16.2125 26918.60 26402.80 204.31
3729 16.2162 26205.10 26393.00 200.45
3730 16.2199 26704.30 26383.40 202.00
3731 16.2237 26162.10 26373.60 199.26
3732 16.2276 26605.40 26363.90 201.25
3733 16.2313 26478.00 26354.30 200.95
3734 16.2351 26325.30 26344.60 200.87
3735 16.2388 26581.60 26335.00 201.11
3736 16.2425 26784.10 26325.30 202.66
3737 16.2463 26463.90 26315.80 201.62
3738 16.2500 26365.70 26306.00 200.64
3739 16.2539 26289.80 26296.20 200.24
3740 16.2575 26639.50 26286.70 200.85
3741 16.2614 26223.10 26277.00 199.83
3742 16.2651 26859.30 26267.50 203.30
3743 16.2689 26679.90 26257.80 200.92
3744 16.2726 26658.50 26248.00 201.31
3745 16.2764 26609.00 26238.50 201.79
3746 16.2801 26703.10 26228.80 201.85
3747 16.2838 26307.40 26219.30 200.35
3748 16.2876 26406.30 26209.60 199.69
3749 16.2913 26359.90 26200.10 200.68
3750 16.2952 26663.40 26190.40 201.22
3751 16.2990 26332.20 26180.70 201.47
3752 16.3027 26561.60 26171.30 200.66
3753 16.3064 26357.50 26161.60 200.82
3754 16.3102 26869.40 26152.10 201.80
3755 16.3139 26697.40 26142.40 202.44
3756 16.3176 26876.80 26133.00 202.38
3757 16.3214 26522.50 26123.30 201.75
3758 16.3253 26617.20 26113.60 202.26
3759 16.3290 26364.70 26104.20 200.36
3760 16.3328 27060.70 26094.50 203.51
3761 16.3365 26416.30 26085.10 200.15
3762 16.3403 26857.40 26075.40 202.40
3763 16.3440 26568.40 26066.00 201.64
3764 16.3477 26971.20 26056.30 202.96
3765 16.3515 26415.10 26046.70 200.92
3766 16.3552 27043.80 26037.30 202.88
3767 16.3591 26847.90 26027.60 202.61
3768 16.3627 27023.70 26018.20 204.24
3769 16.3666 27108.90 26008.60 203.67
3770 16.3703 27425.80 27582.00 205.04
3771 16.3741 26805.40 27613.80 202.14
3772 16.3778 27409.20 27647.40 205.68
3773 16.3815 26742.60 27681.70 201.31
3774 16.3853 27259.50 27718.70 205.30
3775 16.3890 26850.20 27756.70 202.55
3776 16.3929 27345.50 27797.70 204.87
3777 16.3967 27154.60 28659.90 204.91
3778 16.4004 27417.40 28725.10 204.54
3779 16.4042 26967.10 28795.30 202.61
3780 16.4079 27400.90 28866.90 205.77
3781 16.4116 27207.90 28944.20 204.19
3782 16.4153 27484.20 29023.10 205.94
3783 16.4191 27412.60 29108.20 205.07
3784 16.4230 27944.20 29197.70 209.39
3785 16.4266 27760.80 29289.20 206.35
3786 16.4305 27820.40 29388.10 207.98
3787 16.4342 27672.20 29489.50 205.60
3788 16.4380 28099.30 29599.00 208.45
3789 16.4417 27895.10 29711.40 207.13
3790 16.4454 28153.10 29833.00 208.03
3791 16.4492 27815.50 29961.50 207.09
3792 16.4529 28569.20 30093.50 210.43
3793 16.4568 28572.20 30236.70 211.09
3794 16.4604 28812.10 30384.10 211.39
3795 16.4643 28824.20 30544.30 211.06
3796 16.4680 29043.30 30709.40 213.21
3797 16.4718 29131.00 30889.20 213.60
3798 16.4755 29115.00 31074.80 213.14
3799 16.4792 28816.60 31277.30 212.53
3800 16.4830 29385.10 31492.80 214.36
3801 16.4867 29118.40 31716.00 212.51
3802 16.4905 29918.00 31960.10 215.46
3803 16.4942 30077.00 32213.60 216.83
3804 16.4981 30315.20 32491.50 217.28
3805 16.5018 30306.70 32780.90 218.25
3806 16.5056 31011.10 33099.00 221.80
3807 16.5093 30989.50 33440.30 221.89
3808 16.5131 31373.40 33797.20 223.38
3809 16.5168 31447.50 34191.50 223.13
3810 16.5205 32010.30 34604.70 227.44
3811 16.5243 32171.60 35062.80 227.06
3812 16.5280 33168.80 35545.00 229.33
3813 16.5319 33250.30 36081.10 231.34
3814 16.5357 34093.10 36663.60 234.42
3815 16.5394 34151.80 37280.70 234.90
3816 16.5431 35296.00 37971.30 240.51
3817 16.5469 35415.00 38706.40 241.33
3818 16.5506 36841.70 39534.20 245.96
3819 16.5543 37526.80 40418.80 248.70
3820 16.5581 38479.60 41420.50 249.45
3821 16.5620 39138.10 42529.00 255.23
3822 16.5657 40408.70 43726.50 262.03
3823 16.5695 40963.80 45095.40 262.57
3824 16.5732 42688.50 46585.50 268.08
3825 16.5770 44322.70 48303.00 275.62
3826 16.5807 46162.80 50189.10 282.76
3827 16.5844 47671.60 52383.80 289.02
3828 16.5882 50326.00 54890.10 296.78
3829 16.5919 52470.80 57686.90 306.80
3830 16.5958 56027.90 61000.40 319.24
3831 16.5994 58441.70 64750.30 328.26
3832 16.6033 63553.50 69260.70 346.50
3833 16.6070 67481.50 74451.20 359.45
3834 16.6108 73676.60 80814.80 378.93
3835 16.6145 80165.70 88289.50 400.71
3836 16.6182 89904.50 97668.90 432.12
3837 16.6220 102111.00 109347.00 471.08
3838 16.6257 119048.00 123771.00 518.56
3839 16.6296 140649.00 143363.00 581.27
3840 16.6332 178252.00 170873.00 680.48
3841 16.6371 233212.00 218060.00 827.25
3842 16.6408 335281.00 306866.00 1065.43
3843 16.6446 494606.00 493713.00 1423.26
3844 16.6483 806449.00 858502.00 2084.82
3845 16.6521 1292310.00 1460710.00 2994.59
3846 16.6558 2136550.00 2337220.00 4583.52
3847 16.6595 3161240.00 3295400.00 6379.89
3848 16.6633 4139290.00 4039610.00 8073.30
3849 16.6670 4292570.00 4142560.00 8346.25
3850 16.6709 3709690.00 3604390.00 7337.25
3851 16.6745 2763760.00 2878280.00 5698.35
3852 16.6784 2247650.00 2335890.00 4765.50
3853 16.6821 2124550.00 2162970.00 4565.51
3854 16.6859 2331140.00 2258340.00 4905.65
3855 16.6896 2403090.00 2349680.00 5055.77
3856 16.6933 2187050.00 2174530.00 4660.13
3857 16.6971 1616530.00 1726260.00 3578.31
3858 16.7008 1050910.00 1215270.00 2564.72
3859 16.7047 641674.00 769540.00 1731.25
3860 16.7083 410375.00 470909.00 1233.88
3861 16.7122 276481.00 291872.00 928.07
3862 16.7160 203217.00 199113.00 745.11
3863 16.7197 155099.00 153034.00 621.37
3864 16.7234 128982.00 126634.00 549.99
3865 16.7271 107952.00 110023.00 486.08
3866 16.7309 96232.10 97524.70 453.03
3867 16.7346 85140.80 88020.50 414.96
3868 16.7384 78422.00 80143.30 395.40
3869 16.7423 70927.10 73685.00 369.96
3870 16.7460 66577.80 68445.00 354.94
3871 16.7498 60611.30 63911.10 335.23
3872 16.7535 58205.80 60153.70 326.84
3873 16.7572 54561.20 56841.50 315.12
3874 16.7610 52128.70 54050.40 305.16
3875 16.7647 49121.00 51551.80 294.82
3876 16.7684 47475.90 49419.50 288.84
3877 16.7722 44971.50 47486.20 277.69
3878 16.7761 44024.40 45775.00 274.27
3879 16.7798 41626.70 44289.40 265.68
3880 16.7836 41152.40 42923.60 263.36
3881 16.7873 39306.60 41727.50 255.93
3882 16.7910 38688.40 40619.00 253.43
3883 16.7948 37297.30 39641.00 248.56
3884 16.7985 36760.80 38727.40 245.39
3885 16.8022 35869.10 37917.10 242.22
3886 16.8060 35421.30 37155.60 240.24
3887 16.8099 34583.00 36458.40 236.71
3888 16.8136 34561.30 35834.00 236.08
3889 16.8174 33134.20 35243.00 230.18
3890 16.8211 33074.60 34711.10 230.55
3891 16.8249 32320.10 34205.50 229.03
3892 16.8286 32238.00 33748.50 226.92
3893 16.8323 31047.80 33312.30 221.72
3894 16.8361 31650.10 32916.50 225.12
3895 16.8398 30845.20 32537.00 221.12
3896 16.8435 30746.00 32191.70 219.25
3897 16.8473 30126.30 31859.70 218.57
3898 16.8512 29883.40 31548.50 217.82
3899 16.8549 29325.90 31263.80 215.08
3900 16.8587 29712.70 30988.80 217.56
3901 16.8624 29027.70 30736.50 212.66
3902 16.8661 29047.90 30492.20 213.84
3903 16.8699 28905.60 30267.40 213.60
3904 16.8736 28035.30 30049.10 209.18
3905 16.8773 28027.70 29847.90 209.52
3906 16.8811 27988.40 29652.00 209.26
3907 16.8850 27599.50 29466.20 207.10
3908 16.8887 27729.20 29294.30 207.36
3909 16.8925 26903.50 29126.50 204.50
3910 16.8962 27090.50 28970.80 205.33
3911 16.9000 27108.90 28818.60 205.22
3912 16.9037 26654.70 28677.10 200.06
3913 16.9074 26624.20 28538.30 203.26
3914 16.9111 26929.30 28409.30 204.91
3915 16.9149 26230.30 28282.50 201.24
3916 16.9186 26634.10 28164.40 202.58
3917 16.9224 26318.90 28048.10 202.18
3918 16.9263 26418.20 27936.70 202.73
3919 16.9300 26258.80 27832.60 199.11
3920 16.9338 26360.40 27729.90 200.49
3921 16.9375 26120.30 27633.80 200.16
3922 16.9412 26243.80 27539.00 202.06
3923 16.9450 26034.70 27450.00 201.00
3924 16.9487 26170.60 27362.10 201.55
3925 16.9524 25825.00 27279.60 199.55
3926 16.9562 25880.90 27197.80 199.68
3927 16.9601 25373.00 27119.00 197.57
3928 16.9638 25862.30 25494.70 198.58
3929 16.9676 25294.70 25459.80 196.46
3930 16.9713 25372.70 25426.90 197.11
3931 16.9750 25380.80 25394.10 196.71
3932 16.9788 25579.80 25363.00 197.77
3933 16.9804 25417.20 25349.00 196.30
3934 16.9841 25353.10 25319.20 195.48
3935 16.9879 25440.00 24487.50 196.79
3936 16.9916 25350.20 24478.70 196.83
3937 16.9954 25181.80 24469.80 196.21
3938 16.9991 25600.30 24461.10 198.00
3939 17.0030 25043.70 24452.20 194.93
3940 17.0068 25491.50 24443.20 198.66
3941 17.0105 25109.50 24434.50 195.97
3942 17.0142 25230.60 24425.60 194.87
3943 17.0180 24942.10 24416.90 194.95
3944 17.0217 25227.40 24408.00 195.89
3945 17.0254 24891.20 24399.40 194.54
3946 17.0292 25044.50 24390.50 195.96
3947 17.0329 24532.00 24381.80 193.83
3948 17.0368 24902.80 24372.90 194.59
3949 17.0406 24553.60 24364.00 192.94
3950 17.0443 24989.40 24355.40 192.58
3951 17.0480 24516.20 24346.50 192.81
3952 17.0518 24910.20 24337.90 195.96
3953 17.0555 24453.70 24329.00 192.60
3954 17.0592 24820.40 24320.30 193.42
3955 17.0630 24445.50 24311.50 192.57
3956 17.0669 24633.50 24302.60 193.53
3957 17.0706 24597.70 24294.00 193.74
3958 17.0744 24728.10 24285.20 192.96
3959 17.0781 24607.80 24276.60 193.79
3960 17.0819 24607.50 24267.70 193.53
3961 17.0856 24269.30 24259.10 192.21
3962 17.0893 24423.20 24250.30 193.14
3963 17.0931 24353.30 24241.50 192.54
3964 17.0968 24399.50 24232.90 192.11
3965 17.1007 24068.00 24224.00 190.87
3966 17.1043 24254.80 24215.50 191.96
3967 17.1082 24101.00 24206.70 191.79
3968 17.1119 24489.10 24198.10 192.53
3969 17.1157 23835.30 24189.30 189.89
3970 17.1194 24470.90 24180.70 192.05
3971 17.1231 23782.00 24171.90 190.31
3972 17.1269 24138.20 24163.20 190.60
3973 17.1306 24238.40 24154.60 191.40
3974 17.1345 24543.80 24145.80 194.06
3975 17.1381 24091.90 24137.30 189.32
3976 17.1420 24199.60 24128.50 191.83
3977 17.1457 23982.90 24120.00 190.36
3978 17.1495 24039.60 24111.20 190.96
3979 17.1532 24176.70 24102.50 191.88
3980 17.1569 24229.10 24094.00 191.81
3981 17.1607 23815.80 24085.20 189.99
3982 17.1644 24044.10 24076.70 190.40
3983 17.1682 23888.90 24068.00 190.52
3984 17.1719 24269.30 24059.50 191.11
3985 17.1758 23727.00 24050.80 189.41
3986 17.1794 24022.90 24042.30 190.42
3987 17.1833 23550.30 24033.50 185.86
3988 17.1870 23946.10 24024.80 190.82
3989 17.1908 23687.90 24016.40 188.42
3990 17.1945 23963.50 24007.60 189.46
3991 17.1982 23764.10 23999.20 189.08
3992 17.2020 23876.20 23990.50 189.24
3993 17.2057 23472.10 23982.00 188.23
3994 17.2096 23720.50 23973.30 189.92
3995 17.2132 23557.60 23964.90 188.22
3996 17.2134 23508.30 23964.70 186.90
3997 17.2171 23598.40 23956.20 188.13
3998 17.2208 23637.50 23947.50 186.57
3999 17.2246 23889.80 23939.10 189.81
4000 17.2283 23471.90 23930.40 187.49
4001 17.2321 23566.50 23921.80 188.41
4002 17.2358 23319.10 23913.40 186.97
4003 17.2397 23670.40 23904.70 188.58
4004 17.2433 23535.70 23896.30 188.76
4005 17.2472 23727.30 23887.70 189.11
4006 17.2509 23585.50 23879.30 188.30
4007 17.2547 23692.40 23870.60 188.62
4008 17.2584 23694.00 23862.20 188.73
4009 17.2621 23652.80 23853.60 188.20
4010 17.2659 23580.10 23845.20 187.54
4011 17.2696 23691.90 23836.60 189.55
4012 17.2735 23504.60 23828.00 186.16
4013 17.2771 23698.30 23819.60 186.52
4014 17.2810 23218.60 23811.00 186.87
4015 17.2847 23781.60 23802.70 189.43
4016 17.2885 23191.40 23794.10 185.68
4017 17.2922 23551.80 23785.70 187.92
4018 17.2959 23171.20 23777.10 186.57
4019 17.2997 23492.50 23768.80 185.40
4020 17.3034 22946.30 23760.20 185.21
4021 17.3071 23570.50 23751.90 187.35
4022 17.3109 23443.10 23743.30 186.68
4023 17.3148 23421.50 23734.80 187.97
4024 17.3185 23303.40 23726.40 187.04
4025 17.3223 23388.60 23717.90 186.49
4026 17.3260 23191.90 23709.60 186.07
4027 17.3298 23544.20 23701.00 188.93
4028 17.3335 23190.60 23692.70 185.52
4029 17.3372 23515.60 23684.20 187.94
4030 17.3410 23094.60 23675.90 186.81
4031 17.3447 23191.80 23667.40 186.42
4032 17.3486 23073.50 23658.90 185.89
4033 17.3522 23390.20 23650.60 187.99
4034 17.3561 22781.50 23642.10 184.47
4035 17.3598 22844.80 23633.80 185.56
4036 17.3636 23049.90 23625.30 186.34
4037 17.3673 23408.90 23617.00 187.42
4038 17.3710 23130.90 23608.60 186.42
4039 17.3748 23387.90 23600.30 187.72
4040 17.3785 23231.70 23591.80 187.60
4041 17.3824 23476.40 23583.40 188.59
4042 17.3860 23071.10 23575.10 186.12
4043 17.3899 23373.80 23566.70 187.88
4044 17.3936 23142.30 23558.40 187.86
4045 17.3974 23168.30 23550.00 187.04
4046 17.4011 23149.60 23541.70 187.16
4047 17.4049 23369.40 23533.30 187.23
4048 17.4086 23142.60 23525.10 186.34
4049 17.4123 23031.60 23516.60 184.71
4050 17.4160 23219.20 23508.40 187.13
4051 17.4198 23114.60 23500.00 186.34
4052 17.4237 23135.20 23491.60 187.13
4053 17.4273 23543.00 23483.40 186.71
4054 17.4312 22985.80 23475.00 186.50
4055 17.4349 23330.90 23466.80 187.98
4056 17.4387 22914.10 23458.40 185.72
4057 17.4424 23294.00 23450.20 187.69
4058 17.4461 22997.90 23441.80 185.87
4059 17.4499 23252.80 23433.70 187.25
4060 17.4536 22765.70 23425.30 184.96
4061 17.4575 23014.70 23416.90 186.31
4062 17.4611 23145.70 23408.70 186.99
4063 17.4650 23387.20 23400.40 187.59
4064 17.4687 22919.10 23392.20 185.43
4065 17.4725 23367.00 23383.90 186.67
4066 17.4762 22890.20 23375.70 186.20
4067 17.4799 23092.80 23367.40 187.71
4068 17.4837 22722.40 23359.30 184.97
4069 17.4874 22669.10 23350.90 184.33
4070 17.4912 22666.20 23342.60 185.14
4071 17.4949 23023.00 23334.50 185.90
4072 17.4988 22572.60 23326.20 183.55
4073 17.5025 23123.60 23318.10 186.74
4074 17.5063 23033.60 23309.70 187.26
4075 17.5100 22942.10 23301.60 186.62
4076 17.5138 22969.60 23293.30 186.26
4077 17.5175 23179.00 23285.00 188.44
4078 17.5212 22905.90 23277.00 186.00
4079 17.5250 22882.20 23268.70 185.43
4080 17.5287 22665.60 23260.60 184.72
4081 17.5326 22647.20 23252.30 184.35
4082 17.5362 22886.30 23244.20 186.24
4083 17.5401 22955.40 23236.00 185.75
4084 17.5438 22558.10 23227.90 184.78
4085 17.5476 22874.20 23219.70 186.10
4086 17.5513 22648.70 23211.40 184.67
4087 17.5550 22972.00 23203.40 185.97
4088 17.5588 22599.50 23195.10 183.84
4089 17.5625 22602.60 23187.10 185.10
4090 17.5664 22523.50 23178.80 183.71
4091 17.5700 22994.40 23170.80 186.62
4092 17.5739 22620.60 23162.60 184.99
4093 17.5776 22693.00 23154.60 184.51
4094 17.5814 22639.40 23146.40 183.95
4095 17.5851 22983.30 23138.10 184.79
4096 17.5889 22570.10 23130.10 184.19
4097 17.5926 22773.60 23121.90 185.49
4098 17.5963 22476.50 23113.90 183.97
4099 17.6001 22686.10 23105.80 185.65
4100 17.6038 22387.10 23097.80 183.74
4101 17.6077 22704.20 23089.60 184.81
4102 17.6115 22491.70 23081.40 184.61
4103 17.6152 22768.50 23073.40 185.30
4104 17.6189 22616.20 23065.30 185.17
4105 17.6227 22385.40 23057.30 183.98
4106 17.6264 22272.10 23049.10 182.68
4107 17.6301 22879.50 23041.20 186.56
4108 17.6339 22621.80 23033.00 185.66
4109 17.6378 22374.50 23024.90 182.14
4110 17.6415 22241.70 23017.00 182.58
4111 17.6453 22508.20 23008.80 184.27
4112 17.6490 22242.80 23000.90 183.20
4113 17.6528 22435.50 22992.80 184.01
4114 17.6565 22402.30 22984.90 183.79
4115 17.6602 22650.00 22976.70 185.49
4116 17.6639 22206.00 22968.80 182.41
4117 17.6677 22786.50 22960.70 185.10
4118 17.6716 22343.40 22952.60 183.64
4119 17.6752 22391.70 22944.70 182.38
4120 17.6791 22210.30 22936.60 181.50
4121 17.6828 22396.40 22928.80 182.19
4122 17.6866 22237.90 22920.70 181.89
4123 17.6903 22401.30 22912.80 182.26
4124 17.6940 22349.90 22904.70 182.20
4125 17.6978 22206.30 22896.60 180.59
4126 17.7015 22040.70 22888.80 180.12
4127 17.7054 22166.90 22880.70 181.19
4128 17.7090 22094.30 22872.90 181.15
4129 17.7129 22495.80 22864.80 183.32
4130 17.7166 22476.50 22857.00 182.82
4131 17.7204 22393.80 22848.90 181.47
4132 17.7241 22464.90 22840.90 182.55
4133 17.7278 22347.10 22833.10 182.26
4134 17.7316 21956.90 22825.00 179.45
4135 17.7353 22451.90 22817.20 182.95
4136 17.7391 22354.80 22809.20 182.80
4137 17.7428 22267.00 22801.40 181.21
4138 17.7467 22129.20 22793.40 180.80
4139 17.7505 22293.60 22785.40 181.95
4140 17.7542 22314.20 22777.60 181.87
4141 17.7579 22380.30 22769.60 182.96
4142 17.7617 22218.20 22761.80 181.38
4143 17.7654 22519.90 22753.80 181.95
4144 17.7691 21909.20 22746.10 180.21
4145 17.7729 22258.10 22738.10 182.28
4146 17.7768 21880.80 22730.10 179.85
4147 17.7805 21954.30 22722.40 179.80
4148 17.7843 22099.70 22714.40 179.01
4149 17.7880 22152.90 22706.60 180.66
4150 17.7917 21884.70 22698.70 180.48
4151 17.7955 22175.60 22691.00 181.47
4152 17.7992 22218.90 22683.00 179.82
4153 17.8030 21945.60 22675.10 180.80
4154 17.8067 21976.10 22667.30 181.43
4155 17.8106 21962.50 22659.40 180.30
4156 17.8143 22020.50 22651.70 180.47
4157 17.8181 22121.60 22643.80 181.33
4158 17.8218 21772.70 22636.10 179.14
4159 17.8256 22057.80 22628.20 179.15
4160 17.8293 22016.70 22620.30 180.49
4161 17.8330 21923.20 22612.60 181.10
4162 17.8368 21851.10 22604.70 179.98
4163 17.8405 21962.60 22597.00 181.04
4164 17.8444 22004.30 22589.10 180.28
4165 17.8480 22208.30 22581.40 180.94
4166 17.8519 21978.50 22573.60 178.47
4167 17.8556 22100.30 22565.70 181.60
4168 17.8594 21684.30 22558.00 179.54
4169 17.8631 22003.70 22550.20 180.29
4170 17.8668 21821.40 22542.50 179.79
4171 17.8706 22396.00 22534.70 183.10
4172 17.8743 21517.60 22527.00 179.07
4173 17.8782 22074.50 22519.20 181.02
4174 17.8820 21607.40 22511.30 178.93
4175 17.8857 22094.40 22503.70 181.52
4176 17.8895 22115.80 22495.90 181.41
4177 17.8932 21764.10 22488.30 177.21
4178 17.8969 21908.70 22480.50 180.68
4179 17.9007 21857.90 22472.90 180.52
4180 17.9044 21692.50 22465.00 179.40
4181 17.9083 21950.10 22457.20 180.02
4182 17.9119 21995.40 22449.70 180.95
4183 17.9158 22031.40 22441.90 180.86
4184 17.9195 21570.90 22434.30 179.46
4185 17.9233 22114.50 22426.50 181.47
4186 17.9270 21820.90 22418.90 179.67
4187 17.9307 22106.30 22411.10 181.97
4188 17.9345 22041.80 22403.40 181.66
4189 17.9382 22294.50 22395.80 181.81
4190 17.9421 21711.20 22388.10 178.93
4191 17.9457 22017.30 22380.50 181.73
4192 17.9496 21666.50 22372.80 179.44
4193 17.9534 22035.70 22365.00 180.37
4194 17.9571 21736.10 22357.50 180.23
4195 17.9608 21826.30 22349.70 180.61
4196 17.9646 21938.90 22342.20 179.97
4197 17.9683 22203.80 22334.50 181.90
4198 17.9720 21630.70 22327.00 178.35
4199 17.9758 22205.10 22319.30 183.05
4200 17.9797 21617.00 22311.60 179.37
4201 17.9834 22028.10 22304.00 181.63
4202 17.9872 21806.10 22296.30 180.21
4203 17.9909 21629.70 22288.90 179.53
4204 17.9946 21621.30 22281.20 179.15
4205 17.9984 22019.10 22273.70 181.44
4206 18.0021 21440.30 22266.00 179.42
4207 18.0060 21898.00 22258.30 181.35
4208 18.0096 21623.30 22250.90 179.84
4209 18.0135 21778.20 22243.20 180.38
4210 18.0172 21975.30 22235.70 180.41
4211 18.0210 21790.90 22228.10 179.75
4212 18.0247 21658.00 22220.40 179.23
4213 18.0285 21672.50 22213.00 180.15
4214 18.0322 21759.10 22205.30 180.45
4215 18.0359 21974.00 22197.90 181.34
4216 18.0397 21698.20 22190.30 180.49
4217 18.0434 21836.30 22182.80 181.28
4218 18.0473 21643.00 22175.20 180.11
4219 18.0511 22051.00 22167.60 180.23
4220 18.0548 21723.70 22160.20 178.87
4221 18.0585 21816.30 22152.60 180.41
4222 18.0623 21719.80 22145.20 180.68
4223 18.0660 21972.60 22137.60 181.39
4224 18.0699 21407.70 22130.00 178.57
4225 18.0735 21883.80 22122.60 180.82
4226 18.0774 21514.60 22115.00 178.71
4227 18.0811 21428.40 22107.60 179.07
4228 18.0849 21335.90 22100.10 177.60
4229 18.0886 22000.30 22092.70 181.76
4230 18.0924 22153.70 22085.10 182.94
4231 18.0961 21897.60 22077.60 180.34
4232 18.0998 21649.20 22070.20 179.62
4233 18.1036 21655.30 22062.70 179.92
4234 18.1073 21745.80 22055.30 180.52
4235 18.1112 22010.70 22047.80 182.24
4236 18.1150 21755.50 22040.20 179.86
4237 18.1187 22111.50 22032.90 183.16
4238 18.1224 21654.60 22025.40 179.48
4239 18.1262 22419.80 22018.10 182.80
4240 18.1299 22218.10 22010.60 182.62
4241 18.1336 22284.30 22003.20 183.61
4242 18.1374 22129.90 21995.70 182.52
4243 18.1413 22283.20 21988.20 183.14
4244 18.1450 22079.50 21980.90 181.74
4245 18.1488 21865.10 21973.50 181.08
4246 18.1525 21740.40 21966.20 181.21
4247 18.1562 21806.80 21958.70 181.04
4248 18.1600 21460.50 21951.20 177.66
4249 18.1637 21481.50 21943.90 178.96
4250 18.1675 21507.50 21936.50 178.35
4251 18.1712 21793.30 21929.20 180.33
4252 18.1751 21620.20 21921.80 179.01
4253 18.1787 21738.10 21914.50 178.12
4254 18.1826 21537.60 21907.10 178.83
4255 18.1863 21710.00 21899.60 178.43
4256 18.1901 21270.20 21892.40 177.67
4257 18.1938 21647.70 21884.90 179.31
4258 18.1975 21192.90 21877.70 177.20
4259 18.2013 21135.30 21870.30 177.01
4260 18.2052 21411.70 21862.90 178.65
4261 18.2089 21201.60 21855.70 177.13
4262 18.2127 21206.20 21848.20 177.69
4263 18.2164 21051.40 21841.00 176.15
4264 18.2201 21133.10 21833.60 176.99
4265 18.2239 21308.10 21826.20 177.23
4266 18.2276 21057.60 21819.10 176.88
4267 18.2314 21529.00 21811.70 178.14
4268 18.2351 21168.60 21804.50 177.33
4269 18.2390 21462.80 21797.10 177.47
4270 18.2426 21511.30 21789.90 176.69
4271 18.2465 21475.60 21782.60 177.73
4272 18.2502 21392.50 21775.20 177.74
4273 18.2540 21568.60 21768.10 178.67
4274 18.2577 21460.40 21760.70 178.18
4275 18.2614 21396.90 21753.60 177.90
4276 18.2652 21056.30 21746.20 175.70
4277 18.2691 21369.20 21738.90 178.23
4278 18.2728 21019.10 21731.80 176.62
4279 18.2766 21199.00 21724.40 175.20
4280 18.2803 21152.00 21717.30 174.70
4281 18.2840 21309.60 21710.00 177.83
4282 18.2878 20862.70 21702.70 175.25
4283 18.2915 20862.10 21695.60 175.72
4284 18.2953 21123.70 21688.30 175.67
4285 18.2990 21303.70 21681.20 177.11
4286 18.3029 21046.50 21673.90 175.68
4287 18.3065 21226.30 21666.80 175.37
4288 18.3104 20794.20 21659.50 175.26
4289 18.3141 21422.70 21652.30 177.67
4290 18.3179 20869.00 21645.20 174.92
4291 18.3216 21326.20 21637.90 177.43
4292 18.3253 20818.50 21630.80 174.12
4293 18.3291 21316.40 21623.60 177.63
4294 18.3330 20980.90 21616.30 176.42
4295 18.3367 21162.60 21609.30 176.58
4296 18.3405 20874.80 21602.00 174.91
4297 18.3442 21206.50 21595.00 176.94
4298 18.3479 20813.80 21587.80 174.65
4299 18.3517 20917.90 21580.50 175.07
4300 18.3554 20836.30 21573.50 175.09
4301 18.3592 20986.50 21566.30 175.16
4302 18.3629 20876.50 21559.30 173.35
4303 18.3668 21129.00 21552.10 175.47
4304 18.3704 20917.70 21545.10 175.66
4305 18.3743 21061.90 21537.90 176.65
4306 18.3780 20714.00 21530.70 171.60
4307 18.3818 20849.00 21523.70 175.37
4308 18.3855 20813.10 21516.50 174.92
4309 18.3892 21118.80 21509.50 176.13
4310 18.3930 21078.30 21502.30 175.33
4311 18.3969 20950.60 21495.20 175.43
4312 18.4006 20559.00 21488.20 172.85
4313 18.4044 20946.40 21481.00 175.33
4314 18.4081 20883.50 21474.10 175.13
4315 18.4118 20850.20 21466.90 174.15
4316 18.4156 20693.10 21459.80 173.92
4317 18.4193 21124.00 21452.80 177.20
4318 18.4231 20900.90 21445.70 175.40
4319 18.4268 21162.00 21438.80 177.08
4320 18.4307 20765.40 21431.70 174.85
4321 18.4345 20986.30 21424.50 174.76
4322 18.4382 20721.70 21417.60 174.74
4323 18.4419 21172.80 21410.50 177.23
4324 18.4457 20606.80 21403.60 174.30
4325 18.4494 20982.10 21396.50 176.20
4326 18.4533 20950.10 21389.40 173.74
4327 18.4569 20908.60 21382.50 176.12
4328 18.4608 20477.00 21375.40 173.94
4329 18.4645 21065.40 21368.50 175.97
4330 18.4683 20750.40 21361.50 174.94
4331 18.4720 21116.40 21354.40 176.16
4332 18.4757 20679.30 21347.50 175.30
4333 18.4795 21011.70 21340.50 175.64
4334 18.4832 20406.10 21333.60 173.03
4335 18.4870 20641.00 21326.50 174.53
4336 18.4907 20453.00 21319.70 173.93
4337 18.4946 20895.20 21312.70 176.37
4338 18.4984 20933.00 21305.60 175.72
4339 18.5021 21220.30 21298.80 176.94
4340 18.5058 20800.60 21291.80 174.51
4341 18.5096 20841.20 21284.90 175.46
4342 18.5133 20526.10 21277.90 173.72
4343 18.5172 20683.70 21270.90 174.96
4344 18.5208 20690.70 21264.10 174.74
4345 18.5247 20758.00 21257.10 173.69
4346 18.5284 20567.90 21250.30 174.60
4347 18.5322 20928.40 21243.30 176.16
4348 18.5359 20540.10 21236.30 173.87
4349 18.5396 20742.50 21229.50 175.07
4350 18.5434 20794.80 21222.50 175.03
4351 18.5471 21039.10 21215.70 177.08
4352 18.5509 20735.20 21208.80 173.81
4353 18.5548 20649.30 21201.80 172.43
4354 18.5585 20613.80 21195.00 174.01
4355 18.5623 21044.80 21188.10 176.58
4356 18.5660 20428.30 21181.30 173.48
4357 18.5697 20530.50 21174.40 174.06
4358 18.5735 20790.80 21167.50 175.57
4359 18.5772 20649.90 21160.70 175.19
4360 18.5811 20464.70 21153.80 173.00
4361 18.5847 20593.90 21147.00 174.64
4362 18.5886 20356.80 21140.10 172.20
4363 18.5924 20697.20 21133.20 174.00
4364 18.5961 20387.30 21126.50 173.09
4365 18.5998 20775.60 21119.60 175.08
4366 18.6035 20344.90 21112.90 172.54
4367 18.6073 20264.70 21106.00 171.92
4368 18.6112 20524.80 21099.10 173.10
4369 18.6148 20721.40 21092.40 174.49
4370 18.6187 20250.30 21085.50 172.15
4371 18.6224 20806.90 21078.80 174.74
4372 18.6262 20381.70 21072.00 172.30
4373 18.6299 20597.30 21065.10 173.69
4374 18.6336 20491.00 21058.40 175.02
4375 18.6374 20660.20 21051.60 173.26
4376 18.6411 20465.90 21044.90 172.85
4377 18.6450 20737.00 21038.10 174.27
4378 18.6488 20209.30 21031.20 171.05
4379 18.6525 20682.50 21024.60 171.20
4380 18.6562 20278.50 21017.80 171.25
4381 18.6600 20591.40 21011.10 173.04
4382 18.6637 20300.80 21004.30 172.62
4383 18.6675 20289.90 20997.50 171.90
4384 18.6712 20629.10 20990.90 173.24
4385 18.6751 20358.30 20984.10 171.46
4386 18.6787 20409.40 20977.40 172.69
4387 18.6826 20684.40 20970.70 172.37
4388 18.6863 20224.40 20963.90 172.15
4389 18.6901 20706.80 20957.30 173.31
4390 18.6938 20271.50 20950.50 171.07
4391 18.6975 20632.10 20943.90 173.49
4392 18.7013 20503.00 20937.10 172.64
4393 18.7052 20713.10 20930.40 173.80
4394 18.7089 20375.00 20923.80 171.85
4395 18.7127 20630.30 20917.00 174.02
4396 18.7164 20375.40 20910.50 172.50
4397 18.7201 20936.00 20903.70 174.32
4398 18.7239 20462.30 20897.00 173.14
4399 18.7276 20898.50 20890.40 175.01
4400 18.7314 20791.90 20883.70 173.89
4401 18.7351 20642.90 20877.10 171.99
4402 18.7390 20666.40 20870.40 172.47
4403 18.7428 20582.40 20863.70 171.59
4404 18.7465 20566.80 20857.20 172.53
4405 18.7502 20441.40 20850.50 172.68
4406 18.7540 20098.00 20843.90 170.72
4407 18.7577 20465.80 20837.30 172.97
4408 18.7616 20201.00 20830.60 171.35
4409 18.7652 20591.40 20824.10 173.21
4410 18.7691 20225.50 20817.40 171.74
4411 18.7728 20472.60 20810.90 172.69
4412 18.7766 20231.80 20804.20 169.95
4413 18.7803 20304.80 20797.50 171.40
4414 18.7840 20134.60 20791.10 170.68
4415 18.7878 20047.80 20784.40 171.31
4416 18.7915 20171.70 20777.90 171.40
4417 18.7953 20174.90 20771.30 169.92
4418 18.7992 20209.30 20764.60 171.17
4419 18.8029 20450.70 20758.20 170.89
4420 18.8067 20136.10 20751.50 171.27
4421 18.8104 20305.10 20745.10 172.11
4422 18.8141 20084.80 20738.50 170.79
4423 18.8179 20228.70 20731.90 171.57
4424 18.8216 19945.50 20725.40 169.89
4425 18.8255 20322.30 20718.80 172.41
4426 18.8291 19765.90 20712.40 168.29
4427 18.8330 20446.00 20705.80 173.06
4428 18.8368 19874.60 20699.20 169.62
4429 18.8405 20098.00 20692.80 170.99
4430 18.8442 20152.30 20686.20 171.61
4431 18.8479 20054.70 20679.80 170.74
4432 18.8517 19879.30 20673.20 169.90
4433 18.8556 20233.40 20666.70 171.20
4434 18.8592 19925.70 20660.30 169.72
4435 18.8631 20313.00 20653.70 171.49
4436 18.8668 19946.10 20647.30 170.81
4437 18.8706 20277.00 20640.80 172.44
4438 18.8743 20150.10 20634.20 171.20
4439 18.8780 20247.70 20627.90 172.06
4440 18.8818 19667.90 20621.30 169.05
4441 18.8855 20490.20 20615.00 172.98
4442 18.8894 20004.80 20608.50 170.90
4443 18.8932 20199.50 20601.90 170.50
4444 18.8969 19824.10 20595.60 170.23
4445 18.9007 20155.90 20589.10 171.75
4446 18.9044 19938.40 20582.80 170.69
4447 18.9081 20214.60 20576.20 172.03
4448 18.9119 19954.40 20569.80 169.65
4449 18.9156 20219.20 20563.40 172.00
4450 18.9195 20158.00 20557.00 171.52
4451 18.9231 20131.90 20550.60 170.98
4452 18.9270 19962.50 20544.20 171.03
4453 18.9307 19750.60 20537.70 167.96
4454 18.9345 19931.10 20531.40 170.75
4455 18.9382 20406.80 20524.90 172.50
4456 18.9419 19916.20 20518.70 170.79
4457 18.9457 20382.30 20512.20 172.62
4458 18.9496 19947.00 20505.80 171.04
4459 18.9533 20424.60 20499.50 173.51
4460 18.9571 20002.30 20493.10 171.24
4461 18.9608 19771.40 20486.80 169.93
4462 18.9646 19842.80 20480.40 170.25
4463 18.9683 20018.20 20473.90 171.04
4464 18.9720 19792.00 20467.70 170.04
4465 18.9758 20250.90 20461.30 172.21
4466 18.9797 19997.40 20454.90 170.82
4467 18.9834 20022.10 20448.60 170.54
4468 18.9872 19740.20 20442.20 170.12
4469 18.9909 19981.50 20436.00 170.63
4470 18.9946 19835.50 20429.60 170.32
4471 18.9984 20231.10 20423.20 172.12
4472 19.0021 19791.90 20417.00 169.97
4473 19.0060 19984.10 20410.70 170.77
4474 19.0096 19980.70 20404.50 171.11
4475 19.0135 20119.10 20398.10 171.81
4476 19.0173 19958.20 20391.70 171.36
4477 19.0210 19881.00 20385.60 170.95
4478 19.0247 19883.90 20379.20 170.49
4479 19.0285 20243.00 20373.00 170.59
4480 19.0322 19822.10 20366.70 170.47
4481 19.0361 20083.20 20360.30 172.07
4482 19.0397 19762.80 20354.20 170.69
4483 19.0436 19933.60 20347.90 170.95
4484 19.0473 19997.50 20341.70 170.80
4485 19.0511 20227.60 20335.40 171.85
4486 19.0548 20013.90 20329.10 170.70
4487 19.0585 19969.20 20322.90 171.27
4488 19.0623 19910.80 20316.60 171.35
4489 19.0660 20152.30 20310.50 172.22
4490 19.0699 19763.40 20304.20 169.99
4491 19.0737 20187.70 20297.90 173.15
4492 19.0774 19746.40 20291.80 169.44
4493 19.0812 19927.00 20285.50 170.90
4494 19.0849 19759.30 20279.40 170.20
4495 19.0886 19951.90 20273.20 171.36
4496 19.0924 20075.20 20266.90 171.67
4497 19.0961 19951.60 20260.80 171.24
4498 19.1000 20008.80 20254.60 171.32
4499 19.1036 20145.10 20248.50 172.32
4500 19.1075 19632.50 20242.20 169.73
4501 19.1112 19959.90 20236.00 171.41
4502 19.1150 19825.80 20229.90 172.10
4503 19.1187 19887.10 20223.70 170.31
4504 19.1225 19519.50 20217.50 169.25
4505 19.1262 19942.50 20211.40 171.57
4506 19.1301 19823.20 20205.20 169.66
4507 19.1338 19756.70 20199.20 167.32
4508 19.1376 19716.60 20193.00 169.85
4509 19.1413 20056.40 20186.80 171.71
4510 19.1451 19810.50 20180.70 170.37
4511 19.1488 19845.90 20174.50 169.91
4512 19.1525 19705.50 20168.50 169.03
4513 19.1563 19772.40 20162.30 169.44
4514 19.1602 19509.00 20156.20 166.10
4515 19.1639 19833.50 20150.10 170.10
4516 19.1677 19795.90 20144.00 170.85
4517 19.1714 20122.50 20138.00 171.59
4518 19.1751 19644.40 20131.80 169.59
4519 19.1789 19935.70 20125.70 170.21
4520 19.1826 19750.70 20119.70 170.03
4521 19.1864 20040.80 20113.50 169.29
4522 19.1901 19289.00 20107.60 167.95
4523 19.1940 19787.20 20101.40 170.02
4524 19.1978 19524.50 20095.30 169.30
4525 19.2015 19886.60 20089.30 170.87
4526 19.2052 19443.90 20083.20 168.28
4527 19.2090 19745.10 20077.30 169.65
4528 19.2127 19647.40 20071.20 169.87
4529 19.2166 19785.60 20065.10 170.31
4530 19.2202 19451.70 20059.10 167.70
4531 19.2241 19866.50 20053.00 169.23
4532 19.2278 19685.10 20046.90 169.01
4533 19.2316 19944.40 20041.00 170.85
4534 19.2353 19428.80 20034.90 168.68
4535 19.2390 19479.70 20029.00 168.66
4536 19.2428 19594.00 20022.90 168.27
4537 19.2467 19786.50 20016.90 170.07
4538 19.2504 19500.20 20011.00 168.57
4539 19.2542 19445.40 20004.90 167.52
4540 19.2579 19544.90 19999.00 168.47
4541 19.2617 19624.70 19993.00 169.51
4542 19.2654 19684.00 19986.90 169.71
4543 19.2691 19756.10 19981.10 169.55
4544 19.2729 19389.80 19975.00 168.07
4545 19.2766 19860.30 19969.20 170.94
4546 19.2805 19358.00 19972.90 166.15
4547 19.2843 19736.40 19967.10 170.00
4548 19.2880 19338.40 19961.50 167.91
4549 19.2917 19892.50 19955.70 170.33
4550 19.2955 19496.20 19950.10 168.25
4551 19.2992 19815.50 19944.40 170.98
4552 19.3030 19341.50 19938.70 168.54
4553 19.3067 19462.70 19933.20 169.02
4554 19.3106 19402.80 19927.50 166.83
4555 19.3143 19680.30 19922.00 169.62
4556 19.3181 19392.20 19916.40 168.53
4557 19.3218 19719.40 19910.80 169.76
4558 19.3256 19572.40 19905.30 169.49
4559 19.3293 19696.40 19899.70 169.77
4560 19.3332 19235.10 19894.20 168.07
4561 19.3368 19603.00 19888.80 169.02
4562 19.3407 19199.80 19883.30 168.29
4563 19.3444 19586.70 19877.90 170.02
4564 19.3482 19162.40 19872.50 166.54
4565 19.3519 19629.00 19867.10 169.64
4566 19.3556 19312.40 19861.80 167.74
4567 19.3594 19570.90 19856.40 167.66
4568 19.3631 19100.70 19851.20 166.60
4569 19.3669 19768.40 19845.90 169.66
4570 19.3708 19356.90 19840.70 167.72
4571 19.3745 19792.80 19835.60 170.48
4572 19.3783 19161.90 19830.40 166.17
4573 19.3820 19628.60 19825.40 168.64
4574 19.3857 19601.10 19820.30 169.57
4575 19.3895 19658.60 19815.20 168.62
4576 19.3932 19283.30 19810.30 167.64
4577 19.3971 19271.70 19805.40 167.48
4578 19.4007 19239.30 19800.70 167.92
4579 19.4046 19595.30 19795.80 169.26
4580 19.4083 19115.90 19791.10 167.45
4581 19.4121 19690.00 19786.50 170.09
4582 19.4158 19344.10 19781.90 166.35
4583 19.4196 19735.80 19777.40 168.86
4584 19.4233 19219.50 19773.10 166.71
4585 19.4272 19852.00 19768.80 170.57
4586 19.4308 19531.60 19764.70 168.58
4587 19.4347 19723.40 19760.70 169.22
4588 19.4384 19031.40 19756.70 166.10
4589 19.4422 19825.20 19753.00 170.56
4590 19.4459 19193.30 19749.40 167.75
4591 19.4496 19652.60 19746.00 170.65
4592 19.4534 19410.50 19742.80 166.31
4593 19.4573 19694.30 19739.70 169.51
4594 19.4610 19347.10 19737.00 167.68
4595 19.4648 19834.80 19734.50 170.94
4596 19.4685 19444.00 19732.30 168.50
4597 19.4722 19311.60 19730.40 166.62
4598 19.4760 19452.60 19728.90 168.53
4599 19.4797 19643.40 19727.90 170.60
4600 19.4835 19518.00 19727.30 168.90
4601 19.4872 19548.70 19727.30 169.12
4602 19.4911 19258.00 19727.90 168.45
4603 19.4949 19653.10 19729.30 168.64
4604 19.4986 19167.90 19731.50 165.94
4605 19.5023 19665.80 19734.70 169.16
4606 19.5061 19277.60 19739.20 166.69
4607 19.5098 19902.80 19744.80 170.84
4608 19.5137 19261.80 19752.30 168.38
4609 19.5173 19868.80 19761.50 171.17
4610 19.5212 19474.40 19773.30 168.13
4611 19.5250 19742.10 19788.10 169.85
4612 19.5287 19435.60 19806.00 169.44
4613 19.5324 19835.50 19828.80 170.99
4614 19.5361 19730.30 19856.40 170.82
4615 19.5399 20097.70 19892.00 173.09
4616 19.5438 19931.80 19936.90 171.77
4617 19.5474 20219.90 19992.70 173.08
4618 19.5513 20336.50 20067.20 173.27
4619 19.5550 20632.00 20165.50 174.83
4620 19.5588 20736.40 20313.90 175.80
4621 19.5625 21423.60 20563.30 178.36
4622 19.5662 21819.40 21016.10 180.22
4623 19.5700 23251.30 21923.40 186.88
4624 19.5737 24393.90 23561.70 192.24
4625 19.5776 26802.60 26362.30 204.81
4626 19.5814 29418.40 30392.60 215.84
4627 19.5851 33267.70 35039.60 233.34
4628 19.5889 36069.60 39247.90 241.26
4629 19.5926 38101.50 40890.10 252.52
4630 19.5963 37233.30 38985.00 251.53
4631 19.6001 34785.90 34658.00 240.28
4632 19.6038 30754.90 30021.40 222.06
4633 19.6077 27748.10 26064.10 208.33
4634 19.6115 25031.50 23345.20 194.54
4635 19.6152 23704.00 21765.90 190.33
4636 19.6189 22153.40 20891.90 182.42
4637 19.6227 21620.80 20449.60 179.20
4638 19.6264 20967.40 20199.60 177.29
4639 19.6303 20775.10 20044.70 175.49
4640 19.6339 20155.80 19937.90 170.91
4641 19.6378 20301.60 19853.70 171.32
4642 19.6415 19947.70 19788.00 170.13
4643 19.6453 19913.10 19732.60 171.06
4644 19.6490 19460.40 19686.40 168.68
4645 19.6528 19811.00 19648.20 171.43
4646 19.6565 19355.20 19614.50 168.63
4647 19.6604 19674.00 19585.30 170.09
4648 19.6640 19143.80 19560.20 166.14
4649 19.6679 19450.90 19537.30 169.05
4650 19.6716 19182.90 19517.30 168.13
4651 19.6754 19450.60 19498.70 169.83
4652 19.6791 19070.90 19481.70 167.23
4653 19.6828 19017.50 19466.50 166.50
4654 19.6866 18953.00 19452.10 166.60
4655 19.6903 19312.80 19439.00 167.94
4656 19.6942 18825.10 19426.40 162.72
4657 19.6980 19201.00 19414.60 166.05
4658 19.7017 19102.70 19403.70 166.66
4659 19.7055 19140.00 19393.00 167.47
4660 19.7092 18827.20 19383.10 165.20
4661 19.7129 19009.10 19373.40 166.08
4662 19.7167 18716.80 19364.00 164.92
4663 19.7204 19017.60 19355.30 166.26
4664 19.7243 18942.50 19346.60 166.32
4665 19.7279 19054.20 19338.30 166.95
4666 19.7318 18479.20 19330.10 162.44
4667 19.7355 19009.40 19322.10 166.05
4668 19.7393 18814.60 19314.50 165.38
4669 19.7430 19045.00 19306.90 166.38
4670 19.7468 18817.30 19299.50 165.36
4671 19.7505 18969.70 19292.30 167.23
4672 19.7544 18803.70 19285.20 165.53
4673 19.7581 18830.70 19278.30 164.62
4674 19.7619 18712.40 19271.40 164.12
4675 19.7656 18889.50 19264.50 165.54
4676 19.7694 18705.00 19257.90 163.67
4677 19.7731 18758.80 19251.30 165.49
4678 19.7768 18853.80 19244.90 164.54
4679 19.7806 18746.40 19238.30 164.61
4680 19.7845 18445.80 19231.90 163.39
4681 19.7882 18641.60 19225.70 162.54
4682 19.7920 18484.90 19219.40 162.05
4683 19.7957 18578.60 19213.30 163.27
4684 19.7994 18735.60 19207.10 162.72
4685 19.8032 18920.80 19200.90 163.63
4686 19.8069 18703.10 19194.90 164.70
4687 19.8107 18910.60 19188.90 166.06
4688 19.8144 18542.40 19183.00 163.06
4689 19.8183 18662.80 19177.00 164.29
4690 19.8221 18685.20 19171.00 164.26
4691 19.8258 18634.70 19165.20 163.77
4692 19.8295 18505.10 19159.40 164.44
4693 19.8333 18600.70 19153.60 163.33
4694 19.8370 18606.80 19147.80 164.00
4695 19.8409 18608.70 19142.00 162.63
4696 19.8445 18782.30 19136.40 165.65
4697 19.8484 18597.80 19130.60 164.38
4698 19.8521 18331.60 19124.90 163.24
4699 19.8559 18638.30 19119.30 163.39
4700 19.8596 18527.50 19113.60 163.66
4701 19.8633 18632.90 19108.10 163.62
4702 19.8671 18483.30 19102.40 164.03
4703 19.8710 18644.80 19096.80 163.71
4704 19.8746 18385.90 19091.30 161.12
4705 19.8785 18902.90 19085.70 165.88
4706 19.8822 18370.70 19080.30 162.77
4707 19.8860 18731.70 19074.70 164.86
4708 19.8897 18627.70 19069.20 164.93
4709 19.8934 18572.40 19063.80 164.20
4710 19.8972 18372.40 19058.20 163.37
4711 19.9009 18407.10 19052.90 163.73
4712 19.9048 18150.30 19047.40 162.34
4713 19.9086 18702.80 19032.40 165.41
4714 19.9123 18369.20 19027.30 162.75
4715 19.9160 18483.80 19022.10 164.06
4716 19.9198 18352.20 19017.00 163.47
4717 19.9235 18669.90 19011.70 165.47
4718 19.9273 18342.40 19006.50 163.01
4719 19.9310 18803.90 19001.40 166.21
4720 19.9349 18361.90 18996.20 163.33
4721 19.9387 18811.80 18991.00 165.28
4722 19.9424 18242.00 18985.90 163.09
4723 19.9461 18655.10 18980.70 164.03
4724 19.9499 18082.00 18975.60 161.90
4725 19.9536 18922.30 18970.40 166.42
4726 19.9575 18497.10 18965.20 163.94
4727 19.9611 18548.30 18960.20 164.70
4728 19.9650 18519.60 18955.00 162.62
4729 19.9687 18601.40 18950.00 163.07
4730 19.9725 18174.10 18944.80 161.01
4731 19.9762 18505.70 18939.60 164.04
4732 19.9799 18208.50 18934.60 162.96
4733 19.9837 18894.70 18929.40 166.76
4734 19.9874 18086.90 18924.40 162.13
4735 19.9912 18468.80 18919.20 163.35
4736 19.9951 18283.30 18914.10 163.02
4737 19.9988 18736.60 18909.10 164.99
4738 20.0026 18153.20 18903.90 161.05
4739 20.0063 18349.30 18898.90 163.22
4740 20.0100 18477.90 18893.80 164.79
4741 20.0138 18461.60 18888.70 164.48
4742 20.0175 18307.90 18883.70 162.80
4743 20.0214 18508.50 18878.60 164.04
4744 20.0250 18161.30 18873.60 161.03
4745 20.0289 18639.10 18868.50 165.01
4746 20.0326 18103.40 18863.40 161.95
4747 20.0364 18727.60 18858.40 166.28
4748 20.0401 18275.30 18853.30 162.83
4749 20.0439 18501.40 18848.20 164.24
4750 20.0476 18181.20 18843.30 161.66
4751 20.0515 18393.80 18838.20 162.98
4752 20.0551 18321.30 18833.20 163.62
4753 20.0590 18681.40 18828.20 165.45
4754 20.0627 18154.20 18823.10 161.15
4755 20.0665 18709.40 18818.20 165.09
4756 20.0702 18083.60 18813.10 161.37
4757 20.0739 18387.70 18808.20 164.30
4758 20.0777 18229.00 18803.10 163.56
4759 20.0816 18442.00 18798.10 164.27
4760 20.0853 18267.20 18793.20 162.08
4761 20.0891 18347.70 18788.10 162.95
4762 20.0928 18273.20 18783.20 162.47
4763 20.0965 18451.90 18778.20 163.61
4764 20.1003 17853.30 18773.20 159.88
4765 20.1040 18405.20 18768.30 163.91
4766 20.1078 18157.60 18763.30 162.64
4767 20.1115 18338.30 18758.40 163.57
4768 20.1154 18148.90 18753.40 161.85
4769 20.1192 18334.80 18748.40 163.32
4770 20.1229 18402.50 18743.50 162.52
4771 20.1266 18019.10 18738.50 161.05
4772 20.1304 18244.00 18733.60 161.39
4773 20.1341 18368.10 18728.60 161.71
4774 20.1380 17862.80 18758.10 159.04
4775 20.1416 18252.00 18754.10 162.96
4776 20.1455 17842.90 18750.00 160.68
4777 20.1492 18331.00 18746.00 163.39
4778 20.1530 18140.40 18742.00 161.62
4779 20.1567 18288.90 18738.00 162.09
4780 20.1604 18218.40 18734.10 162.60
4781 20.1642 18313.20 18730.20 162.08
4782 20.1681 17949.50 18726.30 160.55
4783 20.1717 18185.60 18722.60 161.46
4784 20.1756 18189.50 18718.80 162.01
4785 20.1793 18328.40 18715.20 162.48
4786 20.1831 18316.50 18711.60 163.55
4787 20.1868 18408.40 18707.90 163.23
4788 20.1905 18089.20 18704.50 161.27
4789 20.1943 18530.40 18701.00 163.82
4790 20.1980 17816.70 18697.70 157.65
4791 20.2019 18067.70 18694.30 161.22
4792 20.2057 18083.70 18691.00 160.15
4793 20.2094 18213.00 18687.90 162.49
4794 20.2132 18013.00 18684.80 161.35
4795 20.2169 18629.00 18681.90 164.07
4796 20.2206 18066.90 18678.90 161.57
4797 20.2244 18061.00 18676.10 161.44
4798 20.2281 18094.20 18673.50 161.33
4799 20.2320 18278.20 18670.80 162.41
4800 20.2356 17887.50 18668.40 160.25
4801 20.2395 18079.90 18666.00 161.79
4802 20.2432 18032.80 18663.80 160.56
4803 20.2470 18300.00 18661.80 161.86
4804 20.2507 18298.10 18659.90 162.63
4805 20.2544 18076.20 18658.10 161.66
4806 20.2582 18161.20 18656.60 161.94
4807 20.2621 18100.00 18655.20 161.79
4808 20.2658 17807.40 18654.00 160.02
4809 20.2696 18040.60 18653.10 161.39
4810 20.2733 17819.90 18652.40 160.75
4811 20.2771 18263.30 18651.90 161.15
4812 20.2808 18029.80 18651.80 161.15
4813 20.2845 18324.30 18651.90 162.46
4814 20.2883 17803.10 18652.40 159.16
4815 20.2920 18049.00 18653.20 160.87
4816 20.2959 18008.60 18654.50 161.20
4817 20.2997 18234.60 18656.10 161.93
4818 20.3034 17944.80 18658.20 159.87
4819 20.3071 18394.50 18660.90 163.51
4820 20.3109 17903.60 18664.10 160.18
4821 20.3146 18304.90 18668.00 162.74
4822 20.3185 17989.60 18672.70 161.34
4823 20.3221 18347.40 18677.90 162.83
4824 20.3260 18187.20 18684.20 161.22
4825 20.3297 18074.90 18691.30 162.29
4826 20.3335 18051.10 18699.70 162.07
4827 20.3372 18030.60 18709.30 161.50
4828 20.3410 17975.30 18720.10 160.55
4829 20.3447 18253.10 18732.70 162.30
4830 20.3486 17722.60 18747.10 159.70
4831 20.3522 18345.20 18763.10 163.22
4832 20.3561 17974.30 18782.00 160.97
4833 20.3598 18238.80 18802.90 161.84
4834 20.3636 18087.80 18827.60 161.07
4835 20.3673 18270.50 18856.00 162.59
4836 20.3710 18080.30 18887.80 161.72
4837 20.3748 18659.70 18925.60 162.93
4838 20.3785 18331.40 18968.20 162.28
4839 20.3824 18679.20 19019.20 164.69
4840 20.3862 18364.70 19078.90 163.65
4841 20.3899 18742.40 19147.40 165.19
4842 20.3937 18627.90 19230.80 164.20
4843 20.3974 19223.90 19327.70 166.42
4844 20.4011 18783.30 19447.40 164.76
4845 20.4049 19265.00 19593.60 165.46
4846 20.4086 18811.20 19768.50 165.71
4847 20.4125 19591.10 19992.70 167.91
4848 20.4161 19568.70 20271.60 169.99
4849 20.4200 20295.70 20654.00 172.83
4850 20.4237 20659.70 21211.60 174.80
4851 20.4275 22502.20 22100.40 183.73
4852 20.4312 24167.70 23770.60 191.04
4853 20.4349 28071.80 26856.00 209.39
4854 20.4387 33252.30 32631.20 230.86
4855 20.4426 43721.00 42169.70 275.15
4856 20.4463 57950.20 55403.50 325.73
4857 20.4501 82942.40 71573.10 412.14
4858 20.4538 106927.00 85860.90 481.60
4859 20.4576 123932.00 92567.90 530.69
4860 20.4613 116198.00 87058.60 509.04
4861 20.4650 93228.10 73285.60 445.68
4862 20.4688 66357.90 57006.60 357.07
4863 20.4725 48580.60 43386.80 292.44
4864 20.4764 36397.00 33398.80 245.76
4865 20.4802 29720.90 27267.00 218.00
4866 20.4839 25581.40 23955.50 198.67
4867 20.4876 23385.70 22158.50 188.18
4868 20.4914 21817.40 21205.50 181.12
4869 20.4951 20574.00 20611.70 174.43
4870 20.4989 20078.80 20206.40 171.66
4871 20.5026 19587.60 19910.50 170.61
4872 20.5065 18733.50 19671.40 165.79
4873 20.5102 18942.00 19483.40 167.35
4874 20.5140 18679.30 19325.00 165.51
4875 20.5177 18833.00 19193.50 164.37
4876 20.5215 18488.90 19085.70 164.17
4877 20.5252 18411.10 18991.40 164.31
4878 20.5289 18159.70 18912.70 162.59
4879 20.5327 18389.60 18842.60 162.99
4880 20.5366 18252.50 18781.60 162.59
4881 20.5403 18326.80 18729.30 162.75
4882 20.5441 17985.20 18681.70 160.65
4883 20.5478 18407.60 18640.40 164.17
4884 20.5515 17823.40 18602.30 160.60
4885 20.5553 18184.20 18568.00 162.91
4886 20.5590 17855.40 18537.70 161.62
4887 20.5629 17877.00 18509.40 162.55
4888 20.5665 17862.40 18484.10 160.76
4889 20.5704 17989.40 18460.20 161.86
4890 20.5742 17621.10 18438.20 160.76
4891 20.5779 17857.50 18418.30 161.38
4892 20.5816 17826.70 18399.30 158.87
4893 20.5854 18239.60 18382.00 162.76
4894 20.5891 17563.60 18365.40 158.16
4895 20.5930 17854.30 18349.70 162.06
4896 20.5966 17756.10 18335.30 160.50
4897 20.6005 17925.70 18321.40 161.90
4898 20.6042 17552.10 18308.50 159.99
4899 20.6080 17881.60 18295.90 161.88
4900 20.6117 17562.80 18284.20 161.03
4901 20.6154 17863.90 18272.70 161.31
4902 20.6192 17665.40 18261.80 160.95
4903 20.6229 17913.00 18251.50 162.26
4904 20.6268 17434.10 18241.30 160.02
4905 20.6304 17719.20 18231.80 159.23
4906 20.6343 17578.60 18222.40 159.19
4907 20.6381 17719.70 18213.30 160.45
4908 20.6418 17699.40 18204.70 160.65
4909 20.6455 17704.40 18196.10 160.08
4910 20.6493 17391.90 18188.00 158.64
4911 20.6530 17566.10 18179.90 159.96
4912 20.6569 17351.70 18172.00 159.20
4913 20.6605 17473.80 18164.50 159.73
4914 20.6644 17430.40 18157.00 159.86
4915 20.6681 17658.00 18149.90 160.11
4916 20.6719 17346.50 18142.70 158.35
4917 20.6756 17743.40 18135.70 160.67
4918 20.6793 17262.50 18128.90 157.76
4919 20.6831 17920.40 18122.20 161.81
4920 20.6868 17543.00 18115.70 159.58
4921 20.6907 17557.40 18109.20 157.80
4922 20.6945 17307.20 18102.70 158.58
4923 20.6982 17653.00 18096.60 158.85
4924 20.7020 17470.30 18090.30 159.96
4925 20.7057 17524.60 18084.30 159.90
4926 20.7094 17321.90 18078.30 157.84
4927 20.7132 17605.70 18072.30 160.23
4928 20.7169 17395.90 18066.50 159.03
4929 20.7208 17361.30 18060.70 158.27
4930 20.7244 17317.50 18055.00 157.61
4931 20.7283 17539.10 18049.30 158.81
4932 20.7320 17142.00 18043.70 156.92
4933 20.7358 17537.80 18038.20 159.78
4934 20.7395 17327.60 18032.70 158.18
4935 20.7432 17533.40 18027.30 158.88
4936 20.7470 17208.40 18021.90 156.57
4937 20.7509 17388.80 18016.50 157.89
4938 20.7546 17230.60 18011.30 157.63
4939 20.7584 17420.50 18006.00 158.76
4940 20.7621 17635.50 18000.90 161.04
4941 20.7659 17536.50 17995.60 159.93
4942 20.7696 17368.20 17990.60 158.54
4943 20.7733 17378.40 17985.40 156.94
4944 20.7771 17261.30 17980.30 156.34
4945 20.7808 17224.20 17941.60 155.99
4946 20.7847 17072.40 17937.30 155.97
4947 20.7883 17506.30 17933.10 159.38
4948 20.7922 17191.20 17928.90 157.87
4949 20.7959 17324.00 17924.60 159.00
4950 20.7997 17231.60 17920.50 158.01
4951 20.8034 17128.20 17916.20 157.46
4952 20.8071 17093.20 17912.10 156.18
4953 20.8109 17522.00 17907.80 159.31
4954 20.8148 17163.60 17903.60 156.42
4955 20.8185 17443.30 17899.40 159.26
4956 20.8223 17199.70 17895.20 155.90
4957 20.8260 17426.80 17891.10 159.64
4958 20.8298 17327.80 17886.90 157.96
4959 20.8335 17533.80 17882.60 158.96
4960 20.8372 17198.20 17878.50 158.17
4961 20.8410 17344.00 17874.30 158.42
4962 20.8447 17077.40 17870.20 157.01
4963 20.8486 17624.00 17866.00 159.55
4964 20.8524 17266.60 17861.80 158.46
4965 20.8561 17352.80 17857.70 159.19
4966 20.8598 17081.20 17853.50 157.42
4967 20.8636 17388.40 17849.40 159.28
4968 20.8673 17207.60 17845.20 157.37
4969 20.8710 17512.00 17841.20 158.96
4970 20.8748 17088.10 17837.00 157.47
4971 20.8787 17170.50 17832.80 158.04
4972 20.8824 16931.40 17828.70 156.88
4973 20.8862 17481.60 17824.60 159.26
4974 20.8899 17353.70 17820.50 159.11
4975 20.8937 17398.70 17816.30 157.42
4976 20.8974 17199.70 17812.20 158.54
4977 20.9011 17402.00 17808.10 158.66
4978 20.9049 16970.30 17804.00 155.08
4979 20.9086 17793.40 17799.90 161.04
4980 20.9125 17409.60 17795.80 158.95
4981 20.9163 17149.30 17791.60 157.29
4982 20.9200 17333.30 17787.60 158.79
4983 20.9237 17266.50 17783.50 157.71
4984 20.9275 17258.20 17779.50 158.38
4985 20.9312 17450.90 17775.30 159.05
4986 20.9349 17072.00 17771.30 157.50
4987 20.9387 17379.00 17767.20 158.66
4988 20.9426 17231.20 17763.10 158.31
4989 20.9463 17363.90 17759.10 158.75
4990 20.9501 16968.20 17755.00 156.53
4991 20.9538 17560.10 17751.00 160.34
4992 20.9576 16981.30 17746.90 156.48
4993 20.9613 17548.30 17742.80 157.84
4994 20.9650 17017.70 17738.80 157.68
4995 20.9688 17548.80 17734.70 159.86
4996 20.9725 16938.70 17730.70 156.50
4997 20.9764 17375.80 17726.70 159.29
4998 20.9802 16693.80 17722.60 155.04
4999 20.9839 17636.90 17718.60 159.70
5000 20.9876 17238.10 17714.60 158.20
5001 20.9914 17281.10 17710.60 158.68
5002 20.9951 17073.10 17706.50 157.83
5003 20.9988 17353.90 17702.60 157.33
5004 21.0026 17021.90 17698.50 155.40
5005 21.0065 17366.90 17694.50 159.91
5006 21.0102 17000.20 17690.50 156.36
5007 21.0140 17298.50 17686.50 158.76
5008 21.0177 16778.90 17682.60 155.18
5009 21.0215 17082.20 17678.50 157.03
5010 21.0252 17108.00 17674.50 157.88
5011 21.0289 17382.60 17670.60 159.70
5012 21.0327 16883.60 17666.50 156.51
5013 21.0364 17389.50 17662.60 159.49
5014 21.0403 17262.30 17658.60 158.63
5015 21.0441 17464.20 17654.60 158.60
5016 21.0478 17192.40 17650.70 155.75
5017 21.0515 17440.90 17646.70 158.53
5018 21.0553 16920.00 17642.80 155.37
5019 21.0590 17420.90 17638.80 158.18
5020 21.0627 17056.20 17634.90 155.14
5021 21.0665 17283.10 17630.90 157.49
5022 21.0704 17173.80 17626.90 156.09
5023 21.0741 17597.00 17623.00 158.55
5024 21.0779 16899.00 17619.10 154.74
5025 21.0816 17381.70 17615.20 157.59
5026 21.0854 17126.30 17611.20 155.73
5027 21.0891 17363.90 17607.20 158.11
5028 21.0928 17023.60 17603.40 155.73
5029 21.0966 17272.40 17599.40 156.30
5030 21.1003 17036.00 17595.60 156.09
5031 21.1042 17200.20 17591.60 156.72
5032 21.1078 17085.20 17587.80 156.43
5033 21.1117 17293.20 17583.80 157.68
5034 21.1154 17267.60 17579.90 157.39
5035 21.1192 17442.40 17576.00 156.62
5036 21.1229 17041.40 17572.10 155.71
5037 21.1266 17489.10 17568.30 158.50
5038 21.1304 17169.90 17564.30 157.50
5039 21.1343 17283.10 17560.40 157.77
5040 21.1380 17110.70 17556.60 156.68
5041 21.1418 17263.30 17552.70 156.68
5042 21.1455 16885.50 17548.90 155.63
5043 21.1493 17155.80 17545.00 157.72
5044 21.1530 17160.10 17541.20 156.34
5045 21.1567 17437.40 17537.20 157.94
5046 21.1605 16839.10 17533.30 155.09
5047 21.1642 17544.20 17529.60 159.71
5048 21.1681 17257.40 17525.70 157.13
5049 21.1717 17554.50 17521.90 156.73
5050 21.1756 16997.60 17518.00 155.99
5051 21.1793 17129.90 17514.20 156.72
5052 21.1831 16878.90 17510.30 154.82
5053 21.1868 17157.30 17506.40 156.11
5054 21.1905 17117.70 17502.70 156.42
5055 21.1943 17051.60 17498.80 155.68
5056 21.1980 16862.30 17495.00 154.11
5057 21.2019 17262.70 17491.20 156.82
5058 21.2057 17003.40 17487.30 155.88
5059 21.2094 17552.60 17483.60 158.73
5060 21.2132 16948.10 17479.70 155.78
5061 21.2169 17305.60 17476.00 157.04
5062 21.2206 16838.30 17472.10 154.91
5063 21.2243 17244.00 17468.40 157.04
5064 21.2281 16950.90 17464.60 156.00
5065 21.2320 17178.40 17460.70 156.89
5066 21.2356 17020.40 17457.00 155.35
5067 21.2395 17479.40 17453.20 156.97
5068 21.2432 17107.80 17449.50 156.94
5069 21.2470 17384.40 17445.60 157.45
5070 21.2507 16878.80 17441.90 155.00
5071 21.2544 17396.70 17438.10 157.15
5072 21.2582 16867.50 17434.30 155.43
5073 21.2619 17117.30 17430.60 155.56
5074 21.2658 17182.00 17426.80 157.10
5075 21.2694 17168.80 17423.10 155.43
5076 21.2733 16871.90 17419.30 154.93
5077 21.2771 17005.20 17415.50 155.48
5078 21.2808 17007.60 17411.80 156.01
5079 21.2845 17200.80 17408.00 157.05
5080 21.2882 16855.20 17404.40 154.84
5081 21.2920 17098.20 17400.60 156.19
5082 21.2957 16768.00 17396.90 154.87
5083 21.2995 16974.60 17393.10 154.59
5084 21.3034 17027.80 17389.40 155.71
5085 21.3071 16873.40 17385.70 155.25
5086 21.3109 16874.00 17381.90 153.98
5087 21.3146 17091.20 17378.30 156.26
5088 21.3183 16701.50 17374.50 153.48
5089 21.3221 17394.70 17370.90 156.66
5090 21.3258 16947.30 17367.10 155.53
5091 21.3297 17413.10 17363.40 157.98
5092 21.3333 16717.20 17359.80 154.63
5093 21.3372 17314.30 17356.00 157.00
5094 21.3409 16555.80 17352.40 153.08
5095 21.3447 17193.60 17348.70 157.40
5096 21.3484 16836.30 17345.00 155.86
5097 21.3521 17208.30 17341.30 156.82
5098 21.3559 16823.70 17337.60 155.15
5099 21.3596 17071.60 17334.00 155.93
5100 21.3634 16830.40 17330.30 154.61
5101 21.3671 17134.60 17326.70 154.57
5102 21.3710 16638.80 17323.00 152.59
5103 21.3746 17032.30 17319.40 156.46
5104 21.3785 17001.10 17315.70 156.27
5105 21.3822 17478.70 17312.00 159.25
5106 21.3860 17007.00 17308.40 156.26
5107 21.3897 17103.20 17304.70 154.79
5108 21.3934 16917.40 17301.10 156.31
5109 21.3972 16907.90 17297.40 154.56
5110 21.4009 16867.40 17293.80 155.93
5111 21.4048 17039.00 17290.20 156.49
5112 21.4086 16789.40 17286.50 153.68
5113 21.4123 16885.00 17282.90 154.92
5114 21.4160 16824.80 17279.30 155.09
5115 21.4198 17109.50 17275.70 155.43
5116 21.4235 16634.50 17272.00 154.22
5117 21.4272 17180.70 17268.50 156.14
5118 21.4310 16721.80 17264.80 155.34
5119 21.4349 17025.20 17261.20 155.83
5120 21.4386 16835.50 17257.60 155.41
5121 21.4424 17049.50 17254.00 156.30
5122 21.4461 16958.70 17250.50 155.23
5123 21.4499 17196.10 17246.80 157.54
5124 21.4536 16979.80 17243.30 156.39
5125 21.4573 17207.30 17239.70 157.20
5126 21.4611 16884.30 17236.10 154.96
5127 21.4648 17124.10 17232.50 156.42
5128 21.4687 17045.70 17228.90 157.42
5129 21.4723 17036.20 17225.40 155.83
5130 21.4762 17270.30 17221.80 157.47
5131 21.4799 17185.60 17218.30 156.69
5132 21.4837 17033.30 17214.70 156.69
5133 21.4874 17282.30 17211.10 157.75
5134 21.4911 17077.50 17207.60 153.87
5135 21.4949 17487.80 17204.00 159.43
5136 21.4986 16880.50 17200.50 155.96
5137 21.5025 17139.70 17196.90 156.91
5138 21.5061 16912.30 17193.40 155.85
5139 21.5100 17265.30 17189.80 157.89
5140 21.5138 17104.30 17186.30 156.74
5141 21.5175 17378.80 17182.80 156.07
5142 21.5212 17236.00 17179.20 158.25
5143 21.5250 17609.90 17175.70 160.39
5144 21.5287 17374.70 17172.20 158.46
5145 21.5324 17743.20 17168.70 157.55
5146 21.5362 17331.60 17165.10 157.96
5147 21.5401 17305.00 17161.60 157.60
5148 21.5438 17162.90 17158.10 157.02
5149 21.5476 17133.70 17154.60 156.49
5150 21.5513 17065.60 17151.10 155.74
5151 21.5550 17441.30 17147.60 157.20
5152 21.5588 16870.00 17144.20 154.63
5153 21.5625 17022.10 17140.60 154.52
5154 21.5662 16780.30 17137.20 154.43
5155 21.5700 17183.90 17133.70 156.58
5156 21.5739 17215.50 17130.10 157.57
5157 21.5776 17254.90 17126.70 157.32
5158 21.5814 16969.90 17123.20 154.97
5159 21.5851 17132.90 17119.80 156.89
5160 21.5889 16720.30 17116.30 154.32
5161 21.5926 17317.00 17112.80 157.01
5162 21.5963 17072.30 17109.30 155.87
5163 21.6001 17134.10 17105.80 156.57
5164 21.6038 16821.80 17102.40 154.91
5165 21.6077 16904.00 17098.90 155.14
5166 21.6113 16707.60 17095.50 154.34
5167 21.6152 17019.10 17092.10 155.65
5168 21.6189 16943.90 17088.70 155.01
5169 21.6227 17055.20 17085.20 156.05
5170 21.6264 16883.30 17081.80 154.71
5171 21.6301 16946.70 17078.30 155.11
5172 21.6339 16779.80 17074.80 154.04
5173 21.6376 16814.80 17071.50 153.40
5174 21.6415 16607.80 17068.00 153.73
5175 21.6451 16926.70 17064.60 154.29
5176 21.6490 16762.70 17061.20 154.37
5177 21.6527 17059.00 17057.80 155.66
5178 21.6565 16860.80 17054.40 153.09
5179 21.6602 16856.60 17050.90 153.98
5180 21.6639 16646.80 17047.60 152.37
5181 21.6677 16882.40 17044.10 154.63
5182 21.6714 16645.00 17040.80 153.08
5183 21.6752 16813.40 17037.30 154.07
5184 21.6789 16714.90 17034.00 153.35
5185 21.6828 17111.80 17030.60 155.79
5186 21.6864 16363.50 17027.20 151.59
5187 21.6903 16818.60 17023.80 154.37
5188 21.6940 16802.90 17020.40 152.88
5189 21.6978 16835.90 17017.00 153.51
5190 21.7015 16651.70 17013.60 153.52
5191 21.7052 16764.40 17010.30 152.90
5192 21.7090 16941.10 17006.90 155.13
5193 21.7127 16999.30 17003.60 155.59
5194 21.7166 16787.90 17000.20 152.51
5195 21.7202 17204.50 16996.90 155.15
5196 21.7241 16787.60 16993.50 153.05
5197 21.7278 17073.90 16990.10 155.52
5198 21.7316 17054.70 16986.80 154.19
5199 21.7353 16897.00 16983.40 155.27
5200 21.7390 16674.70 16980.10 153.52
5201 21.7428 16918.00 16976.70 153.75
5202 21.7465 16656.60 16973.40 153.75
5203 21.7504 16885.70 16970.10 154.45
5204 21.7540 16596.00 16966.80 152.94
5205 21.7579 16938.70 16963.40 154.22
5206 21.7617 16843.50 16960.10 154.73
5207 21.7654 17015.30 16956.80 155.24
5208 21.7691 16622.30 16953.40 153.76
5209 21.7729 16677.40 16950.20 152.35
5210 21.7766 16275.40 16946.80 151.51
5211 21.7803 16516.00 16943.50 152.38
5212 21.7841 16676.60 16940.20 152.76
5213 21.7878 16658.20 16936.90 152.98
5214 21.7917 16451.80 16933.60 149.86
5215 21.7955 16801.90 16930.30 154.72
5216 21.7992 16458.10 16927.00 150.77
5217 21.8029 16866.80 16923.70 155.32
5218 21.8067 16599.00 16920.40 153.60
5219 21.8104 16800.20 16917.10 154.68
5220 21.8141 16554.30 16913.90 152.51
5221 21.8179 16557.40 16910.60 152.57
5222 21.8216 16563.10 16907.30 152.88
5223 21.8255 16789.70 16904.00 154.54
5224 21.8293 16684.90 16900.70 153.79
5225 21.8330 16893.60 16897.50 153.99
5226 21.8368 16807.90 16894.20 154.68
5227 21.8405 16764.40 16891.00 153.79
5228 21.8442 16600.40 16887.70 153.82
5229 21.8479 16948.50 16884.50 155.19
5230 21.8517 16659.90 16881.20 154.27
5231 21.8554 17022.50 16878.00 155.93
5232 21.8592 16575.30 16874.70 152.59
5233 21.8631 16962.90 16871.40 154.94
5234 21.8668 16682.80 16868.20 152.70
5235 21.8706 17016.10 16865.00 155.32
5236 21.8743 16718.90 16861.80 152.97
5237 21.8780 16850.20 16858.50 154.51
5238 21.8818 16713.70 16855.30 153.72
5239 21.8855 17026.20 16852.10 155.80
5240 21.8892 16910.30 16848.90 155.78
5241 21.8930 16844.50 16845.60 154.78
5242 21.8967 16573.10 16842.50 153.23
5243 21.9006 17007.40 16839.20 155.97
5244 21.9044 16804.70 16836.00 154.24
5245 21.9081 16891.90 16832.80 155.90
5246 21.9118 16732.50 16829.50 154.55
5247 21.9156 16749.90 16826.40 154.46
5248 21.9193 16576.90 16823.20 153.11
5249 21.9230 16946.80 16820.00 155.55
5250 21.9268 16510.40 16816.80 154.01
5251 21.9305 16673.10 16813.60 154.10
5252 21.9343 16778.30 16810.40 154.77
5253 21.9380 17017.40 16807.30 155.72
5254 21.9419 16571.30 16804.10 154.04
5255 21.9457 16836.90 16800.80 154.12
5256 21.9494 16468.20 16797.70 152.91
5257 21.9531 16980.70 16794.50 156.65
5258 21.9569 16747.90 16791.40 154.97
5259 21.9606 16943.80 16788.20 154.86
5260 21.9643 16468.90 16785.10 152.92
5261 21.9681 16801.00 16781.90 154.94
5262 21.9718 16262.70 16778.70 151.39
5263 21.9757 16926.60 16775.50 154.81
5264 21.9793 16616.80 16772.40 153.33
5265 21.9811 16922.60 16771.00 156.58
5266 21.9848 16261.30 16767.90 152.79
5267 21.9886 16882.90 16764.70 155.71
5268 21.9923 16522.90 16761.60 153.92
5269 21.9960 16793.10 16758.50 155.54
5270 21.9998 16498.40 16755.30 153.66
5271 22.0035 16855.20 16752.20 153.49
5272 22.0074 16774.80 16749.00 155.95
5273 22.0110 16919.90 16745.90 156.88
5274 22.0149 16598.50 16742.80 154.48
5275 22.0187 16770.30 16739.60 152.64
5276 22.0224 16516.40 16736.60 153.78
5277 22.0261 16901.20 16733.40 155.62
5278 22.0299 16566.50 16730.30 154.00
5279 22.0336 16797.30 16727.20 154.87
5280 22.0373 16501.30 16724.10 152.90
5281 22.0411 16698.90 16721.00 153.45
5282 22.0450 16474.90 16717.80 152.69
5283 22.0487 16958.70 16714.80 154.35
5284 22.0525 16474.30 16711.70 152.96
5285 22.0562 16765.80 16708.60 154.52
5286 22.0599 16694.60 16705.50 154.95
5287 22.0637 16888.60 16702.40 155.54
5288 22.0674 16390.40 16699.30 152.04
5289 22.0711 16698.00 16696.30 154.73
5290 22.0749 16613.60 16693.20 153.92
5291 22.0788 16964.20 16690.00 155.31
5292 22.0825 16517.40 16687.00 153.08
5293 22.0863 17025.40 16683.90 156.16
5294 22.0900 16560.30 16680.90 153.67
5295 22.0938 16871.90 16677.80 155.13
5296 22.0975 16599.70 16674.80 153.93
5297 22.1012 16954.10 16671.70 155.47
5298 22.1050 16512.90 16668.60 152.87
5299 22.1087 16851.30 16665.60 155.13
5300 22.1126 16622.00 16662.50 153.48
5301 22.1162 16698.40 16659.50 153.95
5302 22.1201 16381.10 16656.40 152.07
5303 22.1238 16652.50 16653.40 152.70
5304 22.1276 16407.70 16650.30 152.81
5305 22.1313 16825.70 16647.30 153.92
5306 22.1350 16488.80 16644.20 153.07
5307 22.1388 16718.50 16641.20 154.02
5308 22.1425 16503.70 16638.20 151.36
5309 22.1464 16610.60 16635.10 152.83
5310 22.1500 16668.90 16632.10 152.65
5311 22.1539 16739.00 16629.10 154.03
5312 22.1576 16292.40 16626.10 151.36
5313 22.1614 16657.20 16623.10 153.40
5314 22.1651 16251.00 16620.00 151.03
5315 22.1688 16738.10 16617.00 153.97
5316 22.1726 16504.90 16614.00 152.51
5317 22.1763 16608.40 16611.00 153.42
5318 22.1801 16402.70 16608.00 150.92
5319 22.1838 16417.10 16605.00 151.45
5320 22.1877 16646.40 16602.00 153.65
5321 22.1914 16651.10 16599.10 152.47
5322 22.1952 16306.70 16596.00 151.90
5323 22.1989 16598.90 16593.00 153.62
5324 22.2027 16278.10 16590.10 149.97
5325 22.2064 16840.00 16587.00 153.40
5326 22.2101 16240.10 16584.10 150.30
5327 22.2139 16601.00 16581.10 153.18
5328 22.2155 16605.10 16579.80 151.76
5329 22.2192 16602.10 16576.90 152.06
5330 22.2230 16538.00 16573.90 152.18
5331 22.2267 16809.30 16571.00 154.07
5332 22.2306 16290.40 16568.00 151.28
5333 22.2342 16648.50 16565.00 152.07
5334 22.2381 16090.60 16562.10 150.27
5335 22.2418 16461.30 16559.10 151.56
5336 22.2456 16351.10 16556.10 150.43
5337 22.2493 16692.80 16553.20 153.26
5338 22.2530 16284.00 16550.20 151.29
5339 22.2568 16539.30 16547.30 151.44
5340 22.2605 16494.30 16544.40 151.90
5341 22.2644 16541.80 16541.40 151.81
5342 22.2680 16463.20 16538.50 152.05
5343 22.2719 16619.10 16535.50 153.51
5344 22.2756 16519.90 16532.60 152.13
5345 22.2794 16716.50 16529.70 153.12
5346 22.2831 16395.90 16526.80 151.76
5347 22.2868 16798.90 16523.80 152.41
5348 22.2906 16273.90 16520.90 150.68
5349 22.2943 16769.40 16518.00 153.59
5350 22.2981 16115.70 16515.00 150.10
5351 22.3018 16399.00 16512.10 150.98
5352 22.3057 16548.40 16509.20 151.93
5353 22.3093 16530.40 16506.30 152.03
5354 22.3132 16037.20 16503.40 149.06
5355 22.3169 17041.10 16500.50 153.78
5356 22.3207 16357.60 16497.60 151.14
5357 22.3244 16553.70 16494.70 152.89
5358 22.3281 16397.10 16491.80 152.07
5359 22.3319 16658.60 16488.90 152.99
5360 22.3356 16131.10 16486.00 149.41
5361 22.3395 16492.90 16483.10 151.46
5362 22.3431 16113.30 16480.20 150.20
5363 22.3470 16578.00 16477.30 152.66
5364 22.3507 16339.30 16474.50 150.41
5365 22.3545 16825.10 16471.60 154.49
5366 22.3582 16171.80 16468.70 150.35
5367 22.3619 16437.60 16465.80 152.09
5368 22.3657 16271.10 16462.90 151.04
5369 22.3694 16632.10 16460.10 153.00
5370 22.3732 16409.00 16457.20 151.49
5371 22.3769 16600.60 16454.40 151.60
5372 22.3808 16581.50 16451.50 152.12
5373 22.3845 16349.80 16448.70 152.02
5374 22.3883 16118.20 16445.80 150.56
5375 22.3920 16364.70 16443.00 151.31
5376 22.3958 16580.10 16440.10 153.31
5377 22.3995 16570.20 16437.20 153.16
5378 22.4032 16156.20 16434.40 150.60
5379 22.4070 16526.50 16431.50 152.73
5380 22.4107 16076.00 16428.70 149.82
5381 22.4146 16700.60 16425.80 153.74
5382 22.4182 16302.00 16423.00 149.40
5383 22.4221 16683.00 16420.20 152.85
5384 22.4258 16297.90 16417.40 151.54
5385 22.4296 16611.60 16414.50 153.12
5386 22.4333 16504.70 16411.70 152.73
5387 22.4370 16716.10 16408.90 153.15
5388 22.4408 16234.60 16406.00 150.39
5389 22.4445 16735.50 16403.20 153.52
5390 22.4484 16277.60 16400.40 150.97
5391 22.4520 16514.00 16397.60 152.28
5392 22.4559 16404.00 16394.80 152.43
5393 22.4596 16391.40 16392.00 151.72
5394 22.4634 16601.30 16389.20 152.55
5395 22.4671 16469.30 16386.40 152.42
5396 22.4708 16063.70 16383.60 149.93
5397 22.4746 16361.10 16380.70 151.74
5398 22.4783 16268.10 16378.00 151.42
5399 22.4821 16624.30 16375.10 153.04
5400 22.4858 16598.10 16372.40 153.64
5401 22.4897 16453.30 16369.60 152.66
5402 22.4933 16266.40 16366.80 151.02
5403 22.4972 16717.50 16364.00 153.77
5404 22.5009 16248.50 16361.30 150.51
5405 22.5047 16710.10 16358.50 151.98
5406 22.5084 16294.20 16355.60 151.31
5407 22.5121 16369.20 16352.90 151.98
5408 22.5159 16258.40 16350.10 152.01
5409 22.5196 16504.80 16347.40 152.82
5410 22.5235 16149.70 16344.60 151.35
5411 22.5271 16582.80 16341.90 152.47
5412 22.5310 16354.70 16339.10 151.54
5413 22.5347 16559.30 16336.30 153.49
5414 22.5385 16465.70 16333.60 152.40
5415 22.5422 16548.10 16330.80 152.53
5416 22.5459 16354.70 16328.10 151.60
5417 22.5497 16717.80 16325.30 154.17
5418 22.5534 16461.80 16322.60 152.47
5419 22.5572 16411.80 16319.80 152.52
5420 22.5609 16375.70 16317.10 152.83
5421 22.5648 16412.10 16314.30 152.12
5422 22.5686 16584.90 16311.50 153.10
5423 22.5723 16533.50 16308.80 152.17
5424 22.5760 16199.20 16306.10 151.55
5425 22.5798 16551.50 16303.40 152.76
5426 22.5835 16238.50 16300.60 151.51
5427 22.5872 16687.50 16297.90 154.29
5428 22.5910 16204.00 16295.20 151.56
5429 22.5947 16501.70 16292.50 152.20
5430 22.5986 16158.00 16289.70 150.46
5431 22.6024 16572.80 16287.00 153.03
5432 22.6061 16338.30 16284.30 151.72
5433 22.6098 16428.80 16281.60 152.47
5434 22.6136 16087.80 16278.90 150.13
5435 22.6173 16601.10 16276.20 153.53
5436 22.6210 16392.70 16273.50 152.29
5437 22.6248 16548.70 16270.80 153.54
5438 22.6287 16108.20 16268.00 149.82
5439 22.6324 16624.30 16265.40 152.37
5440 22.6362 16347.20 16262.60 150.55
5441 22.6399 16454.20 16260.00 151.64
5442 22.6437 16284.20 16257.30 151.15
5443 22.6474 16516.80 16254.60 152.62
5444 22.6511 16299.30 16251.90 151.07
5445 22.6549 16513.60 16249.30 152.14
5446 22.6586 16348.50 16246.50 151.54
5447 22.6625 16439.50 16243.80 152.32
5448 22.6661 16100.00 16241.20 150.31
5449 22.6700 16576.60 16238.50 153.24
5450 22.6737 16211.70 16235.90 152.27
5451 22.6775 16633.80 16233.10 153.36
5452 22.6812 16291.20 16230.50 151.30
5453 22.6849 16669.70 16227.80 152.68
5454 22.6887 16253.90 16225.10 151.91
5455 22.6924 16556.10 16222.50 153.22
5456 22.6963 16266.20 16219.80 151.96
5457 22.6999 16685.20 16217.20 153.62
5458 22.7038 16312.20 16214.50 152.12
5459 22.7075 16713.40 16211.90 153.02
5460 22.7113 16380.80 16209.20 152.42
5461 22.7150 16398.70 16206.60 152.42
5462 22.7188 16125.50 16203.90 150.13
5463 22.7225 16490.00 16201.30 152.39
5464 22.7262 16144.60 16198.70 149.93
5465 22.7300 16411.00 16196.00 152.07
5466 22.7337 16096.30 16193.40 150.58
5467 22.7376 16566.60 16190.70 153.20
5468 22.7412 16238.40 16188.10 151.20
5469 22.7451 16595.90 16185.50 152.16
5470 22.7488 16325.50 16182.80 151.60
5471 22.7526 16323.50 16180.20 151.81
5472 22.7563 16176.30 16177.60 150.63
5473 22.7600 16871.20 16175.00 153.84
5474 22.7638 16299.30 16172.30 151.53
5475 22.7675 16656.70 16169.80 153.25
5476 22.7714 16286.90 16167.10 150.79
5477 22.7752 16430.40 16164.50 152.53
5478 22.7789 16294.60 16161.90 151.60
5479 22.7826 16628.70 16159.30 153.70
5480 22.7864 16180.30 16156.70 149.40
5481 22.7901 16584.40 16154.10 152.90
5482 22.7938 16030.00 16151.50 148.42
5483 22.7976 16681.90 16148.90 154.29
5484 22.8015 16238.10 16146.20 151.06
5485 22.8051 16563.70 16143.70 154.19
5486 22.8090 16307.30 16141.10 151.16
5487 22.8127 16508.40 16138.50 153.08
5488 22.8165 16591.60 16135.90 152.87
5489 22.8202 16430.50 16133.40 153.18
5490 22.8239 16111.90 16130.70 150.92
5491 22.8277 16684.60 16128.10 153.29
5492 22.8314 15907.70 16125.60 149.89
5493 22.8353 16545.80 16123.00 152.93
5494 22.8389 16207.60 16120.40 150.77
5495 22.8428 16383.50 16117.80 151.86
5496 22.8465 16287.30 16115.30 152.31
5497 22.8503 16594.40 16112.70 151.67
5498 22.8540 16235.40 16110.10 151.41
5499 22.8577 16619.00 16107.60 152.13
5500 22.8615 16218.80 16105.00 151.21
5501 22.8652 16782.60 16102.50 154.27
5502 22.8690 16143.50 16099.90 151.58
5503 22.8727 16466.90 16097.40 152.85
5504 22.8766 16291.40 16094.80 151.13
5505 22.8804 16471.80 16092.20 152.64
5506 22.8841 16329.70 16089.70 151.66
5507 22.8878 16618.60 16087.10 152.63
5508 22.8916 16331.40 16084.60 150.82
5509 22.8953 16485.70 16082.00 152.05
5510 22.8990 16306.60 16079.50 151.73
5511 22.9028 16657.20 16077.00 152.83
5512 22.9067 16214.80 16074.40 151.04
5513 22.9104 16426.60 16071.90 152.65
5514 22.9142 16416.10 16069.30 152.56
5515 22.9179 16500.90 16066.90 152.56
5516 22.9216 16341.50 16064.30 152.44
5517 22.9254 16389.90 16061.80 152.33
5518 22.9291 16245.90 16059.30 151.29
5519 22.9329 16462.90 16056.70 153.09
5520 22.9366 16186.40 16054.20 149.69
5521 22.9405 16498.20 16051.70 153.27
5522 22.9442 16385.60 16049.20 151.93
5523 22.9480 16654.20 16046.70 154.07
5524 22.9517 16307.20 16044.20 152.00
5525 22.9555 16240.10 16041.70 152.08
5526 22.9592 16262.00 16039.10 151.12
5527 22.9629 16772.30 16036.60 154.96
5528 22.9667 16047.00 16034.10 150.23
5529 22.9704 16662.20 16031.70 154.03
5530 22.9743 16103.00 16029.10 150.30
5531 22.9781 16649.10 16026.60 154.26
5532 22.9818 16515.50 16024.10 154.13
5533 22.9855 16643.60 16021.60 153.29
5534 22.9893 16414.60 16019.20 152.40
5535 22.9930 16553.60 16016.60 153.79
5536 22.9967 16414.50 16014.20 151.67
5537 23.0005 16745.10 16011.70 154.10
5538 23.0044 16182.50 16009.20 151.38
5539 23.0081 16521.10 16006.70 153.79
5540 23.0119 16640.30 16004.20 154.39
5541 23.0156 16658.10 16001.80 153.71
5542 23.0194 16422.20 15999.30 152.74
5543 23.0231 16553.30 15996.80 153.67
5544 23.0268 16257.00 15994.40 151.01
5545 23.0306 16798.20 15991.90 154.82
5546 23.0343 16220.40 15989.40 152.26
5547 23.0382 16773.70 15986.90 153.58
5548 23.0418 16302.60 15984.50 151.52
5549 23.0457 16398.80 15982.00 152.58
5550 23.0494 16532.40 15979.50 153.93
5551 23.0532 17105.40 15977.10 156.73
5552 23.0569 16516.10 15974.60 152.82
5553 23.0606 16776.10 15972.20 155.09
5554 23.0644 16301.80 15969.70 152.48
5555 23.0681 16708.60 15967.30 154.62
5556 23.0720 16497.40 15964.90 151.93
5557 23.0758 16661.70 15962.40 153.88
5558 23.0795 16553.60 15960.00 153.56
5559 23.0833 16518.60 15957.50 152.85
5560 23.0870 16373.00 15955.10 153.00
5561 23.0907 16654.00 15952.60 154.68
5562 23.0944 16403.80 15950.20 152.57
5563 23.0982 16673.20 15947.80 153.81
5564 23.1021 16449.90 15945.30 152.79
5565 23.1057 16820.30 15942.90 156.23
5566 23.1096 16469.70 15940.50 152.24
5567 23.1133 16761.70 15938.10 154.74
5568 23.1171 16689.00 15935.60 154.58
5569 23.1208 16742.30 15933.20 155.28
5570 23.1245 16508.00 15930.80 152.87
5571 23.1283 16759.30 15928.40 155.40
5572 23.1320 16333.00 15926.00 152.62
5573 23.1359 16814.20 15923.50 155.23
5574 23.1395 16313.70 15921.20 152.19
5575 23.1434 16487.60 15918.70 153.97
5576 23.1472 16369.30 15916.30 152.73
5577 23.1509 16882.10 15913.90 155.69
5578 23.1546 16525.20 15911.50 154.01
5579 23.1583 16693.50 15909.10 155.11
5580 23.1621 16283.80 15906.70 152.77
5581 23.1660 16600.90 15904.30 153.82
5582 23.1696 16552.50 15901.90 154.21
5583 23.1735 16688.10 15899.50 155.41
5584 23.1772 16449.60 15897.10 153.22
5585 23.1810 17038.40 15894.70 154.67
5586 23.1847 16612.80 15892.40 153.86
5587 23.1884 16928.00 15890.00 154.17
5588 23.1922 16698.60 15887.50 155.00
5589 23.1959 16861.40 15885.20 155.13
5590 23.1998 16361.40 15882.80 152.89
5591 23.2034 16744.90 15880.50 155.10
5592 23.2073 16454.50 15878.10 152.22
5593 23.2111 16862.50 15875.60 155.97
5594 23.2148 16430.00 15873.30 153.59
5595 23.2185 16796.40 15870.90 155.21
5596 23.2222 16630.80 15868.60 153.76
5597 23.2260 16830.50 15866.20 155.65
5598 23.2299 16354.70 15863.80 153.08
5599 23.2335 16875.80 15861.50 156.38
5600 23.2374 16732.80 15859.10 155.08
5601 23.2411 16788.50 15856.80 155.25
5602 23.2449 16583.30 15854.40 152.78
5603 23.2486 16965.40 15852.00 155.71
5604 23.2523 16569.30 15849.70 153.92
5605 23.2561 16676.60 15847.30 154.66
5606 23.2598 16706.70 15845.00 155.71
5607 23.2637 17061.70 15842.60 157.08
5608 23.2673 16987.40 15840.30 156.40
5609 23.2712 17102.80 15837.90 154.74
5610 23.2750 16898.00 16190.40 155.99
5611 23.2787 16949.10 16195.90 156.36
5612 23.2824 16781.20 16201.80 155.36
5613 23.2861 16984.60 16207.80 155.43
5614 23.2899 16593.90 16214.30 154.18
5615 23.2936 17074.30 16221.00 156.83
5616 23.2974 16841.20 16228.10 155.09
5617 23.3013 17172.70 16235.60 156.55
5618 23.3050 16798.70 16243.20 154.37
5619 23.3088 17256.80 16251.40 157.66
5620 23.3125 16807.60 16259.80 155.10
5621 23.3162 17024.80 16268.80 156.12
5622 23.3200 16859.10 16278.20 155.76
5623 23.3237 17213.10 16287.90 157.03
5624 23.3276 17008.80 16298.30 155.88
5625 23.3312 17417.10 16308.90 157.00
5626 23.3351 16962.60 16320.30 155.42
5627 23.3389 17255.80 16332.30 156.93
5628 23.3426 17015.50 16344.60 155.99
5629 23.3463 17223.40 17042.80 157.15
5630 23.3500 17014.80 17071.30 156.47
5631 23.3538 17148.40 17101.80 157.38
5632 23.3575 16971.00 17132.80 156.00
5633 23.3613 17450.50 17165.90 158.69
5634 23.3652 17125.40 17200.50 156.25
5635 23.3689 17401.60 17235.60 158.67
5636 23.3727 17063.20 17273.20 156.62
5637 23.3764 17525.80 17311.50 158.79
5638 23.3801 17258.90 17352.60 157.73
5639 23.3839 17744.00 17395.70 160.31
5640 23.3876 17156.40 17439.50 156.83
5641 23.3915 17857.80 17486.60 160.68
5642 23.3951 17652.80 17534.60 160.06
5643 23.3990 17796.90 17586.30 160.58
5644 23.4028 17566.70 17640.60 159.04
5645 23.4065 17692.30 17696.00 159.75
5646 23.4102 17907.90 17755.90 161.28
5647 23.4139 18209.80 17817.10 162.90
5648 23.4177 17829.80 17883.30 159.85
5649 23.4216 18216.30 17952.90 162.45
5650 23.4252 18084.20 18024.40 162.23
5651 23.4291 18433.70 18101.90 164.81
5652 23.4328 18137.40 18181.50 162.79
5653 23.4366 18773.50 18267.80 166.86
5654 23.4403 18236.20 18356.80 162.82
5655 23.4440 18680.70 18453.50 165.23
5656 23.4478 18684.50 18556.20 165.90
5657 23.4515 19035.80 18662.20 166.97
5658 23.4554 19049.70 18778.00 166.85
5659 23.4590 19270.80 18897.90 167.26
5660 23.4629 19261.70 19029.00 167.93
5661 23.4667 19785.70 19169.20 171.15
5662 23.4704 19361.90 19314.90 169.30
5663 23.4741 20029.30 19475.20 170.04
5664 23.4778 20007.50 19642.30 170.36
5665 23.4816 20646.50 19826.80 175.79
5666 23.4855 20264.00 20025.40 172.05
5667 23.4891 20899.50 20233.90 177.14
5668 23.4930 20762.40 20465.20 175.28
5669 23.4967 21557.10 20709.10 178.78
5670 23.5005 21521.00 20981.00 178.04
5671 23.5042 21776.00 21277.30 180.42
5672 23.5079 22013.80 21591.90 181.78
5673 23.5117 22590.10 21945.70 184.57
5674 23.5154 22831.30 22323.90 185.27
5675 23.5193 23780.00 22751.60 190.84
5676 23.5231 23729.30 23225.50 189.87
5677 23.5268 24813.00 23737.60 195.83
5678 23.5306 24943.80 24323.80 195.79
5679 23.5343 26174.30 24963.30 201.10
5680 23.5380 26915.10 25703.10 205.84
5681 23.5418 27760.70 26541.80 209.18
5682 23.5455 28777.70 27472.40 212.79
5683 23.5494 30492.00 28568.60 219.22
5684 23.5530 31770.30 29802.60 226.62
5685 23.5569 34212.80 31279.40 236.53
5686 23.5606 35887.00 32971.40 243.91
5687 23.5644 39102.10 35037.70 257.07
5688 23.5681 42603.70 37535.40 270.53
5689 23.5718 48122.30 40520.20 292.42
5690 23.5756 53947.20 44411.30 311.64
5691 23.5793 64350.20 49496.40 347.62
5692 23.5832 77189.20 57171.30 394.49
5693 23.5870 97105.50 69729.90 458.10
5694 23.5907 123391.00 91012.60 537.70
5695 23.5944 163070.00 129244.00 646.33
5696 23.5982 212758.00 190830.00 776.32
5697 23.6019 288916.00 285892.00 964.67
5698 23.6057 388554.00 412032.00 1198.49
5699 23.6094 518361.00 549722.00 1484.02
5700 23.6133 623890.00 670567.00 1707.52
5701 23.6169 674862.00 718883.00 1791.95
5702 23.6208 617427.00 669606.00 1696.22
5703 23.6245 513051.00 550020.00 1475.22
5704 23.6283 387393.00 415681.00 1198.40
5705 23.6320 297333.00 294297.00 984.03
5706 23.6357 225416.00 206776.00 806.35
5707 23.6395 185661.00 149091.00 702.89
5708 23.6434 155699.00 117398.00 619.08
5709 23.6471 142684.00 103419.00 585.67
5710 23.6509 134861.00 100271.00 565.05
5711 23.6546 139705.00 105642.00 576.30
5712 23.6583 151706.00 121391.00 611.18
5713 23.6621 182888.00 154097.00 691.24
5714 23.6658 228554.00 213907.00 808.11
5715 23.6696 312867.00 320180.00 1013.78
5716 23.6733 434824.00 481404.00 1292.07
5717 23.6772 641137.00 708626.00 1732.93
5718 23.6810 908542.00 975568.00 2265.34
5719 23.6847 1231490.00 1216130.00 2905.54
5720 23.6884 1423780.00 1347780.00 3258.03
5721 23.6922 1419300.00 1293150.00 3251.04
5722 23.6959 1154050.00 1081580.00 2743.72
5723 23.6998 837782.00 811735.00 2133.50
5724 23.7034 553825.00 567508.00 1540.26
5725 23.7073 376087.00 372478.00 1155.70
5726 23.7110 257331.00 243144.00 879.17
5727 23.7148 184682.00 161668.00 696.13
5728 23.7185 136715.00 115305.00 567.92
5729 23.7222 107582.00 89809.10 487.31
5730 23.7260 85145.70 74182.30 413.49
5731 23.7297 71911.30 64203.10 370.77
5732 23.7335 60594.40 56797.70 335.40
5733 23.7374 53980.00 51102.10 310.79
5734 23.7411 47762.00 46658.20 288.62
5735 23.7449 44195.70 42923.20 273.93
5736 23.7486 40156.10 39903.40 257.16
5737 23.7523 37757.10 37299.80 249.51
5738 23.7561 35545.50 35095.10 240.52
5739 23.7598 33929.00 33260.30 232.79
5740 23.7637 31844.60 31636.00 223.31
5741 23.7673 31051.80 30262.50 221.22
5742 23.7712 29050.80 29029.70 212.40
5743 23.7750 28713.90 27947.60 210.39
5744 23.7787 27460.60 27015.80 205.48
5745 23.7824 26654.70 26165.10 201.27
5746 23.7861 25750.60 25426.20 197.91
5747 23.7899 25207.30 24745.10 195.68
5748 23.7938 24353.60 24133.10 190.67
5749 23.7974 24106.30 23594.40 190.97
5750 23.8013 23128.10 23092.80 184.89
5751 23.8050 23234.80 22648.30 186.59
5752 23.8088 22439.80 22231.80 182.74
5753 23.8125 22587.80 21850.60 183.17
5754 23.8162 21696.80 21510.40 178.70
5755 23.8200 21497.20 21188.70 177.86
5756 23.8237 21054.00 20899.80 176.54
5757 23.8276 21076.90 20625.60 176.62
5758 23.8314 20427.60 20371.80 173.11
5759 23.8351 20594.80 20142.30 173.67
5760 23.8389 20163.00 19923.20 171.68
5761 23.8426 19836.80 19724.20 170.21
5762 23.8463 19772.80 19533.50 170.21
5763 23.8501 20055.50 19355.40 170.85
5764 23.8538 19482.40 19192.90 168.31
5765 23.8577 19419.80 19036.40 167.52
5766 23.8613 18945.40 18893.20 165.33
5767 23.8652 19286.30 18754.90 167.45
5768 23.8689 18785.70 18624.60 164.63
5769 23.8727 18962.80 18505.00 166.17
5770 23.8764 18619.60 18389.00 163.90
5771 23.8801 19122.70 18282.30 166.15
5772 23.8839 18535.00 18178.40 162.29
5773 23.8878 18676.00 18080.10 145.45
5774 23.8953 18342.50 17900.80 147.30
5775 23.8990 18212.30 17818.80 160.84
5776 23.9028 18254.00 17738.70 161.78
5777 23.9065 17894.00 17662.40 160.33
5778 23.9102 18368.50 17591.60 162.61
5779 23.9140 17762.60 17522.30 159.75
5780 23.9177 18151.40 17457.80 161.88
5781 23.9216 17674.30 17394.60 159.56
5782 23.9254 17803.70 17334.10 159.26
5783 23.9291 17642.40 17277.70 159.15
5784 23.9328 17703.50 17222.30 159.55
5785 23.9366 17524.70 17170.50 159.01
5786 23.9403 17572.60 17119.50 158.89
5787 23.9442 17283.80 17070.70 157.60
5788 23.9478 17643.70 17024.90 158.93
5789 23.9517 17233.20 16979.80 156.72
5790 23.9554 17469.80 16937.50 158.68
5791 23.9592 17193.50 16895.70 156.87
5792 23.9629 17631.60 16508.80 158.62
5793 23.9667 17384.30 16478.30 157.38
5794 23.9704 17773.90 16448.20 159.13
5795 23.9741 17300.10 16420.00 157.80
5796 23.9779 17438.10 16392.00 157.49
5797 23.9818 17205.50 16365.00 157.58
5798 23.9855 17350.10 16339.70 156.68
5799 23.9893 16953.50 16314.60 155.49
5800 23.9930 17283.90 16290.90 156.02
5801 23.9967 17120.80 16267.50 156.30
5802 24.0005 17095.40 16244.80 156.30
5803 24.0042 16881.30 16223.40 155.04
5804 24.0081 17085.40 16202.10 155.81
5805 24.0117 16667.50 16182.10 154.97
5806 24.0156 17423.00 16162.10 157.75
5807 24.0194 16967.90 16142.70 155.38
5808 24.0231 17038.30 16124.50 156.38
5809 24.0268 16658.60 16106.30 153.94
5810 24.0306 16898.00 16089.00 155.49
5811 24.0343 16572.60 16071.80 154.35
5812 24.0382 17056.30 15393.40 156.15
5813 24.0418 16663.90 15391.40 153.93
5814 24.0457 16731.80 15389.30 153.86
5815 24.0494 16837.10 15387.30 155.59
5816 24.0532 16808.90 15385.30 154.96
5817 24.0569 16474.50 15383.20 153.48
5818 24.0606 16925.40 15381.20 155.38
5819 24.0644 16456.40 15379.20 152.40
5820 24.0681 16880.20 15377.20 154.79
5821 24.0720 16388.80 15375.20 152.91
5822 24.0758 16780.70 15373.10 154.87
5823 24.0795 16480.60 15371.10 153.05
5824 24.0833 16859.30 15369.10 155.86
5825 24.0870 16356.10 15367.10 153.03
5826 24.0907 16641.00 15365.10 153.95
5827 24.0945 16229.40 15363.00 151.65
5828 24.0982 16587.10 15361.10 153.52
5829 24.1021 16489.00 15359.00 152.98
5830 24.1059 16455.30 15357.00 152.70
5831 24.1096 16320.60 15355.00 152.56
5832 24.1133 16791.40 15353.00 154.80
5833 24.1171 16165.80 15351.00 152.52
5834 24.1208 16727.30 15349.00 152.18
5835 24.1246 16340.30 15347.00 150.58
5836 24.1283 16646.30 15345.00 151.84
5837 24.1322 16503.90 15343.00 152.00
5838 24.1359 16655.70 15341.00 151.14
5839 24.1397 16345.80 15339.00 150.59
5840 24.1434 16460.00 15337.00 151.11
5841 24.1472 16223.90 15335.00 149.81
5842 24.1509 16421.00 15333.00 151.35
5843 24.1546 16381.50 15331.00 151.23
5844 24.1584 16808.40 15329.00 152.72
5845 24.1623 16200.30 15327.00 150.03
5846 24.1660 16643.60 15325.00 152.32
5847 24.1698 16106.60 15323.00 148.88
5848 24.1735 16753.70 15321.10 153.14
5849 24.1772 16320.10 15319.10 150.54
5850 24.1810 16391.10 15317.10 150.51
5851 24.1847 16266.60 15315.10 150.59
5852 24.1886 16296.60 15313.10 150.60
5853 24.1922 16335.30 15311.20 150.40
5854 24.1961 16572.00 15309.10 152.46
5855 24.1999 16381.40 15307.10 150.85
5856 24.2036 16626.20 15305.20 152.03
5857 24.2073 16438.70 15303.20 151.36
5858 24.2111 16550.70 15301.30 152.07
5859 24.2148 16128.70 15299.30 149.40
5860 24.2187 16432.90 15297.30 151.57
5861 24.2223 16205.40 15295.30 149.58
5862 24.2262 16186.50 15293.30 149.30
5863 24.2299 16323.20 15291.40 149.51
5864 24.2337 16434.00 15289.40 151.08
5865 24.2374 16010.50 15287.40 148.87
5866 24.2411 16497.00 15285.50 151.62
5867 24.2449 16267.50 15283.50 150.57
5868 24.2488 16336.20 15281.50 150.97
5869 24.2525 16214.70 15279.60 150.24
5870 24.2563 16482.50 15277.60 151.86
5871 24.2600 16241.60 15275.70 150.41
5872 24.2638 16650.20 15273.70 150.46
5873 24.2675 16129.90 15271.70 149.48
5874 24.2712 16225.20 15269.80 149.87
5875 24.2750 16065.00 15267.80 149.56
5876 24.2787 16175.00 15265.90 149.07
5877 24.2826 16216.90 15263.90 150.00
5878 24.2864 16398.80 15261.90 151.79
5879 24.2901 16063.10 15260.00 149.32
5880 24.2938 16215.50 15258.00 149.30
5881 24.2976 15963.60 15256.10 148.66
5882 24.3013 16328.20 15254.10 150.01
5883 24.3051 16137.30 15252.20 149.46
5884 24.3088 16254.80 15250.30 150.30
5885 24.3127 16000.80 15248.30 148.09
5886 24.3164 16269.30 15246.40 149.60
5887 24.3202 16152.80 15244.40 149.87
5888 24.3239 16191.00 15242.40 149.29
5889 24.3277 15956.20 15240.50 148.90
5890 24.3314 16130.30 15238.60 149.83
5891 24.3351 15947.10 15236.70 148.71
5892 24.3389 16274.60 15234.70 150.54
5893 24.3428 16029.70 15232.70 148.27
5894 24.3465 16231.30 15230.80 149.38
5895 24.3503 15744.60 15228.90 147.92
5896 24.3540 16020.70 15227.00 148.94
5897 24.3577 15833.60 15225.00 148.17
5898 24.3615 16134.50 15223.10 149.16
5899 24.3652 15935.40 15221.20 148.49
5900 24.3690 16198.90 15219.20 150.02
5901 24.3729 16018.20 15217.30 149.17
5902 24.3766 16173.70 15215.40 150.05
5903 24.3804 15852.90 15213.40 148.45
5904 24.3841 16040.40 15211.50 148.78
5905 24.3878 15738.90 15209.60 147.43
5906 24.3916 16264.40 15207.70 149.81
5907 24.3953 15998.40 15205.80 148.93
5908 24.3992 16175.50 15203.80 149.77
5909 24.4028 15813.90 15201.90 148.39
5910 24.4067 16296.60 15200.00 150.97
5911 24.4104 15755.20 15198.00 148.12
5912 24.4142 16251.70 15196.20 149.83
5913 24.4179 15688.60 15194.20 147.42
5914 24.4216 16129.30 15192.30 149.65
5915 24.4254 15818.70 15190.40 147.38
5916 24.4293 16108.90 15188.50 149.35
5917 24.4329 16085.10 15186.60 149.70
5918 24.4368 16174.40 15184.70 150.64
5919 24.4405 15864.70 15182.80 148.34
5920 24.4443 16316.50 15180.80 150.75
5921 24.4480 15719.10 15178.90 147.48
5922 24.4517 16313.10 15177.00 151.01
5923 24.4555 15819.50 15175.10 148.31
5924 24.4592 16188.60 15173.20 150.65
5925 24.4631 15658.60 15171.30 147.31
5926 24.4669 16111.60 15169.40 149.62
5927 24.4706 15737.30 15167.50 147.70
5928 24.4743 16084.10 15165.60 149.45
5929 24.4781 15961.90 15163.70 149.43
5930 24.4818 15792.40 15161.80 148.00
5931 24.4856 15998.30 15159.90 149.85
5932 24.4893 16338.20 15158.00 150.84
5933 24.4932 16051.50 15156.10 148.33
5934 24.4970 16043.20 15154.20 150.49
5935 24.5007 15799.60 15152.30 147.85
5936 24.5044 15959.70 15150.40 149.16
5937 24.5082 15873.50 15148.60 148.21
5938 24.5119 16147.40 15146.60 149.22
5939 24.5158 15874.90 15144.70 149.17
5940 24.5194 16005.70 15142.90 149.61
5941 24.5233 15835.50 15141.00 148.70
5942 24.5270 16073.30 15139.10 149.95
5943 24.5308 15680.70 15137.20 147.74
5944 24.5345 16318.00 15135.30 151.37
5945 24.5382 15878.80 15133.40 148.57
5946 24.5420 15879.80 15131.50 148.26
5947 24.5457 15836.30 15129.70 148.32
5948 24.5495 16180.50 15127.80 150.05
5949 24.5534 15693.80 15125.90 147.43
5950 24.5571 16303.20 15124.00 151.23
5951 24.5609 15873.50 15122.10 148.45
5952 24.5646 16233.30 15120.30 150.26
5953 24.5683 15615.00 15118.40 146.99
5954 24.5721 15905.50 15116.50 149.31
5955 24.5758 15844.90 15114.60 148.14
5956 24.5797 16116.80 15112.80 149.99
5957 24.5835 15759.00 15110.90 148.32
5958 24.5872 15923.00 15109.00 149.42
5959 24.5910 15826.50 15107.10 148.40
5960 24.5947 15778.30 15105.30 148.11
5961 24.5984 15855.90 15103.40 148.96
5962 24.6022 16097.40 15101.50 152.54
5963 24.6059 15815.30 15099.70 149.49
5964 24.6098 15798.40 15097.80 149.05
5965 24.6134 15688.80 15095.90 148.68
5966 24.6173 16019.60 15094.10 150.03
5967 24.6210 15671.80 15092.20 147.67
5968 24.6248 15955.50 15090.30 149.63
5969 24.6285 15700.60 15088.50 148.46
5970 24.6322 15991.80 15086.60 148.73
5971 24.6360 15706.90 15084.70 148.54
5972 24.6399 15839.90 15082.90 149.07
5973 24.6436 15594.40 15081.00 147.73
5974 24.6474 15974.40 15079.20 149.82
5975 24.6511 15625.60 15077.30 148.41
5976 24.6549 16216.10 15075.50 150.59
5977 24.6586 15550.10 15073.60 147.41
5978 24.6623 15772.90 15071.80 148.76
5979 24.6661 15659.70 15069.90 147.50
5980 24.6698 15901.30 15068.10 150.07
5981 24.6737 15580.40 15066.20 147.68
5982 24.6775 15879.20 15064.30 149.96
5983 24.6812 15627.00 15062.50 147.52
5984 24.6849 16019.00 15060.60 150.52
5985 24.6887 15517.20 15058.80 147.60
5986 24.6924 15596.00 15056.90 148.20
5987 24.6963 15407.00 15055.10 146.88
5988 24.6999 15848.00 15053.30 149.05
5989 24.7038 15703.30 15051.40 147.82
5990 24.7076 15723.50 15049.50 148.92
5991 24.7113 15746.50 15047.70 148.86
5992 24.7150 15745.30 15045.80 148.57
5993 24.7188 15786.50 15044.00 149.04
5994 24.7225 15650.60 15042.20 148.38
5995 24.7264 15512.00 15040.30 147.51
5996 24.7300 15994.90 15038.50 150.24
5997 24.7339 15614.30 15036.60 147.66
5998 24.7376 15628.30 15034.80 148.81
5999 24.7414 15612.20 15033.00 148.47
6000 24.7451 15962.40 15031.10 150.39
6001 24.7488 15488.90 15029.30 147.89
6002 24.7526 15628.70 15027.50 147.87
6003 24.7563 15462.70 15025.70 146.55
6004 24.7602 16105.50 15023.80 150.40
6005 24.7640 15423.70 15022.00 146.61
6006 24.7677 15885.70 15020.20 149.47
6007 24.7715 15777.10 15018.30 147.98
6008 24.7752 15726.20 15016.50 148.64
6009 24.7789 15428.70 15014.70 147.22
6010 24.7827 15675.40 15012.80 148.10
6011 24.7864 15664.70 15011.00 148.34
6012 24.7903 15816.60 15009.20 149.47
6013 24.7939 15590.60 15007.40 147.52
6014 24.7978 15766.10 15005.50 148.80
6015 24.8015 15430.00 15003.70 146.38
6016 24.8053 15740.00 15001.90 148.41
6017 24.8090 15645.90 15000.10 147.98
6018 24.8129 15725.90 14998.20 149.26
6019 24.8165 15414.60 14996.40 146.99
6020 24.8204 15686.70 14994.60 148.62
6021 24.8241 15358.30 14992.80 146.35
6022 24.8279 15391.80 14991.00 146.74
6023 24.8316 15298.00 14989.10 146.36
6024 24.8354 15723.70 14987.30 149.40
6025 24.8391 15578.60 14985.50 147.53
6026 24.8428 15843.30 14983.70 149.87
6027 24.8466 15679.20 14981.90 148.60
6028 24.8505 15796.90 14980.00 148.84
6029 24.8542 15381.00 14978.30 146.51
6030 24.8580 15845.20 14976.40 148.44
6031 24.8617 15504.30 14974.60 148.50
6032 24.8654 15547.20 14972.80 147.93
6033 24.8692 15530.90 14971.00 147.87
6034 24.8729 15703.10 14969.20 148.53
6035 24.8768 15658.20 14967.40 149.27
6036 24.8804 15737.70 14965.60 148.20
6037 24.8843 15437.20 14963.80 146.73
6038 24.8881 15659.00 14962.00 148.07
6039 24.8918 15543.50 14960.20 147.88
6040 24.8955 16103.20 14958.40 151.18
6041 24.8993 15582.50 14956.60 147.57
6042 24.9030 15752.10 14954.80 148.68
6043 24.9069 15634.90 14952.90 147.66
6044 24.9105 15583.40 14951.20 148.03
6045 24.9144 15351.70 14949.30 146.60
6046 24.9181 15813.60 14947.50 149.49
6047 24.9219 15704.00 14945.80 149.24
6048 24.9256 15769.50 14943.90 147.71
6049 24.9293 15499.60 14942.20 147.32
6050 24.9331 15841.40 14940.30 149.26
6051 24.9370 15530.80 14938.50 148.20
6052 24.9407 15624.90 14936.80 148.80
6053 24.9445 15551.20 14935.00 147.75
6054 24.9482 15600.10 14933.20 147.90
6055 24.9520 15474.00 14931.40 147.37
6056 24.9557 15633.50 14929.60 148.78
6057 24.9594 15418.60 14927.80 146.62
6058 24.9632 15855.30 14926.00 149.82
6059 24.9669 15480.10 14924.20 147.04
6060 24.9708 15668.20 14922.40 148.65
6061 24.9746 15410.60 14920.60 148.50
6062 24.9783 15683.80 14918.80 148.77
6063 24.9820 15618.80 14917.00 148.30
6064 24.9858 15639.70 14915.30 149.11
6065 24.9895 15187.70 14913.50 145.62
6066 24.9933 15680.60 14911.70 149.27
6067 24.9970 15528.30 14909.90 147.73
6068 25.0009 15679.10 14908.10 149.19
6069 25.0046 15387.80 14906.40 146.29
6070 25.0084 15609.50 14904.60 148.35
6071 25.0121 15396.10 14902.80 146.64
6072 25.0159 15758.70 14901.00 149.44
6073 25.0196 15514.70 14899.20 147.22
6074 25.0233 15561.50 14897.50 147.85
6075 25.0271 15610.50 14895.70 148.61
6076 25.0310 15686.10 14893.90 149.54
6077 25.0347 15533.40 14892.10 147.85
6078 25.0385 15468.40 14890.30 147.12
6079 25.0422 15420.10 14888.60 147.81
6080 25.0459 15763.70 14886.80 149.08
6081 25.0497 15398.30 14885.00 147.08
6082 25.0534 15781.70 14883.20 148.94
6083 25.0572 15417.60 14881.40 147.19
6084 25.0611 15613.70 14879.60 148.85
6085 25.0648 15333.60 14877.90 147.46
6086 25.0686 15633.80 14876.10 148.54
6087 25.0723 15261.20 14874.40 146.23
6088 25.0760 15586.00 14872.60 148.71
6089 25.0798 15439.30 14870.80 147.83
6090 25.0835 15697.10 14869.00 149.16
6091 25.0874 15361.70 14867.30 146.78
6092 25.0910 15751.10 14865.50 149.02
6093 25.0949 15405.40 14863.70 147.04
6094 25.0986 15568.50 14861.90 148.02
6095 25.1024 15388.80 14860.20 146.98
6096 25.1061 15868.00 14858.40 149.26
6097 25.1098 15371.00 14856.70 145.41
6098 25.1136 15549.80 14854.90 147.55
6099 25.1175 15452.90 14853.10 145.21
6100 25.1211 15555.60 14851.40 147.61
6101 25.1250 15298.90 14849.60 146.61
6102 25.1287 15764.30 14847.90 149.50
6103 25.1325 15470.30 14846.10 147.89
6104 25.1362 15506.10 14844.30 147.33
6105 25.1399 15444.60 14842.60 147.49
6106 25.1437 15639.60 14840.80 148.04
6107 25.1474 15462.80 14839.10 147.79
6108 25.1513 15629.20 14837.30 145.93
6109 25.1551 15236.80 14835.50 145.91
6110 25.1588 15586.30 14833.80 148.14
6111 25.1625 15299.00 14832.00 146.59
6112 25.1663 15630.80 14830.30 148.12
6113 25.1700 15357.00 14828.50 147.00
6114 25.1738 15464.00 14826.70 147.67
6115 25.1775 15374.70 14825.00 146.69
6116 25.1814 15790.90 14823.20 149.68
6117 25.1850 15293.30 14821.50 146.62
6118 25.1889 15722.00 14819.70 148.85
6119 25.1926 15003.80 14818.00 144.57
6120 25.1964 15701.70 14816.20 148.95
6121 25.2001 15407.10 14814.50 146.80
6122 25.2038 15462.20 14812.80 146.64
6123 25.2076 15491.00 14811.00 147.90
6124 25.2115 15490.00 14809.20 147.81
6125 25.2152 15062.70 14807.50 144.97
6126 25.2190 15459.00 14805.70 147.03
6127 25.2227 15409.00 14804.00 147.63
6128 25.2264 15623.60 14802.30 148.75
6129 25.2302 15478.60 14800.50 146.88
6130 25.2339 15614.50 14798.80 148.32
6131 25.2377 15153.70 14797.00 145.53
6132 25.2416 15443.80 14795.20 146.64
6133 25.2453 15149.80 14793.50 145.16
6134 25.2491 15244.40 14791.80 146.04
6135 25.2528 15275.30 14790.10 145.28
6136 25.2565 15318.50 14788.30 146.32
6137 25.2603 15333.50 14786.50 146.61
6138 25.2640 15258.70 14784.80 146.42
6139 25.2679 15159.30 14783.10 143.90
6140 25.2715 15456.30 14781.30 146.96
6141 25.2754 15103.50 14779.60 146.00
6142 25.2792 15273.80 14777.80 146.16
6143 25.2829 15238.20 14776.10 145.73
6144 25.2866 14982.00 14774.40 143.86
6145 25.2903 15117.40 14772.70 145.89
6146 25.2941 15267.00 14770.90 145.69
6147 25.2980 15206.80 14769.20 145.46
6148 25.3016 15474.20 14767.40 146.73
6149 25.3055 15281.20 14765.70 146.10
6150 25.3092 15367.00 14764.00 145.87
6151 25.3130 15206.30 14762.20 145.65
6152 25.3167 15274.70 14760.50 146.03
6153 25.3204 15246.80 14758.80 145.82
6154 25.3242 15383.50 14757.00 147.44
6155 25.3279 14837.10 14755.30 143.45
6156 25.3318 15207.40 14753.60 145.74
6157 25.3356 15026.50 14751.80 144.54
6158 25.3393 15197.60 14750.10 145.58
6159 25.3431 14980.00 14748.40 144.24
6160 25.3468 15333.90 14746.70 146.49
6161 25.3505 15102.20 14744.90 144.63
6162 25.3543 15340.80 14743.20 145.82
6163 25.3580 15106.90 14741.50 145.13
6164 25.3619 15192.30 14739.70 145.79
6165 25.3655 14960.10 14738.00 144.01
6166 25.3694 15384.90 14736.30 146.68
6167 25.3731 15036.90 14734.60 144.91
6168 25.3769 15433.30 14732.90 146.74
6169 25.3806 15196.90 14731.10 145.62
6170 25.3843 14891.00 14729.40 144.36
6171 25.3881 14940.70 14727.70 143.65
6172 25.3920 15305.10 14725.90 146.54
6173 25.3957 15063.70 14724.20 145.02
6174 25.3995 15245.70 14722.50 146.34
6175 25.4032 14968.80 14720.80 144.47
6176 25.4069 15147.90 14719.10 146.22
6177 25.4107 15223.60 14717.30 145.99
6178 25.4144 15094.40 14715.60 145.32
6179 25.4182 14990.00 14713.90 144.25
6180 25.4219 15351.20 14712.20 146.06
6181 25.4258 14995.80 14710.50 144.77
6182 25.4296 15213.90 14708.70 146.09
6183 25.4333 15126.30 14707.00 146.13
6184 25.4370 15401.20 14705.30 146.93
6185 25.4408 14892.90 14703.60 144.88
6186 25.4445 15235.90 14701.90 145.81
6187 25.4484 15191.60 14700.20 145.94
6188 25.4520 15292.10 14701.90 146.56
6189 25.4559 15056.80 14700.30 144.73
6190 25.4596 15290.50 14698.70 147.04
6191 25.4634 15201.10 14697.00 146.05
6192 25.4671 15047.80 14695.40 145.38
6193 25.4708 14922.50 14693.80 144.07
6194 25.4746 15293.70 14692.10 145.96
6195 25.4783 15009.30 14690.50 144.34
6196 25.4821 15056.20 14688.90 145.28
6197 25.4860 15145.60 14687.30 145.83
6198 25.4897 15393.60 14685.70 147.49
6199 25.4935 15070.30 14684.00 144.78
6200 25.4972 15391.30 14682.50 147.87
6201 25.5009 15204.20 14680.90 145.90
6202 25.5047 15121.20 14679.20 145.99
6203 25.5084 15003.50 14677.70 144.77
6204 25.5123 15169.30 14676.10 146.22
6205 25.5159 14987.30 14674.50 144.72
6206 25.5198 15065.00 14672.90 145.46
6207 25.5236 14817.80 14671.30 143.62
6208 25.5273 15220.70 14669.80 146.00
6209 25.5310 14810.00 14668.20 143.81
6210 25.5347 15078.80 14666.70 144.94
6211 25.5385 14905.40 14665.10 144.14
6212 25.5424 15275.90 14663.60 146.24
6213 25.5460 15083.10 14662.10 145.53
6214 25.5499 15121.60 14660.60 145.90
6215 25.5536 14878.60 14659.10 144.42
6216 25.5574 15133.60 14657.50 146.20
6217 25.5611 14878.50 14656.10 144.66
6218 25.5648 15315.40 14654.60 147.81
6219 25.5686 14879.10 14653.10 144.74
6220 25.5723 15245.90 14651.70 146.54
6221 25.5762 14926.50 14650.20 144.60
6222 25.5798 15159.00 14648.80 145.74
6223 25.5837 14785.00 14647.30 144.13
6224 25.5875 15229.20 14645.90 146.57
6225 25.5912 15132.50 14644.50 146.75
6226 25.5949 15189.80 14643.10 145.35
6227 25.5986 14911.70 14641.80 144.60
6228 25.6024 15294.40 14640.40 147.50
6229 25.6063 14746.40 14639.10 144.37
6230 25.6099 15069.80 14637.80 146.22
6231 25.6138 15020.00 14636.50 143.73
6232 25.6175 14923.20 14635.30 144.60
6233 25.6213 14874.30 14634.10 144.48
6234 25.6250 15075.50 14632.80 146.38
6235 25.6287 15102.60 14631.70 145.35
6236 25.6325 15060.60 14630.50 145.41
6237 25.6362 14750.50 14629.50 144.17
6238 25.6401 15259.60 14628.40 146.52
6239 25.6439 14873.50 14627.40 144.14
6240 25.6476 14954.20 14626.40 144.34
6241 25.6514 14921.10 14625.50 145.56
6242 25.6551 15136.20 14624.60 145.41
6243 25.6588 15002.80 14623.80 145.55
6244 25.6626 15240.40 14623.10 146.81
6245 25.6663 14536.70 14622.40 142.74
6246 25.6702 15076.90 14621.90 145.97
6247 25.6738 14649.70 14621.40 142.68
6248 25.6777 14938.50 14621.00 144.83
6249 25.6814 15133.60 14620.70 145.65
6250 25.6852 15017.10 14620.60 144.95
6251 25.6889 14840.70 14620.60 144.47
6252 25.6926 15023.50 14620.70 145.58
6253 25.6964 14927.00 14621.10 143.87
6254 25.7003 15176.30 14621.60 146.24
6255 25.7040 14945.80 14622.40 144.24
6256 25.7078 14859.60 14623.40 143.87
6257 25.7115 14811.50 14624.70 143.75
6258 25.7153 15111.40 14626.40 146.53
6259 25.7190 14940.40 14628.50 144.56
6260 25.7227 15029.00 14631.00 145.17
6261 25.7265 14890.60 14634.20 144.23
6262 25.7302 14976.60 14637.90 145.10
6263 25.7341 14791.20 14642.50 143.27
6264 25.7377 15298.10 14647.90 146.46
6265 25.7416 15068.10 14654.50 145.11
6266 25.7453 15033.00 14662.50 145.41
6267 25.7491 14879.30 14672.00 144.25
6268 25.7528 15180.80 14683.80 147.03
6269 25.7565 15052.40 14697.90 143.99
6270 25.7603 15417.80 14715.70 147.10
6271 25.7642 15267.60 14738.00 146.19
6272 25.7679 15292.30 14765.80 146.39
6273 25.7717 15157.60 14803.80 146.10
6274 25.7754 15652.90 14856.60 148.98
6275 25.7792 15728.10 14941.10 148.43
6276 25.7829 16187.30 15083.70 150.82
6277 25.7866 16036.00 15322.80 150.42
6278 25.7904 16747.70 15735.70 154.58
6279 25.7941 16793.50 16365.80 154.95
6280 25.7980 17599.10 17285.80 159.15
6281 25.8016 18309.70 18413.50 162.21
6282 25.8055 18935.30 19650.10 166.23
6283 25.8092 19020.00 20636.50 166.93
6284 25.8130 19665.50 20946.20 169.41
6285 25.8167 18899.20 20419.60 167.23
6286 25.8204 18650.30 19354.00 164.90
6287 25.8242 17951.50 18109.60 161.04
6288 25.8281 17844.90 17000.30 159.62
6289 25.8318 16969.30 16169.50 155.72
6290 25.8356 16573.70 15584.70 153.26
6291 25.8393 16471.10 15227.90 153.03
6292 25.8431 16494.20 15010.60 153.94
6293 25.8468 15802.80 14883.80 150.10
6294 25.8505 16226.80 14807.70 151.94
6295 25.8543 15518.50 14755.10 148.68
6296 25.8580 15820.60 14717.60 149.37
6297 25.8619 15455.40 14687.60 148.00
6298 25.8655 15626.60 14663.80 148.86
6299 25.8694 15147.00 14643.50 146.11
6300 25.8731 15568.40 14626.40 149.02
6301 25.8769 15110.90 14612.10 146.21
6302 25.8806 15348.40 14599.50 146.35
6303 25.8843 15021.60 14588.70 145.77
6304 25.8881 15361.50 14579.00 147.40
6305 25.8920 14718.60 14570.30 144.61
6306 25.8957 15052.20 14562.80 146.28
6307 25.8995 14891.20 14555.80 144.75
6308 25.9032 15344.20 14549.60 148.35
6309 25.9069 14756.60 14543.70 144.00
6310 25.9107 15023.60 14538.30 145.66
6311 25.9144 14773.00 14533.50 144.93
6312 25.9182 14809.40 14528.80 144.45
6313 25.9219 14736.00 14524.60 144.36
6314 25.9258 14711.30 14520.50 143.96
6315 25.9294 14846.30 14516.70 145.07
6316 25.9333 14766.50 14513.00 143.75
6317 25.9370 14776.60 14509.50 143.92
6318 25.9408 14834.40 14506.20 144.83
6319 25.9445 14773.30 14503.00 144.29
6320 25.9482 15011.40 14500.00 145.62
6321 25.9520 14551.40 14497.00 143.45
6322 25.9559 14717.10 14494.20 144.25
6323 25.9596 14691.00 14491.50 144.08
6324 25.9634 15063.00 14488.80 146.14
6325 25.9671 14727.00 14486.20 144.83
6326 25.9708 14762.80 14483.60 144.48
6327 25.9746 14459.70 14481.10 142.65
6328 25.9783 14786.70 14478.70 145.13
6329 25.9821 14478.90 14476.30 142.14
6330 25.9858 14908.90 14474.10 145.52
6331 25.9897 14820.40 14471.70 144.62
6332 25.9933 14594.20 14469.50 144.36
6333 25.9972 14724.40 14467.30 144.67
6334 26.0009 15002.80 14465.10 145.93
6335 26.0047 14626.30 14463.00 144.32
6336 26.0084 14836.70 14460.80 145.21
6337 26.0121 14606.80 14458.80 143.85
6338 26.0159 14808.20 14456.70 146.00
6339 26.0198 14682.00 14454.60 144.34
6340 26.0235 14892.70 14452.60 145.46
6341 26.0273 14662.30 14450.60 144.41
6342 26.0310 14947.90 14448.60 146.32
6343 26.0347 14379.40 14446.60 142.84
6344 26.0385 14679.50 14444.70 144.24
6345 26.0422 14692.60 14442.70 144.52
6346 26.0460 14972.60 14440.80 145.42
6347 26.0497 14642.50 14438.90 143.80
6348 26.0536 14840.70 14437.00 142.86
6349 26.0572 14519.60 14435.10 142.23
6350 26.0611 14648.10 14433.20 144.32
6351 26.0648 14674.50 14431.30 143.85
6352 26.0686 14985.50 14429.50 145.59
6353 26.0723 14591.50 14427.60 143.75
6354 26.0760 14877.40 14425.80 144.98
6355 26.0798 14566.60 14423.90 143.50
6356 26.0835 14553.70 14422.10 143.12
6357 26.0874 14405.00 14420.30 142.11
6358 26.0912 14702.30 14418.50 143.75
6359 26.0949 14526.50 14416.70 143.07
6360 26.0986 14993.10 14414.90 146.49
6361 26.1024 14471.00 14444.30 142.53
6362 26.1061 14777.40 14443.10 145.01
6363 26.1099 14918.90 14442.00 144.47
6364 26.1136 14682.40 14440.90 143.71
6365 26.1175 14562.90 14439.80 143.40
6366 26.1211 14937.80 14438.80 145.42
6367 26.1250 14755.00 14437.80 145.04
6368 26.1287 14587.70 14436.80 143.38
6369 26.1325 14527.60 14435.90 143.08
6370 26.1362 14612.40 14435.00 143.73
6371 26.1399 14608.80 14434.10 143.52
6372 26.1437 15021.90 14433.20 145.59
6373 26.1474 14514.40 14432.40 143.08
6374 26.1513 14746.20 14460.20 142.86
6375 26.1551 14596.10 14460.00 143.80
6376 26.1588 14661.70 14459.90 143.41
6377 26.1625 14456.10 14459.90 142.66
6378 26.1663 14540.60 14494.80 143.68
6379 26.1700 14391.60 14495.60 142.30
6380 26.1737 14874.10 14496.60 144.50
6381 26.1775 14630.70 14494.20 144.10
6382 26.1814 14490.90 14495.40 142.44
6383 26.1850 14530.30 14496.70 142.77
6384 26.1889 14836.30 14498.10 144.20
6385 26.1926 14426.60 14499.60 142.99
6386 26.1964 14726.50 14501.20 144.02
6387 26.2001 14519.30 14502.90 142.85
6388 26.2038 14652.40 14504.80 143.71
6389 26.2076 14314.80 14506.90 142.54
6390 26.2113 14831.50 14509.00 145.24
6391 26.2152 14615.10 14511.40 143.89
6392 26.2188 14874.50 14513.80 144.71
6393 26.2227 14538.00 14516.50 143.44
6394 26.2264 14680.00 14519.30 143.80
6395 26.2302 14725.30 14522.40 144.76
6396 26.2339 14924.80 14525.70 145.77
6397 26.2376 14625.90 14529.00 143.24
6398 26.2414 14775.80 14532.80 144.24
6399 26.2451 14763.60 14536.60 144.44
6400 26.2489 14898.30 14540.90 144.96
6401 26.2528 14885.10 14545.40 144.60
6402 26.2565 15319.50 14550.00 147.04
6403 26.2603 15068.20 14555.10 145.33
6404 26.2640 15616.90 14560.40 148.84
6405 26.2677 15135.90 14566.20 146.11
6406 26.2715 15517.40 14572.20 146.58
6407 26.2752 15480.80 14578.80 148.24
6408 26.2791 15554.40 14585.90 148.92
6409 26.2827 15207.90 14593.20 145.82
6410 26.2866 15061.20 14601.20 144.60
6411 26.2903 15107.50 14609.50 146.58
6412 26.2941 14997.30 14618.60 145.93
6413 26.2978 14967.00 14628.10 144.89
6414 26.3015 15364.30 14638.60 147.10
6415 26.3053 14929.50 14649.70 144.94
6416 26.3090 14873.40 14661.40 144.82
6417 26.3129 14686.20 14674.30 143.72
6418 26.3165 15043.80 14687.70 145.49
6419 26.3204 14880.10 14702.50 143.85
6420 26.3241 15001.30 14718.10 145.46
6421 26.3279 14834.90 14735.30 144.84
6422 26.3316 15237.30 14753.90 147.20
6423 26.3354 14738.10 14773.40 144.62
6424 26.3391 14768.10 14795.20 144.36
6425 26.3428 14703.40 14818.10 143.73
6426 26.3466 14883.20 14843.70 144.30
6427 26.3503 14866.70 14870.80 144.99
6428 26.3542 14953.20 14901.20 145.70
6429 26.3580 14682.30 14934.40 143.63
6430 26.3617 14994.70 14969.90 145.94
6431 26.3654 14783.10 15010.00 144.64
6432 26.3692 14982.40 15053.00 144.92
6433 26.3729 14899.90 15101.80 145.59
6434 26.3766 15427.50 15154.50 147.70
6435 26.3804 15121.10 15214.90 146.38
6436 26.3843 15226.00 15282.50 147.24
6437 26.3880 15199.40 15356.40 145.86
6438 26.3918 15443.90 15442.20 147.45
6439 26.3955 15503.40 15536.90 148.35
6440 26.3993 15567.60 15648.10 148.83
6441 26.4030 15484.20 15772.50 148.60
6442 26.4067 15660.60 15920.50 149.79
6443 26.4105 15753.70 16093.70 149.71
6444 26.4142 16393.60 16292.60 153.41
6445 26.4181 16722.70 16536.40 153.53
6446 26.4217 17192.70 16825.20 158.12
6447 26.4256 17635.80 17196.80 160.65
6448 26.4293 18309.80 17673.90 164.22
6449 26.4331 19086.10 18370.80 168.25
6450 26.4368 20911.40 19456.40 176.79
6451 26.4405 22823.50 21190.10 186.67
6452 26.4443 26192.60 24148.00 202.55
6453 26.4480 29597.50 28737.30 218.48
6454 26.4519 35713.10 35704.60 243.86
6455 26.4555 43049.50 44765.70 271.94
6456 26.4594 53069.70 55672.30 311.09
6457 26.4632 62645.10 66207.30 344.84
6458 26.4669 71659.90 72858.90 374.77
6459 26.4706 71341.10 72840.60 374.20
6460 26.4743 66875.20 66374.30 359.03
6461 26.4781 56401.70 56465.00 322.55
6462 26.4818 48672.60 46866.50 295.11
6463 26.4856 41692.70 39084.90 266.71
6464 26.4895 39337.10 34373.50 259.45
6465 26.4932 38046.10 33071.60 254.26
6466 26.4970 40382.70 35203.80 263.84
6467 26.5007 43766.50 40684.50 275.37
6468 26.5044 52406.10 49699.80 308.33
6469 26.5082 62893.60 61285.90 342.92
6470 26.5119 78523.90 74724.80 398.55
6471 26.5156 91562.30 86842.10 440.82
6472 26.5194 102439.00 95703.50 475.52
6473 26.5233 103274.00 100607.00 480.24
6474 26.5270 107214.00 102836.00 491.53
6475 26.5308 104677.00 102109.00 480.83
6476 26.5345 102171.00 96232.00 472.56
6477 26.5382 88990.20 84267.30 431.44
6478 26.5420 72924.00 69597.60 378.71
6479 26.5457 54541.20 54911.90 315.56
6480 26.5495 42872.80 42679.20 271.08
6481 26.5532 33235.70 33773.70 232.72
6482 26.5571 28279.30 27525.40 211.64
6483 26.5607 24191.20 23646.80 191.32
6484 26.5646 22350.70 21200.50 183.66
6485 26.5683 20093.10 19729.20 172.46
6486 26.5721 19003.00 18745.30 166.82
6487 26.5758 17977.60 18072.40 161.79
6488 26.5795 17481.80 17550.20 159.02
6489 26.5833 16904.40 17136.20 155.27
6490 26.5870 16709.20 16805.70 154.51
6491 26.5909 16034.90 16522.30 151.32
6492 26.5945 16215.40 16288.90 152.18
6493 26.5984 15657.50 16084.20 149.47
6494 26.6021 15733.60 15912.40 148.72
6495 26.6059 15450.70 15759.30 148.40
6496 26.6096 15256.80 15625.60 146.60
6497 26.6133 15177.00 15511.20 147.10
6498 26.6171 15516.80 15407.10 148.68
6499 26.6208 14883.90 15317.00 145.03
6500 26.6246 15191.10 15234.30 146.43
6501 26.6283 15022.40 15162.00 145.86
6502 26.6322 14947.40 15095.00 145.66
6503 26.6359 14813.40 15035.90 144.60
6504 26.6397 15188.90 14980.80 146.84
6505 26.6434 14789.90 14930.50 144.52
6506 26.6472 14743.80 14885.80 143.88
6507 26.6509 14853.20 14843.60 144.09
6508 26.6546 14584.20 14805.80 143.09
6509 26.6584 14512.40 14770.00 143.09
6510 26.6621 14712.50 14737.70 143.18
6511 26.6660 14233.10 14707.00 140.82
6512 26.6696 14651.30 14679.10 143.47
6513 26.6735 14482.30 14652.50 142.43
6514 26.6772 14753.70 14627.70 143.96
6515 26.6810 14127.30 14605.00 140.77
6516 26.6847 14364.00 14583.20 142.28
6517 26.6884 14205.80 14563.30 140.89
6518 26.6922 14504.70 14544.00 142.67
6519 26.6959 14261.40 14526.30 140.86
6520 26.6998 14302.20 14509.20 141.58
6521 26.7036 14409.50 14493.00 142.04
6522 26.7073 14403.20 14478.10 142.44
6523 26.7111 14267.20 14463.50 141.78
6524 26.7148 14459.70 14450.10 142.65
6525 26.7185 13962.90 14436.90 139.71
6526 26.7222 14347.10 14424.70 142.21
6527 26.7260 13930.20 14412.80 138.38
6528 26.7297 14471.10 14401.70 141.62
6529 26.7335 14258.70 14390.80 141.26
6530 26.7374 14440.90 14380.40 142.63
6531 26.7411 14265.70 14370.70 141.56
6532 26.7449 14176.50 14361.10 140.21
6533 26.7486 14145.10 14352.20 140.27
6534 26.7523 14328.50 14343.30 141.55
6535 26.7561 13994.60 14335.10 139.45
6536 26.7598 14160.20 14326.90 140.91
6537 26.7635 14027.00 14319.20 140.47
6538 26.7673 14248.40 14311.60 141.85
6539 26.7712 13912.80 14304.30 138.63
6540 26.7749 14116.00 14297.40 139.84
6541 26.7787 14284.30 14290.50 141.23
6542 26.7824 14327.80 14284.00 141.66
6543 26.7861 14192.40 14277.60 140.75
6544 26.7899 14133.10 14271.50 140.60
6545 26.7936 14098.00 14265.50 140.68
6546 26.7973 14311.90 14259.70 142.25
6547 26.8011 14051.20 14254.00 140.94
6548 26.8048 14247.00 14248.60 141.54
6549 26.8086 14069.00 14243.20 140.36
6550 26.8125 14463.90 14237.90 142.72
6551 26.8162 14097.30 14232.90 140.45
6552 26.8200 14021.60 14227.90 140.30
6553 26.8237 14105.80 14223.20 139.61
6554 26.8274 14213.60 14218.40 141.10
6555 26.8312 14152.10 14213.90 140.31
6556 26.8349 14171.00 14209.30 140.60
6557 26.8386 13675.10 14174.50 138.20
6558 26.8424 14162.40 14170.70 140.70
6559 26.8463 13793.50 14167.00 138.61
6560 26.8500 14226.30 14163.50 141.38
6561 26.8538 13819.60 14160.00 139.24
6562 26.8575 14065.50 14156.70 140.01
6563 26.8612 13995.60 14153.20 139.54
6564 26.8650 14156.30 14150.00 141.25
6565 26.8687 13889.80 14146.70 139.50
6566 26.8724 14121.40 14143.60 140.42
6567 26.8762 13743.90 14140.40 138.81
6568 26.8799 13906.60 14137.30 139.13
6569 26.8838 13952.10 14134.20 138.18
6570 26.8876 13950.50 14103.30 139.01
6571 26.8913 14130.20 14100.90 140.32
6572 26.8951 13988.50 14098.50 139.92
6573 26.8988 13839.40 14096.20 139.34
6574 26.9025 14219.00 14059.20 141.70
6575 26.9062 13821.50 14057.60 139.54
6576 26.9100 13982.60 14056.00 139.56
6577 26.9137 13599.40 14054.40 137.92
6578 26.9175 14197.20 14052.70 141.06
6579 26.9212 13796.00 14051.10 138.77
6580 26.9251 14179.70 14049.50 140.57
6581 26.9289 13785.60 14047.80 137.37
6582 26.9326 14140.60 14046.20 140.60
6583 26.9363 14084.40 14044.60 140.49
6584 26.9401 13895.20 14043.00 139.63
6585 26.9438 13732.60 14041.40 139.09
6586 26.9475 14022.90 14039.80 140.51
6587 26.9513 13842.20 14038.10 139.19
6588 26.9550 13901.60 14036.50 138.96
6589 26.9589 13989.20 14034.90 140.09
6590 26.9625 14268.70 14033.30 141.63
6591 26.9664 13706.80 14031.60 138.63
6592 26.9701 14117.10 14030.00 140.79
6593 26.9739 13729.60 14028.40 138.87
6594 26.9776 13713.00 14026.70 137.37
6595 26.9813 13748.50 14025.10 138.49
6596 26.9851 14105.80 14023.50 140.07
6597 26.9867 13721.80 14022.80 138.54
6598 26.9905 14014.90 14021.20 140.41
6599 26.9944 13709.60 14019.50 137.49
6600 26.9981 13878.20 14017.90 139.64
6601 27.0019 13831.10 14016.30 139.53
6602 27.0056 14212.10 14014.70 142.04
6603 27.0093 13743.60 14013.00 139.97
6604 27.0131 13992.10 14011.40 141.20
6605 27.0168 14058.50 14009.80 140.71
6606 27.0205 14120.40 14008.20 140.87
6607 27.0243 13853.70 14006.50 139.26
6608 27.0282 14068.20 14004.90 140.24
6609 27.0319 13794.30 14003.30 138.89
6610 27.0357 14051.90 14001.60 140.02
6611 27.0394 13862.50 14000.00 139.32
6612 27.0431 14105.00 13998.40 141.01
6613 27.0469 13798.00 13996.80 138.13
6614 27.0506 14144.00 13995.20 140.93
6615 27.0544 13897.90 13993.50 139.47
6616 27.0581 14030.70 13991.90 140.14
6617 27.0620 13641.00 13990.30 138.12
6618 27.0657 13854.30 13988.70 139.21
6619 27.0695 13909.70 13987.00 138.92
6620 27.0732 13932.40 13985.40 139.31
6621 27.0770 13543.30 13983.80 137.47
6622 27.0807 13942.60 13982.20 139.66
6623 27.0844 13791.90 13980.50 139.11
6624 27.0882 13980.50 13978.90 139.10
6625 27.0919 13925.40 13977.30 139.95
6626 27.0958 13878.30 13975.70 138.99
6627 27.0994 13381.90 13974.10 136.99
6628 27.1033 14101.00 13972.40 140.87
6629 27.1070 13754.40 13970.80 138.76
6630 27.1108 14030.80 13969.20 140.04
6631 27.1145 13681.60 13967.50 138.38
6632 27.1182 13801.40 13965.90 139.29
6633 27.1220 13548.40 13964.30 137.53
6634 27.1257 13884.30 13962.70 139.61
6635 27.1296 13550.30 13961.00 137.60
6636 27.1332 13854.90 13959.40 138.99
6637 27.1371 13796.70 13957.80 138.26
6638 27.1408 14019.70 13956.20 140.03
6639 27.1446 13729.10 13954.60 138.76
6640 27.1483 14036.50 13952.90 139.51
6641 27.1521 13706.60 13951.30 137.96
6642 27.1558 13846.30 13949.70 139.04
6643 27.1595 13494.80 13948.10 136.93
6644 27.1633 13792.30 13946.40 138.65
6645 27.1670 13609.40 13944.80 137.94
6646 27.1709 13793.20 13943.20 139.16
6647 27.1745 13597.00 13941.60 137.55
6648 27.1784 13895.80 13939.90 139.36
6649 27.1821 13628.60 13938.30 137.39
6650 27.1859 13713.70 13936.70 138.36
6651 27.1896 13469.40 13935.10 136.80
6652 27.1933 13991.80 13933.50 140.25
6653 27.1971 13472.00 13931.80 137.34
6654 27.2008 13889.50 13930.20 139.55
6655 27.2047 13502.70 13928.60 137.20
6656 27.2085 13790.40 13926.90 139.16
6657 27.2122 13573.50 13925.30 136.49
6658 27.2160 13760.10 13923.70 137.74
6659 27.2167 13871.40 13923.40 136.94
6660 27.2204 13772.20 13921.80 136.61
6661 27.2241 13777.10 13920.10 136.66
6662 27.2278 14114.80 13918.50 139.23
6663 27.2316 13645.10 13916.90 137.07
6664 27.2353 13950.20 13915.30 138.48
6665 27.2391 13658.40 13913.70 137.16
6666 27.2428 13981.80 13912.10 138.01
6667 27.2467 13743.60 13910.40 137.47
6668 27.2504 13864.30 13908.80 137.93
6669 27.2542 13699.00 13907.20 137.23
6670 27.2579 13915.90 13905.50 138.17
6671 27.2617 13516.20 13903.90 136.54
6672 27.2654 14289.20 13902.30 140.35
6673 27.2691 13858.80 13900.70 138.23
6674 27.2729 13992.00 13899.00 138.20
6675 27.2766 13719.00 13897.40 137.28
6676 27.2805 13815.80 13895.80 137.42
6677 27.2841 13872.80 13894.20 137.16
6678 27.2880 13974.70 13892.60 138.62
6679 27.2917 13612.10 13891.00 136.43
6680 27.2955 13756.30 13889.30 137.25
6681 27.2992 13748.00 13887.70 137.10
6682 27.3029 13928.30 13886.10 138.11
6683 27.3067 13585.10 13884.40 136.62
6684 27.3104 13743.00 13882.80 137.07
6685 27.3143 13532.60 13881.20 136.46
6686 27.3179 13867.60 13879.60 138.24
6687 27.3218 13607.90 13877.90 135.84
6688 27.3255 13724.20 13876.30 136.67
6689 27.3293 13521.80 13874.70 135.43
6690 27.3330 13764.90 13873.10 137.68
6691 27.3368 13801.80 13871.50 136.77
6692 27.3405 14031.10 13869.90 138.69
6693 27.3442 13639.10 13868.20 137.05
6694 27.3480 13495.00 13866.60 135.78
6695 27.3517 13659.80 13865.00 136.97
6696 27.3556 13679.50 13863.30 136.87
6697 27.3592 13731.60 13861.70 136.27
6698 27.3631 13699.40 13860.10 136.37
6699 27.3668 13492.70 13858.50 135.33
6700 27.3706 13835.40 13856.80 137.36
6701 27.3743 13643.20 13855.20 136.78
6702 27.3780 13581.70 13853.60 136.71
6703 27.3818 13462.40 13852.00 135.31
6704 27.3855 13827.90 13850.40 138.34
6705 27.3892 13714.60 13848.80 136.91
6706 27.3930 13823.00 13847.10 138.10
6707 27.3969 13635.30 13845.50 137.08
6708 27.4006 13958.90 13843.90 138.86
6709 27.4044 13510.20 13842.20 135.06
6710 27.4081 14073.10 13840.60 138.74
6711 27.4118 13594.00 13839.00 136.78
6712 27.4156 13777.20 13837.40 137.60
6713 27.4193 13641.30 13835.70 137.21
6714 27.4230 13982.50 13834.10 139.27
6715 27.4268 13467.10 13832.50 135.91
6716 27.4305 13897.60 13830.90 138.49
6717 27.4343 13673.80 13829.30 137.96
6718 27.4382 13750.10 13827.60 136.86
6719 27.4419 13576.10 13826.00 136.56
6720 27.4457 13927.40 13824.40 138.59
6721 27.4494 13626.20 13822.80 137.31
6722 27.4531 13983.50 13821.10 139.52
6723 27.4569 13459.40 13819.50 135.89
6724 27.4606 13669.40 13817.90 136.87
6725 27.4643 13642.70 13816.30 136.08
6726 27.4681 13902.20 13814.60 138.49
6727 27.4718 13906.80 13813.00 138.71
6728 27.4757 13830.30 13811.40 137.64
6729 27.4795 13658.90 13809.70 137.06
6730 27.4832 13740.00 13808.10 138.10
6731 27.4869 13828.90 13806.50 138.39
6732 27.4907 13601.00 13804.90 136.01
6733 27.4944 13673.20 13803.30 137.15
6734 27.4981 13665.40 13801.70 136.88
6735 27.5019 13760.60 13800.00 137.91
6736 27.5056 13876.90 13798.40 137.91
6737 27.5095 13615.60 13796.80 137.24
6738 27.5133 13837.10 13795.10 138.61
6739 27.5170 13540.50 13793.50 136.62
6740 27.5208 13628.10 13791.90 136.74
6741 27.5245 13612.40 13790.30 137.04
6742 27.5282 13986.80 13788.60 139.10
6743 27.5319 13617.50 13787.00 136.80
6744 27.5357 13804.00 13785.40 137.16
6745 27.5394 13725.40 13783.80 137.37
6746 27.5432 13693.00 13782.10 137.54
6747 27.5469 13686.60 13780.50 137.04
6748 27.5508 13719.60 13778.90 137.92
6749 27.5546 13620.50 13777.30 137.28
6750 27.5583 13949.90 13775.70 139.40
6751 27.5620 13649.10 13774.00 137.79
6752 27.5658 13613.00 13772.40 136.60
6753 27.5695 13542.40 13770.80 136.16
6754 27.5732 13690.40 13769.20 137.17
6755 27.5770 13569.20 13767.50 136.84
6756 27.5807 13966.40 13765.90 138.89
6757 27.5846 13539.90 13764.30 136.52
6758 27.5884 13859.80 13762.60 138.24
6759 27.5921 13568.40 13761.00 136.69
6760 27.5958 13585.40 13759.40 137.31
6761 27.5996 13803.10 13757.80 138.65
6762 27.6033 13772.60 13756.10 137.47
6763 27.6070 13660.60 13754.50 137.17
6764 27.6108 13496.10 13752.90 136.52
6765 27.6145 13555.90 13751.30 135.68
6766 27.6183 13903.60 13749.60 138.46
6767 27.6222 13551.70 13748.00 137.17
6768 27.6259 13554.70 13746.40 135.35
6769 27.6297 13613.30 13744.80 136.68
6770 27.6334 13604.20 13743.20 136.51
6771 27.6371 13503.90 13741.50 136.66
6772 27.6409 13568.50 13739.90 136.96
6773 27.6446 13352.40 13738.30 133.98
6774 27.6483 13620.00 13736.70 136.47
6775 27.6521 13517.80 13735.00 136.68
6776 27.6560 13736.90 13733.40 137.74
6777 27.6597 13480.30 13731.80 135.64
6778 27.6635 13721.40 13730.10 136.74
6779 27.6672 13495.60 13728.50 135.87
6780 27.6709 13620.70 13726.90 137.19
6781 27.6747 13394.70 13725.30 135.70
6782 27.6784 13797.90 13723.60 136.88
6783 27.6821 13636.10 13722.00 136.30
6784 27.6859 13658.30 13720.40 135.28
6785 27.6898 13413.80 13718.70 134.76
6786 27.6935 13597.10 13717.10 135.42
6787 27.6973 13507.30 13715.50 135.00
6788 27.7010 13736.10 13713.90 136.20
6789 27.7048 13691.40 13712.20 136.16
6790 27.7085 13816.50 13710.60 136.94
6791 27.7122 13314.10 13709.00 134.03
6792 27.7160 13717.80 13707.40 135.95
6793 27.7197 13413.50 13705.70 134.30
6794 27.7236 13723.90 13704.10 136.72
6795 27.7272 13469.80 13702.50 134.72
6796 27.7311 13865.90 13700.80 135.84
6797 27.7348 13420.50 13699.20 135.04
6798 27.7386 13560.60 13697.60 135.17
6799 27.7423 13362.40 13696.00 134.45
6800 27.7460 13539.70 13694.40 135.69
6801 27.7498 13448.90 13692.80 135.39
6802 27.7535 13513.00 13691.10 134.46
6803 27.7574 13296.30 13689.50 133.23
6804 27.7610 13644.90 13687.90 135.94
6805 27.7649 13540.20 13686.20 135.53
6806 27.7686 13596.50 13684.60 135.80
6807 27.7724 13279.00 13683.00 133.50
6808 27.7761 13709.40 13681.40 136.66
6809 27.7799 13513.60 13679.70 134.93
6810 27.7836 13819.30 13678.10 136.81
6811 27.7873 13444.80 13676.50 135.42
6812 27.7911 13450.90 13674.80 135.16
6813 27.7948 13416.70 13673.20 134.88
6814 27.7987 13522.50 13671.60 135.41
6815 27.8023 13480.50 13670.00 135.25
6816 27.8062 13634.00 13668.30 135.57
6817 27.8099 13375.70 13666.70 133.99
6818 27.8137 13759.80 13665.10 136.38
6819 27.8174 13472.80 13663.40 134.53
6820 27.8211 13642.40 13661.80 136.05
6821 27.8249 13469.70 13660.20 135.04
6822 27.8286 13664.10 13658.60 136.14
6823 27.8325 13417.00 13656.90 135.29
6824 27.8361 13639.70 13655.30 136.69
6825 27.8400 13439.20 13653.70 135.19
6826 27.8438 13608.40 13652.00 136.17
6827 27.8475 13489.30 13650.40 135.74
6828 27.8512 13658.30 13648.80 137.25
6829 27.8549 13616.50 13647.20 135.46
6830 27.8587 13560.10 13645.50 135.38
6831 27.8624 13428.20 13643.90 134.98
6832 27.8662 13592.50 13642.30 136.10
6833 27.8699 13394.20 13640.70 134.42
6834 27.8738 13709.30 13639.00 136.73
6835 27.8776 13303.60 13637.40 133.98
6836 27.8813 13712.20 13635.80 136.77
6837 27.8850 13688.00 13634.10 137.01
6838 27.8888 13753.70 13632.50 137.50
6839 27.8925 13263.10 13630.90 134.13
6840 27.8962 13399.50 13629.30 134.80
6841 27.9000 13272.30 13627.60 134.85
6842 27.9039 13669.40 13626.00 136.09
6843 27.9076 13731.30 13624.40 137.36
6844 27.9114 13408.30 13622.70 135.55
6845 27.9151 13464.40 13621.10 135.53
6846 27.9188 13603.80 13619.50 136.36
6847 27.9226 13557.70 13617.90 135.27
6848 27.9263 13644.50 13616.20 137.27
6849 27.9301 13309.30 13614.60 134.69
6850 27.9338 13347.30 13613.00 134.39
6851 27.9377 13459.40 13611.30 135.57
6852 27.9414 13738.00 13609.70 137.03
6853 27.9452 13330.90 13608.10 134.62
6854 27.9489 13367.70 13606.50 134.98
6855 27.9527 13480.40 13604.80 135.32
6856 27.9564 13760.50 13603.20 136.80
6857 27.9601 13312.20 13601.60 134.05
6858 27.9639 13492.30 13599.90 135.40
6859 27.9676 13188.90 13598.30 133.60
6860 27.9715 13685.30 13596.70 136.54
6861 27.9751 13475.60 13595.10 135.78
6862 27.9790 13670.20 13593.40 136.43
6863 27.9827 13475.60 13591.80 135.26
6864 27.9865 13557.20 13590.20 136.30
6865 27.9902 13160.50 13588.50 133.71
6866 27.9939 13743.50 13586.90 136.84
6867 27.9977 13609.00 13585.30 136.08
6868 28.0014 13584.90 13583.70 136.13
6869 28.0053 13415.30 13582.00 134.59
6870 28.0089 13642.40 13580.40 137.22
6871 28.0128 13470.90 13578.80 135.33
6872 28.0166 13659.40 13577.10 136.86
6873 28.0203 13824.80 13575.50 137.21
6874 28.0240 13578.20 13573.80 136.26
6875 28.0278 13370.80 13572.20 134.72
6876 28.0315 13584.30 13570.60 135.61
6877 28.0352 13556.60 13569.00 136.41
6878 28.0390 13656.00 13567.30 136.82
6879 28.0429 13293.90 13565.70 134.23
6880 28.0466 13697.20 13564.10 135.95
6881 28.0504 13509.30 13562.40 135.70
6882 28.0541 13513.00 13560.80 135.76
6883 28.0578 13265.40 13559.20 134.28
6884 28.0616 13750.50 13557.60 136.68
6885 28.0653 13573.20 13555.90 136.70
6886 28.0692 13447.90 13554.30 134.84
6887 28.0728 13406.70 13552.70 135.64
6888 28.0767 13618.20 13551.00 136.41
6889 28.0804 13299.10 13549.40 134.56
6890 28.0842 13678.20 13547.80 137.46
6891 28.0879 13222.50 13546.20 134.50
6892 28.0917 13661.70 13544.50 136.61
6893 28.0954 13573.90 13542.90 136.33
6894 28.0991 13592.10 13541.30 136.64
6895 28.1029 13542.90 13539.60 136.32
6896 28.1066 13431.70 13538.00 135.37
6897 28.1105 13462.50 13536.40 135.68
6898 28.1141 13510.70 13534.80 135.57
6899 28.1180 13779.20 13533.10 136.81
6900 28.1217 13832.40 13531.50 137.71
6901 28.1255 13606.90 13529.80 136.24
6902 28.1292 13679.50 13528.20 136.21
6903 28.1329 13324.90 13526.60 134.68
6904 28.1367 13408.70 13524.90 135.11
6905 28.1406 13599.40 13523.30 136.40
6906 28.1443 13411.40 13521.70 135.30
6907 28.1481 13468.00 13520.00 134.91
6908 28.1518 13569.50 13518.40 136.12
6909 28.1556 13349.20 13516.80 135.67
6910 28.1593 13554.50 13515.20 135.21
6911 28.1630 13765.10 13513.50 136.83
6912 28.1668 13563.50 13511.90 135.43
6913 28.1705 13437.10 13510.30 134.86
6914 28.1744 13666.70 13508.60 136.75
6915 28.1780 13416.30 13507.00 135.54
6916 28.1819 13796.00 13505.40 137.73
6917 28.1856 13392.90 13503.80 134.82
6918 28.1894 13655.70 13502.10 136.13
6919 28.1931 13620.00 13500.50 136.09
6920 28.1968 13765.40 13498.80 136.40
6921 28.2006 13446.10 13497.20 134.94
6922 28.2043 13652.30 13495.60 136.62
6923 28.2082 13603.10 13493.90 135.46
6924 28.2118 14005.10 13492.30 138.08
6925 28.2157 13422.10 13490.70 134.54
6926 28.2194 13663.80 13489.00 136.12
6927 28.2232 13443.20 13487.40 134.85
6928 28.2269 13775.20 13485.80 136.80
6929 28.2306 13722.80 13484.20 135.89
6930 28.2344 13852.90 13482.50 137.12
6931 28.2381 13676.80 13480.90 136.11
6932 28.2419 13642.60 13479.30 135.52
6933 28.2458 13695.00 13477.60 135.77
6934 28.2495 13940.70 13476.00 138.40
6935 28.2533 13675.10 13474.40 136.15
6936 28.2570 14058.50 13472.70 138.42
6937 28.2607 13559.20 13471.10 135.18
6938 28.2645 13803.50 13469.40 137.02
6939 28.2682 13627.10 13467.80 136.27
6940 28.2721 13823.30 13466.20 137.19
6941 28.2757 13662.80 13464.60 136.94
6942 28.2796 13660.00 13462.90 136.43
6943 28.2833 13608.70 13461.30 136.14
6944 28.2871 13509.20 13459.70 134.97
6945 28.2908 13410.40 13458.00 134.20
6946 28.2945 13507.50 13456.40 135.12
6947 28.2983 13518.20 13454.80 134.97
6948 28.3020 13676.80 13453.20 136.32
6949 28.3058 13406.10 13451.50 134.51
6950 28.3097 13495.60 13449.80 135.06
6951 28.3134 13460.60 13448.20 134.68
6952 28.3172 13550.00 13446.60 136.05
6953 28.3209 13368.50 13445.00 134.65
6954 28.3246 13449.30 13443.30 134.82
6955 28.3284 13285.70 13441.70 134.07
6956 28.3321 13723.50 13440.10 136.40
6957 28.3360 13451.70 13438.40 135.33
6958 28.3396 13740.30 13436.80 136.46
6959 28.3435 13395.30 13435.20 134.68
6960 28.3472 13459.40 13433.60 135.48
6961 28.3510 13317.90 13431.90 133.54
6962 28.3547 13572.50 13430.30 135.79
6963 28.3584 13373.20 13428.60 134.48
6964 28.3622 13611.50 13427.00 135.52
6965 28.3659 13291.90 13425.40 133.58
6966 28.3697 13414.20 13423.70 134.62
6967 28.3734 13485.40 13422.10 135.24
6968 28.3773 13864.90 13420.50 136.99
6969 28.3811 13599.90 13418.80 136.33
6970 28.3848 13511.30 13417.20 134.97
6971 28.3885 13494.20 13415.60 135.55
6972 28.3923 13762.90 13414.00 136.16
6973 28.3960 13223.00 13412.30 133.36
6974 28.3997 13633.10 13410.70 136.19
6975 28.4035 13426.30 13409.00 135.26
6976 28.4074 13670.50 13407.40 136.73
6977 28.4111 13293.10 13405.80 133.91
6978 28.4149 13425.60 13404.10 135.23
6979 28.4186 13312.50 13402.50 134.18
6980 28.4223 13603.80 13400.90 135.20
6981 28.4261 13383.40 13399.20 134.58
6982 28.4298 13539.40 13397.60 135.56
6983 28.4336 13386.60 13396.00 134.24
6984 28.4373 13589.00 13394.40 134.81
6985 28.4412 13476.90 13392.70 134.90
6986 28.4449 13631.20 13391.10 136.23
6987 28.4487 13416.50 13389.40 134.45
6988 28.4524 13738.90 13387.80 137.00
6989 28.4562 13348.80 13386.20 134.95
6990 28.4599 13600.10 13384.50 136.25
6991 28.4636 13434.90 13382.90 134.69
6992 28.4674 13638.20 13381.30 136.25
6993 28.4713 13418.00 13379.60 134.83
6994 28.4750 13587.40 13378.00 135.79
6995 28.4788 13569.90 13376.40 135.93
6996 28.4825 13740.50 13374.80 136.91
6997 28.4862 13290.30 13373.10 134.27
6998 28.4900 13517.40 13371.50 135.37
6999 28.4937 13512.80 13369.80 135.43
7000 28.4975 13684.40 13368.20 137.01
7001 28.5012 13628.90 13366.60 136.08
7002 28.5051 13845.90 13364.90 137.35
7003 28.5088 13435.00 13363.30 134.58
7004 28.5126 13706.90 13361.70 136.82
7005 28.5163 13440.10 13360.00 135.12
7006 28.5201 13854.50 13358.40 136.92
7007 28.5238 13628.90 13356.80 135.44
7008 28.5275 13695.70 13355.10 135.86
7009 28.5313 13655.80 13353.50 136.61
7010 28.5352 13785.30 13351.80 137.15
7011 28.5389 13683.80 13350.20 137.06
7012 28.5427 13772.00 13348.60 137.35
7013 28.5464 13514.10 13347.00 135.39
7014 28.5501 13810.10 13345.30 137.06
7015 28.5539 13675.50 13343.70 136.58
7016 28.5576 13767.90 13342.10 136.39
7017 28.5614 13519.30 13340.40 135.84
7018 28.5651 13633.10 13338.80 136.21
7019 28.5690 13482.70 13337.10 134.85
7020 28.5727 13691.50 13335.50 137.06
7021 28.5765 13460.50 13333.90 135.40
7022 28.5802 13947.90 13332.20 138.06
7023 28.5840 13259.30 13330.60 133.42
7024 28.5877 13818.30 13329.00 136.59
7025 28.5914 13721.20 13327.40 136.25
7026 28.5952 13770.90 13325.70 136.49
7027 28.5989 13619.40 13324.10 135.91
7028 28.6028 13661.10 13322.40 135.74
7029 28.6066 13654.20 13320.80 136.08
7030 28.6103 13864.70 13319.20 137.82
7031 28.6140 13666.50 13317.50 136.26
7032 28.6178 13755.40 13315.90 137.10
7033 28.6215 13696.50 13314.30 136.02
7034 28.6254 13802.60 13312.60 137.26
7035 28.6290 13692.20 13311.00 136.06
7036 28.6329 13812.00 13309.40 136.95
7037 28.6366 13620.20 13307.80 136.59
7038 28.6404 13732.90 13306.10 136.23
7039 28.6441 13846.10 13304.40 135.93
7040 28.6479 13923.00 13302.80 136.93
7041 28.6516 13762.10 13301.20 136.52
7042 28.6553 13763.90 13299.60 136.01
7043 28.6591 13700.20 13297.90 136.01
7044 28.6628 13955.50 13296.30 136.98
7045 28.6667 13813.80 13294.70 136.27
7046 28.6705 14054.00 13670.20 137.90
7047 28.6742 13730.70 13675.90 136.45
7048 28.6779 13808.40 13681.90 135.85
7049 28.6817 13715.70 13688.00 135.54
7050 28.6854 14056.30 13694.50 137.73
7051 28.6893 13955.10 13701.30 137.46
7052 28.6929 14056.00 13708.10 137.27
7053 28.6968 13827.10 13715.40 136.16
7054 28.7005 14195.60 13722.70 138.36
7055 28.7043 13899.60 13730.60 136.76
7056 28.7080 14107.00 13738.70 138.38
7057 28.7118 13763.80 13747.00 135.93
7058 28.7155 14258.30 14517.00 139.30
7059 28.7192 13870.00 14540.60 137.03
7060 28.7230 14162.90 14565.60 138.47
7061 28.7269 14080.50 14591.50 137.79
7062 28.7306 14077.50 14617.50 137.94
7063 28.7344 14263.70 14645.20 139.39
7064 28.7381 14405.10 14673.10 139.85
7065 28.7418 14195.40 14702.70 139.02
7066 28.7456 14175.80 14732.60 139.00
7067 28.7493 14159.80 14764.40 138.22
7068 28.7532 14427.70 14797.30 139.83
7069 28.7568 14337.80 14830.60 139.71
7070 28.7607 14557.80 14865.90 140.65
7071 28.7644 14377.80 14901.60 139.52
7072 28.7682 14794.90 14939.70 142.30
7073 28.7719 14365.70 14979.20 139.53
7074 28.7757 14704.90 15019.10 141.76
7075 28.7794 14422.20 15061.70 140.29
7076 28.7831 14813.20 15104.80 142.24
7077 28.7869 14370.30 15150.80 139.20
7078 28.7908 14856.30 15198.70 142.06
7079 28.7945 14808.70 15247.20 142.09
7080 28.7983 14880.50 15299.10 142.37
7081 28.8020 14790.10 15351.60 142.27
7082 28.8057 15091.00 15407.90 143.91
7083 28.8095 14937.90 15466.60 142.40
7084 28.8132 15230.40 15526.30 144.60
7085 28.8171 15073.30 15590.10 143.99
7086 28.8207 15270.60 15655.10 145.26
7087 28.8246 14996.20 15724.80 143.00
7088 28.8283 15355.50 15795.80 144.97
7089 28.8321 15453.20 15872.00 146.17
7090 28.8358 15884.80 15951.90 148.41
7091 28.8396 15389.30 16033.40 145.58
7092 28.8433 15710.50 16121.10 147.40
7093 28.8470 15647.80 16210.70 147.07
7094 28.8508 16033.50 16307.30 148.58
7095 28.8547 15789.30 16408.90 147.26
7096 28.8584 16223.40 16512.80 148.83
7097 28.8622 16023.20 16625.20 148.14
7098 28.8659 16365.70 16740.40 150.82
7099 28.8696 16184.10 16865.20 149.95
7100 28.8734 16485.00 16997.00 150.85
7101 28.8771 16353.10 17132.50 150.71
7102 28.8810 16973.20 17279.60 154.37
7103 28.8846 16792.90 17431.30 152.19
7104 28.8885 17112.80 17596.20 154.71
7105 28.8923 16851.80 17771.40 153.18
7106 28.8960 17226.00 17952.40 155.39
7107 28.8997 17211.30 18150.30 154.21
7108 28.9035 17691.00 18355.20 157.76
7109 28.9072 17703.50 18579.80 158.39
7110 28.9111 18053.80 18819.90 159.90
7111 28.9147 17982.50 19069.60 159.02
7112 28.9186 18413.40 19344.60 161.13
7113 28.9223 18559.90 19631.60 161.72
7114 28.9261 18904.90 19948.50 164.81
7115 28.9298 18756.00 20280.90 163.85
7116 28.9335 19441.40 20648.80 167.46
7117 28.9373 19595.90 21047.20 168.34
7118 28.9410 20237.80 21467.70 170.42
7119 28.9449 19943.10 21936.10 169.87
7120 28.9485 20862.60 22433.20 173.42
7121 28.9524 21279.30 22989.80 176.64
7122 28.9562 21769.00 23600.40 178.71
7123 28.9599 22067.50 24252.80 179.06
7124 28.9636 23004.40 24991.30 183.90
7125 28.9674 23544.20 25785.70 187.31
7126 28.9711 24389.80 26691.60 189.61
7127 28.9750 25045.20 27702.40 194.49
7128 28.9786 26521.60 28804.20 200.44
7129 28.9825 27126.40 30075.30 203.63
7130 28.9862 28871.60 31476.10 211.93
7131 28.9900 29957.20 33110.10 215.30
7132 28.9937 32019.30 34985.10 226.23
7133 28.9974 33986.30 37087.90 233.03
7134 29.0012 36108.60 39599.10 242.31
7135 29.0049 38992.80 42468.90 252.52
7136 29.0088 43547.40 45969.10 270.82
7137 29.0126 48322.40 50230.10 289.92
7138 29.0163 56420.20 55428.80 317.02
7139 29.0201 65083.60 62489.00 350.24
7140 29.0238 79839.70 72204.70 397.19
7141 29.0275 96384.60 87325.90 450.07
7142 29.0313 124086.00 111323.00 531.04
7143 29.0350 156113.00 148176.00 620.05
7144 29.0389 203203.00 205539.00 743.11
7145 29.0425 265241.00 284796.00 898.10
7146 29.0464 356336.00 390146.00 1115.50
7147 29.0501 464100.00 512085.00 1356.62
7148 29.0539 594977.00 627605.00 1629.70
7149 29.0576 686518.00 710228.00 1821.56
7150 29.0613 733736.00 724148.00 1924.32
7151 29.0651 687760.00 668584.00 1834.78
7152 29.0690 613532.00 575963.00 1668.80
7153 29.0727 522099.00 488391.00 1478.71
7154 29.0765 483970.00 430101.00 1393.79
7155 29.0802 469588.00 423139.00 1360.65
7156 29.0840 520079.00 479343.00 1475.32
7157 29.0877 608902.00 599758.00 1661.77
7158 29.0914 775513.00 784247.00 2008.63
7159 29.0952 998952.00 1007050.00 2458.05
7160 29.0989 1275220.00 1216180.00 2968.37
7161 29.1028 1467660.00 1351890.00 3343.41
7162 29.1064 1526130.00 1344770.00 3444.46
7163 29.1103 1336420.00 1195280.00 3098.99
7164 29.1140 1055570.00 966847.00 2545.90
7165 29.1178 753365.00 734454.00 1965.81
7166 29.1215 535390.00 525967.00 1513.09
7167 29.1252 373017.00 368818.00 1150.95
7168 29.1290 269987.00 254963.00 912.44
7169 29.1329 198525.00 180859.00 731.49
7170 29.1366 152228.00 135843.00 613.25
7171 29.1404 117174.00 107204.00 513.34
7172 29.1441 95565.90 89394.80 443.91
7173 29.1479 77377.60 76897.40 389.32
7174 29.1516 65885.90 67761.10 352.45
7175 29.1553 56129.80 60837.30 319.92
7176 29.1591 50167.80 55093.90 294.53
7177 29.1628 44893.50 50462.50 276.73
7178 29.1667 41455.60 46473.10 261.33
7179 29.1705 37546.50 43091.30 247.07
7180 29.1742 35633.80 40273.70 238.24
7181 29.1779 33005.90 37774.50 229.76
7182 29.1817 31784.60 35661.40 223.68
7183 29.1854 29786.90 33762.00 214.60
7184 29.1893 28585.20 32094.10 209.47
7185 29.1929 27154.40 30658.70 203.86
7186 29.1968 26466.20 29347.40 197.70
7187 29.2005 25626.00 28208.30 195.43
7188 29.2043 24822.30 27158.50 194.29
7189 29.2080 23729.20 26215.60 188.71
7190 29.2118 23322.50 25385.10 186.31
7191 29.2155 22606.90 24612.00 183.10
7192 29.2192 22072.30 23927.20 180.49
7193 29.2230 21505.30 23286.30 178.23
7194 29.2269 21179.60 22700.10 176.37
7195 29.2306 20673.20 22176.90 173.26
7196 29.2344 20416.60 21682.40 172.26
7197 29.2381 19688.90 21238.80 168.92
7198 29.2418 19755.40 20817.70 168.90
7199 29.2456 19314.60 20428.30 166.39
7200 29.2493 19055.60 20076.70 163.07
7201 29.2532 18783.70 19740.90 164.87
7202 29.2568 18757.80 19436.60 163.24
7203 29.2607 17961.20 19144.90 160.22
7204 29.2645 17967.30 18872.60 160.28
7205 29.2682 17770.80 18624.70 158.22
7206 29.2719 17823.60 18385.90 160.02
7207 29.2757 17189.60 18167.80 156.10
7208 29.2794 17434.90 17957.20 155.31
7209 29.2833 16800.00 17759.10 153.39
7210 29.2869 16835.30 17577.50 154.43
7211 29.2908 16514.60 17401.40 152.25
7212 29.2945 16810.00 17239.60 153.07
7213 29.2983 16465.10 17082.30 151.56
7214 29.3020 16683.30 16933.50 152.22
7215 29.3057 16197.50 16796.40 150.15
7216 29.3095 16176.50 16662.60 150.77
7217 29.3132 15590.70 16539.00 146.37
7218 29.3171 16207.50 16418.40 149.82
7219 29.3209 15733.20 16303.60 146.89
7220 29.3246 15815.00 16197.30 148.41
7221 29.3284 15678.20 16093.20 147.96
7222 29.3321 15542.20 15996.60 146.55
7223 29.3358 15365.90 15901.90 144.32
7224 29.3396 15403.40 15811.40 146.17
7225 29.3433 15033.00 15727.20 141.56
7226 29.3472 15212.40 15644.50 143.46
7227 29.3508 14991.80 15567.50 142.98
7228 29.3547 14986.90 15491.60 144.31
7229 29.3584 14760.00 15419.00 141.76
7230 29.3622 15127.60 15351.00 145.96
7231 29.3659 15017.50 15284.10 142.95
7232 29.3696 14972.20 15221.60 142.73
7233 29.3734 14824.00 15159.80 141.71
7234 29.3773 14858.10 15100.40 143.37
7235 29.3810 14580.00 15044.90 142.36
7236 29.3848 14649.60 14989.90 140.21
7237 29.3885 14590.70 14938.30 140.91
7238 29.3923 14759.90 14887.30 143.19
7239 29.3960 14589.90 14839.40 142.47
7240 29.3997 14723.90 14792.00 142.21
7241 29.4035 14302.70 14746.20 138.32
7242 29.4072 14491.30 14703.10 142.38
7243 29.4111 14100.20 14660.40 139.94
7244 29.4147 14334.40 14620.20 140.81
7245 29.4186 13997.30 14580.30 138.12
7246 29.4223 14187.40 14541.80 140.09
7247 29.4261 14082.70 14505.40 138.45
7248 29.4298 13910.40 14469.20 136.61
7249 29.4335 14039.20 14435.10 139.38
7250 29.4373 14093.40 14401.20 138.13
7251 29.4412 13956.00 14368.30 136.68
7252 29.4449 13994.50 14337.20 138.10
7253 29.4487 13811.60 14306.30 136.79
7254 29.4524 14261.20 13905.90 141.08
7255 29.4562 13819.20 13883.80 137.65
7256 29.4599 13931.40 13862.40 139.35
7257 29.4636 13725.40 13842.10 137.60
7258 29.4674 13810.10 13821.90 137.95
7259 29.4711 13401.50 13802.80 134.67
7260 29.4750 13712.90 13783.60 137.91
7261 29.4788 13412.40 13765.10 134.87
7262 29.4825 13510.10 13747.50 135.93
7263 29.4862 13730.10 13729.90 135.87
7264 29.4900 13613.60 13713.20 137.13
7265 29.4937 13785.60 13696.50 138.14
7266 29.4975 13659.80 12934.20 136.33
7267 29.5012 13444.00 12932.60 135.71
7268 29.5051 13554.20 12931.00 136.35
7269 29.5088 13411.40 12929.40 136.34
7270 29.5126 13567.00 12927.70 136.34
7271 29.5163 13358.00 12926.10 135.02
7272 29.5201 13407.00 12924.50 134.38
7273 29.5238 13378.90 12922.80 136.02
7274 29.5275 13433.60 12921.20 134.78
7275 29.5313 13219.30 12919.60 133.61
7276 29.5352 13364.80 12918.00 133.21
7277 29.5389 13386.30 12916.40 135.23
7278 29.5427 13489.60 12914.70 135.30
7279 29.5464 13325.80 12913.10 134.82
7280 29.5501 13323.30 12911.50 135.88
7281 29.5539 13285.40 12909.90 133.35
7282 29.5576 13401.10 12908.30 136.43
7283 29.5614 13182.00 12906.60 134.99
7284 29.5651 13212.20 12905.00 134.96
7285 29.5690 13197.80 12903.40 132.54
7286 29.5728 13306.20 12901.80 135.05
7287 29.5765 13045.80 12900.20 133.34
7288 29.5802 13366.10 12898.50 135.55
7289 29.5840 13110.80 12896.90 134.79
7290 29.5877 13309.50 12895.30 134.55
7291 29.5916 12964.30 12893.60 133.77
7292 29.5952 13328.30 12892.10 134.59
7293 29.5991 13058.60 12890.40 134.17
7294 29.6028 13225.00 12888.80 134.74
7295 29.6066 13052.30 12887.20 133.29
7296 29.6103 13192.70 12885.50 134.28
7297 29.6140 13217.40 12884.00 134.15
7298 29.6178 13150.00 12882.30 133.46
7299 29.6215 12899.90 12880.70 132.76
7300 29.6254 13085.30 12879.10 133.39
7301 29.6292 13154.60 12877.50 133.40
7302 29.6329 13203.00 12875.90 132.99
7303 29.6367 13197.90 12874.20 133.40
7304 29.6404 13190.40 12872.60 131.96
7305 29.6441 12831.90 12871.00 131.28
7306 29.6479 13140.00 12869.40 133.76
7307 29.6516 13018.60 12867.80 132.92
7308 29.6555 13016.20 12866.10 132.78
7309 29.6591 12865.20 12864.50 131.87
7310 29.6630 13049.90 12862.90 132.80
7311 29.6667 13324.50 12861.30 134.91
7312 29.6705 12971.60 12859.70 132.52
7313 29.6742 12825.90 12858.00 131.11
7314 29.6779 13052.60 12856.50 132.33
7315 29.6817 12914.30 12854.80 131.93
7316 29.6856 12995.40 12853.20 133.04
7317 29.6893 13026.40 12851.60 132.71
7318 29.6931 13286.50 12850.00 134.24
7319 29.6968 12763.80 12848.40 131.81
7320 29.7006 12977.20 12846.70 132.34
7321 29.7043 13013.90 12845.10 132.37
7322 29.7080 12997.80 12843.50 132.56
7323 29.7118 12762.60 12841.90 130.60
7324 29.7155 12770.50 12840.30 130.12
7325 29.7194 13035.40 12838.70 133.09
7326 29.7232 12871.90 12837.00 132.03
7327 29.7269 12894.20 12835.40 131.21
7328 29.7306 12981.30 12833.80 132.56
7329 29.7344 12771.40 12832.20 131.78
7330 29.7381 13049.80 12830.60 132.10
7331 29.7419 12712.10 12828.90 131.39
7332 29.7456 13230.20 12827.40 134.21
7333 29.7495 13071.80 12825.70 133.74
7334 29.7532 12895.40 12824.10 132.52
7335 29.7570 13050.10 12822.50 133.33
7336 29.7607 13168.10 12820.90 133.69
7337 29.7645 13026.20 12819.30 132.93
7338 29.7682 13104.90 12817.70 132.62
7339 29.7719 12999.00 12816.10 132.58
7340 29.7757 13082.30 12814.40 133.17
7341 29.7796 12841.10 12812.80 131.66
7342 29.7833 13013.40 12811.20 133.28
7343 29.7871 12802.10 12809.60 131.76
7344 29.7908 12803.00 12808.00 131.71
7345 29.7945 12793.80 12806.40 131.24
7346 29.7983 13029.60 12804.70 132.63
7347 29.8020 12704.80 12803.20 129.85
7348 29.8058 12875.40 12801.50 131.73
7349 29.8095 12946.20 12799.90 131.81
7350 29.8134 12765.60 12798.30 131.12
7351 29.8172 12684.40 12796.70 130.49
7352 29.8209 12961.30 12795.10 132.86
7353 29.8246 12673.00 12793.50 128.99
7354 29.8284 12996.90 12791.90 132.66
7355 29.8321 12565.30 12790.30 128.34
7356 29.8360 12849.60 12788.60 132.28
7357 29.8396 12690.70 12787.10 129.86
7358 29.8435 12780.90 12785.40 131.50
7359 29.8472 12736.30 12783.80 130.00
7360 29.8510 12734.70 12782.20 132.17
7361 29.8547 12597.40 12780.60 130.07
7362 29.8584 12815.40 12779.00 131.87
7363 29.8622 12618.30 12777.40 129.77
7364 29.8659 12723.40 12775.80 131.19
7365 29.8697 12584.90 12774.20 130.45
7366 29.8736 12871.50 12772.50 131.26
7367 29.8773 12557.50 12771.00 131.06
7368 29.8811 12868.50 12769.30 132.22
7369 29.8848 12684.00 12767.80 130.10
7370 29.8885 12772.30 12766.10 131.14
7371 29.8923 12657.90 12764.50 131.91
7372 29.8960 12882.70 12762.90 130.81
7373 29.8999 12542.20 12761.30 129.56
7374 29.9035 12694.90 12759.70 131.68
7375 29.9074 12318.80 12758.10 129.61
7376 29.9111 12937.30 12756.50 133.18
7377 29.9149 12535.90 12754.90 131.12
7378 29.9186 12754.50 12753.30 131.79
7379 29.9223 12703.40 12751.70 131.94
7380 29.9261 12849.40 12750.10 131.51
7381 29.9300 12556.50 12748.40 130.49
7382 29.9336 12902.80 12746.90 132.00
7383 29.9375 12536.40 12745.20 129.35
7384 29.9412 12810.50 12743.70 131.55
7385 29.9450 12616.30 12742.00 130.12
7386 29.9487 12549.40 12740.40 129.62
7387 29.9524 12693.80 12738.80 130.65
7388 29.9562 12908.90 12737.20 131.91
7389 29.9599 12415.80 12735.60 128.59
7390 29.9638 12900.80 12734.00 131.58
7391 29.9676 12652.50 12732.40 131.77
7392 29.9713 12798.90 12730.80 131.98
7393 29.9750 12566.30 12729.20 130.73
7394 29.9788 12769.50 12727.60 132.34
7395 29.9825 12731.40 12726.00 131.78
7396 29.9863 12953.90 12724.40 132.79
7397 29.9900 12557.40 12722.80 128.98
7398 29.9939 12652.60 12721.20 131.21
7399 29.9975 12368.50 12719.60 129.94
7400 30.0014 12613.90 12718.00 131.20
7401 30.0051 12438.60 12716.40 129.72
7402 30.0089 12783.20 12714.80 130.62
7403 30.0126 12561.00 12713.20 130.56
7404 30.0163 12774.80 12711.60 132.11
7405 30.0201 12802.60 12710.00 131.43
7406 30.0238 12749.50 12708.40 131.80
7407 30.0277 12822.90 12706.80 132.71
7408 30.0315 12669.40 12705.20 131.66
7409 30.0352 12639.30 12703.60 131.23
7410 30.0389 12767.80 12702.00 132.05
7411 30.0427 12596.80 12700.40 130.61
7412 30.0464 12619.30 12698.80 131.26
7413 30.0502 12486.90 12697.20 131.26
7414 30.0539 12579.30 12695.60 130.30
7415 30.0578 12549.50 12694.00 130.38
7416 30.0614 12802.30 12692.40 132.36
7417 30.0653 12557.40 12690.80 131.01
7418 30.0690 12656.40 12689.20 130.21
7419 30.0728 12791.20 12687.60 132.65
7420 30.0765 12777.00 12686.00 130.73
7421 30.0802 12468.30 12684.40 131.07
7422 30.0840 12871.10 12682.80 132.09
7423 30.0879 12891.50 12681.20 131.72
7424 30.0916 12719.20 12679.60 130.86
7425 30.0954 12515.00 12678.00 130.37
7426 30.0991 12854.40 12676.40 131.72
7427 30.1028 12658.30 12674.80 130.63
7428 30.1066 12871.40 12673.20 131.71
7429 30.1103 12467.90 12671.60 130.00
7430 30.1141 12757.10 12670.00 130.57
7431 30.1178 12477.40 12668.50 129.79
7432 30.1217 12481.80 12666.80 129.31
7433 30.1255 12330.50 12665.20 128.21
7434 30.1292 12676.60 12663.70 130.54
7435 30.1329 12661.70 12662.00 130.00
7436 30.1367 12823.90 12660.50 131.79
7437 30.1404 12686.90 12658.90 131.10
7438 30.1443 12607.60 12657.30 129.22
7439 30.1479 12561.50 12655.70 129.55
7440 30.1518 12538.10 12654.10 128.98
7441 30.1555 12486.60 12652.50 129.91
7442 30.1593 12588.00 12650.90 129.26
7443 30.1630 12372.70 12649.30 127.96
7444 30.1667 12613.90 12647.70 128.39
7445 30.1705 12386.60 12646.10 129.36
7446 30.1742 12739.20 12644.60 130.70
7447 30.1780 12336.10 12642.90 127.03
7448 30.1819 12554.30 12641.30 128.68
7449 30.1856 12497.80 12639.80 127.92
7450 30.1894 12681.70 12638.20 129.56
7451 30.1931 12301.00 12636.60 127.06
7452 30.1968 12500.20 12635.00 128.58
7453 30.2006 12302.70 12633.40 128.24
7454 30.2043 12696.60 12631.80 129.80
7455 30.2082 12504.10 12630.20 129.59
7456 30.2118 12353.00 12628.70 128.34
7457 30.2157 12189.30 12627.00 127.13
7458 30.2194 12427.20 12625.50 128.69
7459 30.2232 12460.60 12623.90 129.61
7460 30.2269 12483.70 12622.30 129.84
7461 30.2306 12348.90 12620.70 128.66
7462 30.2344 12344.80 12619.10 128.30
7463 30.2381 12319.50 12617.50 128.63
7464 30.2419 12585.90 12615.90 130.31
7465 30.2458 12345.90 12614.30 126.76
7466 30.2495 12606.30 12612.80 129.57
7467 30.2533 12356.40 12611.20 126.88
7468 30.2570 12515.20 12609.60 128.96
7469 30.2607 12464.40 12608.00 129.57
7470 30.2645 12619.70 12606.40 128.27
7471 30.2682 12507.50 12604.80 129.69
7472 30.2721 12584.90 12603.20 130.11
7473 30.2757 12404.60 12601.70 128.44
7474 30.2796 12455.60 12600.10 128.27
7475 30.2833 12296.80 12598.50 127.63
7476 30.2871 12454.10 12596.90 128.77
7477 30.2908 12668.40 12595.30 130.16
7478 30.2945 12448.00 12593.80 128.60
7479 30.2983 12250.30 12592.20 126.97
7480 30.3022 12530.10 12590.60 129.01
7481 30.3058 12213.40 12589.00 127.02
7482 30.3097 12668.20 12587.40 129.49
7483 30.3134 12336.50 12585.90 128.49
7484 30.3172 12531.40 12584.30 129.44
7485 30.3209 12285.90 12582.70 128.32
7486 30.3246 12330.80 12581.10 128.60
7487 30.3284 12284.50 12579.50 127.92
7488 30.3321 12570.10 12577.90 129.73
7489 30.3360 12382.00 12576.30 128.46
7490 30.3396 12371.50 12574.80 126.54
7491 30.3435 12532.00 12573.20 128.78
7492 30.3472 12287.80 12571.60 126.77
7493 30.3510 12349.10 12570.00 128.37
7494 30.3547 12563.00 12568.50 129.98
7495 30.3584 12523.00 12566.90 129.26
7496 30.3622 12431.70 12565.30 128.50
7497 30.3661 12270.10 12563.70 127.72
7498 30.3697 12437.30 12562.20 128.05
7499 30.3736 12333.20 12560.60 128.32
7500 30.3773 12502.40 12559.00 128.29
7501 30.3811 12249.50 12557.40 126.11
7502 30.3848 12423.10 12555.80 128.27
7503 30.3885 12386.90 12554.30 128.22
7504 30.3923 12428.50 12552.70 128.16
7505 30.3960 12237.00 12551.10 127.83
7506 30.3999 12721.50 12549.50 130.08
7507 30.4037 12249.80 12547.90 127.57
7508 30.4074 12166.70 12546.40 127.26
7509 30.4111 12094.30 12544.80 126.13
7510 30.4149 12490.00 12543.20 129.37
7511 30.4186 12188.90 12541.70 126.92
7512 30.4224 12210.60 12540.10 126.69
7513 30.4261 12294.10 12538.50 128.31
7514 30.4300 12234.60 12536.90 126.68
7515 30.4336 12203.30 12535.40 126.77
7516 30.4375 12395.00 12533.80 128.77
7517 30.4412 12284.30 12532.20 126.37
7518 30.4450 12139.70 12530.70 128.00
7519 30.4487 12248.80 12529.10 127.11
7520 30.4524 12390.00 12527.50 126.73
7521 30.4562 12073.70 12525.90 126.43
7522 30.4599 12316.20 12524.40 128.11
7523 30.4638 12074.10 12522.80 127.40
7524 30.4676 12311.20 12521.20 128.17
7525 30.4713 12155.20 12519.70 127.03
7526 30.4750 12537.60 12518.10 128.76
7527 30.4788 12273.40 12516.50 126.76
7528 30.4825 12359.20 12515.00 128.91
7529 30.4863 12080.40 12513.40 126.93
7530 30.4900 12413.30 12511.80 128.94
7531 30.4939 12071.70 12510.20 126.50
7532 30.4975 12165.60 12508.70 127.17
7533 30.5014 12209.80 12507.10 126.54
7534 30.5051 12282.00 12505.60 128.22
7535 30.5089 12154.20 12504.00 127.35
7536 30.5126 12371.80 12502.40 127.69
7537 30.5163 12170.00 12500.90 127.52
7538 30.5201 12416.80 12500.60 128.30
7539 30.5238 12201.90 12499.10 126.74
7540 30.5277 12154.20 12497.50 127.09
7541 30.5315 12214.70 12495.90 127.52
7542 30.5352 12403.90 12494.40 128.41
7543 30.5389 12122.30 12492.90 127.09
7544 30.5427 12302.90 12491.40 128.28
7545 30.5464 11994.40 12489.80 126.25
7546 30.5502 12471.70 12488.30 127.87
7547 30.5539 12334.10 12486.80 128.52
7548 30.5578 12267.20 12485.20 128.42
7549 30.5614 12013.10 12483.70 127.54
7550 30.5653 12332.60 12482.20 128.06
7551 30.5690 12134.60 12480.60 125.86
7552 30.5728 12359.80 12479.10 127.82
7553 30.5765 11966.70 12477.60 126.17
7554 30.5802 12324.20 12476.10 127.54
7555 30.5840 12132.20 12474.50 126.94
7556 30.5877 12372.40 12473.00 127.79
7557 30.5916 12240.10 12471.50 127.94
7558 30.5954 12360.50 12470.00 128.74
7559 30.5991 12068.80 12468.50 126.36
7560 30.6028 12354.10 12467.00 128.35
7561 30.6066 12003.90 12465.50 124.81
7562 30.6103 12210.40 12463.90 126.98
7563 30.6141 11962.80 12462.40 125.41
7564 30.6178 12446.30 12460.90 126.68
7565 30.6217 12077.90 12459.40 126.25
7566 30.6254 12402.80 12458.00 128.84
7567 30.6292 12263.30 12456.40 127.72
7568 30.6329 12372.40 12454.90 126.72
7569 30.6367 12320.00 12453.50 128.38
7570 30.6404 12113.00 12452.00 126.60
7571 30.6441 12184.60 12450.50 127.01
7572 30.6479 12197.20 12449.00 125.86
7573 30.6516 12139.10 12447.50 127.11
7574 30.6555 12287.20 12446.10 127.74
7575 30.6593 12121.90 12444.60 126.15
7576 30.6630 12071.00 12443.10 124.87
7577 30.6667 12076.60 12441.70 126.28
7578 30.6705 12105.30 12440.20 126.53
7579 30.6742 12078.60 12438.70 126.54
7580 30.6780 12234.40 12437.30 127.39
7581 30.6817 12121.00 12435.90 127.11
7582 30.6856 12114.30 12434.40 125.98
7583 30.6893 11983.40 12433.00 126.04
7584 30.6931 12135.60 12431.60 127.43
7585 30.6968 12136.40 12430.20 126.51
7586 30.7006 12177.10 12428.70 127.57
7587 30.7043 11925.40 12427.30 126.38
7588 30.7080 12348.50 12425.90 127.65
7589 30.7118 12218.40 12424.50 127.85
7590 30.7155 12246.90 12423.20 127.39
7591 30.7194 11986.60 12421.80 126.04
7592 30.7232 12104.80 12420.40 126.44
7593 30.7269 12099.60 12419.10 126.72
7594 30.7306 12121.70 12417.70 126.40
7595 30.7344 12073.90 12416.40 125.73
7596 30.7381 12319.40 12415.10 127.07
7597 30.7418 12013.50 12413.80 126.21
7598 30.7456 12276.10 12412.50 128.12
7599 30.7495 12071.40 12411.20 124.36
7600 30.7532 12002.90 12410.00 126.12
7601 30.7570 12175.30 12408.80 127.10
7602 30.7607 12294.10 12407.60 127.66
7603 30.7645 12126.50 12406.40 126.57
7604 30.7682 12215.80 12405.20 126.27
7605 30.7719 12191.80 12404.10 125.63
7606 30.7757 12033.80 12403.00 125.21
7607 30.7794 11956.20 12402.00 125.29
7608 30.7833 11983.50 12401.00 125.16
7609 30.7869 12001.10 12400.00 125.94
7610 30.7908 12471.90 12399.10 128.98
7611 30.7945 12105.20 12398.20 126.51
7612 30.7983 12177.80 12397.40 125.32
7613 30.8020 12148.70 12396.70 126.53
7614 30.8057 12064.30 12396.00 126.16
7615 30.8095 11899.40 12395.40 124.90
7616 30.8134 12264.40 12394.90 128.18
7617 30.8171 12008.10 12394.50 125.08
7618 30.8209 12315.70 12394.30 128.13
7619 30.8246 11848.30 12394.20 125.76
7620 30.8284 12094.00 12394.20 126.87
7621 30.8321 11986.80 12394.50 125.79
7622 30.8358 12096.00 12394.90 126.45
7623 30.8396 11849.30 12395.70 125.26
7624 30.8433 12117.80 12396.70 126.96
7625 30.8472 12033.80 12398.10 126.91
7626 30.8508 11970.00 12399.90 125.56
7627 30.8547 12039.60 12402.30 127.07
7628 30.8584 11972.10 12405.40 126.15
7629 30.8622 11993.30 12409.10 125.91
7630 30.8659 12158.00 12413.90 127.64
7631 30.8696 12187.50 12419.80 127.66
7632 30.8734 12035.90 12427.50 126.76
7633 30.8771 12162.00 12437.20 127.33
7634 30.8810 12267.50 12450.60 128.19
7635 30.8848 12155.80 12469.80 126.16
7636 30.8885 12311.70 12497.80 128.31
7637 30.8923 12338.00 12543.50 128.76
7638 30.8960 12483.80 12615.20 128.41
7639 30.8997 12357.60 12731.70 128.21
7640 30.9035 12686.40 12908.50 129.96
7641 30.9072 12688.40 13150.60 130.96
7642 30.9111 12871.90 13470.50 131.12
7643 30.9147 13094.00 13830.70 132.93
7644 30.9186 13632.10 14194.70 135.09
7645 30.9223 13616.70 14452.40 135.24
7646 30.9261 13985.10 14512.90 138.35
7647 30.9298 13682.60 14337.20 136.37
7648 30.9335 13693.80 14014.70 135.78
7649 30.9373 13163.90 13635.30 132.41
7650 30.9410 13309.00 13291.80 134.14
7651 30.9449 12571.50 13003.10 129.93
7652 30.9485 12741.40 12794.00 131.05
7653 30.9524 12538.20 12645.70 129.68
7654 30.9562 12469.30 12549.60 129.23
7655 30.9599 12299.20 12490.10 128.31
7656 30.9636 12392.10 12450.90 128.24
7657 30.9674 12243.10 12425.10 127.64
7658 30.9711 12149.90 12406.10 127.01
7659 30.9750 12318.90 12391.50 127.93
7660 30.9786 12456.80 12380.00 128.76
7661 30.9825 12326.50 12370.10 128.21
7662 30.9862 12097.40 12361.80 127.12
7663 30.9900 12246.80 12354.50 127.91
7664 30.9937 12143.50 12348.10 127.72
7665 30.9974 12056.90 12342.30 126.66
7666 31.0012 12337.00 12337.10 129.27
7667 31.0049 12356.50 12332.60 129.15
7668 31.0088 12550.50 12328.20 129.18
7669 31.0124 12454.60 12324.40 129.24
7670 31.0163 12306.80 12320.70 128.38
7671 31.0200 12302.80 12317.30 128.06
7672 31.0238 12399.60 12314.10 127.89
7673 31.0275 12115.10 12311.00 126.70
7674 31.0312 12222.90 12308.20 128.28
7675 31.0350 12197.30 12305.40 127.79
7676 31.0387 12468.30 12302.90 129.46
7677 31.0425 11924.20 12300.30 126.58
7678 31.0462 12391.90 12297.90 129.03
7679 31.0501 11993.00 12295.60 126.24
7680 31.0539 12428.00 12293.30 129.12
7681 31.0576 12063.20 12291.10 125.68
7682 31.0613 12330.20 12288.90 128.05
7683 31.0651 12088.40 12286.80 126.74
7684 31.0688 12162.30 12284.80 126.94
7685 31.0725 12147.00 12282.80 127.69
7686 31.0763 12199.40 12280.80 127.96
7687 31.0802 12029.50 12278.80 126.05
7688 31.0839 12164.70 12276.90 126.94
7689 31.0877 11894.50 12275.00 126.05
7690 31.0914 12196.40 12273.20 126.76
7691 31.0951 12162.50 12271.30 128.20
7692 31.0989 12163.20 12269.50 126.56
7693 31.1026 11834.90 12267.70 125.90
7694 31.1064 12371.10 12265.90 128.19
7695 31.1101 12134.50 12264.20 126.62
7696 31.1140 12047.80 12262.40 127.08
7697 31.1176 12050.70 12260.70 126.33
7698 31.1215 12214.50 12259.00 127.75
7699 31.1252 11917.00 12257.30 125.95
7700 31.1290 12332.20 12255.60 128.34
7701 31.1327 12012.90 12253.90 126.13
7702 31.1364 12235.70 12252.20 127.63
7703 31.1402 12116.60 12250.60 126.97
7704 31.1439 12328.50 12248.90 127.83
7705 31.1478 11987.70 12247.30 125.72
7706 31.1516 12182.90 12245.60 127.07
7707 31.1553 12070.50 12244.00 126.82
7708 31.1590 12383.10 12242.40 129.24
7709 31.1628 12196.10 12240.80 127.76
7710 31.1665 11862.20 12239.10 126.05
7711 31.1702 11974.10 12237.50 126.30
7712 31.1740 12192.60 12235.90 126.90
7713 31.1779 12059.20 12234.30 126.63
7714 31.1815 12190.00 12232.70 128.31
7715 31.1854 12082.30 12231.10 125.10
7716 31.1891 12121.00 12229.60 127.28
7717 31.1929 12112.10 12228.00 126.05
7718 31.1966 12214.80 12226.40 127.89
7719 31.2003 11992.40 12224.80 126.41
7720 31.2041 12194.40 12223.30 126.79
7721 31.2078 12001.20 12221.70 126.04
7722 31.2117 11980.20 12220.10 125.30
7723 31.2153 11874.20 12218.60 125.21
7724 31.2192 12189.60 12217.00 126.91
7725 31.2229 11827.90 12215.50 125.17
7726 31.2267 11882.80 12213.90 125.61
7727 31.2304 11752.10 12212.40 124.83
7728 31.2341 12119.90 12210.80 126.58
7729 31.2379 11947.50 12209.30 126.04
7730 31.2416 12137.40 12207.80 127.05
7731 31.2454 11751.40 12206.20 125.20
7732 31.2491 11720.60 12204.70 124.17
7733 31.2530 11809.20 12203.20 124.46
7734 31.2567 11720.80 12201.60 125.17
7735 31.2605 11764.60 12200.10 124.16
7736 31.2642 12011.30 12198.60 126.85
7737 31.2680 11647.20 12197.10 123.92
7738 31.2717 12011.60 12195.50 125.91
7739 31.2754 11588.70 12194.00 123.45
7740 31.2792 12055.00 12192.50 125.68
7741 31.2829 11714.40 12191.00 124.64
7742 31.2868 11905.60 12189.40 126.02
7743 31.2906 11623.80 12187.90 123.13
7744 31.2943 11821.00 12186.40 125.21
7745 31.2980 11748.80 12184.90 124.57
7746 31.3018 12031.80 12183.40 125.96
7747 31.3055 11641.30 12181.90 124.36
7748 31.3092 11897.90 12180.40 125.69
7749 31.3130 11711.40 12178.90 125.16
7750 31.3169 11931.80 12177.30 125.56
7751 31.3206 11646.50 12175.90 124.46
7752 31.3244 12101.40 12174.30 127.70
7753 31.3281 11881.60 12172.90 126.28
7754 31.3319 11911.90 12170.10 125.88
7755 31.3356 11744.50 12168.60 124.32
7756 31.3393 11932.70 12167.10 126.55
7757 31.3431 11522.60 12165.70 123.63
7758 31.3468 11752.20 12164.20 125.20
7759 31.3507 11724.70 12162.70 123.70
7760 31.3543 11936.80 12161.20 125.90
7761 31.3582 11740.20 12159.70 124.99
7762 31.3619 11909.80 12158.30 125.71
7763 31.3657 11832.80 12156.80 125.77
7764 31.3694 11894.40 12155.40 126.26
7765 31.3731 11587.50 12153.90 124.76
7766 31.3769 11866.10 12152.40 123.87
7767 31.3806 11745.40 12150.90 125.47
7768 31.3845 11994.10 12149.40 126.00
7769 31.3881 11745.40 12148.00 124.76
7770 31.3920 11886.30 12146.50 125.83
7771 31.3957 12032.00 12145.10 127.40
7772 31.3995 12027.80 12143.60 127.29
7773 31.4032 11671.90 12142.10 124.86
7774 31.4069 11896.00 12140.60 125.79
7775 31.4107 12055.70 12139.20 126.25
7776 31.4144 12019.70 12137.70 126.27
7777 31.4182 11695.80 12136.20 125.61
7778 31.4219 11783.00 12134.80 124.99
7779 31.4258 11757.90 12133.30 125.64
7780 31.4294 11907.20 12131.90 126.19
7781 31.4333 12014.80 12130.40 127.23
7782 31.4370 11882.50 12128.90 126.02
7783 31.4408 11479.00 12127.50 123.18
7784 31.4445 11850.40 12126.00 125.35
7785 31.4482 11700.40 12124.60 125.17
7786 31.4520 11929.10 12123.10 125.88
7787 31.4557 11618.60 12121.60 124.71
7788 31.4596 12027.60 12120.20 125.01
7789 31.4632 11888.70 12118.70 124.84
7790 31.4671 11789.30 12117.30 125.87
7791 31.4708 11792.60 12115.80 125.43
7792 31.4746 11893.60 12114.30 125.78
7793 31.4783 11649.70 12112.90 124.47
7794 31.4820 11713.70 12111.40 125.05
7795 31.4858 11597.70 12110.00 123.31
7796 31.4895 11775.40 12108.50 124.86
7797 31.4933 11717.80 12107.10 125.16
7798 31.4972 11751.40 12105.60 125.40
7799 31.5009 11742.30 12104.20 124.74
7800 31.5047 11745.80 12102.70 124.61
7801 31.5084 11693.70 12101.30 124.67
7802 31.5121 11886.80 12099.80 126.81
7803 31.5159 11768.90 12098.40 125.63
7804 31.5196 11874.50 12096.90 125.98
7805 31.5233 11658.60 12095.50 125.99
7806 31.5271 11930.00 12094.00 127.30
7807 31.5310 11929.90 12092.50 125.75
7808 31.5347 11872.90 12091.10 125.66
7809 31.5385 11558.90 12089.60 124.60
7810 31.5422 11804.00 12088.20 125.72
7811 31.5459 11617.40 12086.70 122.86
7812 31.5497 12009.90 12085.30 127.23
7813 31.5534 11697.20 12083.90 123.27
7814 31.5571 11552.80 12082.40 124.07
7815 31.5609 11673.20 12081.00 124.86
7816 31.5648 11990.90 12079.50 125.80
7817 31.5685 11694.00 12078.10 124.94
7818 31.5723 11926.10 12076.60 127.43
7819 31.5760 11521.50 12075.20 123.62
7820 31.5798 11840.70 12073.70 126.57
7821 31.5835 11755.50 12072.30 124.57
7822 31.5872 11815.70 12070.90 125.00
7823 31.5910 11479.30 12069.50 123.60
7824 31.5947 11874.00 12068.00 126.29
7825 31.5986 11813.40 12066.50 125.15
7826 31.6022 11700.80 12065.10 125.03
7827 31.6061 11505.30 12063.70 123.62
7828 31.6098 11994.70 12062.20 125.14
7829 31.6136 11692.40 12060.80 125.21
7830 31.6173 11675.40 12059.40 125.17
7831 31.6210 11435.60 12057.90 123.95
7832 31.6248 11746.90 12056.50 125.29
7833 31.6285 11466.00 12055.10 123.84
7834 31.6322 11922.40 12053.60 124.74
7835 31.6360 11597.90 12052.20 124.52
7836 31.6399 11752.70 12050.70 123.68
7837 31.6436 11721.80 12049.30 125.10
7838 31.6474 11882.20 12047.90 126.49
7839 31.6511 11743.20 12046.50 124.20
7840 31.6549 11822.10 12045.00 126.13
7841 31.6586 11560.80 12043.60 124.11
7842 31.6623 11783.00 12042.20 124.69
7843 31.6660 11630.80 12040.80 124.36
7844 31.6698 11826.40 12039.30 125.43
7845 31.6737 11585.70 12037.90 124.05
7846 31.6773 11795.80 12036.50 125.57
7847 31.6812 11653.00 12035.00 124.54
7848 31.6849 11956.10 12033.60 126.82
7849 31.6887 11463.90 12032.20 122.67
7850 31.6924 11720.00 12030.80 125.09
7851 31.6961 11617.10 12029.30 123.12
7852 31.6999 11702.70 12027.90 125.17
7853 31.7036 11442.70 12026.50 123.10
7854 31.7073 11793.60 12025.10 124.83
7855 31.7111 11634.70 12023.60 124.89
7856 31.7150 12008.40 12022.20 126.40
7857 31.7187 11625.30 12020.80 124.15
7858 31.7225 11693.80 12019.40 124.82
7859 31.7262 11453.10 12018.00 123.05
7860 31.7299 11634.80 12016.50 123.13
7861 31.7337 11630.10 12015.10 124.22
7862 31.7374 11703.20 12013.70 125.30
7863 31.7411 11549.30 12012.30 123.31
7864 31.7449 11940.20 12010.90 126.21
7865 31.7488 11539.90 12009.40 124.18
7866 31.7525 11749.10 12008.00 124.71
7867 31.7563 11642.70 12006.60 124.42
7868 31.7600 11989.60 12005.20 126.80
7869 31.7638 11695.60 12003.80 124.59
7870 31.7675 11614.80 12002.40 124.39
7871 31.7712 11759.80 12001.00 123.34
7872 31.7750 11745.20 11999.60 125.02
7873 31.7787 11744.60 11998.10 125.27
7874 31.7824 11957.30 11996.80 126.59
7875 31.7862 11900.80 11995.30 123.81
7876 31.7901 11996.70 11993.90 126.97
7877 31.7938 11705.60 11992.50 124.55
7878 31.7976 11816.90 11991.10 125.15
7879 31.8013 11668.40 11989.70 124.80
7880 31.8050 11596.20 11988.30 124.13
7881 31.8088 11774.70 11986.90 125.07
7882 31.8125 11589.00 11985.50 124.50
7883 31.8162 11587.40 11984.10 124.11
7884 31.8200 11591.60 11982.70 123.27
7885 31.8237 11668.20 11981.30 124.12
7886 31.8276 11948.90 11979.90 126.68
7887 31.8312 11383.80 11978.50 123.01
7888 31.8351 11680.90 11977.10 124.38
7889 31.8389 11513.90 11975.60 124.13
7890 31.8426 11804.20 11974.30 125.12
7891 31.8463 11594.60 11972.80 122.92
7892 31.8500 11763.00 11971.50 125.70
7893 31.8538 11557.30 11970.00 122.74
7894 31.8575 11784.90 11968.70 125.81
7895 31.8613 11741.10 11967.20 125.03
7896 31.8650 11611.50 11965.90 124.97
7897 31.8689 11384.20 11964.50 123.19
7898 31.8725 12028.40 11963.10 126.50
7899 31.8764 11575.10 11961.70 123.40
7900 31.8801 11524.80 11960.30 124.00
7901 31.8839 11521.50 11958.90 123.75
7902 31.8876 11817.30 11957.50 124.68
7903 31.8913 11599.60 11956.10 123.38
7904 31.8951 11695.10 11954.70 125.22
7905 31.8988 11571.20 11953.30 123.21
7906 31.9027 11741.50 11951.90 124.62
7907 31.9063 11654.10 11950.50 123.83
7908 31.9102 11709.60 11949.10 125.07
7909 31.9139 11614.10 11947.80 124.63
7910 31.9177 11689.20 11946.40 124.33
7911 31.9214 11546.70 11945.00 124.71
7912 31.9251 11740.80 11943.60 125.57
7913 31.9289 11624.90 11942.20 123.78
7914 31.9326 11693.30 11940.80 125.13
7915 31.9364 11662.60 11939.40 124.97
7916 31.9401 11816.40 11938.00 123.66
7917 31.9440 11612.10 11936.60 123.96
7918 31.9477 11811.00 11935.30 125.10
7919 31.9515 11533.10 11933.90 123.17
7920 31.9552 11562.30 11932.50 124.14
7921 31.9590 11428.60 11931.10 123.13
7922 31.9627 11611.90 11929.80 124.22
7923 31.9664 11622.40 11928.40 124.15
7924 31.9701 11706.40 11927.00 124.44
7925 31.9739 11713.70 11925.60 124.72
7926 31.9776 11863.80 11924.20 124.27
7927 31.9814 11494.10 11922.80 123.50
7928 31.9853 11494.60 11921.50 122.40
7929 31.9869 11534.80 11920.80 123.61
7930 31.9907 11565.60 11919.40 123.65
7931 31.9944 11499.10 11918.10 123.63
7932 31.9982 11773.20 11916.70 126.26
7933 32.0020 11592.90 11915.30 124.70
7934 32.0057 11547.80 11913.90 124.14
7935 32.0095 11391.10 11912.50 124.47
7936 32.0132 11721.60 11911.20 126.17
7937 32.0171 11535.20 11909.80 123.51
7938 32.0207 11797.50 11908.50 125.34
7939 32.0246 11495.30 11907.10 124.35
7940 32.0283 11769.70 11905.70 125.65
7941 32.0321 11665.20 11904.30 123.29
7942 32.0358 11797.80 11903.00 126.09
7943 32.0396 11499.10 11901.60 122.21
7944 32.0434 11638.00 11900.20 124.72
7945 32.0471 11588.50 11898.90 124.48
7946 32.0508 11686.20 11897.50 124.11
7947 32.0546 11680.50 11896.10 125.00
7948 32.0583 11821.90 11894.80 126.93
7949 32.0620 11865.20 11893.40 125.83
7950 32.0658 11700.60 11892.00 125.85
7951 32.0695 11575.70 11890.70 123.61
7952 32.0733 11673.40 11889.30 124.28
7953 32.0771 11633.20 11887.90 124.67
7954 32.0808 11850.70 11886.60 126.29
7955 32.0846 11761.80 11885.20 124.97
7956 32.0883 11879.40 11883.90 126.24
7957 32.0922 11582.10 11882.50 124.22
7958 32.0959 11632.20 11881.20 123.11
7959 32.0997 11814.30 11879.80 126.08
7960 32.1034 11559.00 11878.40 124.60
7961 32.1072 11655.20 11877.10 125.43
7962 32.1110 11712.50 11875.70 125.21
7963 32.1147 11474.80 11874.40 124.03
7964 32.1185 11695.00 11873.00 123.51
7965 32.1222 11676.30 11871.70 125.13
7966 32.1259 11613.80 11870.30 122.98
7967 32.1297 11421.50 11868.90 123.40
7968 32.1334 11673.60 11867.60 125.36
7969 32.1371 11475.90 11866.20 122.72
7970 32.1409 11594.30 11864.90 124.88
7971 32.1447 11216.10 11863.50 122.13
7972 32.1484 11895.70 11862.20 125.51
7973 32.1522 11509.70 11860.80 123.75
7974 32.1559 11611.50 11859.50 124.27
7975 32.1598 11473.40 11858.10 123.50
7976 32.1634 11551.50 11856.80 124.22
7977 32.1673 11400.10 11855.40 123.13
7978 32.1710 11531.20 11854.10 124.38
7979 32.1748 11393.20 11852.70 122.37
7980 32.1785 11750.60 11851.40 125.41
7981 32.1823 11494.70 11850.10 122.52
7982 32.1861 11619.90 11848.70 124.80
7983 32.1898 11523.30 11847.40 123.72
7984 32.1936 11622.60 11846.00 123.93
7985 32.1973 11514.30 11844.70 124.29
7986 32.2010 11601.70 11843.30 124.09
7987 32.2048 11219.20 11842.00 121.81
7988 32.2085 11458.80 11840.70 123.53
7989 32.2122 11387.70 11839.40 122.79
7990 32.2160 11479.50 11838.00 122.33
7991 32.2192 11282.80 11836.90 122.13
7992 32.2229 11582.80 11835.60 124.06
7993 32.2267 11314.10 11834.20 121.71
7994 32.2304 11633.50 11832.90 125.15
7995 32.2341 11390.50 11831.60 123.89
7996 32.2379 11470.70 11830.20 124.02
7997 32.2416 11267.40 11828.90 123.28
7998 32.2453 11501.20 11827.60 124.09
7999 32.2491 11429.00 11826.20 123.93
8000 32.2528 11603.90 11824.90 125.32
8001 32.2566 11321.30 11823.60 123.10
8002 32.2604 11686.40 11822.20 125.11
8003 32.2641 11334.50 11820.90 123.55
8004 32.2679 11779.70 11819.60 126.07
8005 32.2716 11577.40 11818.30 124.92
8006 32.2755 11727.60 11816.90 125.84
8007 32.2791 11414.40 11815.60 124.17
8008 32.2830 11581.20 11814.30 124.91
8009 32.2867 11224.80 11813.00 122.82
8010 32.2905 11600.10 11811.60 125.26
8011 32.2942 11644.00 11810.30 125.36
8012 32.2980 11329.20 11809.00 123.17
8013 32.3017 11285.70 11807.70 123.63
8014 32.3055 11521.50 11806.40 124.32
8015 32.3092 11189.20 11805.00 122.07
8016 32.3130 11554.40 11803.70 124.27
8017 32.3167 11533.20 11802.40 124.78
8018 32.3204 11451.40 11801.10 124.38
8019 32.3242 11478.20 11799.70 124.57
8020 32.3279 11573.60 11798.40 125.23
8021 32.3317 11244.50 11797.10 122.56
8022 32.3354 11333.80 11795.80 122.51
8023 32.3392 11423.00 11794.50 124.20
8024 32.3429 11612.60 11793.20 125.31
8025 32.3467 11327.60 11791.90 124.04
8026 32.3504 11621.80 11790.60 125.25
8027 32.3543 11571.50 11789.20 124.94
8028 32.3581 11523.40 11787.90 124.79
8029 32.3618 11418.30 11786.60 124.22
8030 32.3656 11618.60 11785.30 125.08
8031 32.3693 11300.00 11784.00 123.08
8032 32.3731 11636.70 11782.70 125.12
8033 32.3768 11377.60 11781.40 123.66
8034 32.3806 11540.80 11780.10 124.00
8035 32.3843 11496.00 11778.80 123.98
8036 32.3881 11539.00 11777.50 124.95
8037 32.3918 11499.10 11776.20 124.25
8038 32.3955 11478.10 11774.90 124.35
8039 32.3993 11476.10 11773.50 124.48
8040 32.4030 11736.70 11772.30 126.01
8041 32.4068 11517.40 11770.90 124.60
8042 32.4105 11376.70 11769.70 123.32
8043 32.4143 11239.90 11768.30 122.73
8044 32.4180 11548.80 11767.10 125.19
8045 32.4218 11268.90 11765.70 123.37
8046 32.4255 11574.90 11764.50 124.22
8047 32.4294 11384.90 11763.10 123.81
8048 32.4330 11662.50 11761.90 125.61
8049 32.4369 11495.20 11760.60 125.04
8050 32.4407 11685.20 11759.20 125.69
8051 32.4444 11425.30 11758.00 124.57
8052 32.4482 11669.10 11756.70 125.87
8053 32.4519 11550.90 11755.40 123.83
8054 32.4557 11706.30 11754.10 125.91
8055 32.4594 11360.20 11752.80 123.63
8056 32.4632 11755.40 11751.50 126.01
8057 32.4669 11456.90 11750.20 123.97
8058 32.4706 11751.60 11748.90 125.99
8059 32.4744 11572.00 11747.60 125.35
8060 32.4781 11902.30 11746.30 127.06
8061 32.4819 11488.10 11745.00 124.89
8062 32.4856 11841.70 11743.80 126.33
8063 32.4894 11971.30 11742.50 127.47
8064 32.4931 11837.80 11741.20 125.61
8065 32.4969 11540.90 11739.90 125.48
8066 32.5006 11861.90 11738.60 126.09
8067 32.5045 11679.80 11737.30 125.81
8068 32.5081 11775.70 11736.10 126.15
8069 32.5120 11611.70 11734.80 124.84
8070 32.5158 11806.20 11733.50 126.04
8071 32.5195 11518.50 11732.20 125.23
8072 32.5233 11513.70 11730.90 124.90
8073 32.5270 11545.40 11729.70 124.25
8074 32.5308 11631.80 11728.40 125.80
8075 32.5345 11576.20 11727.10 125.31
8076 32.5382 11589.20 11725.80 124.82
8077 32.5420 11339.60 11724.60 123.16
8078 32.5457 11537.30 11723.30 123.65
8079 32.5495 11388.10 11722.00 123.86
8080 32.5532 11619.80 11720.70 125.01
8081 32.5570 11435.30 11719.40 124.58
8082 32.5607 11850.30 11718.20 126.37
8083 32.5645 11355.80 11716.90 123.38
8084 32.5682 11385.20 11715.60 123.35
8085 32.5720 11397.10 11714.30 124.09
8086 32.5757 11549.00 11713.10 123.97
8087 32.5796 11437.40 11711.80 123.43
8088 32.5832 11585.80 11710.60 125.55
8089 32.5871 11306.60 11709.30 124.09
8090 32.5909 11437.90 11708.00 123.99
8091 32.5946 11438.30 11706.80 124.55
8092 32.5984 11651.00 11705.50 125.72
8093 32.6021 11366.50 11704.20 123.48
8094 32.6059 11440.30 11702.90 124.18
8095 32.6096 11355.90 11701.70 123.54
8096 32.6133 11354.00 11700.40 123.78
8097 32.6171 11337.70 11699.20 123.58
8098 32.6208 11368.00 11697.90 123.52
8099 32.6246 11210.60 11696.60 122.03
8100 32.6283 11297.80 11695.40 123.31
8101 32.6321 11393.00 11694.10 124.11
8102 32.6358 11385.50 11692.90 123.71
8103 32.6396 11113.20 11691.60 122.00
8104 32.6433 11511.20 11690.40 124.16
8105 32.6471 11501.60 11689.10 124.13
8106 32.6508 11390.00 11687.90 123.62
8107 32.6547 11172.00 11686.60 122.88
8108 32.6585 11514.60 11685.30 124.66
8109 32.6622 11255.00 11684.10 123.50
8110 32.6660 11539.30 11682.80 124.95
8111 32.6697 11230.30 11681.60 122.69
8112 32.6735 11629.40 11680.30 124.97
8113 32.6772 11317.20 11679.10 124.77
8114 32.6810 11645.50 11677.80 125.24
8115 32.6847 11359.60 11676.60 122.74
8116 32.6884 11604.80 11675.30 124.36
8117 32.6922 11362.40 11674.10 123.34
8118 32.6959 11433.60 11672.80 123.22
8119 32.6997 11253.20 11671.60 121.51
8120 32.7034 11482.00 11670.40 124.15
8121 32.7072 11488.00 11669.10 124.15
8122 32.7109 11487.10 11667.90 123.74
8123 32.7147 11341.40 11666.60 122.68
8124 32.7186 11639.60 11665.40 124.75
8125 32.7223 11372.90 11664.10 122.97
8126 32.7261 11443.90 11662.90 123.63
8127 32.7298 11468.90 11661.70 124.20
8128 32.7336 11642.70 11660.40 123.41
8129 32.7373 11477.40 11659.20 123.88
8130 32.7411 11526.70 11657.90 124.20
8131 32.7448 11360.30 11656.70 123.46
8132 32.7486 11572.40 11655.50 124.81
8133 32.7523 11296.60 11654.20 123.07
8134 32.7561 11578.70 11653.00 124.49
8135 32.7598 11292.20 11651.80 122.26
8136 32.7635 11456.50 11650.60 123.91
8137 32.7673 11146.10 11649.30 122.68
8138 32.7710 11685.30 11648.10 124.29
8139 32.7748 11375.50 11646.80 123.85
8140 32.7786 11657.20 11645.60 125.01
8141 32.7823 11221.00 11644.40 121.86
8142 32.7862 11391.20 11643.20 123.40
8143 32.7898 11366.50 11641.90 122.75
8144 32.7937 11328.90 11640.70 122.27
8145 32.7974 11199.70 11639.50 122.69
8146 32.8012 11378.30 11638.30 123.12
8147 32.8049 11325.50 11637.10 123.68
8148 32.8087 11525.70 11635.80 124.36
8149 32.8125 11249.50 11634.60 122.35
8150 32.8162 11580.30 11633.40 123.86
8151 32.8200 11452.60 11632.10 123.71
8152 32.8237 11437.00 11630.90 123.83
8153 32.8274 11318.90 11629.70 123.03
8154 32.8312 11534.50 11628.50 124.44
8155 32.8349 11319.90 11627.30 123.10
8156 32.8387 11476.10 11626.00 124.11
8157 32.8424 11652.50 11624.80 125.10
8158 32.8462 11282.70 11623.60 122.14
8159 32.8499 11389.30 11622.40 122.76
8160 32.8537 11670.80 11621.20 124.63
8161 32.8574 11239.70 11620.00 121.89
8162 32.8613 11352.60 11618.80 123.06
8163 32.8649 11276.20 11617.60 123.29
8164 32.8688 11539.00 11616.40 124.42
8165 32.8726 11200.50 11615.10 122.28
8166 32.8763 11538.90 11613.90 123.92
8167 32.8801 11427.40 11612.70 123.90
8168 32.8838 11629.20 11611.50 125.34
8169 32.8876 11399.90 11610.30 123.78
8170 32.8913 11500.60 11609.10 124.71
8171 32.8951 11474.00 11607.90 124.44
8172 32.8988 11494.70 11606.70 123.88
8173 32.9025 11346.00 11605.50 122.08
8174 32.9063 11544.40 11604.30 124.54
8175 32.9100 11304.70 11603.10 123.21
8176 32.9138 11573.30 11601.90 124.85
8177 32.9175 11421.00 11600.70 123.85
8178 32.9213 11707.00 11599.50 125.93
8179 32.9252 11354.20 11598.30 123.28
8180 32.9288 11450.60 11597.10 123.63
8181 32.9327 11185.20 11595.90 120.97
8182 32.9364 11355.20 11594.70 123.24
8183 32.9402 11328.30 11593.50 122.96
8184 32.9439 11534.80 11592.30 124.24
8185 32.9477 11479.00 11591.10 124.83
8186 32.9515 11640.60 11589.90 124.97
8187 32.9552 11368.20 11588.70 122.70
8188 32.9590 11550.60 11587.50 124.83
8189 32.9627 11521.60 11586.40 124.43
8190 32.9664 11498.10 11585.20 124.41
8191 32.9701 11398.50 11584.00 124.22
8192 32.9739 11450.50 11582.80 123.60
8193 32.9777 11029.60 11581.60 121.66
8194 32.9814 11518.30 11580.40 124.68
8195 32.9852 11334.30 11579.20 123.92
8196 32.9889 11445.40 11578.00 124.22
8197 32.9927 11293.90 11576.80 122.80
8198 32.9964 11559.70 11575.70 125.44
8199 33.0003 11332.00 11574.50 124.21
8200 33.0041 11783.60 11573.30 125.92
8201 33.0078 11457.40 11572.10 124.68
8202 33.0116 11553.10 11570.90 125.14
8203 33.0153 11449.00 11569.80 124.20
8204 33.0191 11693.10 11568.60 125.84
8205 33.0228 11379.10 11567.40 123.50
8206 33.0266 11507.50 11566.20 124.09
8207 33.0303 11310.30 11565.00 123.58
8208 33.0340 11541.10 11563.90 124.33
8209 33.0378 11583.30 11562.70 125.43
8210 33.0415 11683.20 11561.50 125.76
8211 33.0453 11266.70 11560.30 123.27
8212 33.0490 11588.50 11559.20 125.68
8213 33.0528 11487.60 11558.00 124.71
8214 33.0566 11863.40 11556.80 127.14
8215 33.0603 11299.10 11555.70 123.72
8216 33.0642 11665.50 11554.50 125.72
8217 33.0678 11416.50 11553.30 123.92
8218 33.0717 11767.70 11552.20 125.62
8219 33.0754 11597.60 11551.00 124.93
8220 33.0792 11735.90 11549.80 126.27
8221 33.0830 11566.80 11548.70 125.11
8222 33.0867 11826.00 11547.50 125.43
8223 33.0905 11485.30 11546.30 124.95
8224 33.0942 11567.60 11545.20 124.50
8225 33.0979 11389.60 11544.00 124.85
8226 33.1017 11555.20 11542.90 125.32
8227 33.1054 11524.80 11541.70 125.08
8228 33.1092 11780.70 11540.50 126.02
8229 33.1129 11525.40 11539.40 124.77
8230 33.1167 11791.60 11538.20 126.58
8231 33.1204 11232.70 11537.10 123.32
8232 33.1242 11720.70 11535.90 125.90
8233 33.1279 11527.40 11534.80 124.71
8234 33.1317 11688.00 11533.60 125.80
8235 33.1356 11718.90 11532.40 125.41
8236 33.1393 11555.80 11531.30 124.55
8237 33.1431 11562.60 11530.10 125.20
8238 33.1468 11728.00 11529.00 126.27
8239 33.1506 11664.70 11527.80 126.10
8240 33.1543 11811.50 11526.70 126.80
8241 33.1581 11497.10 11525.50 125.78
8242 33.1618 11751.40 11524.40 126.75
8243 33.1656 11678.10 11523.30 126.27
8244 33.1693 11805.70 11522.10 126.11
8245 33.1730 11591.50 11521.00 125.08
8246 33.1768 11888.00 11519.80 125.40
8247 33.1806 11591.50 11518.70 125.06
8248 33.1843 11681.70 11517.50 125.81
8249 33.1881 11326.00 11516.40 123.96
8250 33.1918 11783.20 11515.20 126.31
8251 33.1956 11487.60 11514.10 124.95
8252 33.1993 11657.40 11513.00 125.76
8253 33.2032 11394.20 11511.80 124.07
8254 33.2070 11799.10 11510.70 125.07
8255 33.2107 11602.90 11509.60 124.06
8256 33.2145 11691.90 11508.40 125.81
8257 33.2182 11736.50 11507.30 125.80
8258 33.2220 11762.80 11506.10 125.59
8259 33.2257 11527.40 11505.00 124.83
8260 33.2295 11717.70 11503.90 124.27
8261 33.2332 11471.30 11502.70 124.41
8262 33.2369 11983.30 11501.60 128.44
8263 33.2407 11660.60 11500.50 125.24
8264 33.2444 11773.60 11499.40 126.10
8265 33.2482 11728.60 11498.20 126.26
8266 33.2520 11764.00 11497.10 125.76
8267 33.2557 11421.90 11496.00 123.87
8268 33.2595 11807.80 11494.80 126.41
8269 33.2632 11799.80 11493.70 126.31
8270 33.2671 11907.10 11893.70 127.31
8271 33.2707 11873.00 11899.60 126.42
8272 33.2746 11677.20 11905.80 124.79
8273 33.2784 11628.70 11912.20 125.49
8274 33.2821 11736.20 11918.70 124.23
8275 33.2859 11681.70 11925.50 125.85
8276 33.2896 11906.60 11932.40 126.36
8277 33.2934 11640.80 11939.70 125.17
8278 33.2971 11762.70 11947.10 126.04
8279 33.3008 11856.30 11954.90 126.60
8280 33.3046 11774.20 11962.90 126.27
8281 33.3083 11603.20 11971.00 125.20
8282 33.3121 11791.10 11979.60 126.10
8283 33.3158 11640.60 11988.30 125.67
8284 33.3196 11804.90 12193.60 126.56
8285 33.3234 11638.70 12206.60 125.87
8286 33.3271 11941.00 12219.70 126.99
8287 33.3310 11616.00 12233.50 125.18
8288 33.3346 12035.60 12247.50 127.64
8289 33.3385 11963.20 12262.30 128.02
8290 33.3422 11891.60 12277.20 126.33
8291 33.3460 11990.00 12293.00 127.64
8292 33.3498 11790.20 12309.30 125.93
8293 33.3535 11862.10 12325.70 127.05
8294 33.3573 11940.10 12343.20 127.08
8295 33.3610 11904.90 12360.80 126.77
8296 33.3647 11909.10 12379.50 126.99
8297 33.3685 11972.60 12398.90 127.08
8298 33.3722 12174.00 12418.40 128.45
8299 33.3760 12104.90 12439.20 128.24
8300 33.3797 12172.50 12460.20 128.63
8301 33.3835 11918.20 12482.50 127.11
8302 33.3872 12133.60 12505.00 128.10
8303 33.3910 11980.70 12529.10 127.33
8304 33.3949 12218.00 12554.00 129.28
8305 33.3985 12187.70 12579.20 128.21
8306 33.4024 12448.40 12606.10 130.66
8307 33.4061 12180.30 12633.30 128.85
8308 33.4099 12485.60 12662.30 130.90
8309 33.4137 12128.20 12692.50 128.98
8310 33.4174 12460.80 12723.10 130.01
8311 33.4212 12008.60 12755.80 127.96
8312 33.4249 12591.30 12789.00 131.29
8313 33.4286 12437.10 12824.50 130.42
8314 33.4324 12570.70 12860.50 130.49
8315 33.4361 12378.80 12899.00 130.32
8316 33.4399 12443.90 12939.30 130.60
8317 33.4436 12359.30 12980.20 129.84
8318 33.4474 12496.60 13024.20 130.65
8319 33.4511 12541.60 13068.80 131.08
8320 33.4549 12719.80 13116.90 132.58
8321 33.4588 12655.20 13167.10 131.72
8322 33.4624 12601.60 13218.40 131.88
8323 33.4663 12654.90 13273.60 132.04
8324 33.4700 13009.70 13329.90 133.40
8325 33.4738 12753.40 13390.60 132.53
8326 33.4775 12959.30 13452.70 133.04
8327 33.4813 12716.40 13519.70 132.25
8328 33.4851 13137.70 13590.30 133.87
8329 33.4888 12993.00 13662.60 133.86
8330 33.4925 13411.90 13740.80 136.23
8331 33.4963 13032.00 13821.20 133.26
8332 33.5000 13439.10 13908.20 136.40
8333 33.5038 13261.40 14000.30 135.23
8334 33.5075 13432.40 14095.10 135.73
8335 33.5113 13303.40 14198.30 136.06
8336 33.5150 13753.10 14304.60 137.90
8337 33.5188 13392.50 14420.60 135.81
8338 33.5225 13952.60 14540.70 139.01
8339 33.5263 13787.50 14671.60 138.55
8340 33.5302 14103.40 14811.30 140.26
8341 33.5339 13942.50 14956.30 139.01
8342 33.5377 14132.30 15115.40 139.91
8343 33.5414 14049.20 15281.00 140.31
8344 33.5452 14314.00 15463.30 141.89
8345 33.5490 14566.40 15659.10 142.02
8346 33.5527 14975.40 15864.00 144.99
8347 33.5564 14893.00 16090.40 145.26
8348 33.5602 15368.80 16328.40 146.95
8349 33.5639 15185.00 16592.30 146.57
8350 33.5677 15529.00 16878.70 147.61
8351 33.5714 15509.70 17181.20 147.77
8352 33.5752 16300.30 17519.40 152.61
8353 33.5789 16149.10 17878.70 151.68
8354 33.5827 16489.30 18281.90 153.29
8355 33.5864 16711.30 18712.80 154.45
8356 33.5902 17560.60 19199.10 158.45
8357 33.5941 17533.10 19736.80 157.21
8358 33.5978 18530.10 20316.20 164.99
8359 33.6016 18315.50 20977.90 163.56
8360 33.6053 19257.50 21696.10 167.95
8361 33.6091 19800.30 22523.10 170.71
8362 33.6129 20726.10 23455.20 175.49
8363 33.6166 21143.50 24482.00 177.99
8364 33.6203 22557.10 25679.60 184.13
8365 33.6241 23434.20 27014.50 187.84
8366 33.6278 24768.40 28590.30 194.64
8367 33.6316 26509.00 30422.00 202.70
8368 33.6353 29180.00 32506.90 214.62
8369 33.6391 31364.90 35033.00 227.38
8370 33.6428 35626.40 37984.20 237.32
8371 33.6466 39421.10 41696.80 251.59
8372 33.6503 46634.50 46290.10 280.63
8373 33.6541 54062.50 52572.80 308.08
8374 33.6580 66737.40 61490.40 351.35
8375 33.6617 81363.10 74368.40 397.48
8376 33.6655 104620.00 94573.90 468.33
8377 33.6692 130449.00 124485.00 542.83
8378 33.6730 169222.00 169868.00 649.45
8379 33.6768 216595.00 233703.00 769.86
8380 33.6805 288217.00 314957.00 943.47
8381 33.6842 375178.00 415014.00 1143.18
8382 33.6880 493952.00 519673.00 1405.15
8383 33.6917 602219.00 615643.00 1624.94
8384 33.6955 695879.00 672303.00 1821.58
8385 33.6992 694298.00 668212.00 1818.36
8386 33.7030 644625.00 605949.00 1719.74
8387 33.7067 529338.00 512874.00 1482.16
8388 33.7105 427964.00 411041.00 1260.88
8389 33.7144 332125.00 320848.00 1043.41
8390 33.7180 272386.00 253589.00 908.60
8391 33.7219 228833.00 209274.00 802.04
8392 33.7256 211494.00 190392.00 759.04
8393 33.7294 206067.00 193799.00 748.08
8394 33.7332 221465.00 216705.00 780.79
8395 33.7369 248129.00 252742.00 850.65
8396 33.7407 296013.00 296392.00 962.96
8397 33.7444 336859.00 334498.00 1055.62
8398 33.7481 374930.00 354722.00 1148.05
8399 33.7519 366189.00 345870.00 1126.52
8400 33.7556 332003.00 309698.00 1048.84
8401 33.7594 266802.00 258656.00 894.57
8402 33.7631 206346.00 206608.00 747.95
8403 33.7669 153428.00 158601.00 609.75
8404 33.7706 117641.00 120501.00 509.94
8405 33.7744 89776.00 91043.20 425.42
8406 33.7783 71929.50 70241.60 369.00
8407 33.7820 57947.90 56506.30 322.01
8408 33.7858 49187.30 47096.80 290.20
8409 33.7895 41538.90 40932.60 262.12
8410 33.7933 37031.80 36498.50 243.43
8411 33.7971 32081.40 33237.30 223.27
8412 33.8008 29508.20 30765.40 213.06
8413 33.8046 26612.80 28700.10 199.04
8414 33.8083 25016.40 27023.10 193.11
8415 33.8120 22995.50 25556.80 182.99
8416 33.8158 22549.30 24297.50 181.44
8417 33.8195 20938.80 23230.70 173.32
8418 33.8233 20489.30 22272.60 171.63
8419 33.8270 19442.30 21449.60 166.35
8420 33.8308 19187.00 20701.40 165.24
8421 33.8345 18656.80 20051.70 161.95
8422 33.8383 18089.80 19455.20 159.11
8423 33.8422 17698.00 18919.10 157.57
8424 33.8459 17399.20 18448.20 156.36
8425 33.8497 16829.40 18009.70 152.55
8426 33.8534 16458.50 17621.70 151.20
8427 33.8572 16124.60 17258.00 148.36
8428 33.8610 16208.20 16925.20 149.23
8429 33.8647 15556.80 16628.70 146.30
8430 33.8685 15598.90 16347.80 146.84
8431 33.8722 15313.20 16095.90 144.51
8432 33.8759 15472.00 15856.60 145.47
8433 33.8797 14755.00 15635.20 141.45
8434 33.8834 14626.60 15434.90 141.28
8435 33.8872 14540.60 15243.70 140.77
8436 33.8909 14700.90 15070.00 141.80
8437 33.8947 14356.30 14903.60 139.83
8438 33.8985 14405.00 14748.00 140.03
8439 33.9022 13839.20 14606.10 136.55
8440 33.9061 14216.80 14469.30 139.10
8441 33.9098 13678.80 14344.30 136.25
8442 33.9136 13946.70 14223.40 137.84
8443 33.9174 13434.60 14109.60 133.95
8444 33.9211 13774.20 14005.00 137.15
8445 33.9249 13413.10 13903.50 133.81
8446 33.9286 13514.60 13810.30 135.39
8447 33.9324 13060.90 13719.40 132.43
8448 33.9361 13307.10 13633.50 134.19
8449 33.9398 13175.70 13554.00 133.58
8450 33.9436 13242.70 13476.70 134.32
8451 33.9473 13084.40 13405.00 132.81
8452 33.9511 13004.90 13335.00 132.08
8453 33.9549 13042.80 13268.30 132.42
8454 33.9586 13055.60 13206.50 133.28
8455 33.9624 12798.90 13145.90 131.06
8456 33.9661 12748.80 13089.60 130.89
8457 33.9700 12692.10 13034.30 130.96
8458 33.9738 12796.50 12981.50 130.88
8459 33.9775 12539.70 12932.30 129.56
8460 33.9813 12734.70 12883.90 130.57
8461 33.9850 12449.80 12838.80 129.35
8462 33.9888 12404.30 12794.30 129.12
8463 33.9925 12409.70 12752.80 129.08
8464 33.9963 12754.70 12711.80 130.77
8465 34.0000 12044.20 12672.50 127.00
8466 34.0037 12528.90 12635.70 129.10
8467 34.0075 12295.50 12599.40 128.32
8468 34.0112 12404.30 12565.30 129.40
8469 34.0150 12225.80 12531.70 127.78
8470 34.0188 12257.90 12499.20 128.51
8471 34.0225 12199.00 12468.80 127.29
8472 34.0263 12204.50 12438.70 127.55
8473 34.0300 11996.20 12410.40 126.88
8474 34.0339 12263.40 12382.30 128.38
8475 34.0377 12142.20 12355.20 126.96
8476 34.0414 12045.20 12329.70 127.35
8477 34.0452 12144.20 12304.40 127.34
8478 34.0489 12072.50 12280.50 126.64
8479 34.0527 11887.20 12256.80 125.59
8480 34.0564 12050.00 12233.90 126.90
8481 34.0602 11777.40 12212.30 125.19
8482 34.0639 12080.10 12190.80 127.50
8483 34.0676 11950.30 12170.50 125.84
8484 34.0714 12083.50 12150.30 127.04
8485 34.0752 11781.70 12130.80 125.15
8486 34.0789 11888.90 12112.30 126.34
8487 34.0827 11787.20 12093.80 125.68
8488 34.0864 12059.00 12076.40 127.30
8489 34.0902 11868.40 12059.00 125.41
8490 34.0941 12040.00 12042.10 127.42
8491 34.0978 11672.40 12026.10 124.36
8492 34.1016 11862.70 12010.20 126.00
8493 34.1053 11833.10 11995.10 126.54
8494 34.1091 11939.30 11980.00 125.83
8495 34.1129 11939.30 11965.30 126.26
8496 34.1166 11893.50 11951.30 125.83
8497 34.1203 11612.00 11937.40 124.58
8498 34.1241 11968.10 11924.20 127.10
8499 34.1278 11698.20 11510.90 125.49
8500 34.1316 11666.60 11505.00 125.31
8501 34.1353 11575.10 11499.40 124.49
8502 34.1391 11967.10 11493.70 127.05
8503 34.1428 11441.80 11488.40 123.61
8504 34.1466 11670.10 11483.00 125.29
8505 34.1505 11627.20 11477.80 124.52
8506 34.1541 11691.40 11472.80 125.44
8507 34.1580 11742.00 11467.80 126.20
8508 34.1617 11771.90 11463.00 125.77
8509 34.1655 11468.90 11458.20 123.89
8510 34.1693 11607.70 11453.50 124.31
8511 34.1730 11516.40 11449.00 124.09
8512 34.1768 11579.40 11444.60 124.26
8513 34.1805 11350.60 11245.30 123.30
8514 34.1842 11614.40 11244.30 124.66
8515 34.1880 11327.90 11243.40 123.17
8516 34.1917 11667.30 11242.50 125.04
8517 34.1955 11285.70 11241.60 123.06
8518 34.1992 11542.90 11240.70 123.82
8519 34.2030 11580.40 11239.80 124.15
8520 34.2068 11534.90 11238.90 122.19
8521 34.2105 11364.70 11238.00 123.27
8522 34.2144 11663.90 11237.10 124.81
8523 34.2180 11418.30 11236.20 123.74
8524 34.2219 11760.20 11235.30 125.29
8525 34.2257 11306.00 11234.40 123.00
8526 34.2294 11574.10 11233.50 124.01
8527 34.2332 11146.10 11232.60 122.14
8528 34.2369 11478.60 11231.70 123.82
8529 34.2407 11331.90 11230.80 122.10
8530 34.2444 11544.30 11229.90 124.71
8531 34.2481 11260.80 11229.00 122.98
8532 34.2519 11566.80 11228.10 123.69
8533 34.2556 11275.20 11227.30 122.64
8534 34.2594 11399.00 11226.40 123.81
8535 34.2632 11236.50 11225.50 122.42
8536 34.2669 11396.20 11224.60 123.55
8537 34.2707 11199.70 11223.70 121.95
8538 34.2744 11325.20 11222.80 122.29
8539 34.2783 11141.70 11221.90 121.91
8540 34.2821 11301.30 11221.00 122.67
8541 34.2858 11309.30 11220.20 123.15
8542 34.2896 11395.60 11219.30 123.46
8543 34.2933 11404.00 11218.40 122.57
8544 34.2971 11418.80 11217.50 123.66
8545 34.3008 11149.50 11216.60 121.37
8546 34.3046 11374.10 11215.80 122.61
8547 34.3083 10999.50 11214.90 120.88
8548 34.3120 11317.70 11214.00 122.21
8549 34.3158 11356.70 11213.10 122.64
8550 34.3196 11506.90 11212.30 123.79
8551 34.3233 11124.70 11211.40 121.53
8552 34.3271 11469.30 11210.50 123.62
8553 34.3308 11295.50 11209.70 122.78
8554 34.3346 11370.20 11208.80 123.50
8555 34.3385 11013.60 11207.90 120.96
8556 34.3422 11429.60 11207.00 122.98
8557 34.3460 11132.90 11206.20 121.58
8558 34.3497 11553.00 11205.30 124.09
8559 34.3535 11090.10 11204.40 120.30
8560 34.3573 11291.80 11203.60 122.67
8561 34.3610 11212.20 11202.70 121.64
8562 34.3647 11339.00 11201.80 122.92
8563 34.3685 11246.10 11201.00 121.68
8564 34.3722 11088.80 11200.10 121.40
8565 34.3760 11238.10 11199.20 122.88
8566 34.3797 11387.40 11198.40 123.25
8567 34.3835 11137.80 11197.50 121.63
8568 34.3872 11292.00 11196.70 122.41
8569 34.3910 11195.40 11195.80 122.05
8570 34.3947 11419.60 11195.00 123.80
8571 34.3985 11370.70 11194.10 123.07
8572 34.4024 11378.40 11193.20 122.87
8573 34.4061 11087.00 11192.40 121.31
8574 34.4099 11294.80 11191.50 122.34
8575 34.4137 11106.50 11190.70 121.79
8576 34.4174 11262.40 11189.80 122.82
8577 34.4212 11120.40 11189.00 121.43
8578 34.4249 11309.50 11188.20 122.19
8579 34.4286 11115.20 11187.30 121.37
8580 34.4324 11418.30 11186.40 123.36
8581 34.4361 11106.30 11185.60 121.79
8582 34.4399 11345.60 11184.80 123.25
8583 34.4436 11075.20 11183.90 121.01
8584 34.4474 11272.30 11183.10 122.26
8585 34.4511 11149.10 11182.20 122.08
8586 34.4549 11422.70 11181.40 123.84
8587 34.4588 11230.40 11180.50 122.45
8588 34.4624 11259.00 11179.70 122.03
8589 34.4663 11215.50 11178.90 122.22
8590 34.4701 11279.80 11178.00 122.32
8591 34.4738 11023.60 11177.20 121.02
8592 34.4776 11449.80 11176.40 122.83
8593 34.4813 11213.10 11175.50 122.37
8594 34.4851 11211.90 11174.70 122.07
8595 34.4888 11088.10 11173.80 121.15
8596 34.4925 11266.20 11173.00 121.96
8597 34.4963 11162.30 11172.20 121.28
8598 34.5000 11271.00 11171.40 122.70
8599 34.5038 11133.40 11170.50 121.52
8600 34.5076 11143.30 11169.70 121.81
8601 34.5113 11061.60 11168.90 121.14
8602 34.5151 11215.10 11168.00 121.93
8603 34.5188 11004.00 11167.20 120.84
8604 34.5227 11299.40 11166.40 123.15
8605 34.5265 10998.20 11165.60 120.00
8606 34.5302 11246.80 11164.80 121.33
8607 34.5340 11118.90 11163.90 121.55
8608 34.5377 11164.10 11163.10 121.19
8609 34.5415 11110.60 11162.30 121.42
8610 34.5452 11126.80 11161.50 121.33
8611 34.5490 11130.30 11160.70 121.58
8612 34.5527 11279.20 11159.80 122.70
8613 34.5564 11074.50 11159.00 121.17
8614 34.5602 11193.50 11158.20 121.69
8615 34.5640 10957.00 11157.40 120.47
8616 34.5677 11232.20 11156.60 122.32
8617 34.5715 11136.80 11155.80 121.85
8618 34.5752 11341.40 11155.00 123.14
8619 34.5790 11113.40 11154.10 121.26
8620 34.5829 11143.90 11153.30 121.56
8621 34.5866 10877.10 11152.50 119.60
8622 34.5904 11237.50 11151.70 122.35
8623 34.5941 10825.30 11150.90 118.98
8624 34.5979 11219.40 11150.10 121.89
8625 34.6017 11003.70 11149.30 121.27
8626 34.6054 11447.30 11148.50 124.18
8627 34.6091 11141.00 11147.70 122.07
8628 34.6129 11060.20 11146.90 121.32
8629 34.6166 10969.60 11146.10 120.62
8630 34.6204 11332.30 11145.30 123.20
8631 34.6241 10978.60 11144.50 120.96
8632 34.6279 11179.20 11143.70 122.24
8633 34.6316 10833.60 11142.90 120.38
8634 34.6354 11047.70 11142.10 121.40
8635 34.6393 11108.80 11141.30 121.38
8636 34.6429 11196.80 11140.50 121.99
8637 34.6468 11070.40 11139.70 121.64
8638 34.6505 11078.40 11138.90 121.37
8639 34.6543 10955.80 11138.10 119.35
8640 34.6581 11050.60 11137.30 121.11
8641 34.6618 10931.70 11136.50 120.44
8642 34.6656 11186.50 11135.70 121.82
8643 34.6693 11103.20 11135.00 122.20
8644 34.6730 11038.80 11134.20 121.62
8645 34.6768 10915.80 11133.40 120.68
8646 34.6805 11007.90 11132.60 120.89
8647 34.6843 10949.00 11131.80 120.46
8648 34.6880 11150.10 11131.00 122.03
8649 34.6918 10877.20 11130.20 120.20
8650 34.6956 11141.10 11129.50 122.03
8651 34.6993 10933.20 11128.70 120.64
8652 34.7032 11001.00 11127.90 121.01
8653 34.7068 11011.80 11127.10 121.49
8654 34.7107 11218.90 11126.30 122.88
8655 34.7145 10935.50 11125.60 121.09
8656 34.7182 10976.40 11124.80 120.73
8657 34.7220 10963.40 11124.00 120.70
8658 34.7257 11086.50 11123.30 121.19
8659 34.7295 11102.30 11122.50 121.31
8660 34.7332 11278.60 11121.70 123.34
8661 34.7369 10916.10 11120.90 121.04
8662 34.7407 11244.20 11120.20 122.88
8663 34.7444 10935.80 11119.40 120.01
8664 34.7482 11224.40 11118.60 122.67
8665 34.7520 11054.70 11117.80 121.37
8666 34.7557 10880.50 11117.10 119.86
8667 34.7595 11099.90 11116.30 121.40
8668 34.7632 11042.60 11115.60 121.73
8669 34.7671 11102.80 11114.80 122.03
8670 34.7709 10866.00 11114.00 120.21
8671 34.7746 10907.50 11113.30 120.13
8672 34.7784 11147.70 11112.50 122.09
8673 34.7821 10904.70 11111.80 119.99
8674 34.7859 11092.70 11111.00 121.94
8675 34.7896 10979.80 11110.20 120.95
8676 34.7934 11058.30 11109.50 119.79
8677 34.7971 10987.10 11108.70 120.22
8678 34.8008 11272.70 11108.00 122.47
8679 34.8046 10989.40 11107.20 120.93
8680 34.8084 11219.30 11106.40 122.58
8681 34.8121 11216.90 11105.70 122.74
8682 34.8159 11159.70 11104.90 121.50
8683 34.8196 10785.80 11104.20 119.68
8684 34.8234 11013.50 11104.20 121.47
8685 34.8273 10761.70 11103.50 119.95
8686 34.8310 11216.90 11102.80 121.34
8687 34.8348 10924.40 11102.00 120.75
8688 34.8385 11183.60 11101.30 121.89
8689 34.8423 10941.80 11100.60 121.14
8690 34.8461 11285.70 11099.80 122.90
8691 34.8498 10981.40 11099.10 121.02
8692 34.8535 11157.60 11098.40 122.38
8693 34.8573 10895.70 11097.70 121.27
8694 34.8610 11234.10 11096.90 122.79
8695 34.8648 10847.10 11096.20 120.37
8696 34.8685 11229.00 11095.50 123.18
8697 34.8723 10983.40 11094.80 121.20
8698 34.8760 11405.80 11094.70 122.61
8699 34.8798 11065.70 11094.00 121.49
8700 34.8837 11144.60 11093.30 121.97
8701 34.8873 11071.10 11092.60 121.42
8702 34.8912 11147.00 11091.90 122.22
8703 34.8949 10956.30 11091.20 121.33
8704 34.8987 11113.70 11093.40 121.35
8705 34.9025 11031.40 11092.80 121.69
8706 34.9062 11122.90 11092.20 122.38
8707 34.9100 10980.90 11091.50 121.27
8708 34.9137 11111.70 11090.90 122.50
8709 34.9174 10985.00 11090.30 120.81
8710 34.9212 10964.10 11089.60 121.28
8711 34.9249 11036.50 11089.00 121.01
8712 34.9287 11123.50 11088.40 121.66
8713 34.9324 10860.40 11087.80 120.36
8714 34.9362 10891.80 11087.20 120.26
8715 34.9399 11121.00 11086.60 122.24
8716 34.9437 11121.70 11086.00 120.95
8717 34.9476 11006.60 11085.40 121.49
8718 34.9512 11223.40 11084.80 122.81
8719 34.9551 10875.30 11084.20 120.89
8720 34.9589 11169.80 11083.60 122.46
8721 34.9626 11101.20 11083.00 121.99
8722 34.9664 11145.10 11082.50 121.93
8723 34.9701 10915.80 11081.90 120.90
8724 34.9739 11198.90 11081.30 122.77
8725 34.9776 10818.10 11080.80 120.31
8726 34.9813 11150.60 11080.20 122.41
8727 34.9851 11261.10 11079.70 123.21
8728 34.9888 11231.40 11079.20 122.96
8729 34.9926 11070.50 11078.60 122.00
8730 34.9964 11024.50 11078.10 122.25
8731 35.0001 10865.60 11077.60 119.87
8732 35.0039 11064.40 11077.10 121.80
8733 35.0076 10999.00 11076.60 121.68
8734 35.0115 11169.60 11076.10 122.91
8735 35.0151 10805.20 11075.70 120.74
8736 35.0190 11130.60 11075.20 122.38
8737 35.0228 10938.00 11074.70 121.28
8738 35.0265 11255.90 11074.30 122.97
8739 35.0303 11091.20 11073.90 122.17
8740 35.0340 11247.20 11073.40 123.73
8741 35.0378 11062.10 11073.00 122.44
8742 35.0415 11363.10 11072.60 123.84
8743 35.0452 10898.80 11072.30 120.95
8744 35.0490 11132.90 11071.90 122.29
8745 35.0527 10844.40 11071.50 120.83
8746 35.0565 11199.60 11071.20 122.97
8747 35.0603 10891.90 11070.90 121.02
8748 35.0640 11308.60 11070.60 123.66
8749 35.0678 11019.00 11070.30 121.36
8750 35.0715 11127.90 11070.00 122.24
8751 35.0754 10910.00 11069.80 121.61
8752 35.0792 11277.70 11069.60 122.31
8753 35.0829 10888.30 11069.40 121.44
8754 35.0867 11356.70 11069.20 123.62
8755 35.0904 10877.40 11069.10 121.36
8756 35.0942 11389.90 11069.00 123.86
8757 35.0979 11173.90 11068.90 121.83
8758 35.1017 11266.40 11068.90 122.76
8759 35.1054 10889.10 11068.90 120.83
8760 35.1091 11175.30 11068.90 122.12
8761 35.1129 11012.80 11069.00 121.87
8762 35.1167 11254.60 11069.10 122.76
8763 35.1204 10973.20 11069.30 120.47
8764 35.1242 11429.40 11069.50 124.42
8765 35.1279 10941.60 11069.80 121.51
8766 35.1317 11235.80 11070.20 122.48
8767 35.1356 11109.00 11070.60 122.38
8768 35.1393 11368.20 11071.10 123.87
8769 35.1431 11012.80 11071.70 121.33
8770 35.1468 11366.10 11072.40 123.74
8771 35.1506 11108.70 11073.20 121.90
8772 35.1544 11380.50 11074.20 123.28
8773 35.1581 11151.90 11075.20 122.81
8774 35.1618 11218.70 11076.40 121.64
8775 35.1656 11031.40 11077.70 121.81
8776 35.1693 11318.20 11079.30 123.36
8777 35.1731 10980.30 11081.10 121.40
8778 35.1768 11421.10 11083.10 123.63
8779 35.1806 11078.90 11085.30 121.76
8780 35.1843 11189.80 11087.90 121.99
8781 35.1881 11078.20 11090.90 121.35
8782 35.1920 11483.70 11094.30 124.90
8783 35.1956 11019.60 11098.10 120.81
8784 35.1995 11234.50 11102.60 123.36
8785 35.2032 11202.90 11107.60 122.93
8786 35.2070 11217.40 11113.70 122.33
8787 35.2108 11075.80 11120.90 122.00
8788 35.2145 11204.30 11129.20 122.86
8789 35.2183 11201.20 11139.70 122.50
8790 35.2220 11554.10 11152.80 123.85
8791 35.2257 11184.50 11170.60 122.37
8792 35.2295 11568.50 11195.80 124.82
8793 35.2332 11287.10 11231.40 123.11
8794 35.2370 11506.70 11285.30 124.33
8795 35.2407 11442.20 11361.40 124.13
8796 35.2445 11671.20 11470.90 124.94
8797 35.2482 11599.10 11612.20 125.39
8798 35.2520 12004.70 11792.20 126.86
8799 35.2559 11666.50 11997.00 125.61
8800 35.2595 11938.10 12197.20 127.02
8801 35.2634 11782.00 12362.10 126.48
8802 35.2671 12071.00 12436.30 127.99
8803 35.2709 11842.00 12399.10 126.55
8804 35.2747 11809.70 12271.40 126.34
8805 35.2784 11614.00 12110.40 125.19
8806 35.2822 11833.10 11952.50 127.29
8807 35.2859 11709.80 11835.60 126.12
8808 35.2896 11938.90 11770.90 127.07
8809 35.2934 11624.50 11771.90 125.34
8810 35.2971 11840.70 11839.50 126.31
8811 35.3009 11879.00 11977.30 126.82
8812 35.3046 12396.60 12177.60 129.20
8813 35.3084 12258.60 12439.40 128.13
8814 35.3122 12840.10 12747.10 132.90
8815 35.3159 12575.40 13073.70 131.13
8816 35.3198 13246.70 13427.50 135.20
8817 35.3234 13396.20 13810.30 134.62
8818 35.3273 13835.40 14274.50 137.15
8819 35.3311 14294.90 14813.80 141.51
8820 35.3348 15078.80 15351.70 144.74
8821 35.3386 15115.30 15782.10 145.79
8822 35.3423 15828.60 15911.50 149.37
8823 35.3461 15439.10 15649.90 147.98
8824 35.3498 15664.60 15062.20 149.03
8825 35.3535 14674.50 14343.50 143.40
8826 35.3573 14335.00 13603.50 140.54
8827 35.3610 13344.10 12967.50 135.84
8828 35.3648 13306.90 12462.80 135.28
8829 35.3686 12656.70 12067.00 129.59
8830 35.3723 12515.40 11792.60 130.40
8831 35.3761 11902.90 11600.60 127.21
8832 35.3798 11761.60 11475.50 125.76
8833 35.3837 11492.20 11389.30 124.61
8834 35.3873 11684.80 11331.20 125.61
8835 35.3912 11363.20 11287.80 124.41
8836 35.3950 11617.60 11254.70 125.80
8837 35.3987 11248.40 11229.00 123.76
8838 35.4025 11380.70 11216.20 124.89
8839 35.4062 11250.80 11198.60 123.64
8840 35.4100 11381.10 11183.20 124.05
8841 35.4137 11224.80 11170.10 123.59
8842 35.4174 11305.70 11163.50 123.41
8843 35.4212 11110.20 11153.70 122.40
8844 35.4249 11215.50 11145.50 123.17
8845 35.4287 11233.70 11138.10 122.80
8846 35.4325 11590.10 11131.60 124.91
8847 35.4362 10992.40 11126.10 120.99
8848 35.4400 11465.30 11121.00 124.70
8849 35.4437 11115.10 11116.70 122.43
8850 35.4476 11178.70 11112.80 122.94
8851 35.4514 11018.90 11109.40 121.19
8852 35.4551 11327.70 11106.50 124.38
8853 35.4589 10911.80 11103.80 120.86
8854 35.4626 11122.70 11101.60 122.27
8855 35.4664 11031.00 11099.50 122.42
8856 35.4701 11155.20 11097.80 122.15
8857 35.4739 11155.00 11096.40 121.68
8858 35.4776 11217.60 11095.10 122.82
8859 35.4813 10981.00 11094.10 121.01
8860 35.4851 11288.60 11093.20 123.98
8861 35.4889 10984.90 11092.60 121.67
8862 35.4926 10910.40 11092.20 121.44
8863 35.4964 11056.00 11091.90 122.55
8864 35.5001 11286.50 11091.70 123.38
8865 35.5039 10861.60 11091.80 120.04
8866 35.5076 11160.80 11092.00 123.13
8867 35.5115 10873.40 11092.30 120.79
8868 35.5153 11111.30 11092.80 122.29
8869 35.5190 10904.70 11093.40 120.84
8870 35.5228 11217.50 11094.20 122.73
8871 35.5265 11059.70 11095.10 122.15
8872 35.5303 11275.20 11096.20 123.75
8873 35.5340 11245.00 11097.40 124.19
8874 35.5378 11195.10 11098.80 123.68
8875 35.5415 10997.70 11100.30 122.51
8876 35.5452 11092.90 11102.00 122.97
8877 35.5490 11025.30 11103.90 122.25
8878 35.5528 11328.20 11105.90 123.67
8879 35.5565 11155.20 11108.00 122.82
8880 35.5603 11317.90 11110.40 123.86
8881 35.5640 11329.20 11113.00 123.92
8882 35.5678 11184.70 11115.70 122.57
8883 35.5715 11069.40 11118.70 121.51
8884 35.5754 11351.00 11121.90 123.40
8885 35.5792 11021.10 11125.30 121.00
8886 35.5829 11188.90 11128.90 121.80
8887 35.5867 11033.00 11132.80 121.61
8888 35.5904 11246.80 11136.90 122.61
8889 35.5942 10967.60 11141.50 121.01
8890 35.5979 11135.10 11146.30 122.12
8891 35.6017 11255.10 11151.30 122.70
8892 35.6054 11215.20 11156.80 122.93
8893 35.6091 10961.60 11162.60 121.20
8894 35.6129 11226.40 11168.90 122.49
8895 35.6167 11082.60 11175.60 121.97
8896 35.6204 11245.10 11182.70 122.67
8897 35.6242 11158.50 11190.50 122.68
8898 35.6279 11504.10 11198.60 124.26
8899 35.6317 11255.30 11207.50 123.59
8900 35.6354 11268.60 11216.90 122.69
8901 35.6393 11275.40 11227.30 123.41
8902 35.6431 11339.50 11238.50 123.05
8903 35.6468 10985.80 11250.30 121.11
8904 35.6506 11305.30 11263.40 122.82
8905 35.6543 11003.60 11277.20 120.79
8906 35.6581 11094.60 11292.60 121.44
8907 35.6618 11045.30 11309.50 121.45
8908 35.6656 11292.60 11327.40 122.57
8909 35.6693 11218.90 11347.50 122.78
8910 35.6730 11559.10 11369.00 124.62
8911 35.6768 11151.90 11393.50 120.61
8912 35.6806 11346.60 11420.50 122.88
8913 35.6843 11271.70 11449.80 122.75
8914 35.6881 11474.60 11483.50 124.13
8915 35.6918 11379.90 11520.40 123.32
8916 35.6956 11443.00 11563.40 123.78
8917 35.6993 11334.10 11611.60 123.10
8918 35.7032 11624.20 11669.60 124.29
8919 35.7070 11406.40 11740.00 123.56
8920 35.7107 11841.60 11826.10 126.00
8921 35.7145 11551.50 11941.50 123.36
8922 35.7182 12221.70 12096.40 128.20
8923 35.7220 12043.60 12318.60 127.03
8924 35.7257 12558.80 12630.00 130.49
8925 35.7295 12800.40 13042.30 132.23
8926 35.7332 12898.30 13594.40 132.98
8927 35.7369 13384.20 14254.40 135.84
8928 35.7407 14123.10 15025.70 139.61
8929 35.7445 14801.90 15810.40 143.87
8930 35.7482 15238.10 16455.40 146.09
8931 35.7520 15243.00 16828.00 145.80
8932 35.7557 15735.60 16823.90 148.37
8933 35.7595 15274.30 16518.90 146.09
8934 35.7632 15302.40 16100.00 146.03
8935 35.7671 15038.00 15716.40 144.07
8936 35.7709 15285.70 15508.70 146.96
8937 35.7746 15436.40 15576.20 146.44
8938 35.7784 16546.90 16030.00 154.01
8939 35.7821 17356.20 16975.90 157.80
8940 35.7859 19247.50 18630.50 166.31
8941 35.7896 20848.90 21159.70 174.53
8942 35.7934 24199.30 24613.60 190.72
8943 35.7971 27747.20 29226.20 206.63
8944 35.8008 33418.60 34600.00 232.72
8945 35.8046 39664.40 40564.20 257.72
8946 35.8083 46634.40 45916.80 283.83
8947 35.8121 51554.90 49607.10 303.62
8948 35.8159 54741.80 50242.50 314.72
8949 35.8196 51314.90 47860.90 302.52
8950 35.8234 46925.90 43533.60 284.63
8951 35.8271 40948.00 38946.60 263.51
8952 35.8310 37050.00 34947.40 246.16
8953 35.8348 33121.40 32270.70 230.94
8954 35.8385 32757.10 31091.90 230.47
8955 35.8423 32183.50 31158.60 227.32
8956 35.8460 34282.00 31972.50 236.19
8957 35.8498 34854.00 32827.30 238.79
8958 35.8535 35674.30 32995.10 239.35
8959 35.8573 33928.20 32190.80 234.50
8960 35.8610 32103.20 30506.40 223.73
8961 35.8647 28482.40 28229.80 210.36
8962 35.8685 25879.10 25487.60 199.91
8963 35.8722 22549.00 22750.80 183.95
8964 35.8760 20037.20 20177.10 170.85
8965 35.8798 17850.20 18022.60 160.28
8966 35.8835 16066.30 16372.50 150.86
8967 35.8873 14908.70 15099.90 144.65
8968 35.8910 14059.70 14202.80 139.91
8969 35.8949 13245.30 13548.20 135.54
8970 35.8985 13018.00 13097.90 133.30
8971 35.9024 12424.00 12765.80 130.70
8972 35.9062 12427.90 12521.00 130.22
8973 35.9099 11916.90 12337.10 125.02
8974 35.9137 11977.20 12185.90 127.93
8975 35.9174 11552.10 12064.10 125.28
8976 35.9212 11941.20 11958.10 126.63
8977 35.9249 11579.30 11869.20 125.74
8978 35.9286 11762.70 11789.90 126.58
8979 35.9324 11637.10 11720.40 125.82
8980 35.9361 11466.60 11660.60 124.13
8981 35.9399 11295.70 11606.00 123.35
8982 35.9436 11548.90 11558.40 125.24
8983 35.9474 11259.10 11514.70 123.27
8984 35.9512 11295.00 11475.30 123.98
8985 35.9549 11149.90 11440.60 122.36
8986 35.9588 11221.90 11408.30 122.77
8987 35.9624 11129.80 11379.60 122.46
8988 35.9663 11329.50 11352.60 122.96
8989 35.9700 10899.30 11328.50 119.00
8990 35.9738 11457.20 11305.80 124.95
8991 35.9776 11340.20 11284.90 126.32
8992 35.9813 11268.80 11266.00 123.64
8993 35.9851 11136.00 11248.10 123.36
8994 35.9888 11462.60 11231.90 125.44
8995 35.9925 11054.10 11216.40 121.90
8996 35.9963 11091.10 11201.90 122.12
8997 36.0000 10838.40 11188.80 120.14
8998 36.0038 11298.20 11176.20 123.16
8999 36.0075 10912.60 11164.70 121.70
9000 36.0113 11346.60 11153.60 123.94
9001 36.0150 10924.80 11143.40 121.18
9002 36.0188 11126.80 11133.60 122.46
9003 36.0227 10881.90 11124.30 120.79
9004 36.0263 11035.70 11115.80 122.44
9005 36.0302 10861.00 11107.50 120.79
9006 36.0339 11213.80 11099.90 121.45
9007 36.0377 10814.60 11092.40 120.63
9008 36.0414 11296.80 11085.50 123.20
9009 36.0452 11016.90 11078.80 122.46
9010 36.0490 11233.70 11072.40 122.83
9011 36.0527 10892.60 11066.50 120.12
9012 36.0564 11176.00 11060.70 122.08
9013 36.0602 10946.60 11055.30 120.52
9014 36.0639 11131.80 11050.00 121.38
9015 36.0676 10847.90 11045.10 120.45
9016 36.0714 11285.10 11040.30 123.18
9017 36.0752 10783.50 11035.70 119.82
9018 36.0789 11089.40 11031.30 121.97
9019 36.0827 10875.00 11027.10 120.65
9020 36.0864 11105.80 11023.10 121.09
9021 36.0902 10867.60 11019.10 120.33
9022 36.0939 11211.70 11015.40 122.24
9023 36.0978 10823.30 11011.80 120.02
9024 36.1016 11174.70 11008.30 121.73
9025 36.1053 10937.60 11005.00 120.81
9026 36.1091 10957.30 11001.70 120.23
9027 36.1128 10776.20 10998.70 119.57
9028 36.1166 11078.20 10995.60 122.02
9029 36.1203 10920.90 10992.70 120.26
9030 36.1241 10950.90 10989.90 120.30
9031 36.1278 10833.60 10987.10 119.23
9032 36.1315 11105.80 10984.50 120.65
9033 36.1353 10870.60 10981.90 120.40
9034 36.1390 11082.50 10979.50 121.54
9035 36.1428 11075.90 10977.10 121.43
9036 36.1466 11030.30 10974.70 120.88
9037 36.1503 10744.80 10972.50 119.61
9038 36.1541 11026.10 10970.30 120.91
9039 36.1578 10759.80 10968.10 119.64
9040 36.1617 11073.60 10966.00 121.46
9041 36.1654 10637.70 10964.00 118.43
9042 36.1692 11027.80 10962.10 121.45
9043 36.1730 11096.00 10960.10 121.89
9044 36.1767 11064.10 10958.30 121.84
9045 36.1805 10792.60 10956.40 119.81
9046 36.1842 10953.10 10954.70 120.29
9047 36.1880 10916.40 10952.90 120.65
9048 36.1917 10815.10 10951.20 120.09
9049 36.1954 10724.80 10949.60 119.29
9050 36.1992 11034.70 10947.90 121.45
9051 36.2029 10716.60 10943.60 119.71
9052 36.2067 10983.80 10942.10 120.87
9053 36.2104 10769.40 10940.60 119.65
9054 36.2142 11005.80 10939.20 121.13
9055 36.2179 10956.10 10937.80 120.88
9056 36.2217 10969.60 10936.40 120.66
9057 36.2256 10853.40 10935.00 120.20
9058 36.2293 11155.40 10933.70 121.28
9059 36.2331 10829.10 10932.40 119.88
9060 36.2368 11037.70 10931.20 121.58
9061 36.2406 10867.30 10929.90 120.07
9062 36.2443 10877.50 10928.70 120.48
9063 36.2481 10712.10 10927.50 118.78
9064 36.2519 10944.80 10926.30 120.44
9065 36.2556 10649.30 10925.20 118.40
9066 36.2593 10964.90 10924.00 120.77
9067 36.2631 10713.10 10922.90 118.81
9068 36.2668 11007.30 10898.40 120.45
9069 36.2705 10617.90 10897.70 118.09
9070 36.2743 11106.10 10897.00 121.62
9071 36.2781 10736.20 10896.30 119.53
9072 36.2818 11032.90 10895.70 121.58
9073 36.2856 10869.40 10895.00 120.05
9074 36.2893 10877.30 10894.40 120.37
9075 36.2932 10826.40 10893.70 119.81
9076 36.2968 11122.30 10893.10 121.63
9077 36.3007 10689.00 10892.40 118.57
9078 36.3044 11059.60 10883.00 121.28
9079 36.3082 10679.90 10882.50 118.86
9080 36.3120 10989.70 10882.00 121.28
9081 36.3157 11004.30 10877.30 121.02
9082 36.3195 10914.50 10876.90 120.36
9083 36.3232 10928.50 10876.50 120.76
9084 36.3270 10962.20 10876.10 120.87
9085 36.3307 10923.10 10875.70 120.25
9086 36.3344 11009.80 10875.30 120.82
9087 36.3382 10966.00 10874.90 119.85
9088 36.3419 11161.30 10874.50 121.29
9089 36.3457 10842.40 10874.10 119.51
9090 36.3494 11062.50 10873.70 121.14
9091 36.3532 10958.10 10873.40 120.64
9092 36.3569 11029.50 10873.00 121.01
9093 36.3607 10817.50 10872.60 119.54
9094 36.3646 10902.10 10872.20 120.68
9095 36.3683 10800.50 10871.80 119.84
9096 36.3721 11134.40 10871.40 121.98
9097 36.3758 10924.30 10871.00 120.53
9098 36.3796 11103.20 10870.60 121.81
9099 36.3833 10739.70 10870.30 119.46
9100 36.3871 10707.90 10869.90 119.26
9101 36.3908 10850.10 10869.50 120.21
9102 36.3946 11215.60 10869.10 122.42
9103 36.3983 10817.20 10868.70 119.75
9104 36.4021 10962.70 10868.40 120.94
9105 36.4058 10693.70 10868.00 119.90
9106 36.4095 11094.90 10867.60 121.50
9107 36.4133 10939.70 10867.20 120.78
9108 36.4170 11017.50 10866.90 121.30
9109 36.4208 10879.60 10866.50 119.94
9110 36.4246 10932.10 10866.10 120.81
9111 36.4283 10776.10 10865.70 120.28
9112 36.4322 11033.00 10865.30 121.44
9113 36.4358 10735.80 10865.00 119.79
9114 36.4397 10884.20 10864.60 120.47
9115 36.4434 10794.10 10864.20 119.40
9116 36.4472 11082.10 10863.90 122.20
9117 36.4509 10819.70 10863.50 119.81
9118 36.4547 10974.00 10863.10 121.06
9119 36.4585 10717.00 10862.80 119.38
9120 36.4622 11111.50 10862.40 122.28
9121 36.4660 10707.30 10862.00 118.86
9122 36.4697 10985.10 10861.70 120.91
9123 36.4734 10732.00 10861.30 118.92
9124 36.4771 10925.20 10860.90 118.81
9125 36.4809 10768.60 10860.60 118.86
9126 36.4847 10953.10 10860.20 121.05
9127 36.4884 10952.80 10859.80 120.61
9128 36.4922 10979.10 10859.50 120.03
9129 36.4959 10813.00 10859.10 119.88
9130 36.4997 10855.90 10858.80 119.66
9131 36.5034 10811.20 10858.40 120.34
9132 36.5073 10890.40 10858.10 120.71
9133 36.5109 10794.20 10857.70 120.08
9134 36.5148 11017.10 10857.30 121.19
9135 36.5186 10575.90 10857.00 118.38
9136 36.5223 11077.80 10856.60 121.69
9137 36.5261 10656.30 10856.30 119.20
9138 36.5298 11093.60 10855.90 122.28
9139 36.5336 10775.00 10855.60 119.68
9140 36.5373 10900.10 10855.20 120.31
9141 36.5410 10843.80 10854.90 119.76
9142 36.5448 10661.30 10854.50 118.59
9143 36.5485 10744.70 10854.20 119.72
9144 36.5523 10951.50 10853.80 120.89
9145 36.5560 10967.50 10853.50 121.44
9146 36.5598 10850.10 10853.10 118.74
9147 36.5635 10837.80 10852.80 120.00
9148 36.5673 10935.10 10852.40 120.51
9149 36.5710 10744.60 10852.10 119.26
9150 36.5748 11092.30 10851.70 121.61
9151 36.5785 10844.20 10851.40 119.14
9152 36.5824 10894.70 10851.10 121.20
9153 36.5862 10779.50 10850.70 120.05
9154 36.5899 10929.00 10850.40 121.15
9155 36.5937 10762.90 10850.00 119.46
9156 36.5974 10864.90 10849.70 120.50
9157 36.6012 10721.50 10849.40 118.52
9158 36.6049 10974.10 10849.00 120.38
9159 36.6087 11022.60 10848.70 121.19
9160 36.6124 10949.50 10848.40 120.97
9161 36.6161 10764.80 10848.00 119.80
9162 36.6199 10851.70 10847.70 119.25
9163 36.6236 10901.50 10847.40 120.61
9164 36.6274 11055.20 10847.00 121.42
9165 36.6311 10778.00 10846.70 119.60
9166 36.6349 10892.00 10846.40 120.12
9167 36.6386 10511.30 10846.00 117.72
9168 36.6424 10746.70 10845.70 118.54
9169 36.6461 10922.30 10845.40 119.15
9170 36.6499 10833.70 10845.00 120.00
9171 36.6538 10857.70 10844.70 120.93
9172 36.6575 10999.90 10844.40 121.50
9173 36.6613 10728.80 10844.10 119.52
9174 36.6650 10955.00 10843.70 120.91
9175 36.6688 10876.20 10843.40 120.00
9176 36.6725 10913.10 10843.10 120.96
9177 36.6763 10863.20 10842.80 119.76
9178 36.6800 10889.50 10842.40 120.21
9179 36.6838 10653.50 10842.10 118.82
9180 36.6875 10939.10 10841.80 120.74
9181 36.6912 10820.30 10841.50 120.12
9182 36.6950 11031.90 10841.20 121.27
9183 36.6987 10702.70 10840.80 119.52
9184 36.7025 10938.30 10840.50 120.53
9185 36.7062 10483.90 10840.20 117.42
9186 36.7100 10724.00 10839.90 117.29
9187 36.7137 10727.10 10839.60 118.90
9188 36.7175 10874.70 10839.30 118.68
9189 36.7212 10859.80 10839.00 119.95
9190 36.7251 11039.80 10838.60 121.43
9191 36.7289 10815.70 10838.30 119.79
9192 36.7326 11100.10 10838.00 121.76
9193 36.7364 10942.00 10837.70 120.24
9194 36.7401 10889.40 10837.40 119.75
9195 36.7439 10586.20 10837.10 117.89
9196 36.7476 10914.80 10836.80 120.20
9197 36.7514 10757.90 10836.50 117.96
9198 36.7551 11010.70 10836.20 120.00
9199 36.7589 10649.80 10835.80 117.65
9200 36.7626 10946.30 10835.50 120.89
9201 36.7663 10745.30 10835.20 119.70
9202 36.7701 10860.90 10834.90 120.24
9203 36.7738 10769.80 10834.60 119.26
9204 36.7776 10953.80 10834.30 120.80
9205 36.7813 10779.70 10834.00 119.20
9206 36.7851 10739.70 10833.70 118.91
9207 36.7888 10697.40 10833.40 119.30
9208 36.7926 11134.50 10833.10 121.74
9209 36.7963 11055.60 10832.80 120.84
9210 36.8002 11023.40 10832.50 120.90
9211 36.8038 10676.90 10832.20 119.19
9212 36.8077 10981.00 10831.90 121.26
9213 36.8115 10863.10 10831.60 120.34
9214 36.8152 10845.10 10831.30 119.68
9215 36.8190 10786.70 10831.00 119.07
9216 36.8227 11077.50 10830.70 121.69
9217 36.8265 10620.50 10830.50 118.18
9218 36.8302 10987.10 10830.20 120.99
9219 36.8340 10705.70 10829.90 118.96
9220 36.8377 10906.90 10829.60 120.61
9221 36.8414 10524.30 10829.30 118.19
9222 36.8451 11059.10 10829.00 121.03
9223 36.8489 10847.50 10828.70 120.49
9224 36.8527 11014.60 10828.40 120.65
9225 36.8564 10774.60 10828.10 119.85
9226 36.8602 11173.90 10827.80 121.92
9227 36.8639 10841.90 10827.60 119.19
9228 36.8677 10951.40 10827.30 120.52
9229 36.8714 10929.60 10827.00 120.34
9230 36.8753 11065.90 10826.70 121.41
9231 36.8789 10735.70 10826.40 119.36
9232 36.8828 10839.40 10826.10 120.43
9233 36.8865 10906.20 10825.90 120.57
9234 36.8903 10877.80 10825.60 120.62
9235 36.8940 10641.30 10825.30 118.66
9236 36.8978 11029.50 10825.00 121.63
9237 36.9016 10559.50 10824.70 117.60
9238 36.9053 10865.40 10824.50 120.54
9239 36.9090 11050.10 10824.20 121.13
9240 36.9128 10957.10 10823.90 120.84
9241 36.9165 10820.00 10823.60 119.79
9242 36.9202 10999.80 10823.40 120.87
9243 36.9240 10863.60 10823.10 119.99
9244 36.9277 10991.80 10822.80 120.58
9245 36.9315 10834.20 10822.50 120.16
9246 36.9352 11039.90 10822.30 121.10
9247 36.9390 10845.30 10822.00 120.46
9248 36.9427 10883.60 10821.70 120.72
9249 36.9465 10762.70 10821.40 119.70
9250 36.9504 10957.20 10821.20 120.41
9251 36.9540 11032.00 10820.90 121.81
9252 36.9579 11078.50 10820.60 121.31
9253 36.9616 10729.60 10820.40 119.10
9254 36.9654 11123.20 10820.10 120.45
9255 36.9691 10765.20 10819.80 119.75
9256 36.9729 10962.70 10819.60 120.81
9257 36.9766 10934.50 10819.30 121.13
9258 36.9804 11011.60 10819.00 121.18
9259 36.9841 10818.00 10818.80 119.33
9260 36.9879 11082.30 10818.50 120.92
9261 36.9897 11078.80 10818.40 122.15
9262 36.9934 11095.00 10818.10 122.12
9263 36.9972 10910.40 10817.90 120.95
9264 37.0009 10924.10 10817.60 120.75
9265 37.0047 10975.80 10817.30 121.02
9266 37.0084 11028.10 10817.10 121.52
9267 37.0121 10904.60 10816.80 120.90
9268 37.0159 11251.80 10816.60 123.40
9269 37.0196 10953.20 10816.30 120.93
9270 37.0234 11054.10 10816.10 121.40
9271 37.0271 10752.10 10815.80 119.32
9272 37.0309 11090.40 10815.50 121.40
9273 37.0346 10768.80 10815.30 120.00
9274 37.0384 11165.70 10815.00 122.35
9275 37.0421 10843.80 10814.80 120.79
9276 37.0460 11032.80 10814.50 120.00
9277 37.0496 10965.70 10814.30 120.93
9278 37.0535 11030.90 10814.00 121.24
9279 37.0573 10836.90 10813.80 119.97
9280 37.0610 11093.10 10813.50 121.75
9281 37.0648 10918.20 10813.30 119.73
9282 37.0685 11064.90 10813.00 122.40
9283 37.0723 10816.80 10812.80 120.41
9284 37.0760 10931.20 10812.50 121.29
9285 37.0798 10805.10 10812.30 119.86
9286 37.0835 11032.90 10812.10 121.68
9287 37.0872 10649.20 10811.80 118.19
9288 37.0910 11059.70 10811.60 121.04
9289 37.0947 10800.90 10811.30 119.93
9290 37.0985 10948.80 10811.10 121.10
9291 37.1022 10739.40 10810.80 119.77
9292 37.1060 11103.20 10810.60 120.94
9293 37.1097 10864.40 10810.40 120.51
9294 37.1135 11142.40 10810.10 122.10
9295 37.1172 11063.50 10809.90 121.52
9296 37.1211 11003.60 10809.60 120.95
9297 37.1249 10904.40 10809.40 120.32
9298 37.1286 10964.00 10809.20 120.02
9299 37.1324 10945.90 10808.90 119.42
9300 37.1361 10899.30 10808.70 120.54
9301 37.1399 10678.30 10808.40 119.93
9302 37.1436 10910.10 10808.20 121.07
9303 37.1474 10595.40 10808.00 118.81
9304 37.1511 11107.70 10807.70 122.00
9305 37.1549 10758.40 10807.50 119.39
9306 37.1586 11142.30 10807.30 122.53
9307 37.1623 11044.40 10807.00 121.01
9308 37.1661 11043.40 10806.80 121.30
9309 37.1698 10667.30 10806.60 119.04
9310 37.1736 11128.90 10806.40 122.05
9311 37.1773 10847.60 10806.10 120.42
9312 37.1811 11259.10 10805.90 122.81
9313 37.1848 10749.90 10805.70 119.95
9314 37.1886 11164.60 10805.40 122.07
9315 37.1923 10931.10 10805.20 120.35
9316 37.1962 11014.50 10805.00 119.20
9317 37.2000 10851.00 10804.80 119.81
9318 37.2037 11017.80 10804.50 119.70
9319 37.2075 10907.20 10804.30 120.38
9320 37.2112 11056.60 10804.10 121.67
9321 37.2150 10870.10 10803.90 120.26
9322 37.2165 11067.20 10803.80 121.97
9323 37.2202 11227.10 10803.60 120.82
9324 37.2240 11111.00 10803.30 120.60
9325 37.2277 11091.50 10803.10 120.05
9326 37.2315 10825.60 10802.90 119.32
9327 37.2352 11012.00 10802.70 120.66
9328 37.2391 11159.30 10802.50 121.08
9329 37.2427 11184.00 10802.20 121.43
9330 37.2466 10961.60 10802.00 120.30
9331 37.2503 11156.40 10801.80 121.48
9332 37.2541 10751.10 10801.60 119.15
9333 37.2578 11128.20 10801.40 121.49
9334 37.2616 11032.60 10801.20 121.03
9335 37.2653 11239.80 10801.00 122.02
9336 37.2691 10892.90 10800.70 119.79
9337 37.2729 11352.80 10800.50 122.84
9338 37.2766 10986.80 10800.30 120.45
9339 37.2803 11259.20 10800.10 121.64
9340 37.2840 11149.50 10799.90 120.62
9341 37.2878 11283.00 10799.70 120.64
9342 37.2915 11037.10 10799.50 121.66
9343 37.2953 11234.90 10799.30 121.55
9344 37.2990 11094.90 10799.10 121.13
9345 37.3028 11158.20 10954.40 121.80
9346 37.3065 10972.80 10956.70 119.81
9347 37.3103 10943.70 10959.10 118.96
9348 37.3140 11125.70 10961.60 123.74
9349 37.3178 11438.10 10964.10 124.22
9350 37.3217 11097.80 10966.70 120.91
9351 37.3254 11309.90 10969.40 121.68
9352 37.3292 11262.30 10972.10 121.93
9353 37.3329 11542.20 10974.90 124.11
9354 37.3367 11096.20 10977.80 121.35
9355 37.3404 11262.60 10980.80 122.22
9356 37.3442 11065.40 10983.90 120.64
9357 37.3479 11212.60 10987.00 122.24
9358 37.3517 11036.60 10990.20 120.81
9359 37.3554 11455.70 10993.50 123.49
9360 37.3591 10986.30 10997.00 120.42
9361 37.3629 11174.00 11000.60 121.73
9362 37.3666 10972.00 11004.20 120.79
9363 37.3704 11241.80 11007.90 122.24
9364 37.3741 11194.90 11011.70 120.74
9365 37.3779 11250.30 11015.80 121.76
9366 37.3816 11128.10 11019.80 121.19
9367 37.3854 11455.60 11024.10 122.62
9368 37.3891 11178.80 11028.40 121.32
9369 37.3929 11510.00 11032.90 123.84
9370 37.3966 11185.80 11184.70 122.07
9371 37.4005 11567.90 11192.00 124.38
9372 37.4041 11081.30 11199.30 121.13
9373 37.4080 11267.50 11370.20 120.35
9374 37.4118 11221.90 11380.80 122.54
9375 37.4155 11575.30 11391.40 125.98
9376 37.4193 11404.20 11402.70 123.01
9377 37.4230 11526.40 11414.00 123.11
9378 37.4268 11372.30 11425.90 122.49
9379 37.4305 11773.20 11437.90 125.16
9380 37.4342 11320.90 11450.60 122.18
9381 37.4380 11521.70 11463.30 123.79
9382 37.4417 11313.10 11476.70 122.18
9383 37.4454 11405.80 11490.20 122.88
9384 37.4492 11371.50 11504.60 122.49
9385 37.4530 11631.30 11519.30 123.85
9386 37.4567 11356.50 11534.20 122.13
9387 37.4605 11536.00 11550.00 123.72
9388 37.4642 11339.20 11565.90 122.85
9389 37.4680 11518.80 11582.70 123.20
9390 37.4717 11430.70 11599.60 122.76
9391 37.4756 11633.70 11617.60 124.70
9392 37.4793 11432.10 11635.80 123.13
9393 37.4831 11706.70 11655.10 124.51
9394 37.4868 11588.90 11674.50 123.70
9395 37.4906 11707.50 11695.20 124.98
9396 37.4944 11601.40 11716.70 123.97
9397 37.4981 11828.70 11738.30 125.32
9398 37.5019 11580.00 11761.40 124.15
9399 37.5056 12030.00 11784.80 127.11
9400 37.5093 11672.90 11809.60 122.90
9401 37.5131 12067.20 11834.80 129.07
9402 37.5168 11786.10 11861.70 125.73
9403 37.5205 11824.80 11888.90 125.34
9404 37.5243 11859.10 11917.90 124.43
9405 37.5281 11994.90 11948.20 126.17
9406 37.5318 11919.00 11979.00 126.51
9407 37.5356 12213.60 12011.90 127.94
9408 37.5393 12035.90 12045.30 126.60
9409 37.5432 12220.20 12081.10 127.77
9410 37.5468 11825.50 12117.60 125.18
9411 37.5507 12131.90 12156.70 127.44
9412 37.5544 12000.50 12196.60 127.12
9413 37.5582 12364.50 12239.40 129.89
9414 37.5619 12049.90 12283.10 127.39
9415 37.5657 12444.40 12330.10 129.49
9416 37.5695 12233.30 12379.60 127.86
9417 37.5732 12483.70 12430.10 130.28
9418 37.5770 12486.80 12484.70 129.82
9419 37.5807 12758.80 12540.60 131.32
9420 37.5844 12538.20 12601.10 128.97
9421 37.5882 12610.60 12663.20 130.04
9422 37.5919 12611.70 12730.50 131.23
9423 37.5956 12672.40 12799.70 130.69
9424 37.5994 12674.80 12875.00 131.70
9425 37.6032 13097.20 12954.80 133.48
9426 37.6069 12795.10 13037.20 131.23
9427 37.6107 13074.70 13127.00 132.05
9428 37.6144 13269.10 13220.00 137.35
9429 37.6183 13504.10 13321.90 135.62
9430 37.6219 13118.80 13427.50 133.10
9431 37.6258 13587.70 13543.60 134.49
9432 37.6295 13682.20 13664.50 135.91
9433 37.6333 13666.90 13797.70 136.20
9434 37.6371 13764.20 13940.90 136.96
9435 37.6408 14061.50 14091.00 137.79
9436 37.6446 13910.20 14257.40 137.52
9437 37.6483 14403.50 14432.70 140.10
9438 37.6521 14396.30 14627.60 140.96
9439 37.6558 14615.80 14834.10 142.18
9440 37.6595 14842.90 15065.00 143.12
9441 37.6632 15318.90 15311.00 145.12
9442 37.6670 15113.50 15588.10 144.75
9443 37.6708 15771.80 15893.10 148.05
9444 37.6745 16040.10 16221.40 150.28
9445 37.6783 16560.00 16594.80 151.70
9446 37.6820 16543.60 17000.10 149.84
9447 37.6858 17472.40 17465.20 156.85
9448 37.6895 17724.80 17974.80 158.49
9449 37.6934 18869.10 18565.60 165.25
9450 37.6970 19502.00 19220.40 167.58
9451 37.7009 20684.00 19989.40 173.37
9452 37.7047 21319.80 20879.40 175.96
9453 37.7084 23280.90 21889.80 183.34
9454 37.7122 24783.50 23121.30 192.72
9455 37.7159 28014.00 24570.10 210.27
9456 37.7197 30460.90 26437.50 217.25
9457 37.7234 34903.90 28807.70 235.64
9458 37.7271 39429.10 32141.90 253.65
9459 37.7309 45944.70 36767.80 279.70
9460 37.7346 52934.70 43689.00 305.09
9461 37.7384 63721.10 53842.30 343.31
9462 37.7421 73780.80 67939.10 377.65
9463 37.7459 90127.60 87822.70 423.31
9464 37.7496 108854.00 113012.00 486.68
9465 37.7534 136227.00 144605.00 562.76
9466 37.7571 164635.00 179200.00 644.11
9467 37.7609 199980.00 214786.00 733.74
9468 37.7646 223389.00 243023.00 793.93
9469 37.7685 238182.00 257274.00 828.43
9470 37.7723 228743.00 251451.00 807.34
9471 37.7760 211229.00 228813.00 763.34
9472 37.7798 177154.00 195894.00 675.32
9473 37.7835 148732.00 161690.00 598.55
9474 37.7873 121652.00 129352.00 522.39
9475 37.7910 101738.00 103114.00 465.53
9476 37.7948 84496.40 82241.60 413.83
9477 37.7985 73846.00 67323.80 377.27
9478 37.8022 64621.00 57595.90 347.38
9479 37.8060 59543.00 51459.50 328.96
9480 37.8097 55102.20 48259.50 309.65
9481 37.8135 54623.00 47097.40 317.33
9482 37.8172 53988.10 47643.50 314.10
9483 37.8210 56192.00 49874.60 317.11
9484 37.8247 59264.40 53981.00 325.86
9485 37.8285 67180.60 60878.50 353.75
9486 37.8324 75456.70 71635.00 384.01
9487 37.8360 90642.00 87248.40 427.56
9488 37.8399 108068.00 110295.00 483.99
9489 37.8436 136579.00 141105.00 566.03
9490 37.8474 168672.00 182449.00 653.68
9491 37.8511 219504.00 231913.00 787.70
9492 37.8549 275899.00 289816.00 925.63
9493 37.8587 345648.00 349121.00 1088.95
9494 37.8624 402581.00 399357.00 1216.09
9495 37.8661 457647.00 434343.00 1341.37
9496 37.8699 473360.00 447233.00 1374.74
9497 37.8736 472107.00 437030.00 1363.41
9498 37.8773 432606.00 404634.00 1277.78
9499 37.8811 383081.00 353155.00 1162.99
9500 37.8848 307851.00 294580.00 997.89
9501 37.8886 243556.00 235154.00 842.17
9502 37.8924 186912.00 182698.00 700.21
9503 37.8961 144800.00 140782.00 589.75
9504 37.8999 111852.00 107541.00 492.04
9505 37.9036 89878.80 83648.10 429.25
9506 37.9075 71896.60 66211.40 369.91
9507 37.9112 59953.10 54386.80 328.63
9508 37.9150 50807.80 45978.00 305.49
9509 37.9188 43928.10 40079.50 275.30
9510 37.9225 37862.30 35904.20 248.09
9511 37.9263 33867.50 32645.70 231.97
9512 37.9300 30072.80 30143.30 217.15
9513 37.9338 27684.70 28042.40 206.39
9514 37.9375 25505.60 26330.40 195.96
9515 37.9412 23947.90 24836.20 189.21
9516 37.9450 22239.20 23551.50 180.34
9517 37.9487 21438.40 22466.10 175.33
9518 37.9525 20228.50 21490.90 170.87
9519 37.9562 19753.50 20656.20 169.85
9520 37.9600 18619.60 19897.60 163.78
9521 37.9637 18445.60 19241.60 163.07
9522 37.9675 17819.90 18639.70 159.59
9523 37.9712 17302.40 18114.60 156.80
9524 37.9751 16843.80 17628.90 152.74
9525 37.9789 16523.90 17191.00 151.66
9526 37.9826 16167.90 16804.10 150.32
9527 37.9864 16081.00 16442.80 150.17
9528 37.9901 15472.60 16122.00 146.49
9529 37.9939 15386.70 15820.50 147.26
9530 37.9976 15352.60 15551.30 146.47
9531 38.0014 14905.10 15296.70 144.35
9532 38.0051 14619.70 15062.70 142.10
9533 38.0089 14598.90 14852.00 139.80
9534 38.0126 14486.10 14651.80 143.38
9535 38.0163 14614.00 14470.70 142.94
9536 38.0201 13940.20 14298.10 138.64
9537 38.0238 14053.60 14141.40 139.15
9538 38.0276 13773.10 13991.40 137.16
9539 38.0314 14005.10 13851.30 138.80
9540 38.0351 13395.70 13723.70 134.84
9541 38.0390 13753.50 13600.80 136.21
9542 38.0426 13356.90 13488.50 135.21
9543 38.0465 13458.50 13380.10 135.30
9544 38.0502 13215.70 13280.70 135.03
9545 38.0540 13414.80 13184.60 134.98
9546 38.0578 13081.40 13093.90 133.26
9547 38.0615 13105.60 13010.60 134.09
9548 38.0653 12930.70 12929.50 132.99
9549 38.0690 13020.30 12854.90 132.97
9550 38.0728 12513.90 12782.20 130.90
9551 38.0765 12962.70 12715.10 133.09
9552 38.0802 12609.20 12649.60 130.62
9553 38.0840 12783.80 12587.50 131.71
9554 38.0877 12504.70 12529.90 129.54
9555 38.0915 12607.90 12473.70 131.26
9556 38.0952 12397.00 12421.40 130.39
9557 38.0990 12327.00 12370.30 129.87
9558 38.1027 12282.60 12322.70 129.43
9559 38.1065 12471.70 12276.10 129.27
9560 38.1104 12187.00 12231.60 126.13
9561 38.1141 12643.30 12190.10 133.48
9562 38.1179 12121.70 12149.30 129.29
9563 38.1216 12235.70 12111.30 128.03
9564 38.1254 12324.20 12073.90 127.39
9565 38.1291 12123.50 12038.90 127.31
9566 38.1329 12072.30 12004.50 127.71
9567 38.1367 12422.20 11971.40 129.55
9568 38.1404 11876.40 11940.50 125.93
9569 38.1441 11860.30 11910.00 125.76
9570 38.1479 11842.50 11881.40 126.17
9571 38.1516 12161.40 11853.20 128.31
9572 38.1554 11918.70 11826.00 127.85
9573 38.1591 12003.50 11800.50 126.97
9574 38.1629 11984.20 11775.30 127.67
9575 38.1666 11951.20 11751.60 126.04
9576 38.1704 11897.20 11728.20 126.11
9577 38.1741 11765.50 11706.10 125.42
9578 38.1780 11647.60 11684.30 124.49
9579 38.1818 11986.00 11663.20 127.01
9580 38.1855 11631.60 11643.30 124.92
9581 38.1893 11827.00 11623.60 125.26
9582 38.1930 11811.40 11605.10 126.65
9583 38.1968 11707.90 11586.60 125.13
9584 38.2005 11715.50 11569.20 125.56
9585 38.2043 11668.80 11552.00 125.06
9586 38.2080 11628.00 11535.20 123.81
9587 38.2118 11587.60 11519.50 124.75
9588 38.2155 11577.60 11503.80 126.94
9589 38.2192 11637.40 11488.90 124.44
9590 38.2230 11431.70 11474.20 123.13
9591 38.2267 11453.50 11460.20 123.38
9592 38.2305 11501.90 11446.30 123.85
9593 38.2343 11495.90 11432.90 124.01
9594 38.2380 11324.70 11266.00 123.15
9595 38.2419 11557.50 11255.80 125.08
9596 38.2455 11323.90 11246.10 122.79
9597 38.2494 11599.70 11236.40 124.38
9598 38.2531 11581.00 11227.30 124.27
9599 38.2569 11316.90 11218.20 123.09
9600 38.2607 11471.80 11209.30 123.93
9601 38.2644 11583.00 11201.00 124.17
9602 38.2682 11277.30 11192.60 122.80
9603 38.2719 11430.60 11184.70 123.50
9604 38.2757 11359.90 11176.80 123.35
9605 38.2794 11660.30 11169.10 124.91
9606 38.2831 11283.20 11161.80 122.88
9607 38.2869 11516.50 11154.50 122.89
9608 38.2906 11177.20 11147.60 121.52
9609 38.2944 11449.10 11140.70 124.17
9610 38.2981 11324.50 11134.10 122.39
9611 38.3019 11367.80 11127.60 123.81
9612 38.3058 11069.20 11121.20 121.33
9613 38.3094 11315.50 11115.10 120.62
9614 38.3133 11215.70 11109.10 122.26
9615 38.3170 11435.00 11103.30 125.46
9616 38.3208 11111.40 11097.50 121.55
9617 38.3245 11487.50 11092.10 121.95
9618 38.3283 10935.10 11086.60 120.38
9619 38.3321 11359.30 11081.20 122.91
9620 38.3358 11236.60 10931.70 122.95
9621 38.3396 11284.80 10928.90 122.02
9622 38.3433 11097.00 10926.20 121.02
9623 38.3470 11224.60 10762.70 121.17
9624 38.3508 10968.40 10762.60 120.68
9625 38.3545 11182.60 10762.50 122.09
9626 38.3583 11090.60 10762.50 120.74
9627 38.3620 11395.30 10762.40 123.18
9628 38.3658 10889.20 10762.40 120.29
9629 38.3695 11506.30 10762.30 124.13
9630 38.3733 10984.40 10762.20 121.07
9631 38.3772 11279.20 10762.20 122.66
9632 38.3809 10938.30 10762.10 120.83
9633 38.3847 11389.80 10762.00 123.14
9634 38.3884 10966.80 10762.00 118.47
9635 38.3922 11241.40 10761.90 123.19
9636 38.3960 11005.60 10761.90 120.85
9637 38.3997 11201.00 10761.80 122.74
9638 38.4035 10868.00 10761.70 119.98
9639 38.4072 11282.60 10761.70 122.44
9640 38.4109 10861.20 10761.60 118.74
9641 38.4146 11341.30 10761.60 125.37
9642 38.4184 10929.90 10761.50 121.51
9643 38.4222 11316.40 10761.50 122.95
9644 38.4259 10815.90 10761.40 119.76
9645 38.4297 11140.70 10761.30 121.67
9646 38.4334 11091.70 10761.30 121.37
9647 38.4372 11213.70 10761.20 122.67
9648 38.4411 11050.40 10761.20 121.72
9649 38.4448 11260.40 10761.10 123.06
9650 38.4486 10992.50 10761.10 121.09
9651 38.4523 11323.60 10761.00 123.18
9652 38.4561 10807.40 10761.00 119.47
9653 38.4598 11022.70 10760.90 121.86
9654 38.4636 10777.70 10760.80 119.69
9655 38.4674 11152.40 10760.80 122.22
9656 38.4711 11003.20 10760.70 121.17
9657 38.4748 11083.10 10760.70 120.06
9658 38.4785 10764.20 10760.60 118.61
9659 38.4823 11121.50 10760.60 121.81
9660 38.4861 11012.70 10760.50 120.82
9661 38.4898 11247.80 10760.50 122.52
9662 38.4936 10894.40 10760.40 121.96
9663 38.4973 10918.70 10760.40 120.58
9664 38.5011 10919.00 10760.30 120.85
9665 38.5048 11163.90 10760.30 121.99
9666 38.5087 11001.80 10760.20 120.70
9667 38.5125 11096.70 10760.20 121.42
9668 38.5162 11281.00 10760.10 124.76
9669 38.5200 11043.30 10760.10 121.39
9670 38.5237 10777.90 10760.00 119.61
9671 38.5275 10842.70 10760.00 119.69
9672 38.5312 11114.20 10759.90 121.86
9673 38.5350 11161.70 10759.90 122.23
9674 38.5387 10875.40 10759.90 120.54
9675 38.5424 11109.30 10759.80 121.39
9676 38.5462 10775.90 10759.80 119.72
9677 38.5499 11230.30 10759.70 122.46
9678 38.5537 10959.80 10759.70 121.11
9679 38.5575 11156.30 10759.60 121.51
9680 38.5612 11069.30 10759.60 121.10
9681 38.5650 11074.60 10759.50 121.67
9682 38.5687 10957.50 10759.50 120.70
9683 38.5726 11008.20 10759.50 121.30
9684 38.5764 11037.50 10759.40 120.65
9685 38.5801 10930.40 10759.40 119.66
9686 38.5839 10835.20 10759.30 119.41
9687 38.5876 11037.50 10759.30 120.91
9688 38.5914 10846.90 10759.20 120.31
9689 38.5951 11076.40 10759.20 121.36
9690 38.5989 10890.90 10759.20 120.68
9691 38.6026 11413.40 10759.10 124.26
9692 38.6063 11065.70 10759.10 120.65
9693 38.6101 11052.90 10759.00 119.97
9694 38.6138 10998.70 10759.00 123.52
9695 38.6176 11215.20 10759.00 123.07
9696 38.6214 10767.50 10758.90 119.43
9697 38.6251 10941.40 10758.90 119.84
9698 38.6289 11052.20 10758.80 120.45
9699 38.6326 11076.80 10758.80 121.58
9700 38.6365 10833.10 10758.80 120.36
9701 38.6403 11189.90 10758.70 122.42
9702 38.6440 10981.90 10758.70 121.03
9703 38.6478 11021.20 10758.70 121.06
9704 38.6515 10989.50 10758.60 120.88
9705 38.6553 11099.00 10758.60 121.27
9706 38.6590 10861.10 10758.50 119.69
9707 38.6628 11022.20 10758.50 121.12
9708 38.6665 10947.30 10758.50 120.10
9709 38.6702 11029.30 10758.40 120.94
9710 38.6740 10670.20 10758.40 118.42
9711 38.6777 11134.20 10758.40 120.96
9712 38.6815 10862.50 10758.30 119.44
9713 38.6853 11081.40 10758.30 120.81
9714 38.6890 10735.30 10758.30 118.11
9715 38.6928 10977.50 10758.20 120.83
9716 38.6965 10657.80 10758.20 117.90
9717 38.7004 11112.70 10758.20 120.74
9718 38.7042 10991.50 10758.10 120.87
9719 38.7079 11088.00 10758.10 120.54
9720 38.7117 10639.10 10758.10 116.69
9721 38.7154 11233.90 10758.00 125.06
9722 38.7192 11101.10 10758.00 122.36
9723 38.7229 11102.30 10758.00 120.97
9724 38.7267 10984.70 10758.00 118.30
9725 38.7304 10977.30 10757.90 120.40
9726 38.7341 10733.30 10757.90 118.71
9727 38.7379 10973.00 10757.90 120.57
9728 38.7416 10674.10 10757.80 118.96
9729 38.7454 11000.50 10757.80 120.30
9730 38.7492 10783.80 10757.80 119.29
9731 38.7529 11080.80 10757.70 121.74
9732 38.7567 10997.20 10757.70 120.94
9733 38.7604 10932.70 10757.70 120.71
9734 38.7643 10831.40 10757.70 119.27
9735 38.7681 11081.70 10757.60 121.23
9736 38.7718 11015.20 10757.60 120.31
9737 38.7756 11264.60 10757.60 121.84
9738 38.7793 10891.00 10757.60 118.80
9739 38.7831 11149.70 10757.50 121.84
9740 38.7868 11006.20 10757.50 120.14
9741 38.7906 10968.20 10757.50 120.21
9742 38.7943 11011.90 10757.40 120.22
9743 38.7980 11113.60 10757.40 121.09
9744 38.8018 10920.40 10757.40 120.72
9745 38.8056 11117.70 10757.40 120.82
9746 38.8093 10982.40 10757.30 118.88
9747 38.8131 10926.40 10757.30 120.40
9748 38.8168 10880.10 10757.30 122.46
9749 38.8206 11167.00 10758.90 121.74
9750 38.8243 10981.30 10758.90 120.20
9751 38.8282 11078.00 10758.90 120.07
9752 38.8320 11021.30 10758.90 120.55
9753 38.8357 11098.50 10759.00 120.95
9754 38.8395 11030.40 10759.00 120.93
9755 38.8432 11024.80 10759.00 120.34
9756 38.8470 10780.70 10759.00 119.05
9757 38.8507 11217.60 10759.00 120.34
9758 38.8545 10765.50 10759.00 119.63
9759 38.8582 11098.30 10759.00 121.71
9760 38.8619 10635.30 10759.00 118.73
9761 38.8657 10997.80 10759.00 120.17
9762 38.8695 10987.10 10759.00 120.84
9763 38.8732 11042.80 10759.10 121.26
9764 38.8770 11003.10 10759.10 120.75
9765 38.8807 11025.50 10759.10 120.93
9766 38.8845 10842.90 10759.10 119.09
9767 38.8884 11008.50 10759.10 120.36
9768 38.8921 10863.60 10759.20 120.20
9769 38.8959 10757.50 10759.20 119.83
9770 38.8996 10748.60 10759.20 119.53
9771 38.9034 10832.80 10759.20 118.62
9772 38.9072 11069.50 10759.30 119.75
9773 38.9109 11133.50 10759.30 119.72
9774 38.9146 11067.30 10759.30 122.49
9775 38.9184 11212.10 10759.40 123.45
9776 38.9221 10943.00 10759.40 120.94
9777 38.9258 11052.90 10759.40 120.29
9778 38.9296 11118.70 10759.50 121.32
9779 38.9334 11047.90 10759.50 120.64
9780 38.9371 10988.50 10759.60 121.00
9781 38.9409 10918.30 10759.60 120.70
9782 38.9446 10856.60 10759.60 120.03
9783 38.9484 11135.70 10759.70 121.22
9784 38.9523 10965.70 10759.70 120.32
9785 38.9560 10926.60 10759.80 120.39
9786 38.9598 10804.10 10759.90 119.96
9787 38.9635 11102.10 10759.90 121.17
9788 38.9673 11097.30 10760.00 121.64
9789 38.9711 11040.00 10760.00 121.36
9790 38.9748 10893.00 10760.10 119.77
9791 38.9785 10998.00 10760.20 120.89
9792 38.9823 10896.80 10760.30 119.72
9793 38.9860 11096.80 10760.30 121.12
9794 38.9898 10822.20 10760.40 119.28
9795 38.9935 11174.70 10760.50 122.03
9796 38.9973 10732.60 10760.60 119.51
9797 39.0010 11106.90 10760.70 122.31
9798 39.0048 10860.00 10760.80 119.56
9799 39.0087 10941.30 10760.90 118.56
9800 39.0123 10924.80 10761.00 119.53
9801 39.0162 11192.90 10761.10 123.32
9802 39.0199 10926.00 10761.20 121.20
9803 39.0237 11045.00 10761.30 121.05
9804 39.0275 10972.70 10761.50 120.34
9805 39.0312 11065.40 10761.60 121.33
9806 39.0350 10892.60 10761.70 120.38
9807 39.0387 10935.30 10761.90 120.92
9808 39.0424 10875.00 10762.00 120.20
9809 39.0462 11027.60 10762.20 120.40
9810 39.0499 10828.10 10762.30 120.55
9811 39.0537 11264.60 10762.50 123.55
9812 39.0574 10941.70 10762.70 120.12
9813 39.0612 11154.00 10762.90 120.91
9814 39.0649 10936.50 10763.10 119.76
9815 39.0687 10963.10 10763.30 121.22
9816 39.0726 10955.00 10763.60 121.48
9817 39.0762 10932.90 10763.80 119.77
9818 39.0801 10944.20 10764.00 120.57
9819 39.0838 11259.40 10764.30 122.70
9820 39.0876 10739.20 10764.60 118.10
9821 39.0914 11101.60 10764.90 120.73
9822 39.0951 11132.00 10765.20 123.06
9823 39.0989 11008.30 10765.50 121.31
9824 39.1026 11022.30 10765.90 121.76
9825 39.1063 11154.30 10766.20 122.08
9826 39.1101 10953.90 10766.60 119.78
9827 39.1138 11045.70 10767.00 122.35
9828 39.1176 10949.00 10767.50 122.66
9829 39.1213 11105.60 10767.90 122.10
9830 39.1251 10910.20 10768.40 119.74
9831 39.1289 11261.30 10769.00 122.70
9832 39.1326 10932.00 10769.50 120.81
9833 39.1365 11074.10 10770.20 121.53
9834 39.1401 11139.20 10770.80 120.83
9835 39.1440 11176.00 10771.50 122.76
9836 39.1478 10857.70 10772.30 120.32
9837 39.1515 11150.70 10773.10 121.96
9838 39.1553 10967.80 10773.90 121.13
9839 39.1590 11237.70 10774.90 122.61
9840 39.1628 11124.90 10775.90 122.06
9841 39.1665 11188.60 10777.00 122.63
9842 39.1702 10924.30 10778.20 121.24
9843 39.1740 11056.70 10779.50 121.51
9844 39.1777 10763.00 10780.90 120.10
9845 39.1815 10964.50 10782.50 120.40
9846 39.1853 11048.30 10784.20 121.61
9847 39.1890 11132.30 10786.00 121.54
9848 39.1928 10948.50 10788.10 121.19
9849 39.1965 11273.80 10790.40 122.73
9850 39.2004 10710.70 10793.00 120.11
9851 39.2042 11280.10 10795.80 123.44
9852 39.2079 11108.10 10798.90 121.58
9853 39.2117 11119.70 10802.80 119.65
9854 39.2154 11080.70 10806.70 124.76
9855 39.2192 11301.60 10811.30 124.69
9856 39.2229 11023.90 10816.60 121.04
9857 39.2267 11157.60 10822.40 121.25
9858 39.2304 10995.10 10829.30 120.74
9859 39.2341 11242.60 10837.20 123.29
9860 39.2379 10922.70 10846.60 120.41
9861 39.2417 11309.80 10857.90 123.22
9862 39.2454 11029.80 10871.30 121.78
9863 39.2492 11290.00 10888.40 123.09
9864 39.2529 11193.70 10910.30 122.60
9865 39.2567 11280.10 10940.80 122.72
9866 39.2604 11525.10 10982.80 124.43
9867 39.2643 11345.70 11045.20 122.82
9868 39.2681 11550.00 11136.40 125.13
9869 39.2718 11623.10 11263.10 124.89
9870 39.2756 11619.70 11443.10 125.23
9871 39.2793 11991.10 11674.20 127.14
9872 39.2831 11915.50 11969.80 127.01
9873 39.2868 12441.20 12313.80 129.68
9874 39.2906 12438.80 12668.00 128.96
9875 39.2943 12988.00 12999.90 134.09
9876 39.2980 12820.10 13219.00 131.71
9877 39.3018 13194.50 13266.10 134.10
9878 39.3056 12790.90 13115.70 131.43
9879 39.3093 12787.20 12829.80 131.36
9880 39.3131 12457.90 12472.80 128.72
9881 39.3168 12563.10 12124.20 133.55
9882 39.3206 11756.20 11804.30 124.85
9883 39.3245 11914.20 11540.00 126.28
9884 39.3282 11557.20 11340.10 124.10
9885 39.3320 11623.20 11188.30 125.34
9886 39.3357 11355.50 11083.50 122.69
9887 39.3395 11382.40 11009.10 123.74
9888 39.3433 11395.60 10958.10 123.53
9889 39.3470 11399.70 10923.50 123.33
9890 39.3507 11038.80 10897.80 121.70
9891 39.3545 11381.30 10879.10 123.38
9892 39.3582 11065.90 10864.00 120.26
9893 39.3620 11228.40 10851.70 121.93
9894 39.3657 11015.60 10841.80 121.02
9895 39.3695 11228.70 10833.20 122.45
9896 39.3732 10934.40 10826.00 120.61
9897 39.3770 11157.40 10819.60 121.70
9898 39.3809 10842.90 10814.10 120.59
9899 39.3845 11035.90 10809.30 121.46
9900 39.3884 11138.70 10805.10 121.77
9901 39.3921 11041.50 10801.40 121.37
9902 39.3959 11254.30 10798.00 123.56
9903 39.3997 10901.70 10795.00 120.53
9904 39.4034 11142.40 10792.40 122.43
9905 39.4072 11288.70 10790.00 122.97
9906 39.4109 10731.80 10787.90 117.67
9907 39.4146 11291.20 10786.00 124.63
9908 39.4184 11118.10 10784.20 123.49
9909 39.4221 11202.90 10782.60 122.34
9910 39.4259 10926.80 10781.20 120.01
9911 39.4296 11353.10 10779.80 123.76
9912 39.4334 10837.00 10778.60 119.03
9913 39.4372 11044.00 10777.50 121.56
9914 39.4409 11026.30 10776.50 121.48
9915 39.4448 11293.30 10775.50 121.99
9916 39.4484 10933.20 10774.70 120.45
9917 39.4523 11117.00 10773.90 121.35
9918 39.4561 10865.80 10773.10 120.62
9919 39.4598 11174.90 10772.40 121.94
9920 39.4636 10928.10 10771.80 120.51
9921 39.4673 11245.50 10771.20 122.47
9922 39.4711 10973.00 10770.70 120.85
9923 39.4748 11195.40 10770.20 122.05
9924 39.4785 10954.10 10769.70 120.18
9925 39.4823 10999.00 10769.30 120.38
9926 39.4860 10944.20 10768.90 121.41
9927 39.4898 11220.80 10768.50 122.64
9928 39.4936 11154.90 10768.10 121.69
9929 39.4973 11133.20 10767.80 121.93
9930 39.5011 10956.70 10767.50 121.33
9931 39.5048 11069.40 10767.20 120.62
9932 39.5087 11023.80 10767.00 120.95
9933 39.5125 10988.50 10766.70 119.13
9934 39.5162 11117.80 10766.50 124.40
9935 39.5200 11342.20 10766.30 124.18
9936 39.5237 10923.10 10766.20 121.03
9937 39.5275 11188.10 10766.00 120.90
9938 39.5312 11129.70 10765.90 121.17
9939 39.5350 11197.10 10765.80 121.39
9940 39.5387 11103.30 10765.70 121.99
9941 39.5424 11348.00 10765.60 123.17
9942 39.5462 11064.90 10765.50 120.76
9943 39.5500 11227.80 10765.50 122.61
9944 39.5537 11083.30 10765.40 120.91
9945 39.5575 11295.20 10765.40 123.20
9946 39.5612 11051.30 10765.40 121.71
9947 39.5650 11067.80 10765.40 122.39
9948 39.5689 10907.20 10765.50 120.63
9949 39.5726 11278.50 10765.60 123.22
9950 39.5764 11011.40 10765.60 121.67
9951 39.5801 11234.10 10765.80 121.97
9952 39.5839 10996.50 10765.90 121.26
9953 39.5877 11260.00 10766.10 123.42
9954 39.5914 11047.20 10766.30 121.51
9955 39.5951 11225.80 10766.60 122.40
9956 39.5989 11066.50 10766.80 122.22
9957 39.6026 11405.60 10767.20 124.36
9958 39.6064 11176.50 10767.60 122.14
9959 39.6101 11193.30 10768.00 121.21
9960 39.6139 11094.00 10768.60 120.66
9961 39.6176 11328.70 10769.20 125.33
9962 39.6214 10847.00 10769.90 120.37
9963 39.6251 11093.80 10770.70 120.92
9964 39.6289 10938.10 10771.70 119.31
9965 39.6328 11025.30 10772.90 120.59
9966 39.6365 11213.60 10774.20 122.27
9967 39.6403 11104.30 10775.80 121.18
9968 39.6441 11013.10 10777.90 120.84
9969 39.6478 10981.90 10780.40 120.09
9970 39.6516 10914.00 10783.90 120.29
9971 39.6553 11218.30 10788.50 119.81
9972 39.6590 11171.90 10795.30 121.68
9973 39.6628 11093.00 10805.20 121.37
9974 39.6665 10873.10 10819.10 118.96
9975 39.6703 11309.00 10839.20 122.81
9976 39.6740 11065.00 10865.80 120.06
9977 39.6778 11204.60 10900.90 121.64
9978 39.6815 11081.00 10942.60 121.26
9979 39.6853 11159.40 10990.90 121.28
9980 39.6892 11049.20 11040.10 120.44
9981 39.6928 11302.00 11081.00 122.14
9982 39.6967 11144.70 11105.10 121.27
9983 39.7004 11341.40 11103.50 122.30
9984 39.7042 10965.00 11076.80 121.04
9985 39.7080 11126.50 11033.50 120.94
9986 39.7117 11046.60 10985.80 119.40
9987 39.7155 11170.20 10938.40 123.24
9988 39.7192 11233.50 10898.20 123.88
9989 39.7229 11211.30 10864.70 121.86
9990 39.7267 10971.10 10839.30 120.07
9991 39.7304 11125.50 10821.40 120.49
9992 39.7342 11037.30 10808.90 120.30
9993 39.7379 11292.90 10800.90 122.23
9994 39.7417 10983.70 10796.00 120.07
9995 39.7455 11179.00 10793.50 121.40
9996 39.7492 11063.90 10793.30 120.88
9997 39.7531 11266.80 10795.10 121.94
9998 39.7567 10926.70 10799.30 120.91
9999 39.7606 11181.20 10806.50 122.22
10000 39.7644 10990.90 10817.30 120.45
10001 39.7681 11227.50 10831.60 121.60
10002 39.7719 10962.20 10850.00 120.21
10003 39.7756 11243.30 10870.70 122.23
10004 39.7794 11077.30 10892.90 120.96
10005 39.7831 11217.00 10912.30 121.11
10006 39.7868 11184.30 10922.20 121.64
10007 39.7906 11426.30 10922.60 122.76
10008 39.7943 11245.20 10911.30 121.12
10009 39.7981 11227.50 10891.50 121.73
10010 39.8019 11218.50 10868.40 122.40
10011 39.8056 11250.50 10846.30 120.94
10012 39.8094 10865.80 10826.20 119.76
10013 39.8131 11143.30 10810.00 119.46
10014 39.8170 11148.80 10797.10 124.16
10015 39.8208 11141.10 10787.60 122.41
10016 39.8245 11051.10 10781.00 119.42
10017 39.8283 11129.00 10776.30 120.51
10018 39.8320 11132.80 10773.00 121.40
10019 39.8358 11222.50 10770.70 120.79
10020 39.8396 11096.90 10768.90 120.90
10021 39.8433 11060.10 10767.60 119.82
10022 39.8470 11201.60 10766.60 121.68
10023 39.8507 11265.60 10765.70 122.42
10024 39.8545 11252.20 10764.90 122.13
10025 39.8583 11230.60 10764.30 122.28
10026 39.8620 11112.00 10763.80 121.14
10027 39.8658 11437.70 10763.30 122.16
10028 39.8695 10941.80 10762.90 120.74
10029 39.8733 11446.50 10762.50 121.82
10030 39.8772 10971.70 10762.20 121.05
10031 39.8809 11370.00 10761.90 123.05
10032 39.8847 10944.40 10761.60 118.98
10033 39.8884 11330.90 10761.40 122.27
10034 39.8922 11094.70 10761.10 120.85
10035 39.8960 11618.30 10761.00 125.95
10036 39.8997 11149.50 10760.80 120.83
10037 39.9035 11091.40 10760.60 120.64
10038 39.9072 11079.20 10760.50 121.94
10039 39.9109 11321.00 10760.30 122.07
10040 39.9147 11022.00 10760.20 120.43
10041 39.9184 11266.30 10760.10 125.25
10042 39.9222 11063.10 10760.00 121.96
10043 39.9259 11267.20 10759.90 121.66
10044 39.9297 10959.90 10759.80 120.79
10045 39.9336 11327.20 10759.70 122.61
10046 39.9372 10989.90 10759.60 120.57
10047 39.9411 11266.60 10759.60 122.90
10048 39.9448 11148.50 10759.50 122.40
10049 39.9486 11328.60 10759.40 123.18
10050 39.9524 11039.80 10759.40 120.92
10051 39.9561 11189.70 10759.30 121.35
10052 39.9599 10972.20 10759.30 121.00
10053 39.9636 11185.30 10759.20 122.07
10054 39.9674 11133.40 10759.20 121.97
10055 39.9711 11437.70 10759.10 123.09
10056 39.9748 11232.10 10759.10 120.82
10057 39.9786 11206.20 10759.10 121.39
10058 39.9823 11359.10 10759.00 122.68
10059 39.9861 11259.80 10759.00 121.10
10060 39.9899 11066.80 10759.00 120.74
10061 39.9936 11219.00 10758.90 122.12
10062 39.9975 11309.00 10758.90 123.11
10063 40.0011 11144.30 10758.90 122.17
10064 40.0050 10987.90 10758.90 120.89
10065 40.0087 11089.00 10758.90 121.29
10066 40.0125 10996.90 10758.80 118.77
10067 40.0163 11306.70 10758.80 125.25
10068 40.0200 11315.00 10758.80 123.21
10069 40.0238 11165.70 10758.80 121.01
10070 40.0275 10937.60 10758.80 120.37
10071 40.0312 11084.00 10758.70 120.93
10072 40.0350 11088.40 10758.70 121.96
10073 40.0387 11236.90 10758.70 122.54
10074 40.0425 11277.00 10758.70 123.28
10075 40.0462 11413.60 10758.70 123.11
10076 40.0500 11177.50 10758.70 121.13
10077 40.0538 11255.30 10758.70 122.89
10078 40.0575 11243.50 10758.70 122.21
10079 40.0614 11318.30 10758.70 123.06
10080 40.0650 11163.20 10758.70 122.24
10081 40.0689 11183.60 10758.60 122.10
10082 40.0727 11115.20 10758.60 121.63
10083 40.0764 11282.20 10758.60 122.40
10084 40.0802 11054.90 10758.60 121.98
10085 40.0839 11342.20 10758.60 123.29
10086 40.0877 11256.40 10758.60 122.16
10087 40.0914 11261.80 10758.60 121.57
10088 40.0951 11168.10 10758.60 122.41
10089 40.0989 11263.50 10758.60 121.67
10090 40.1026 11292.10 10758.60 122.84
10091 40.1064 11273.80 10758.60 121.98
10092 40.1102 11132.80 10758.60 120.86
10093 40.1139 11361.60 10758.60 122.73
10094 40.1177 11279.80 10758.60 124.65
10095 40.1214 11321.00 10758.60 122.80
10096 40.1253 11273.90 10758.60 121.23
10097 40.1291 11297.60 10758.60 122.01
10098 40.1328 11072.00 10758.60 121.09
10099 40.1366 11316.00 10758.60 122.30
10100 40.1403 10959.20 10758.60 120.28
10101 40.1441 11315.40 10758.60 121.58
10102 40.1479 11169.70 10758.60 121.60
10103 40.1516 11070.70 10758.60 121.21
10104 40.1553 10846.50 10758.60 119.62
10105 40.1590 11226.00 10758.60 122.21
10106 40.1628 11098.70 10758.60 121.12
10107 40.1666 11170.30 10758.60 121.14
10108 40.1703 10964.10 10758.60 120.26
10109 40.1741 11009.90 10758.60 120.49
10110 40.1778 11099.40 10758.60 121.09
10111 40.1816 11295.50 10758.60 122.24
10112 40.1853 10981.20 10758.40 118.59
10113 40.1892 11123.50 10758.40 121.18
10114 40.1930 11040.00 10758.40 120.75
10115 40.1967 11208.70 10758.40 122.94
10116 40.2005 11207.90 10758.40 120.37
10117 40.2042 11294.50 10758.40 121.73
10118 40.2080 11112.90 10758.40 120.23
10119 40.2118 11132.70 10758.40 120.45
10120 40.2155 11304.80 10758.40 121.85
10121 40.2192 11373.60 10758.40 125.25
10122 40.2229 11228.90 10758.40 121.12
10123 40.2267 11423.50 10758.40 122.54
10124 40.2305 11190.90 10758.40 120.82
10125 40.2342 11292.00 10758.40 121.48
10126 40.2380 11007.80 10758.40 120.45
10127 40.2417 11394.50 10758.40 122.53
10128 40.2455 10933.50 10758.40 120.00
10129 40.2494 11230.50 10758.40 122.12
10130 40.2531 10842.90 10758.40 119.25
10131 40.2569 11273.80 10758.40 120.82
10132 40.2606 11074.20 10758.40 120.70
10133 40.2644 11284.50 10758.40 122.36
10134 40.2682 10971.00 10758.40 120.72
10135 40.2719 11250.50 10758.40 121.75
10136 40.2757 10972.60 10758.40 120.64
10137 40.2794 11273.90 10758.30 122.32
10138 40.2831 11076.40 10758.30 120.43
10139 40.2869 11238.10 10758.30 121.67
10140 40.2906 11207.60 10758.40 121.42
10141 40.2944 11502.90 10758.40 124.32
10142 40.2981 11173.90 10758.40 122.30
10143 40.3019 11221.20 10758.40 122.68
10144 40.3056 11283.50 10758.40 122.43
10145 40.3094 11392.20 10758.40 121.95
10146 40.3133 11084.80 10758.40 119.25
10147 40.3170 11569.20 10758.40 125.63
10148 40.3208 11147.10 10758.40 122.05
10149 40.3245 11370.10 10758.40 122.37
10150 40.3283 11103.70 10758.40 120.72
10151 40.3321 11386.20 10758.40 122.77
10152 40.3358 11247.10 10758.40 121.42
10153 40.3396 11407.50 10758.40 122.91
10154 40.3433 11094.90 10758.40 121.19
10155 40.3470 11090.90 10758.40 121.41
10156 40.3508 10974.50 10758.40 120.85
10157 40.3545 11164.00 10758.40 121.87
10158 40.3583 10965.30 10758.40 119.89
10159 40.3620 11426.10 10758.40 123.39
10160 40.3658 11061.50 10758.40 121.47
10161 40.3697 11338.70 10758.40 122.75
10162 40.3733 10858.20 10758.40 118.09
10163 40.3772 11334.60 10758.40 122.83
10164 40.3809 10968.40 10758.40 120.68
10165 40.3847 11074.60 10758.40 120.35
10166 40.3885 11059.10 10758.40 120.58
10167 40.3922 11229.50 10758.40 121.83
10168 40.3960 11135.80 10758.40 121.18
10169 40.3997 11273.70 10758.40 122.55
10170 40.4035 11268.70 10758.40 121.99
10171 40.4072 11296.30 10758.40 122.85
10172 40.4109 11166.60 10758.40 121.29
10173 40.4147 11053.10 10758.40 118.71
10174 40.4184 11094.20 10758.40 123.79
10175 40.4222 11338.10 10758.40 122.18
10176 40.4259 11168.80 10758.40 121.15
10177 40.4297 11147.30 10758.40 121.39
10178 40.4336 11178.80 10758.40 121.04
10179 40.4372 11269.70 10758.40 121.51
10180 40.4411 11144.30 10758.40 120.17
10181 40.4448 11354.90 10758.40 122.77
10182 40.4486 11183.80 10758.40 122.31
10183 40.4524 11221.50 10758.40 122.08
10184 40.4561 11121.90 10758.40 121.43
10185 40.4599 11334.30 10758.40 121.83
10186 40.4636 11264.00 10758.40 122.86
10187 40.4674 11059.30 10758.40 121.93
10188 40.4711 11250.90 10758.40 122.02
10189 40.4748 11328.60 10758.40 121.65
10190 40.4786 10919.70 10758.40 120.69
10191 40.4823 11302.20 10758.40 121.68
10192 40.4861 10964.60 10758.40 121.08
10193 40.4898 11314.50 10758.40 121.27
10194 40.4936 10960.20 10758.40 118.89
10195 40.4975 11396.90 10758.40 122.05
10196 40.5011 11147.90 10758.40 121.57
10197 40.5050 11224.50 10758.40 122.51
10198 40.5087 11085.90 10758.40 120.52
10199 40.5125 11364.20 10758.40 121.74
10200 40.5163 11213.40 10758.30 124.04
10201 40.5200 11294.30 10758.30 124.42
10202 40.5238 11216.60 10758.30 121.99
10203 40.5275 11295.50 10758.30 121.17
10204 40.5312 11049.10 10758.30 120.97
10205 40.5350 11414.20 10758.30 123.04
10206 40.5387 11197.00 10758.30 122.30
10207 40.5425 11287.50 10758.30 121.89
10208 40.5462 10959.30 10758.30 120.13
10209 40.5500 11394.30 10758.30 123.29
10210 40.5537 11143.20 10758.30 121.67
10211 40.5575 11496.60 10758.30 123.83
10212 40.5614 11248.50 10758.30 122.85
10213 40.5650 11270.00 10758.30 122.47
10214 40.5689 11180.80 10758.30 121.65
10215 40.5726 11432.50 10758.30 123.09
10216 40.5764 11245.30 10758.20 121.39
10217 40.5802 11173.50 10758.20 120.79
10218 40.5839 11227.00 10758.20 121.69
10219 40.5877 11338.30 10758.20 121.82
10220 40.5914 11035.50 10758.20 120.72
10221 40.5951 11322.20 10758.20 122.84
10222 40.5989 11089.30 10758.20 121.33
10223 40.6026 11311.70 10758.20 122.44
10224 40.6064 11041.60 10758.20 120.89
10225 40.6101 11250.60 10758.20 122.26
10226 40.6139 11139.50 10758.20 119.66
10227 40.6176 11491.20 10758.20 126.24
10228 40.6214 11098.70 10758.10 120.88
10229 40.6253 11339.70 10758.10 122.32
10230 40.6289 11005.30 10758.10 119.78
10231 40.6328 11274.70 10758.10 121.55
10232 40.6365 11051.80 10758.10 120.80
10233 40.6403 11173.80 10758.10 121.21
10234 40.6441 10945.20 10758.10 120.24
10235 40.6478 11382.80 10758.10 123.25
10236 40.6516 10830.40 10758.10 119.14
10237 40.6553 11224.50 10758.00 121.81
10238 40.6590 11019.70 10758.00 120.62
10239 40.6628 11177.30 10758.00 121.10
10240 40.6665 10929.30 10758.00 119.36
10241 40.6703 11377.00 10758.00 120.98
10242 40.6740 11054.20 10758.00 120.45
10243 40.6778 11174.50 10758.00 121.79
10244 40.6815 11169.30 10758.00 121.62
10245 40.6853 11450.40 10757.90 122.42
10246 40.6892 11044.10 10757.90 119.41
10247 40.6928 11283.60 10757.90 121.43
10248 40.6967 11069.50 10757.90 121.58
10249 40.7004 11173.20 10757.90 121.36
10250 40.7042 11101.30 10757.90 121.67
10251 40.7080 11297.60 10757.90 122.02
10252 40.7117 10947.60 10757.80 119.04
10253 40.7155 11281.90 10757.80 121.68
10254 40.7192 11199.30 10757.80 123.92
10255 40.7229 11086.90 10757.80 121.01
10256 40.7267 11071.40 10757.80 120.26
10257 40.7304 11510.20 10757.80 123.11
10258 40.7342 11066.70 10757.80 120.32
10259 40.7379 11512.80 10757.70 123.46
10260 40.7417 11014.30 10757.70 119.47
10261 40.7454 11334.00 10757.70 121.69
10262 40.7492 11018.00 10757.70 120.62
10263 40.7531 11170.80 10757.70 120.92
10264 40.7567 10842.90 10757.70 119.52
10265 40.7606 11374.20 10757.60 122.35
10266 40.7643 11150.30 10757.60 121.27
10267 40.7681 11293.70 10757.60 122.36
10268 40.7718 11138.70 10757.60 121.20
10269 40.7756 11103.50 10757.60 121.43
10270 40.7794 11022.60 10757.50 119.61
10271 40.7831 11227.60 10757.50 121.47
10272 40.7868 11116.00 10757.50 121.18
10273 40.7906 11377.20 10757.50 123.15
10274 40.7943 10977.10 10757.50 120.22
10275 40.7981 11338.40 10757.40 123.05
10276 40.8018 11187.20 10757.40 121.93
10277 40.8056 11376.60 10757.40 121.87
10278 40.8093 10984.00 10757.40 120.34
10279 40.8131 11135.90 10757.40 119.86
10280 40.8168 11377.80 10757.30 123.44
10281 40.8206 11413.20 10757.30 124.96
10282 40.8245 11099.30 10757.30 120.32
10283 40.8282 11035.80 10757.30 120.32
10284 40.8320 11062.90 10757.30 120.72
10285 40.8357 11216.00 10757.20 121.34
10286 40.8395 10930.90 10757.20 119.79
10287 40.8433 11132.90 10757.20 121.39
10288 40.8470 11357.10 10757.20 123.38
10289 40.8507 11244.80 10757.10 122.86
10290 40.8545 11026.20 10757.10 120.19
10291 40.8582 11181.70 10757.10 121.56
10292 40.8619 11158.50 10757.10 121.76
10293 40.8657 11391.80 10757.00 121.34
10294 40.8695 10960.10 10757.00 120.40
10295 40.8732 11304.60 10757.00 122.67
10296 40.8770 11012.00 10757.00 120.79
10297 40.8807 11250.10 10756.90 121.80
10298 40.8845 11189.30 10756.90 120.64
10299 40.8882 11330.80 10756.90 122.80
10300 40.8921 10961.80 10756.90 120.22
10301 40.8959 11391.40 10756.80 124.55
10302 40.8996 11239.10 10756.80 122.12
10303 40.9034 11398.70 10756.80 124.41
10304 40.9071 11085.10 10756.80 121.45
10305 40.9109 11495.20 10756.70 123.52
10306 40.9146 11120.30 10756.70 119.98
10307 40.9184 11459.40 10756.70 126.81
10308 40.9221 11070.70 10756.60 122.15
10309 40.9258 11402.90 10756.60 122.68
10310 40.9296 11045.10 10756.60 119.64
10311 40.9333 11170.50 10756.60 121.67
10312 40.9371 11140.70 10756.50 121.85
10313 40.9409 11460.10 10756.50 124.05
10314 40.9446 11211.30 10756.50 122.19
10315 40.9484 11431.50 10756.40 123.56
10316 40.9521 11151.50 10756.40 122.10
10317 40.9560 11475.80 10756.40 123.65
10318 40.9596 11169.40 10756.30 122.02
10319 40.9635 11259.20 10756.30 122.83
10320 40.9673 11158.10 10756.30 121.66
10321 40.9710 11407.00 10756.20 123.39
10322 40.9748 11170.30 10756.20 122.02
10323 40.9785 11379.90 10756.20 123.70
10324 40.9823 11121.40 10756.10 121.75
10325 40.9860 11381.80 10756.10 123.25
10326 40.9897 11366.20 10756.10 123.10
10327 40.9935 11407.90 10756.00 122.16
10328 40.9972 11286.50 10756.00 122.43
10329 41.0010 11421.50 10756.00 123.13
10330 41.0047 11274.80 10755.90 123.23
10331 41.0085 11291.20 10755.90 122.76
10332 41.0123 11056.30 10755.90 120.40
10333 41.0160 11379.80 10755.80 122.05
10334 41.0199 11234.40 10755.80 125.08
10335 41.0235 11440.60 10755.80 123.56
10336 41.0274 11215.90 10755.70 121.40
10337 41.0311 11249.30 10755.70 121.81
10338 41.0349 11207.60 10755.70 121.78
10339 41.0387 11497.80 10755.60 123.59
10340 41.0424 11180.30 10755.60 122.23
10341 41.0462 11454.70 10755.50 123.90
10342 41.0499 11418.40 10755.50 123.56
10343 41.0536 11409.30 10755.50 122.45
10344 41.0574 11295.70 10755.40 122.71
10345 41.0611 11526.90 10755.40 123.16
10346 41.0649 11266.10 10755.40 122.10
10347 41.0686 11680.10 10755.30 124.98
10348 41.0724 11243.30 10755.30 122.17
10349 41.0761 11326.80 10755.20 122.56
10350 41.0799 11237.70 10755.20 122.66
10351 41.0836 11442.80 10755.20 123.79
10352 41.0874 11365.40 10755.10 123.22
10353 41.0913 11397.40 10755.10 123.17
10354 41.0950 11350.80 10755.00 123.08
10355 41.0988 11516.10 10755.00 124.44
10356 41.1025 11346.40 10927.10 123.52
10357 41.1063 11554.60 10929.70 123.92
10358 41.1100 11134.00 10932.20 122.38
10359 41.1138 11592.20 10934.90 122.81
10360 41.1175 11293.40 10937.70 125.38
10361 41.1213 11461.50 10940.40 124.06
10362 41.1250 11260.30 10943.30 122.29
10363 41.1287 11460.40 10946.20 122.88
10364 41.1325 11459.80 10949.30 124.23
10365 41.1362 11457.90 10952.30 123.46
10366 41.1400 11132.70 10955.50 121.67
10367 41.1438 11412.50 10958.70 123.99
10368 41.1475 11214.50 10962.00 122.19
10369 41.1513 11427.10 10965.40 122.16
10370 41.1550 11302.10 10968.80 123.33
10371 41.1589 11519.00 10972.40 124.84
10372 41.1626 11366.30 10976.00 123.66
10373 41.1664 11430.40 10979.80 123.76
10374 41.1702 11296.60 10983.70 122.82
10375 41.1739 11555.40 10987.60 124.57
10376 41.1777 11367.30 10991.70 123.69
10377 41.1814 11267.40 10995.80 122.13
10378 41.1852 11450.00 11000.10 123.89
10379 41.1889 11700.70 11004.50 124.84
10380 41.1926 11269.00 11009.00 121.83
10381 41.1964 11500.20 11013.70 125.01
10382 41.2001 11496.40 11018.40 124.08
10383 41.2039 11572.20 11023.40 125.20
10384 41.2076 11408.40 11028.30 123.97
10385 41.2114 11539.90 11033.60 123.18
10386 41.2151 11273.80 11038.80 121.11
10387 41.2189 11533.40 11044.40 127.23
10388 41.2228 11423.70 11050.10 123.43
10389 41.2265 11439.90 11055.90 123.03
10390 41.2303 11482.40 11061.90 123.40
10391 41.2340 11590.10 11068.00 124.89
10392 41.2378 11383.10 11074.50 122.69
10393 41.2415 11519.70 11080.90 124.06
10394 41.2453 11203.20 11087.80 122.39
10395 41.2491 11580.40 11094.90 124.80
10396 41.2528 11222.30 11102.00 122.70
10397 41.2565 11463.10 11109.50 123.90
10398 41.2603 11390.20 11117.10 123.49
10399 41.2640 11658.60 11125.20 124.46
10400 41.2677 11400.60 11133.30 123.26
10401 41.2715 11677.50 11141.90 124.58
10402 41.2753 11356.50 11150.80 122.90
10403 41.2790 11623.60 11159.70 123.84
10404 41.2828 11366.20 11169.20 123.04
10405 41.2865 11504.20 11178.80 123.82
10406 41.2904 11501.00 11189.00 123.64
10407 41.2940 11571.50 11199.40 124.36
10408 41.2979 11625.60 11210.30 125.96
10409 41.3016 11331.90 11221.40 122.46
10410 41.3054 11478.40 11233.20 123.56
10411 41.3092 11662.10 11245.50 124.93
10412 41.3129 11548.40 11257.90 122.78
10413 41.3167 11573.70 11271.10 123.46
10414 41.3204 11605.20 11284.50 126.47
10415 41.3242 11706.70 11298.80 124.71
10416 41.3279 11528.10 11313.30 123.38
10417 41.3316 11658.70 11328.80 124.63
10418 41.3354 11409.50 11344.90 122.79
10419 41.3391 11690.70 11361.30 125.10
10420 41.3429 11678.20 11378.90 125.08
10421 41.3466 11546.70 11396.70 123.71
10422 41.3504 11595.90 11415.80 124.33
10423 41.3541 11541.00 11435.30 123.84
10424 41.3579 11683.60 11456.20 123.51
10425 41.3618 11849.60 11478.00 125.46
10426 41.3655 11543.20 11500.30 123.92
10427 41.3693 12000.70 11524.30 126.82
10428 41.3730 11587.50 11548.70 123.97
10429 41.3768 12052.00 11575.10 127.25
10430 41.3805 11909.30 11602.00 126.44
10431 41.3843 11928.60 11631.10 126.42
10432 41.3880 11733.40 11660.90 123.99
10433 41.3918 12013.90 11693.10 126.21
10434 41.3955 11747.20 11727.00 125.45
10435 41.3993 11892.90 11761.80 126.12
10436 41.4030 11905.50 11799.50 126.75
10437 41.4067 11896.00 11838.40 126.18
10438 41.4105 11890.20 11880.50 125.88
10439 41.4142 12077.40 11923.90 125.62
10440 41.4180 12098.40 11971.20 130.13
10441 41.4217 12355.00 12020.00 130.38
10442 41.4255 12223.60 12073.20 127.74
10443 41.4294 12415.50 12129.90 128.77
10444 41.4330 12165.20 12188.60 127.31
10445 41.4369 12455.10 12252.90 130.18
10446 41.4406 12118.30 12319.80 126.96
10447 41.4444 12463.90 12393.10 129.91
10448 41.4481 12447.60 12469.70 129.43
10449 41.4519 12648.80 12553.90 130.35
10450 41.4557 12466.70 12644.50 129.88
10451 41.4594 12763.00 12739.40 131.90
10452 41.4632 12639.90 12844.50 130.40
10453 41.4669 12843.50 12954.90 131.82
10454 41.4706 12561.00 13077.60 130.31
10455 41.4743 12925.80 13207.10 132.29
10456 41.4781 12820.60 13351.70 132.26
10457 41.4818 13163.00 13505.00 133.71
10458 41.4856 13001.80 13676.90 132.96
10459 41.4894 13327.80 13865.10 134.22
10460 41.4931 13510.50 14066.50 134.93
10461 41.4969 13660.50 14294.10 137.24
10462 41.5006 13774.30 14538.60 137.39
10463 41.5045 14123.20 14816.90 138.15
10464 41.5081 13989.80 15117.90 139.04
10465 41.5120 14374.60 15463.00 140.06
10466 41.5157 14204.60 15839.00 137.74
10467 41.5195 15193.90 16273.70 148.94
10468 41.5233 15306.00 16765.50 147.06
10469 41.5270 15874.40 17308.90 149.41
10470 41.5308 16272.30 17946.50 150.87
10471 41.5345 16907.80 18660.00 154.44
10472 41.5382 17830.20 19507.50 160.01
10473 41.5420 19138.80 20474.00 165.94
10474 41.5457 19950.90 21650.70 170.84
10475 41.5494 22284.20 23040.40 178.52
10476 41.5532 24250.90 24818.20 192.00
10477 41.5570 27839.20 27126.10 206.68
10478 41.5607 31043.80 30146.70 222.63
10479 41.5645 36853.80 34455.40 245.36
10480 41.5682 42940.20 40415.60 270.33
10481 41.5720 52214.80 49127.90 303.55
10482 41.5757 62253.70 61059.80 340.62
10483 41.5796 77180.20 77779.90 391.83
10484 41.5832 93643.30 99168.60 444.51
10485 41.5871 118467.00 126577.00 519.91
10486 41.5909 147465.00 158922.00 599.74
10487 41.5946 189281.00 193226.00 705.51
10488 41.5984 229938.00 227570.00 821.97
10489 41.6021 270394.00 254149.00 910.82
10490 41.6059 288359.00 267428.00 957.16
10491 41.6096 288635.00 262442.00 958.14
10492 41.6133 258426.00 240686.00 881.46
10493 41.6171 220645.00 209527.00 788.71
10494 41.6208 177018.00 174095.00 688.21
10495 41.6246 141203.00 140134.00 583.73
10496 41.6283 108300.00 111151.00 486.27
10497 41.6321 86937.20 86690.70 419.25
10498 41.6358 68382.30 68164.60 360.45
10499 41.6396 56753.40 53985.60 321.30
10500 41.6433 46286.90 44057.40 283.04
10501 41.6471 39757.90 36863.20 257.54
10502 41.6508 33972.10 31951.90 234.00
10503 41.6547 29940.20 28361.20 216.56
10504 41.6584 26180.70 25804.70 199.97
10505 41.6622 24160.80 23807.70 190.77
10506 41.6660 21742.80 22237.50 178.22
10507 41.6697 20245.30 20989.30 171.03
10508 41.6735 18789.50 19918.70 165.38
10509 41.6772 17912.40 19033.40 160.08
10510 41.6810 16730.60 18250.30 153.49
10511 41.6847 16588.40 17589.80 153.42
10512 41.6884 15378.50 16996.90 145.87
10513 41.6922 15463.90 16490.00 146.97
10514 41.6959 14689.50 16029.90 142.01
10515 41.6997 14404.30 15622.60 141.77
10516 41.7034 14029.60 15268.80 137.19
10517 41.7072 14256.50 14943.90 140.11
10518 41.7109 13623.00 14659.40 136.50
10519 41.7147 13520.00 14396.30 134.42
10520 41.7184 13468.00 14164.30 136.42
10521 41.7223 13398.80 13948.40 137.59
10522 41.7259 12957.90 13756.80 133.29
10523 41.7298 13151.30 13577.50 132.70
10524 41.7335 12798.50 13417.50 131.28
10525 41.7373 12971.70 13267.00 132.45
10526 41.7411 12593.50 13128.60 130.43
10527 41.7448 12870.70 13004.60 131.93
10528 41.7486 12533.20 12886.70 129.98
10529 41.7523 12654.70 12780.60 130.71
10530 41.7561 12602.10 12679.60 130.76
10531 41.7598 12649.80 12588.20 131.32
10532 41.7635 12099.00 12501.00 127.42
10533 41.7673 12387.50 12421.70 129.54
10534 41.7710 12261.50 12345.80 126.68
10535 41.7747 12445.20 12276.60 129.75
10536 41.7785 12174.20 12210.20 127.93
10537 41.7823 12247.20 12147.90 128.89
10538 41.7860 11710.60 12091.00 125.63
10539 41.7898 12204.30 12036.00 128.02
10540 41.7935 11916.40 11985.60 126.09
10541 41.7974 12187.80 11936.80 128.69
10542 41.8010 11834.10 11892.00 126.49
10543 41.8049 11788.30 11848.50 125.91
10544 41.8086 11811.90 11808.50 126.40
10545 41.8124 12123.80 11769.60 128.30
10546 41.8161 11775.90 11733.80 124.34
10547 41.8199 12290.00 11698.80 130.92
10548 41.8237 11771.70 11665.60 126.82
10549 41.8274 11801.30 11634.90 125.51
10550 41.8312 11738.30 11605.00 124.88
10551 41.8349 11846.60 11577.20 125.85
10552 41.8386 11775.60 11550.10 125.14
10553 41.8424 11737.80 11524.90 125.35
10554 41.8461 11663.90 11500.20 125.64
10555 41.8498 11737.60 11477.20 125.62
10556 41.8536 11424.10 11454.70 124.20
10557 41.8573 11706.90 11433.70 125.29
10558 41.8611 11552.70 11413.10 123.76
10559 41.8648 11617.80 11393.90 124.69
10560 41.8686 11748.10 11375.00 126.50
10561 41.8725 11755.60 11357.00 125.81
10562 41.8761 11445.30 11340.10 124.22
10563 41.8800 11567.40 11323.40 123.40
10564 41.8837 11545.90 11307.80 124.69
10565 41.8875 11758.80 11292.50 125.52
10566 41.8912 11400.10 11278.10 122.73
10567 41.8950 11584.50 11263.90 123.67
10568 41.8987 11696.80 11250.60 126.82
10569 41.9025 11571.80 11237.40 125.14
10570 41.9062 11478.00 11225.10 125.23
10571 41.9100 11679.60 11212.80 125.70
10572 41.9137 11522.90 11201.40 123.83
10573 41.9174 11432.00 11190.00 122.89
10574 41.9212 11575.90 11179.00 127.63
10575 41.9249 11627.10 11168.70 125.51
10576 41.9287 11225.60 11158.50 122.49
10577 41.9324 11584.50 11148.90 124.25
10578 41.9362 11205.00 11139.40 122.67
10579 41.9399 11545.70 11130.40 124.78
10580 41.9437 11489.50 11121.40 124.35
10581 41.9474 11474.80 11113.00 123.51
10582 41.9512 11409.00 11104.60 123.67
10583 41.9549 11412.00 11096.80 124.04
10584 41.9588 11429.60 11088.90 123.94
10585 41.9624 11561.70 11081.50 125.02
10586 41.9663 11057.50 11074.10 120.72
10587 41.9701 11450.00 11067.00 124.19
10588 41.9738 11261.30 11060.20 121.92
10589 41.9776 11328.80 11053.40 123.31
10590 41.9813 11205.60 11047.10 122.03
10591 41.9851 11357.60 11040.70 123.09
10592 41.9868 11181.70 11037.90 122.13
10593 41.9906 11547.80 11031.80 123.29
10594 41.9944 11119.00 11025.90 122.12
10595 41.9981 11443.30 11020.30 123.10
10596 42.0019 10882.10 11014.70 118.47
10597 42.0056 11449.50 11009.40 126.84
10598 42.0093 11273.20 11004.10 123.62
10599 42.0131 11476.70 10999.10 124.24
10600 42.0168 11307.30 10994.10 122.63
10601 42.0205 11498.50 10989.30 123.95
10602 42.0243 11367.10 10984.60 123.72
10603 42.0281 11518.70 10979.90 124.04
10604 42.0318 11302.90 10975.50 123.31
10605 42.0356 11410.50 10971.10 121.41
10606 42.0393 11135.80 10966.90 122.51
10607 42.0432 11413.30 10962.80 123.19
10608 42.0468 11063.20 10958.80 122.14
10609 42.0507 11481.20 10954.80 123.90
10610 42.0544 11135.40 10951.00 122.18
10611 42.0582 11475.30 10947.20 123.62
10612 42.0620 11193.50 10943.50 122.46
10613 42.0657 11374.00 10940.00 123.94
10614 42.0695 11269.00 10936.40 123.38
10615 42.0732 11337.10 10933.00 123.98
10616 42.0770 10944.60 10929.70 121.00
10617 42.0807 11289.60 10926.40 122.06
10618 42.0844 11359.20 10923.20 124.55
10619 42.0882 11395.00 10920.10 123.23
10620 42.0919 11164.40 10917.00 122.24
10621 42.0957 11272.60 10914.00 122.95
10622 42.0994 11206.90 10911.10 122.02
10623 42.1032 11325.00 10908.20 122.82
10624 42.1069 11266.90 10905.50 124.57
10625 42.1107 11496.80 10902.70 124.71
10626 42.1144 11268.20 10730.10 122.66
10627 42.1183 11415.20 10729.90 123.04
10628 42.1219 11162.60 10729.80 121.90
10629 42.1258 11146.20 10729.60 122.17
10630 42.1296 11314.90 10729.50 123.25
10631 42.1333 11315.30 10729.30 123.15
10632 42.1371 11071.90 10729.20 121.63
10633 42.1408 11105.10 10729.00 121.68
10634 42.1446 11120.30 10728.80 121.83
10635 42.1483 11411.50 10728.70 123.70
10636 42.1521 10989.80 10728.50 120.39
10637 42.1558 11111.20 10728.40 121.22
10638 42.1595 11033.00 10728.20 121.95
10639 42.1632 11063.00 10728.10 121.56
10640 42.1670 10756.80 10727.90 119.36
10641 42.1708 11217.80 10727.80 122.77
10642 42.1745 11059.00 10727.60 120.96
10643 42.1783 11199.00 10727.40 122.36
10644 42.1820 10846.50 10727.30 119.60
10645 42.1858 11147.40 10727.10 122.63
10646 42.1895 10943.40 10727.00 119.22
10647 42.1934 11219.10 10726.80 122.36
10648 42.1970 11082.80 10726.60 121.51
10649 42.2009 11202.40 10726.50 120.91
10650 42.2046 10993.00 10726.30 121.67
10651 42.2084 11188.30 10726.20 124.31
10652 42.2122 10931.80 10726.00 121.15
10653 42.2159 11323.20 10725.80 122.00
10654 42.2197 11115.10 10725.70 121.31
10655 42.2224 11134.80 10725.50 121.79
10656 42.2261 11242.40 10725.40 122.03
10657 42.2299 10999.30 10725.20 120.24
10658 42.2336 11112.80 10725.00 121.31
10659 42.2374 11109.20 10724.90 121.18
10660 42.2411 11339.70 10724.70 123.06
10661 42.2449 10994.50 10724.50 120.96
10662 42.2486 11160.10 10724.40 121.69
10663 42.2523 11174.10 10724.20 122.32
10664 42.2561 11373.90 10724.00 122.44
10665 42.2598 11051.60 10723.90 120.82
10666 42.2635 11000.50 10723.70 120.95
10667 42.2673 11182.90 10723.50 121.09
10668 42.2711 11133.70 10723.40 121.83
10669 42.2748 10908.00 10723.20 120.60
10670 42.2786 11094.10 10723.00 121.46
10671 42.2823 10892.60 10722.80 120.20
10672 42.2862 11396.80 10722.70 123.29
10673 42.2898 10935.10 10722.50 120.23
10674 42.2937 11225.40 10722.30 122.63
10675 42.2974 10934.60 10722.10 121.14
10676 42.3012 11251.60 10722.00 122.97
10677 42.3049 10984.20 10721.80 121.66
10678 42.3087 10972.30 10721.60 120.96
10679 42.3124 11050.40 10721.40 121.54
10680 42.3162 10975.20 10721.30 119.21
10681 42.3200 11174.10 10721.10 124.35
10682 42.3237 11434.70 10720.90 124.29
10683 42.3274 11116.60 10720.70 121.48
10684 42.3312 11092.50 10720.60 120.83
10685 42.3349 10799.90 10720.40 118.92
10686 42.3386 10798.70 10720.20 119.87
10687 42.3424 11071.20 10720.00 121.47
10688 42.3461 11162.40 10719.80 122.24
10689 42.3499 10986.10 10719.60 121.03
10690 42.3536 11190.40 10719.50 122.00
10691 42.3574 10953.90 10719.30 121.16
10692 42.3611 11190.60 10719.10 121.83
10693 42.3649 11009.90 10718.90 121.41
10694 42.3688 11095.70 10718.70 121.87
10695 42.3725 11086.50 10718.50 121.49
10696 42.3763 11087.60 10718.40 121.46
10697 42.3800 10920.70 10718.20 120.58
10698 42.3838 11212.30 10718.00 121.50
10699 42.3875 10710.50 10717.80 118.73
10700 42.3913 11148.40 10717.60 121.58
10701 42.3950 11068.70 10717.40 121.89
10702 42.3988 11202.50 10717.20 122.28
10703 42.4025 11147.60 10717.00 122.37
10704 42.4062 11119.20 10716.90 121.63
10705 42.4100 10981.00 10716.90 119.90
10706 42.4137 10990.60 10716.70 119.11
10707 42.4175 10966.30 10716.50 123.92
10708 42.4212 11412.80 10716.30 123.90
10709 42.4250 10935.70 10716.10 120.43
10710 42.4287 11012.10 10716.00 120.73
10711 42.4325 11034.40 10715.80 120.94
10712 42.4362 11022.40 10715.60 121.48
10713 42.4400 10907.20 10715.40 120.29
10714 42.4437 11238.20 10715.20 122.70
10715 42.4476 11015.20 10715.00 120.42
10716 42.4514 11322.50 10714.80 123.14
10717 42.4551 10910.30 10714.60 119.81
10718 42.4589 11147.50 10714.40 121.36
10719 42.4626 10924.60 10714.20 120.67
10720 42.4664 11066.40 10714.00 122.15
10721 42.4701 10973.10 10713.80 121.21
10722 42.4739 11209.70 10714.50 123.08
10723 42.4776 11184.60 10714.30 122.61
10724 42.4813 10907.60 10714.10 119.81
10725 42.4851 10871.30 10713.90 120.95
10726 42.4888 11088.70 10713.80 120.84
10727 42.4926 10934.00 10713.60 120.54
10728 42.4963 11109.30 10713.40 121.67
10729 42.5001 10839.60 10713.20 119.95
10730 42.5038 10871.30 10713.00 120.38
10731 42.5076 11059.40 10712.90 121.94
10732 42.5113 11175.50 10712.70 121.56
10733 42.5151 10793.60 10712.50 118.31
10734 42.5188 11241.60 10712.30 124.89
10735 42.5227 11023.60 10712.10 121.92
10736 42.5265 11097.50 10711.90 122.05
10737 42.5302 10903.20 10711.80 120.13
10738 42.5340 10926.80 10711.60 120.58
10739 42.5377 10812.40 10711.40 120.61
10740 42.5415 10936.40 10711.20 121.62
10741 42.5452 10828.60 10711.00 120.88
10742 42.5490 11077.90 10710.80 121.41
10743 42.5527 11022.30 10710.70 121.13
10744 42.5564 10963.60 10710.50 121.56
10745 42.5602 11179.40 10710.30 121.86
10746 42.5639 11087.10 10710.10 122.09
10747 42.5677 10890.80 10709.90 120.71
10748 42.5714 11010.80 10709.80 121.81
10749 42.5752 11074.20 10709.60 121.11
10750 42.5789 11007.70 10709.40 120.91
10751 42.5827 10709.20 10709.20 119.54
10752 42.5864 11007.80 10709.00 121.75
10753 42.5902 10936.50 10708.90 121.06
10754 42.5941 11060.80 10708.70 121.46
10755 42.5978 10973.70 10708.50 122.04
10756 42.6016 10967.30 10708.30 120.81
10757 42.6053 10751.90 10708.10 120.12
10758 42.6091 11132.00 10708.00 122.36
10759 42.6128 10761.00 10707.80 118.96
10760 42.6166 11011.90 10707.60 121.03
10761 42.6203 11074.50 10707.50 124.65
10762 42.6241 10970.90 10707.30 121.33
10763 42.6278 10909.30 10707.10 120.00
10764 42.6315 10997.80 10706.90 120.91
10765 42.6353 10901.10 10706.80 120.73
10766 42.6390 10946.70 10706.60 120.68
10767 42.6428 10851.40 10706.40 120.54
10768 42.6465 11060.40 10706.30 122.12
10769 42.6503 10936.30 10706.10 121.09
10770 42.6540 11086.40 10706.00 122.23
10771 42.6578 10771.20 10705.80 120.13
10772 42.6617 10787.00 10705.60 119.58
10773 42.6654 10701.20 10705.50 119.94
10774 42.6692 10930.90 10705.30 120.33
10775 42.6729 11032.30 10705.20 121.68
10776 42.6767 10968.10 10705.00 121.33
10777 42.6804 10945.40 10704.90 121.97
10778 42.6842 10787.30 10704.80 119.79
10779 42.6879 10813.60 10704.60 120.26
10780 42.6917 10951.40 10704.50 119.65
10781 42.6954 10816.80 10704.30 119.00
10782 42.6992 11053.20 10704.20 121.79
10783 42.7029 10726.60 10704.10 118.40
10784 42.7066 11065.70 10704.00 120.88
10785 42.7104 10762.90 10703.90 118.79
10786 42.7141 11116.70 10703.70 119.91
10787 42.7179 10794.40 10703.60 119.51
10788 42.7216 11120.50 10703.50 122.26
10789 42.7254 10659.80 10703.40 118.19
10790 42.7293 10937.00 10703.40 119.86
10791 42.7329 10734.90 10703.30 118.96
10792 42.7368 11033.00 10703.20 120.29
10793 42.7405 10822.60 10703.10 119.85
10794 42.7443 11033.40 10703.10 121.01
10795 42.7480 10862.00 10703.00 119.34
10796 42.7518 10970.50 10703.00 120.12
10797 42.7556 10786.40 10702.90 119.16
10798 42.7593 10970.10 10702.90 120.46
10799 42.7631 10733.00 10702.90 118.93
10800 42.7668 11030.20 10702.90 120.58
10801 42.7705 10640.00 10702.90 118.55
10802 42.7743 10926.30 10703.00 120.26
10803 42.7780 10646.70 10703.00 118.39
10804 42.7817 11046.30 10703.10 121.38
10805 42.7855 10877.10 10703.20 120.64
10806 42.7893 10843.30 10703.30 119.41
10807 42.7930 10880.40 10703.40 119.55
10808 42.7968 11121.50 10703.60 121.30
10809 42.8005 10658.70 10703.80 118.69
10810 42.8044 10990.40 10704.00 121.27
10811 42.8080 10767.10 10704.30 119.45
10812 42.8119 10869.60 10704.60 120.07
10813 42.8157 10962.40 10704.90 118.61
10814 42.8194 11121.50 10710.30 124.31
10815 42.8232 10867.70 10710.90 120.02
10816 42.8269 10888.20 10711.40 119.61
10817 42.8307 10758.50 10712.10 119.02
10818 42.8344 10877.60 10712.80 120.10
10819 42.8382 10867.90 10713.60 119.03
10820 42.8419 11036.60 10714.50 121.11
10821 42.8456 10843.00 10715.60 120.17
10822 42.8494 11036.30 10716.80 121.35
10823 42.8531 10866.20 10718.10 119.99
10824 42.8569 10878.10 10719.70 119.36
10825 42.8606 10820.10 10721.40 119.78
10826 42.8644 10987.40 10723.40 120.88
10827 42.8681 10859.20 10725.80 120.32
10828 42.8719 11159.40 10733.10 120.75
10829 42.8758 11177.80 10736.70 122.76
10830 42.8795 11039.50 10741.10 121.50
10831 42.8833 10764.30 10747.00 118.45
10832 42.8870 11064.50 10754.70 121.46
10833 42.8908 10854.40 10765.60 119.11
10834 42.8945 10921.10 10780.00 120.30
10835 42.8983 10983.80 10800.00 121.79
10836 42.9021 10970.00 10826.40 120.61
10837 42.9058 10864.80 10859.10 120.64
10838 42.9095 11019.70 10899.60 120.84
10839 42.9132 10997.20 10949.70 119.44
10840 42.9170 11038.00 10999.00 121.69
10841 42.9207 11291.50 11044.60 123.97
10842 42.9245 11085.90 11080.80 122.15
10843 42.9283 10994.30 11097.90 120.91
10844 42.9320 11013.20 11092.60 120.70
10845 42.9358 11103.10 11068.90 121.95
10846 42.9395 11174.20 11036.90 121.86
10847 42.9434 10902.70 11004.00 120.40
10848 42.9470 11454.40 10978.80 122.94
10849 42.9509 10964.80 10965.30 120.69
10850 42.9547 11009.50 10968.90 121.04
10851 42.9584 11037.20 10992.70 120.96
10852 42.9622 11325.10 11041.50 122.97
10853 42.9659 11218.50 11115.50 122.39
10854 42.9697 11156.70 11220.30 122.56
10855 42.9734 11504.80 11348.80 122.51
10856 42.9771 11706.80 11502.90 124.99
10857 42.9809 11822.40 11667.00 125.94
10858 42.9846 11922.50 11816.50 125.42
10859 42.9884 11846.30 11929.10 126.52
10860 42.9921 12073.50 11969.20 125.95
10861 42.9959 12046.20 11925.10 127.49
10862 42.9996 12276.00 11812.30 128.63
10863 43.0034 11649.80 11655.60 125.69
10864 43.0071 11729.90 11491.70 125.93
10865 43.0109 11403.90 11332.50 123.61
10866 43.0148 11406.40 11193.50 120.46
10867 43.0185 11403.70 11082.20 125.25
10868 43.0223 11537.10 10992.90 126.13
10869 43.0260 11102.50 10927.50 121.68
10870 43.0298 11274.30 10878.90 121.41
10871 43.0336 10852.30 10844.30 119.95
10872 43.0373 10966.90 10820.50 121.20
10873 43.0410 11052.00 10803.10 121.49
10874 43.0448 11157.70 10790.60 122.86
10875 43.0485 11133.00 10781.00 121.42
10876 43.0522 11169.40 10773.70 122.49
10877 43.0560 10959.30 10767.60 120.00
10878 43.0598 11228.90 10762.70 122.10
10879 43.0635 10865.40 10758.70 120.73
10880 43.0673 10832.70 10755.30 120.19
10881 43.0710 10829.00 10752.50 120.26
10882 43.0748 11094.90 10750.10 120.87
10883 43.0785 11006.30 10748.20 121.62
10884 43.0824 10874.40 10746.60 119.99
10885 43.0862 10935.60 10745.20 121.26
10886 43.0899 10900.00 10744.20 121.29
10887 43.0937 10927.80 10743.40 120.70
10888 43.0974 10897.30 10742.90 121.84
10889 43.1012 10920.40 10742.50 120.59
10890 43.1049 10859.40 10742.40 120.32
10891 43.1087 10879.40 10742.40 120.60
10892 43.1124 11000.70 10742.50 121.09
10893 43.1161 10822.30 10742.80 119.14
10894 43.1199 11120.90 10743.30 124.91
10895 43.1236 10853.30 10743.90 119.33
10896 43.1274 10708.10 10744.70 118.82
10897 43.1311 10705.90 10745.60 119.00
10898 43.1349 10963.60 10746.70 120.65
10899 43.1387 10657.50 10747.90 118.87
10900 43.1424 10753.60 10749.20 119.18
10901 43.1463 10794.90 10750.80 120.11
10902 43.1499 10754.00 10752.40 119.82
10903 43.1538 10766.00 10754.20 120.08
10904 43.1575 10837.10 10756.20 120.67
10905 43.1613 10737.90 10758.40 120.40
10906 43.1651 10854.60 10760.80 119.57
10907 43.1688 10796.80 10763.30 119.05
10908 43.1726 10882.70 10766.10 118.77
10909 43.1763 10676.30 10769.00 118.02
10910 43.1800 10952.10 10772.30 120.58
10911 43.1838 10734.50 10775.80 119.06
10912 43.1875 10833.60 10779.50 119.79
10913 43.1913 10854.20 10783.60 119.93
10914 43.1950 10938.50 10787.90 120.09
10915 43.1988 10768.30 10792.70 119.77
10916 43.2025 10916.50 10797.80 120.29
10917 43.2063 10661.50 10803.40 118.46
10918 43.2102 11006.20 10809.50 121.15
10919 43.2138 10572.20 10815.90 117.10
10920 43.2177 10947.50 10823.10 121.44
10921 43.2214 10988.30 10830.70 122.33
10922 43.2252 10915.70 10839.20 120.75
10923 43.2289 10795.90 10848.30 119.48
10924 43.2327 11043.40 10858.60 120.48
10925 43.2365 10770.30 10869.80 119.10
10926 43.2402 11056.10 10881.90 120.65
10927 43.2439 10821.90 10895.60 119.86
10928 43.2477 10973.20 10910.30 121.26
10929 43.2514 10828.40 10927.20 119.82
10930 43.2552 11080.60 10946.00 121.63
10931 43.2589 10954.40 10966.60 120.56
10932 43.2627 11071.40 10990.40 121.04
10933 43.2664 10926.70 11016.70 119.01
10934 43.2702 11040.30 11047.40 121.34
10935 43.2739 11002.80 11081.90 121.12
10936 43.2777 11244.90 11123.10 122.25
10937 43.2816 11187.80 11172.20 122.38
10938 43.2853 11299.80 11230.10 122.77
10939 43.2891 11305.30 11304.90 122.76
10940 43.2928 11378.40 11399.20 122.51
10941 43.2966 11848.10 11529.20 126.04
10942 43.3003 11978.50 11702.70 126.04
10943 43.3041 12015.50 11949.80 127.50
10944 43.3078 12324.30 12290.30 129.39
10945 43.3116 12626.60 12737.20 131.08
10946 43.3153 12827.90 13335.60 128.77
10947 43.3190 13412.30 14064.00 137.77
10948 43.3228 14491.70 14954.50 142.99
10949 43.3266 15188.90 15949.60 144.11
10950 43.3303 15876.50 16942.70 148.42
10951 43.3341 16398.00 17848.40 150.88
10952 43.3378 17398.10 18445.40 156.98
10953 43.3416 17314.80 18608.60 156.64
10954 43.3453 17397.80 18305.10 157.09
10955 43.3492 16455.70 17650.30 151.34
10956 43.3530 16198.60 16849.60 151.24
10957 43.3567 15159.20 16103.10 145.64
10958 43.3605 15105.60 15492.30 145.07
10959 43.3642 14555.60 15122.60 141.67
10960 43.3680 14661.10 15011.60 141.26
10961 43.3717 14754.60 15179.70 143.14
10962 43.3755 15080.70 15588.40 144.84
10963 43.3792 15631.70 16206.50 147.88
10964 43.3829 16719.60 16914.00 153.49
10965 43.3867 17397.30 17616.70 157.55
10966 43.3904 18032.20 18115.60 160.21
10967 43.3942 17949.30 18296.50 159.56
10968 43.3980 18363.90 18115.90 163.06
10969 43.4017 17197.10 17706.30 155.43
10970 43.4055 16648.40 17228.90 153.76
10971 43.4092 15997.20 16862.60 149.72
10972 43.4131 15897.10 16691.80 148.30
10973 43.4169 15653.10 16773.80 146.02
10974 43.4206 16392.20 17086.10 155.70
10975 43.4244 16228.10 17577.90 151.47
10976 43.4281 17411.50 18096.30 155.95
10977 43.4319 17636.40 18482.40 158.60
10978 43.4356 18291.80 18530.50 161.48
10979 43.4394 17639.30 18150.90 158.74
10980 43.4431 17131.80 17402.40 156.13
10981 43.4468 15710.00 16475.40 148.10
10982 43.4506 14679.90 15475.30 142.75
10983 43.4543 13728.30 14560.20 137.46
10984 43.4581 13318.70 13738.60 134.96
10985 43.4619 12424.10 13062.20 128.82
10986 43.4656 12274.10 12542.10 129.01
10987 43.4695 11700.00 12136.50 124.93
10988 43.4731 11731.30 11844.10 125.32
10989 43.4770 11514.00 11625.60 124.12
10990 43.4808 11475.90 11467.10 124.02
10991 43.4845 11202.80 11353.10 121.24
10992 43.4883 11130.60 11264.10 121.55
10993 43.4920 10835.70 11196.10 119.76
10994 43.4958 11083.50 11139.40 121.10
10995 43.4995 11116.00 11093.30 122.73
10996 43.5033 11031.80 11053.00 120.93
10997 43.5070 10964.10 11018.10 121.21
10998 43.5107 10945.20 10988.40 121.34
10999 43.5145 11000.00 10960.50 120.21
11000 43.5182 10923.40 10937.20 120.31
11001 43.5220 10636.80 10915.80 120.57
11002 43.5258 11018.50 10896.60 121.47
11003 43.5295 10649.50 10879.70 118.28
11004 43.5334 11062.50 10864.00 120.45
11005 43.5370 10870.10 10850.10 119.82
11006 43.5409 11086.00 10837.00 121.83
11007 43.5446 10746.60 10825.40 119.61
11008 43.5484 10997.50 10814.50 121.64
11009 43.5522 10723.40 10804.40 119.22
11010 43.5559 10861.10 10795.40 120.54
11011 43.5597 10854.00 10786.70 120.56
11012 43.5634 10705.30 10779.00 119.22
11013 43.5672 10647.00 10771.50 119.24
11014 43.5709 10725.30 10764.60 119.14
11015 43.5746 10682.10 10758.30 119.25
11016 43.5784 10854.50 10752.20 120.41
11017 43.5821 10517.00 10746.70 117.93
11018 43.5859 10572.80 10741.40 118.67
11019 43.5897 10647.70 10736.30 117.15
11020 43.5934 10664.10 10731.70 118.55
11021 43.5973 10571.60 10727.20 118.61
11022 43.6009 10762.00 10723.10 119.59
11023 43.6048 10520.90 10719.10 118.06
11024 43.6086 10825.30 10715.30 120.14
11025 43.6123 10535.80 10711.80 118.21
11026 43.6161 10622.00 10708.30 117.98
11027 43.6198 10644.60 10705.10 119.78
11028 43.6236 10850.60 10702.00 120.72
11029 43.6273 10461.60 10699.10 117.85
11030 43.6311 10567.50 10696.30 118.04
11031 43.6348 10670.30 10693.50 117.99
11032 43.6385 10731.10 10691.00 118.90
11033 43.6423 10684.00 10688.50 119.44
11034 43.6460 10660.20 10686.10 118.78
11035 43.6498 10393.80 10683.80 116.81
11036 43.6536 10833.10 10681.60 119.27
11037 43.6573 10796.50 10679.50 119.41
11038 43.6612 10855.00 10677.40 119.58
11039 43.6648 10647.50 10675.50 118.19
11040 43.6687 10793.10 10673.50 119.53
11041 43.6725 10261.70 10671.70 115.92
11042 43.6762 10746.60 10669.90 118.91
11043 43.6800 10628.90 10668.20 118.17
11044 43.6837 10676.50 10666.50 118.21
11045 43.6875 10609.80 10664.90 118.21
11046 43.6912 10553.20 10663.30 117.38
11047 43.6950 10600.10 10661.80 117.54
11048 43.6987 10817.50 10660.30 120.02
11049 43.7024 10486.10 10658.80 116.19
11050 43.7062 10567.00 10657.40 118.31
11051 43.7099 10363.80 10656.10 117.07
11052 43.7137 10671.90 10654.70 118.32
11053 43.7175 10549.50 10653.40 115.37
11054 43.7212 10823.90 10652.10 121.72
11055 43.7251 10386.50 10650.90 116.36
11056 43.7287 10685.30 10649.70 117.81
11057 43.7326 10668.80 10648.50 117.01
11058 43.7364 10546.20 10647.30 117.50
11059 43.7401 10272.70 10646.20 115.57
11060 43.7439 10587.40 10645.10 117.95
11061 43.7476 10462.80 10644.00 117.18
11062 43.7514 10586.90 10642.90 117.70
11063 43.7551 10486.60 10641.90 117.79
11064 43.7589 10562.90 10640.90 118.35
11065 43.7626 10474.70 10639.80 117.08
11066 43.7663 10693.50 10638.90 118.35
11067 43.7701 10522.40 10637.90 117.62
11068 43.7739 10684.20 10636.90 117.86
11069 43.7776 10420.50 10636.00 116.78
11070 43.7814 10424.00 10635.10 116.81
11071 43.7851 10460.30 10634.20 117.31
11072 43.7890 10853.60 10633.30 119.63
11073 43.7926 10376.80 10632.40 115.82
11074 43.7965 10620.80 10631.50 117.60
11075 43.8003 10522.50 10630.70 118.52
11076 43.8040 10606.70 10629.80 117.72
11077 43.8078 10690.80 10629.00 118.71
11078 43.8115 10746.00 10628.20 118.82
11079 43.8153 10483.40 10627.40 116.89
11080 43.8190 10554.50 10626.50 116.80
11081 43.8228 10355.60 10625.80 118.92
11082 43.8265 10579.20 10625.00 117.61
11083 43.8302 10507.80 10624.20 116.83
11084 43.8340 10627.60 10623.40 117.62
11085 43.8378 10528.90 10622.70 117.81
11086 43.8415 10610.80 10621.90 118.05
11087 43.8453 10591.90 10621.20 118.11
11088 43.8490 10726.10 10620.50 119.38
11089 43.8529 10435.70 10619.70 117.41
11090 43.8567 10795.00 10619.00 119.45
11091 43.8604 10511.20 10618.30 118.00
11092 43.8642 10766.70 10612.60 119.49
11093 43.8679 10402.20 10612.00 117.16
11094 43.8717 10786.60 10611.30 119.13
11095 43.8755 10548.10 10610.70 117.67
11096 43.8792 10493.00 10610.10 117.62
11097 43.8829 10524.30 10609.50 117.83
11098 43.8867 10547.20 10608.90 118.11
11099 43.8904 10580.30 10608.30 118.35
11100 43.8942 10664.80 10607.70 116.77
11101 43.8979 10443.50 10607.10 117.67
11102 43.9017 10843.00 10606.50 120.50
11103 43.9054 10683.30 10605.90 117.84
11104 43.9092 10702.90 10605.30 118.64
11105 43.9131 10678.10 10604.70 118.00
11106 43.9168 10636.50 10604.20 116.73
11107 43.9206 10705.60 10599.30 120.86
11108 43.9243 10870.80 10598.80 121.72
11109 43.9281 10660.90 10598.30 118.48
11110 43.9318 10643.70 10597.80 117.80
11111 43.9356 10469.00 10597.20 116.83
11112 43.9394 10618.30 10596.70 117.72
11113 43.9431 10556.10 10596.20 118.02
11114 43.9468 10668.80 10595.70 118.69
11115 43.9506 10474.30 10595.20 118.24
11116 43.9543 10714.40 10594.70 118.83
11117 43.9581 10459.40 10594.20 117.67
11118 43.9618 10709.60 10588.90 119.58
11119 43.9656 10558.70 10588.50 118.16
11120 43.9693 10474.50 10588.10 118.01
11121 43.9731 10596.50 10587.60 119.05
11122 43.9770 10555.90 10587.20 117.46
11123 43.9807 10572.70 10586.80 118.51
11124 43.9845 10964.40 10586.30 120.60
11125 43.9882 10438.20 10585.90 117.23
11126 43.9920 10762.60 10585.40 119.47
11127 43.9958 10572.40 10585.00 118.69
11128 43.9995 10842.00 10584.60 120.66
11129 44.0033 10467.50 10584.10 117.06
11130 44.0070 10745.20 10583.70 119.86
11131 44.0107 10457.80 10583.20 117.15
11132 44.0145 10796.30 10582.80 118.95
11133 44.0182 10360.20 10582.40 116.12
11134 44.0220 10874.70 10581.90 122.68
11135 44.0257 10450.80 10581.50 117.96
11136 44.0295 10741.10 10581.00 118.80
11137 44.0334 10512.40 10580.60 117.46
11138 44.0370 10868.00 10580.10 120.54
11139 44.0409 10648.40 10579.70 119.13
11140 44.0446 10507.40 10579.20 117.12
11141 44.0484 10644.20 10578.80 118.55
11142 44.0522 10549.20 10578.30 117.70
11143 44.0559 10741.20 10577.90 119.55
11144 44.0597 10701.50 10577.40 119.20
11145 44.0634 10433.30 10577.00 117.30
11146 44.0672 10704.70 10576.50 118.25
11147 44.0709 10607.90 10576.10 118.58
11148 44.0746 10780.20 10575.60 118.54
11149 44.0784 10513.80 10575.20 118.20
11150 44.0821 10446.40 10574.70 117.05
11151 44.0859 10451.00 10574.30 117.54
11152 44.0897 10788.20 10573.80 118.65
11153 44.0934 10370.10 10573.40 117.16
11154 44.0973 10613.10 10572.90 118.46
11155 44.1009 10492.30 10572.50 118.71
11156 44.1048 10595.70 10572.00 118.65
11157 44.1086 10711.50 10571.50 119.94
11158 44.1123 10610.80 10571.10 118.02
11159 44.1161 10362.50 10570.60 115.78
11160 44.1198 10689.40 10570.20 119.43
11161 44.1236 10439.50 10569.70 120.24
11162 44.1273 10616.40 10569.20 118.90
11163 44.1311 10571.90 10568.80 117.72
11164 44.1348 10563.70 10568.30 118.07
11165 44.1385 10711.00 10567.80 118.93
11166 44.1423 10784.60 10567.40 120.16
11167 44.1461 10359.10 10566.90 117.22
11168 44.1498 10636.00 10566.50 118.62
11169 44.1536 10633.80 10566.00 118.15
11170 44.1573 10647.50 10565.50 118.73
11171 44.1612 10585.30 10565.10 118.48
11172 44.1650 10568.20 10564.60 118.44
11173 44.1687 10350.70 10564.10 116.93
11174 44.1725 10496.90 10563.60 117.24
11175 44.1762 10392.60 10563.20 117.11
11176 44.1800 10632.10 10562.70 119.23
11177 44.1838 10440.50 10562.20 117.33
11178 44.1875 10546.10 10561.80 118.28
11179 44.1912 10485.90 10561.30 117.17
11180 44.1950 10463.80 10560.80 117.11
11181 44.1987 10451.00 10560.30 117.72
11182 44.2025 10943.20 10559.90 120.51
11183 44.2062 10551.20 10559.40 118.71
11184 44.2100 10646.70 10558.90 118.60
11185 44.2137 10439.60 10558.50 116.64
11186 44.2175 10503.00 10558.00 115.50
11187 44.2214 10585.30 10557.50 121.78
11188 44.2251 10711.50 10557.00 119.80
11189 44.2289 10516.80 10556.50 116.59
11190 44.2326 10287.50 10556.10 116.01
11191 44.2364 10475.60 10555.60 117.33
11192 44.2402 10692.70 10555.10 118.70
11193 44.2439 10663.20 10554.60 119.01
11194 44.2477 10684.30 10554.10 118.11
11195 44.2514 10288.80 10553.70 116.79
11196 44.2551 10682.80 10553.20 118.13
11197 44.2589 10356.30 10552.70 116.66
11198 44.2626 10650.10 10552.20 118.29
11199 44.2664 10487.50 10551.70 117.32
11200 44.2701 10731.50 10551.30 118.59
11201 44.2739 10304.70 10550.80 116.11
11202 44.2776 10738.30 10550.30 118.67
11203 44.2814 10704.00 10549.80 118.95
11204 44.2853 10647.00 10549.30 118.30
11205 44.2890 10313.20 10548.80 116.27
11206 44.2928 10460.70 10548.30 116.99
11207 44.2966 10337.50 10547.80 116.16
11208 44.3003 10729.20 10547.40 119.44
11209 44.3041 10432.20 10546.90 116.12
11210 44.3078 10648.10 10546.40 119.31
11211 44.3116 10547.40 10545.90 117.14
11212 44.3153 10445.40 10545.40 116.68
11213 44.3190 10542.10 10544.90 116.17
11214 44.3228 10699.10 10544.40 121.86
11215 44.3265 10760.40 10543.90 119.12
11216 44.3303 10719.00 10543.40 118.95
11217 44.3341 10531.10 10542.90 117.63
11218 44.3378 10557.00 10542.40 117.76
11219 44.3416 10421.00 10541.90 117.42
11220 44.3453 10751.10 10541.40 118.61
11221 44.3492 10515.10 10540.90 116.96
11222 44.3530 10698.30 10540.40 118.48
11223 44.3567 10723.80 10539.90 118.21
11224 44.3605 10714.90 10539.40 119.53
11225 44.3642 10381.00 10538.90 116.50
11226 44.3680 10584.90 10538.40 118.88
11227 44.3717 10487.80 10537.90 116.95
11228 44.3755 10479.10 10537.40 118.14
11229 44.3792 10444.00 10536.90 117.60
11230 44.3829 10781.00 10536.40 119.59
11231 44.3867 10627.80 10535.90 118.29
11232 44.3905 10563.10 10535.40 117.97
11233 44.3942 10479.70 10534.90 116.75
11234 44.3980 10774.30 10534.40 119.21
11235 44.4017 10452.80 10533.90 117.95
11236 44.4055 10684.80 10533.40 118.94
11237 44.4094 10387.20 10532.90 116.06
11238 44.4131 10518.90 10532.40 118.20
11239 44.4169 10415.80 10531.90 115.69
11240 44.4206 10808.80 10531.40 122.39
11241 44.4244 10574.20 10530.90 119.41
11242 44.4282 10894.90 10530.30 119.41
11243 44.4319 10442.50 10529.80 116.98
11244 44.4356 10711.60 10529.30 119.47
11245 44.4394 10418.10 10528.80 117.47
11246 44.4431 10674.10 10528.30 118.92
11247 44.4469 10481.70 10527.80 117.53
11248 44.4506 10775.80 10527.30 119.52
11249 44.4544 10438.60 10526.80 117.29
11250 44.4581 10798.30 10526.30 119.85
11251 44.4619 10566.90 10525.70 118.46
11252 44.4658 10731.50 10525.20 119.85
11253 44.4695 10691.90 10524.70 119.06
11254 44.4733 10693.20 10524.20 119.40
11255 44.4770 10546.10 10523.70 118.54
11256 44.4808 10647.30 10523.10 118.39
11257 44.4846 10634.00 10522.60 119.03
11258 44.4883 10867.00 10522.10 120.29
11259 44.4921 10741.50 10521.60 118.87
11260 44.4958 10775.90 10521.10 117.85
11261 44.4995 10535.00 10520.50 118.24
11262 44.5033 10771.50 10520.00 120.35
11263 44.5070 10600.90 10519.50 118.52
11264 44.5108 10939.10 10519.00 121.08
11265 44.5145 10786.60 10518.50 119.30
11266 44.5183 10876.90 10517.90 118.62
11267 44.5221 10862.90 10517.40 123.15
11268 44.5258 10879.60 10516.90 120.37
11269 44.5297 10686.20 10516.30 118.67
11270 44.5334 10786.70 10681.30 119.24
11271 44.5372 10500.30 10683.10 117.66
11272 44.5410 10772.30 10685.00 119.50
11273 44.5447 10592.30 10686.90 118.04
11274 44.5485 10764.40 10688.90 120.06
11275 44.5522 10800.80 10690.80 119.49
11276 44.5560 10906.00 10692.90 120.93
11277 44.5597 10665.40 10695.10 118.93
11278 44.5634 10880.80 10697.20 120.05
11279 44.5672 10458.40 10699.50 117.36
11280 44.5709 10967.00 10701.80 121.62
11281 44.5747 10720.30 10704.20 119.18
11282 44.5785 10776.20 10706.60 120.11
11283 44.5822 10677.60 10877.60 119.09
11284 44.5860 10779.50 10882.50 119.85
11285 44.5897 10469.50 10887.50 118.08
11286 44.5936 10933.90 10892.80 120.37
11287 44.5974 10607.70 10898.10 119.15
11288 44.6011 10972.80 10903.50 121.62
11289 44.6049 10629.70 10909.20 118.82
11290 44.6086 11069.20 10914.80 122.45
11291 44.6124 10929.50 11077.60 119.89
11292 44.6161 10942.60 11085.90 119.92
11293 44.6199 10639.50 11094.20 119.19
11294 44.6236 11107.90 11102.90 123.43
11295 44.6273 10780.20 11111.70 120.15
11296 44.6311 11011.30 11120.80 120.12
11297 44.6349 10809.50 11130.20 118.53
11298 44.6386 10850.70 11139.70 120.29
11299 44.6424 10856.20 11149.50 119.53
11300 44.6461 10883.10 11159.40 120.08
11301 44.6499 10780.70 11169.90 119.75
11302 44.6538 10941.10 11180.60 118.96
11303 44.6575 10793.90 11191.30 119.71
11304 44.6613 11047.10 11202.50 121.47
11305 44.6650 11001.00 11213.80 121.24
11306 44.6688 10994.30 11225.70 121.67
11307 44.6726 10808.60 11237.90 119.74
11308 44.6763 10985.60 11250.10 121.12
11309 44.6800 10750.00 11263.00 120.23
11310 44.6838 10961.40 11275.90 119.81
11311 44.6875 10863.00 11289.60 120.18
11312 44.6913 10888.40 11303.60 119.14
11313 44.6950 10731.60 11317.70 119.49
11314 44.6988 11022.50 11332.50 121.39
11315 44.7025 10869.90 11347.40 121.13
11316 44.7063 10898.80 11363.10 120.66
11317 44.7102 10993.20 11379.30 119.92
11318 44.7138 10981.40 11395.50 121.23
11319 44.7177 10852.50 11412.70 119.02
11320 44.7214 11366.60 11429.90 124.33
11321 44.7252 11188.10 11448.10 124.31
11322 44.7290 11329.80 11467.00 122.91
11323 44.7327 10960.60 11485.80 120.15
11324 44.7365 11264.30 11505.90 122.43
11325 44.7402 10994.40 11526.00 121.19
11326 44.7439 11175.10 11547.30 122.40
11327 44.7477 10951.70 11569.30 120.49
11328 44.7514 11481.10 11591.50 124.30
11329 44.7552 11278.60 11615.00 121.65
11330 44.7589 11307.70 11638.60 123.07
11331 44.7627 11368.00 11663.70 123.68
11332 44.7665 11463.00 11689.70 123.43
11333 44.7702 11204.80 11715.90 121.08
11334 44.7741 11367.40 11743.70 123.22
11335 44.7777 11304.70 11771.80 123.20
11336 44.7816 11310.50 11801.60 123.32
11337 44.7854 11337.50 11832.50 123.39
11338 44.7891 11431.60 11863.80 123.78
11339 44.7929 11393.50 11897.10 123.67
11340 44.7966 11665.50 11930.60 124.92
11341 44.8004 11645.10 11966.50 126.03
11342 44.8041 11623.50 12003.70 123.35
11343 44.8116 11604.60 12081.60 122.24
11344 44.8153 11575.10 12122.40 124.81
11345 44.8191 11679.20 12165.90 124.01
11346 44.8229 11627.30 12211.20 128.02
11347 44.8266 11939.80 12257.20 127.60
11348 44.8304 11701.10 12306.40 125.17
11349 44.8341 12079.50 12356.50 126.77
11350 44.8380 11703.40 12410.00 124.83
11351 44.8418 12097.30 12466.00 127.44
11352 44.8455 11747.80 12523.00 125.82
11353 44.8493 12241.00 12584.10 128.85
11354 44.8530 11985.20 12646.40 127.32
11355 44.8568 12304.10 12713.50 129.56
11356 44.8605 12267.10 12783.70 129.35
11357 44.8643 12279.90 12855.50 128.80
11358 44.8680 12129.20 12932.80 128.03
11359 44.8717 12710.40 13011.90 131.65
11360 44.8755 12184.30 13097.30 127.94
11361 44.8793 12672.40 13187.10 131.01
11362 44.8830 12645.00 13279.30 130.38
11363 44.8868 12664.00 13378.90 131.19
11364 44.8905 12768.00 13481.50 132.07
11365 44.8943 12759.10 13592.60 131.65
11366 44.8982 12711.60 13710.20 131.52
11367 44.9019 13403.90 13831.40 136.99
11368 44.9057 13045.70 13963.30 133.12
11369 44.9094 13285.80 14099.50 135.84
11370 44.9132 13466.30 14248.30 136.45
11371 44.9170 13498.00 14406.60 135.21
11372 44.9207 13608.20 14570.90 138.01
11373 44.9244 14170.40 14750.90 142.89
11374 44.9282 13871.00 14938.00 138.19
11375 44.9319 14284.50 15143.70 140.08
11376 44.9357 14355.00 15364.30 140.14
11377 44.9394 14604.20 15595.20 141.82
11378 44.9432 14401.50 15850.10 141.86
11379 44.9469 14962.90 16118.00 144.98
11380 44.9507 14857.40 16414.80 144.22
11381 44.9546 15471.40 16736.90 148.01
11382 44.9582 15278.90 17077.00 146.68
11383 44.9621 15994.50 17457.40 150.65
11384 44.9658 16169.00 17861.10 151.20
11385 44.9696 16762.60 18315.20 154.44
11386 44.9734 16741.10 18814.20 154.65
11387 44.9771 17444.80 19348.80 155.96
11388 44.9809 17772.10 19956.50 158.98
11389 44.9846 18676.90 20612.00 164.56
11390 44.9883 18878.70 21362.30 165.62
11391 44.9921 20554.30 22202.70 174.19
11392 44.9958 21112.30 23124.40 175.87
11393 44.9996 22950.70 24195.70 184.75
11394 45.0033 23959.80 25388.90 190.33
11395 45.0071 26116.80 26804.40 200.86
11396 45.0109 28276.80 28473.50 211.21
11397 45.0146 31318.40 30426.10 222.01
11398 45.0185 34073.20 32908.10 231.38
11399 45.0221 39571.20 35990.10 263.34
11400 45.0260 44483.70 40156.90 278.83
11401 45.0298 50821.40 45779.90 300.51
11402 45.0335 57646.90 53231.20 323.16
11403 45.0373 68843.50 63613.10 363.91
11404 45.0410 79017.80 77055.80 394.16
11405 45.0448 94741.30 95018.50 449.03
11406 45.0485 111128.00 117532.00 497.55
11407 45.0522 136662.00 143821.00 570.77
11408 45.0560 163098.00 174440.00 637.62
11409 45.0597 198905.00 206021.00 737.88
11410 45.0635 228927.00 236822.00 812.31
11411 45.0673 261632.00 261041.00 900.60
11412 45.0710 268630.00 273197.00 912.54
11413 45.0748 272977.00 271360.00 925.32
11414 45.0785 255010.00 257628.00 877.52
11415 45.0824 238926.00 236752.00 842.34
11416 45.0862 213460.00 215119.00 785.35
11417 45.0899 202022.00 197852.00 749.85
11418 45.0937 190602.00 187159.00 716.26
11419 45.0974 191224.00 185294.00 714.76
11420 45.1012 196491.00 192827.00 740.90
11421 45.1049 215773.00 209479.00 778.92
11422 45.1087 240622.00 233016.00 847.33
11423 45.1124 277691.00 261844.00 936.95
11424 45.1161 309654.00 290333.00 999.24
11425 45.1199 343666.00 314485.00 1094.68
11426 45.1237 357088.00 328781.00 1143.18
11427 45.1274 358191.00 332230.00 1124.19
11428 45.1312 340892.00 328434.00 1078.83
11429 45.1349 330819.00 322614.00 1054.03
11430 45.1387 318932.00 318366.00 1019.75
11431 45.1426 325846.00 317045.00 1048.57
11432 45.1463 329250.00 316789.00 1060.66
11433 45.1501 339158.00 313300.00 1085.01
11434 45.1538 328617.00 302083.00 1051.37
11435 45.1576 311675.00 280252.00 1017.47
11436 45.1614 271513.00 249738.00 920.17
11437 45.1651 230851.00 215925.00 821.05
11438 45.1688 186405.00 181168.00 701.32
11439 45.1726 151946.00 149926.00 612.21
11440 45.1763 120696.00 122069.00 525.17
11441 45.1801 99871.40 98990.50 463.21
11442 45.1838 80874.60 81068.00 404.11
11443 45.1876 68620.60 66829.50 360.96
11444 45.1913 57510.50 56377.80 324.38
11445 45.1951 49689.30 48385.90 295.48
11446 45.1988 42622.90 42613.60 269.57
11447 45.2026 38159.00 38160.70 253.26
11448 45.2065 33629.20 34759.80 232.74
11449 45.2102 30846.70 32143.20 222.29
11450 45.2140 27736.80 29960.30 207.13
11451 45.2177 25724.60 28184.10 196.06
11452 45.2215 24103.10 26630.60 194.21
11453 45.2253 22602.20 25285.60 186.76
11454 45.2290 21235.00 24139.60 176.66
11455 45.2327 20765.60 23101.50 173.21
11456 45.2365 19289.80 22202.10 167.58
11457 45.2402 19035.60 21377.70 165.85
11458 45.2440 18102.00 20638.20 161.55
11459 45.2477 17961.80 19989.80 160.82
11460 45.2515 16884.00 19386.90 155.10
11461 45.2552 16723.40 18854.30 154.44
11462 45.2590 16162.20 18355.90 152.00
11463 45.2629 16086.00 17901.60 151.36
11464 45.2665 15599.60 17495.90 148.02
11465 45.2704 15406.30 17113.60 146.42
11466 45.2741 15132.50 16770.40 145.66
11467 45.2779 14888.70 16445.20 144.42
11468 45.2817 14581.80 16144.70 141.74
11469 45.2854 14571.60 15873.60 141.90
11470 45.2892 14252.90 15614.80 140.96
11471 45.2929 14309.10 15380.20 140.78
11472 45.2966 13788.10 15155.90 137.16
11473 45.3004 13942.70 14946.30 140.36
11474 45.3041 13655.50 14755.60 137.12
11475 45.3079 13833.80 14571.90 136.82
11476 45.3116 13308.40 14404.20 135.50
11477 45.3154 13351.00 14242.30 134.61
11478 45.3192 13038.00 14090.20 131.73
11479 45.3229 13083.60 13950.50 137.70
11480 45.3268 12685.60 13815.30 132.53
11481 45.3304 13105.80 13690.80 131.82
11482 45.3343 12670.50 13570.00 131.22
11483 45.3381 12722.90 13455.80 131.66
11484 45.3456 12519.30 13247.50 130.99
11485 45.3493 12567.60 13152.60 130.21
11486 45.3531 12461.80 13059.90 129.90
11487 45.3568 12153.50 12971.80 127.81
11488 45.3605 12465.40 12890.10 130.67
11489 45.3643 12077.60 12810.10 128.58
11490 45.3680 12269.70 12735.90 129.57
11491 45.3718 11985.10 12663.10 127.00
11492 45.3755 12265.00 12595.50 129.12
11493 45.3793 12018.20 12529.00 127.93
11494 45.3831 11877.00 12465.50 126.60
11495 45.3868 11661.80 12406.30 125.30
11496 45.3907 11815.20 12348.00 126.39
11497 45.3943 11517.50 12293.70 124.65
11498 45.3982 11718.70 12240.10 125.08
11499 45.4020 11651.40 12188.80 126.57
11500 45.4057 11827.50 12140.70 125.86
11501 45.4095 11616.00 12093.30 124.81
11502 45.4132 11514.10 12048.90 125.06
11503 45.4170 11325.50 12005.10 122.86
11504 45.4207 11522.10 11962.90 123.32
11505 45.4244 11654.10 11923.30 127.23
11506 45.4282 11612.30 11884.20 125.96
11507 45.4319 11337.70 11847.50 123.31
11508 45.4357 11434.10 11811.10 123.85
11509 45.4395 11272.70 11776.00 123.04
11510 45.4432 11243.70 11743.00 122.55
11511 45.4470 11109.70 11710.20 122.45
11512 45.4507 11491.10 11679.50 123.83
11513 45.4546 11200.70 11648.90 122.77
11514 45.4584 11454.20 11619.40 124.71
11515 45.4621 10920.10 11591.50 121.24
11516 45.4659 11346.80 11563.80 123.90
11517 45.4696 11171.20 11537.70 122.68
11518 45.4734 11258.10 11511.80 123.70
11519 45.4771 10772.70 11486.60 119.86
11520 45.4809 11208.30 11462.90 122.95
11521 45.4846 11130.80 11439.30 121.74
11522 45.4883 11009.10 11417.00 121.67
11523 45.4921 10940.10 11394.70 121.21
11524 45.4958 11049.20 11373.70 121.52
11525 45.4996 10992.70 11352.70 121.03
11526 45.5034 11067.40 11332.40 122.10
11527 45.5071 10908.30 11313.10 119.58
11528 45.5109 10798.00 11293.90 120.40
11529 45.5146 10573.60 11275.70 118.72
11530 45.5185 10910.30 11257.50 120.21
11531 45.5223 10929.20 11239.80 122.14
11532 45.5260 11058.30 11223.00 123.77
11533 45.5298 10822.40 11206.30 119.94
11534 45.5335 10965.50 11190.40 120.20
11535 45.5373 10689.20 11174.50 119.67
11536 45.5410 10806.40 11159.00 120.05
11537 45.5448 10742.50 11144.30 119.84
11538 45.5485 11050.10 11129.60 121.68
11539 45.5522 10679.60 11115.60 119.54
11540 45.5560 10802.10 11101.60 120.68
11541 45.5598 10718.00 11088.00 119.35
11542 45.5635 10909.40 11075.00 120.74
11543 45.5673 10693.60 11062.00 119.93
11544 45.5710 10890.30 11049.60 121.08
11545 45.5748 10360.60 11037.20 117.29
11546 45.5785 10767.50 11025.50 120.03
11547 45.5824 10428.70 11013.60 118.15
11548 45.5862 10595.00 11002.10 118.79
11549 45.5899 10460.80 10991.10 117.08
11550 45.5937 10821.40 10980.10 118.54
11551 45.5974 10548.60 10969.50 118.37
11552 45.6012 10588.00 10959.00 117.55
11553 45.6049 10698.10 10948.60 120.18
11554 45.6087 10567.30 10938.80 119.40
11555 45.6124 10373.30 10928.90 118.06
11556 45.6161 10670.20 10757.60 119.24
11557 45.6199 10527.40 10750.30 116.33
11558 45.6237 10900.70 10743.20 122.43
11559 45.6274 10492.80 10736.50 118.06
11560 45.6312 10677.80 10729.70 118.97
11561 45.6349 10581.20 10723.20 117.84
11562 45.6387 10490.70 10716.60 117.28
11563 45.6424 10373.60 10710.40 117.27
11564 45.6463 10567.40 10704.10 118.84
11565 45.6501 10314.00 10698.00 117.14
11566 45.6538 10433.80 10692.10 117.81
11567 45.6576 10201.20 10686.20 115.75
11568 45.6613 10409.90 10680.50 117.69
11569 45.6651 10301.70 10507.10 116.75
11570 45.6688 10376.90 10503.90 117.53
11571 45.6726 10191.00 10500.70 116.00
11572 45.6763 10356.10 10497.60 116.84
11573 45.6800 10260.30 10494.50 116.32
11574 45.6838 10405.80 10491.50 117.62
11575 45.6876 10308.40 10488.40 117.37
11576 45.6913 10382.00 10485.50 117.47
11577 45.6951 10256.70 10482.60 115.80
11578 45.6988 10419.70 10325.20 117.29
11579 45.7026 10108.00 10324.50 116.08
11580 45.7063 10322.20 10323.80 116.93
11581 45.7102 10016.90 10323.10 115.71
11582 45.7140 10193.50 10322.40 116.03
11583 45.7177 10294.60 10321.70 115.80
11584 45.7215 10035.80 10321.00 113.86
11585 45.7252 10271.70 10320.30 119.68
11586 45.7290 10448.70 10319.60 118.32
11587 45.7327 10144.10 10318.90 115.63
11588 45.7365 10452.10 10318.20 117.73
11589 45.7402 10096.20 10317.50 114.85
11590 45.7439 10599.80 10316.80 118.57
11591 45.7477 10168.30 10316.10 116.13
11592 45.7515 10230.10 10315.60 116.30
11593 45.7552 10282.30 10314.90 114.94
11594 45.7590 10479.00 10314.20 117.46
11595 45.7627 10304.60 10313.50 116.99
11596 45.7665 10121.30 10312.80 115.65
11597 45.7702 10023.90 10312.10 114.80
11598 45.7741 10099.30 10311.40 115.83
11599 45.7779 10194.60 10310.70 116.49
11600 45.7816 10248.60 10310.00 117.24
11601 45.7854 10086.80 10309.20 115.58
11602 45.7891 10193.10 10308.60 116.39
11603 45.7929 10125.00 10307.80 115.24
11604 45.7966 10324.90 10307.10 117.29
11605 45.8004 10108.30 10306.40 115.21
11606 45.8041 10330.00 10305.70 117.20
11607 45.8078 9946.10 10305.00 113.70
11608 45.8116 10203.20 10305.00 116.40
11609 45.8153 9972.88 10304.30 115.67
11610 45.8191 10135.00 10303.60 114.69
11611 45.8229 10071.80 10302.90 115.76
11612 45.8266 10404.20 10302.20 120.69
11613 45.8304 10088.70 10301.50 115.57
11614 45.8341 10296.20 10300.80 116.40
11615 45.8380 9909.71 10300.10 114.30
11616 45.8418 10122.50 10299.40 116.08
11617 45.8455 10043.50 10298.70 115.59
11618 45.8493 9961.05 10298.50 114.85
11619 45.8530 9874.55 10297.80 114.22
11620 45.8568 10219.80 10297.10 116.48
11621 45.8605 10187.00 10296.50 116.25
11622 45.8643 10150.30 10295.80 116.25
11623 45.8680 9893.10 10295.20 114.75
11624 45.8717 10253.00 10294.50 117.03
11625 45.8755 9937.53 10293.80 113.56
11626 45.8792 10259.20 10293.10 116.67
11627 45.8830 9943.85 10292.40 115.28
11628 45.8868 10245.40 10291.70 116.63
11629 45.8905 10056.60 10291.00 115.91
11630 45.8943 10011.50 10290.30 113.91
11631 45.8980 10043.20 10289.70 114.75
11632 45.9019 10097.30 10289.00 116.42
11633 45.9055 10100.80 10288.30 115.93
11634 45.9094 10137.10 10287.60 116.49
11635 45.9132 9913.96 10286.90 115.32
11636 45.9169 10075.50 10286.20 115.78
11637 45.9207 9918.48 10285.50 113.11
11638 45.9244 10040.70 10284.90 118.75
11639 45.9282 10004.70 10284.20 115.18
11640 45.9319 10025.00 10283.50 115.06
11641 45.9356 9958.51 10282.80 114.06
11642 45.9394 10123.40 10282.10 116.10
11643 45.9431 9854.12 10281.40 114.53
11644 45.9469 10393.80 10280.70 117.50
11645 45.9506 10001.50 10280.10 115.74
11646 45.9544 10233.70 10279.40 117.86
11647 45.9582 9899.24 10278.70 114.12
11648 45.9619 10190.00 10278.00 117.67
11649 45.9658 9857.71 10277.30 114.90
11650 45.9695 10123.50 10276.70 116.41
11651 45.9733 9820.06 10276.00 114.84
11652 45.9770 10023.40 10275.30 115.57
11653 45.9808 9852.84 10274.70 114.47
11654 45.9846 10223.90 10274.00 117.24
11655 45.9883 10009.90 10273.30 115.69
11656 45.9921 10083.40 10272.60 116.55
11657 45.9958 9777.89 10272.00 113.03
11658 45.9995 10056.50 10271.30 115.96
11659 46.0033 9877.34 10270.60 115.08
11660 46.0070 10232.60 10270.00 116.64
11661 46.0108 10058.50 10269.30 116.56
11662 46.0145 10252.80 10268.70 117.23
11663 46.0183 9950.18 10268.00 114.88
11664 46.0220 10223.50 10267.40 116.43
11665 46.0258 9946.32 10266.70 117.88
11666 46.0297 10157.20 10266.00 117.13
11667 46.0334 10134.50 10265.40 116.08
11668 46.0372 10158.40 10264.80 116.56
11669 46.0409 9896.21 10264.10 114.69
11670 46.0447 10220.20 10263.50 116.00
11671 46.0484 9983.38 10262.80 115.65
11672 46.0522 10250.50 10262.20 116.69
11673 46.0560 10039.70 10261.60 114.25
11674 46.0597 10309.40 10261.00 116.97
11675 46.0634 10227.10 10260.30 116.03
11676 46.0672 10149.90 10259.70 115.48
11677 46.0709 10014.70 10259.10 115.13
11678 46.0747 10003.30 10258.50 114.92
11679 46.0784 10176.50 10257.90 115.97
11680 46.0822 10196.00 10257.30 116.10
11681 46.0859 9809.51 10256.70 113.73
11682 46.0897 10109.70 10256.10 115.77
11683 46.0934 9994.55 10255.50 114.47
11684 46.0973 10138.80 10255.00 115.19
11685 46.1011 9905.07 10254.40 113.51
11686 46.1048 10007.90 10253.80 115.59
11687 46.1086 9905.23 10253.30 114.02
11688 46.1123 10088.00 10252.80 116.13
11689 46.1161 9932.21 10252.20 114.35
11690 46.1198 10038.80 10251.70 114.22
11691 46.1236 9998.12 10251.20 115.69
11692 46.1273 10171.10 10250.70 117.97
11693 46.1311 9998.47 10250.20 114.67
11694 46.1348 10253.20 10249.70 116.17
11695 46.1385 9871.02 10249.30 114.24
11696 46.1423 9986.79 10248.80 114.91
11697 46.1460 9993.56 10248.40 114.24
11698 46.1498 10020.50 10248.00 115.20
11699 46.1536 10020.20 10247.60 114.90
11700 46.1573 9922.33 10247.20 114.49
11701 46.1612 10123.10 10246.80 115.62
11702 46.1648 10156.00 10246.50 115.93
11703 46.1687 9863.76 10246.20 114.03
11704 46.1724 10090.60 10246.00 113.68
11705 46.1762 9812.13 10245.70 112.19
11706 46.1800 10053.60 10245.50 115.03
11707 46.1837 10044.80 10245.30 114.66
11708 46.1875 10138.90 10245.20 115.19
11709 46.1912 9929.76 10245.10 114.28
11710 46.1950 9972.99 10245.10 114.34
11711 46.1987 9949.95 10245.10 113.97
11712 46.2024 10231.00 10245.20 115.04
11713 46.2062 9814.43 10245.40 113.40
11714 46.2099 10151.40 10245.60 115.08
11715 46.2137 9982.04 10246.00 114.77
11716 46.2174 10060.50 10246.40 113.27
11717 46.2212 9872.79 10247.00 112.42
11718 46.2249 10246.50 10247.70 117.94
11719 46.2287 9958.39 10248.50 114.85
11720 46.2326 10077.80 10249.60 114.10
11721 46.2363 9746.50 10250.80 112.44
11722 46.2401 10166.00 10252.30 115.55
11723 46.2438 9815.62 10254.20 113.14
11724 46.2476 9977.56 10256.60 114.54
11725 46.2513 9966.53 10259.60 114.18
11726 46.2551 9873.15 10263.50 114.23
11727 46.2589 9702.83 10268.80 113.04
11728 46.2626 9973.63 10275.80 113.29
11729 46.2663 9701.42 10285.30 112.83
11730 46.2701 9907.21 10297.80 114.01
11731 46.2738 9761.59 10314.50 113.32
11732 46.2775 10039.10 10335.30 115.11
11733 46.2813 9834.43 10361.40 113.45
11734 46.2851 10225.40 10392.20 115.35
11735 46.2888 9928.54 10425.70 114.45
11736 46.2926 9992.65 10461.30 113.57
11737 46.2963 9908.89 10493.80 113.83
11738 46.3002 10118.70 10519.50 114.92
11739 46.3038 9873.88 10532.60 114.32
11740 46.3077 10304.80 10532.00 116.86
11741 46.3115 9999.98 10520.20 114.86
11742 46.3152 10155.50 10504.10 116.07
11743 46.3190 9988.04 10489.40 114.52
11744 46.3227 10077.20 10482.20 113.96
11745 46.3265 9965.27 10486.60 117.00
11746 46.3302 10188.60 10506.10 116.11
11747 46.3340 10044.50 10544.60 114.58
11748 46.3377 10280.20 10603.80 115.67
11749 46.3414 10174.30 10681.70 116.36
11750 46.3452 10356.80 10781.00 117.03
11751 46.3489 10594.60 10892.40 117.46
11752 46.3527 10533.70 11013.50 118.46
11753 46.3564 10521.00 11124.70 117.90
11754 46.3602 10708.70 11213.70 119.55
11755 46.3639 10553.00 11259.10 117.94
11756 46.3677 10773.90 11257.30 119.04
11757 46.3716 10238.30 11217.20 116.60
11758 46.3753 10644.20 11162.00 118.54
11759 46.3791 10540.60 11109.60 118.62
11760 46.3828 10679.80 11076.30 117.54
11761 46.3866 10357.00 11067.40 116.08
11762 46.3903 10550.60 11083.20 118.70
11763 46.3941 10509.30 11117.30 118.29
11764 46.3979 10707.00 11155.30 119.46
11765 46.4016 10528.60 11177.60 118.88
11766 46.4053 10958.80 11169.20 120.02
11767 46.4090 10583.80 11125.30 118.69
11768 46.4128 10723.70 11051.10 119.60
11769 46.4165 10489.60 10962.80 118.16
11770 46.4203 10514.00 10866.20 115.18
11771 46.4241 10407.70 10769.60 119.66
11772 46.4278 10391.70 10679.20 118.50
11773 46.4316 10066.90 10593.20 114.57
11774 46.4353 10186.00 10519.20 116.17
11775 46.4392 9994.04 10454.60 114.90
11776 46.4428 10146.90 10403.10 115.10
11777 46.4467 9943.46 10360.60 114.78
11778 46.4504 9918.46 10328.00 113.90
11779 46.4542 9938.83 10301.90 114.20
11780 46.4580 9964.43 10281.60 114.99
11781 46.4617 9954.83 10266.10 114.52
11782 46.4655 9844.55 10253.60 114.15
11783 46.4692 9838.69 10243.80 114.24
11784 46.4729 9851.27 10235.60 113.69
11785 46.4767 9875.64 10228.80 114.62
11786 46.4804 9885.47 10222.90 114.01
11787 46.4841 9675.46 10217.90 112.81
11788 46.4879 9936.73 10213.30 113.90
11789 46.4917 9808.57 10209.10 112.51
11790 46.4954 9959.48 10205.50 113.74
11791 46.4992 9798.44 10202.10 112.42
11792 46.5029 9939.56 10199.00 114.68
11793 46.5067 9909.21 10196.10 113.22
11794 46.5104 9975.91 10193.50 115.40
11795 46.5143 9661.87 10190.90 113.45
11796 46.5181 9755.73 10188.60 113.07
11797 46.5218 9851.38 10186.40 112.09
11798 46.5256 10001.70 10184.30 117.53
11799 46.5293 9913.56 10182.30 116.17
11800 46.5331 9738.06 10180.40 113.11
11801 46.5368 9890.17 10178.60 113.26
11802 46.5406 9869.91 10176.80 113.29
11803 46.5443 9905.21 10175.20 113.69
11804 46.5480 9878.57 10173.60 113.27
11805 46.5518 9604.79 10172.00 111.46
11806 46.5555 9814.30 10170.60 112.87
11807 46.5593 9625.08 10169.10 111.74
11808 46.5630 9881.96 10167.70 113.68
11809 46.5668 9559.73 10166.30 111.40
11810 46.5705 9791.79 10165.00 112.08
11811 46.5743 9793.38 10163.70 113.44
11812 46.5780 9961.84 10162.50 114.44
11813 46.5818 9552.25 10161.20 111.26
11814 46.5857 9974.37 10160.00 114.14
11815 46.5894 9619.88 10158.80 111.97
11816 46.5932 9987.26 10157.60 114.28
11817 46.5969 9749.50 10156.50 112.19
11818 46.6007 9885.41 10155.30 113.22
11819 46.6044 9814.34 10154.20 114.59
11820 46.6082 9800.10 10153.10 113.50
11821 46.6119 9834.57 10152.10 113.95
11822 46.6157 9861.85 10151.00 112.90
11823 46.6194 9575.40 10149.90 110.91
11824 46.6231 9986.39 10148.90 114.96
11825 46.6269 9973.13 10147.80 116.43
11826 46.6306 9877.76 10146.80 113.91
11827 46.6344 9520.56 10145.80 110.45
11828 46.6381 9766.57 10144.80 112.32
11829 46.6419 9681.71 10143.80 111.51
11830 46.6456 9934.86 10142.90 113.97
11831 46.6494 9599.23 10141.90 111.74
11832 46.6533 9905.37 10140.90 114.02
11833 46.6570 9511.65 10139.90 111.13
11834 46.6608 9766.79 10139.00 113.08
11835 46.6645 9712.51 10138.00 112.74
11836 46.6683 9657.82 10137.10 111.87
11837 46.6720 9733.28 10136.20 112.92
11838 46.6758 9783.24 10135.20 112.51
11839 46.6795 9785.80 10134.30 111.55
11840 46.6833 9748.25 10133.40 112.57
11841 46.6870 9819.09 10132.40 113.71
11842 46.6908 9925.62 10131.50 114.30
11843 46.6945 9790.52 10130.60 112.30
11844 46.6982 9739.09 10129.70 112.60
11845 46.7020 9561.94 10128.80 109.75
11846 46.7057 9839.13 10127.90 114.08
11847 46.7095 9734.65 10127.00 112.81
11848 46.7132 9914.02 10126.10 113.82
11849 46.7170 9597.29 10125.20 112.30
11850 46.7207 9802.29 10124.30 111.66
11851 46.7245 9660.44 10123.40 112.02
11852 46.7284 9917.00 10122.60 115.62
11853 46.7321 9682.33 10121.70 112.32
11854 46.7359 9702.89 10120.80 111.99
11855 46.7396 9819.41 10119.90 113.39
11856 46.7434 9698.43 10119.00 112.32
11857 46.7471 9642.42 10118.20 112.60
11858 46.7509 10050.30 10117.30 115.04
11859 46.7546 9718.77 10116.40 112.82
11860 46.7584 10034.00 10115.60 114.38
11861 46.7621 9773.33 10114.70 112.10
11862 46.7659 9890.01 10113.80 113.76
11863 46.7696 9937.93 10113.00 114.72
11864 46.7733 9861.70 10112.10 113.76
11865 46.7771 9692.01 10111.20 112.45
11866 46.7808 9842.83 10110.40 113.04
11867 46.7846 9797.23 10109.50 113.49
11868 46.7883 9708.65 10108.70 111.46
11869 46.7921 9652.48 10107.80 111.60
11870 46.7958 9810.24 10107.00 113.50
11871 46.7996 9769.10 10106.10 113.33
11872 46.8033 9792.19 10105.30 113.63
11873 46.8072 9633.89 10104.40 112.51
11874 46.8110 9869.47 10103.60 113.78
11875 46.8147 9519.85 10102.70 111.42
11876 46.8185 9792.32 10101.90 112.36
11877 46.8222 9638.27 10101.00 110.38
11878 46.8260 9889.05 10100.20 114.40
11879 46.8297 9677.31 10099.30 111.79
11880 46.8335 9835.95 10098.50 113.68
11881 46.8372 9682.15 10097.60 111.96
11882 46.8410 9687.39 10096.80 112.32
11883 46.8447 9529.84 10095.90 111.78
11884 46.8484 9656.56 10095.10 113.14
11885 46.8522 9743.54 10094.30 113.20
11886 46.8559 9728.36 10093.40 112.26
11887 46.8597 9640.90 10092.40 112.48
11888 46.8634 9871.50 10091.60 113.66
11889 46.8672 9761.84 10090.70 112.29
11890 46.8709 9802.67 10089.90 113.71
11891 46.8747 9620.75 10089.00 112.53
11892 46.8784 9677.28 10088.20 112.95
11893 46.8823 9511.45 10087.40 111.50
11894 46.8859 9889.90 10086.50 114.15
11895 46.8898 9458.08 10085.70 111.45
11896 46.8936 9812.96 10084.90 114.07
11897 46.8973 9541.67 10084.00 111.79
11898 46.9011 9587.06 10083.20 111.19
11899 46.9048 9611.89 10082.40 113.20
11900 46.9086 9752.98 10081.50 112.99
11901 46.9123 9693.21 10080.70 113.03
11902 46.9160 9696.15 10079.80 112.66
11903 46.9198 9526.41 10078.40 110.66
11904 46.9235 9819.01 10077.50 113.47
11905 46.9272 9661.54 10076.70 114.23
11906 46.9310 9894.53 10075.90 114.30
11907 46.9347 9589.51 10075.10 110.85
11908 46.9385 9911.96 10074.20 113.56
11909 46.9423 9671.02 10073.40 111.71
11910 46.9460 9885.38 10072.60 114.09
11911 46.9498 9571.80 10071.80 111.79
11912 46.9535 9925.15 10070.90 114.48
11913 46.9574 9372.56 10070.10 110.18
11914 46.9610 9699.38 10068.80 112.71
11915 46.9649 9529.48 10067.90 111.33
11916 46.9686 9881.01 10067.10 113.57
11917 46.9724 9751.85 10066.30 112.93
11918 46.9761 9812.93 10065.50 113.81
11919 46.9799 9625.11 10064.70 111.96
11920 46.9836 9669.02 10063.70 112.28
11921 46.9874 9633.75 10062.90 112.27
11922 46.9911 9573.82 10062.10 111.04
11923 46.9929 9729.21 10061.70 112.18
11924 46.9967 9832.61 10060.90 114.59
11925 47.0004 9805.95 10060.10 114.53
11926 47.0042 9663.74 10059.20 112.59
11927 47.0079 9572.37 10058.40 110.42
11928 47.0117 10041.80 10057.60 117.92
11929 47.0154 9625.94 10056.80 114.39
11930 47.0191 9708.20 10056.00 113.04
11931 47.0229 9679.76 10055.10 112.02
11932 47.0266 9733.46 10054.30 112.53
11933 47.0304 9714.42 10053.50 112.58
11934 47.0341 9875.65 10052.70 113.37
11935 47.0379 9540.55 10051.90 111.16
11936 47.0416 9688.83 10051.00 112.18
11937 47.0454 9409.17 10050.20 110.44
11938 47.0491 9692.57 10049.40 112.57
11939 47.0530 9706.64 10048.60 112.49
11940 47.0568 9772.24 10047.70 112.07
11941 47.0605 9700.21 10046.90 112.96
11942 47.0643 9965.86 10046.10 114.59
11943 47.0680 9588.31 10045.30 111.62
11944 47.0718 9826.69 10044.40 113.32
11945 47.0755 9448.87 10043.60 110.97
11946 47.0793 9784.44 10042.80 113.09
11947 47.0830 9698.83 10042.00 111.99
11948 47.0868 9685.92 10041.10 112.05
11949 47.0905 9749.88 10040.30 114.30
11950 47.0942 9703.91 10039.50 113.00
11951 47.0980 9557.91 10038.70 112.25
11952 47.1017 9772.87 10037.80 112.45
11953 47.1055 9764.50 10037.00 112.26
11954 47.1092 9873.93 10036.20 114.36
11955 47.1130 9608.39 10035.40 114.14
11956 47.1167 9856.40 10034.50 113.90
11957 47.1205 9719.07 10033.70 111.86
11958 47.1242 9898.20 10032.90 113.29
11959 47.1281 9572.03 10032.10 110.92
11960 47.1319 9608.75 10031.20 111.97
11961 47.1356 9799.40 10030.40 113.17
11962 47.1394 9885.15 10029.60 114.01
11963 47.1431 9657.54 10028.80 112.21
11964 47.1469 9879.79 10027.90 113.94
11965 47.1506 9607.45 10027.10 112.18
11966 47.1544 9679.21 10026.30 112.14
11967 47.1581 9646.27 10025.40 112.47
11968 47.1618 9725.57 10024.60 112.26
11969 47.1656 9468.30 10023.80 109.62
11970 47.1693 9680.11 10022.90 112.25
11971 47.1731 9622.85 10022.10 112.55
11972 47.1768 9760.27 10021.30 113.35
11973 47.1806 9601.91 10020.40 111.20
11974 47.1843 9636.82 10019.60 112.05
11975 47.1881 9789.48 10018.80 111.33
11976 47.1918 9824.42 10018.00 114.11
11977 47.1956 9573.65 10017.10 111.88
11978 47.1995 9831.01 10016.30 113.40
11979 47.2032 9767.96 10015.50 113.55
11980 47.2070 9559.85 10014.60 110.22
11981 47.2107 9637.92 10013.80 112.00
11982 47.2145 9790.34 10013.00 114.92
11983 47.2174 9558.59 10012.30 109.67
11984 47.2212 9805.15 10011.50 111.16
11985 47.2249 9647.03 10010.60 113.12
11986 47.2287 9875.99 10009.80 113.24
11987 47.2324 9640.60 10009.00 111.37
11988 47.2363 9903.31 10008.10 112.68
11989 47.2399 9632.86 10007.30 111.35
11990 47.2438 9835.81 10006.50 112.16
11991 47.2475 9657.38 10005.60 111.62
11992 47.2513 9776.47 10004.80 112.50
11993 47.2551 9596.42 10004.00 111.10
11994 47.2588 9709.98 10003.10 111.86
11995 47.2626 9675.71 10002.30 112.00
11996 47.2663 9821.89 10001.50 112.53
11997 47.2701 9667.25 10000.60 111.56
11998 47.2738 9765.11 9999.81 112.26
11999 47.2775 9523.05 9998.96 110.71
12000 47.2812 9722.88 9998.14 112.33
12001 47.2850 9535.69 9997.29 110.24
12002 47.2887 9743.04 9996.47 111.93
12003 47.2925 9576.33 9995.63 110.70
12004 47.2963 9770.78 9994.78 112.33
12005 47.3000 9457.08 9993.96 109.84
12006 47.3038 9779.15 9993.11 112.65
12007 47.3075 9656.46 9992.29 111.33
12008 47.3114 9683.06 9991.44 111.53
12009 47.3150 9652.81 9990.62 111.77
12010 47.3189 9794.43 9989.77 112.14
12011 47.3226 9783.32 9988.95 112.31
12012 47.3264 9862.53 9988.10 114.54
12013 47.3301 9616.38 9987.28 111.12
12014 47.3339 9869.56 9986.43 113.01
12015 47.3376 9693.24 9985.60 111.69
12016 47.3414 9828.76 9984.75 112.27
12017 47.3451 9667.93 9983.91 111.92
12018 47.3489 9748.52 9983.08 111.76
12019 47.3526 9661.40 9982.23 111.60
12020 47.3563 9851.65 9981.41 112.87
12021 47.3601 9730.02 9980.56 111.12
12022 47.3638 9790.35 9979.73 112.39
12023 47.3676 9520.29 9978.89 111.09
12024 47.3713 9856.67 9978.06 113.04
12025 47.3751 9604.52 9977.21 111.58
12026 47.3788 9828.24 9976.38 113.26
12027 47.3826 9647.45 9975.53 110.79
12028 47.3863 9911.10 9974.71 113.91
12029 47.3901 9594.45 9973.86 111.21
12030 47.3940 9742.59 9973.01 112.24
12031 47.3977 9708.59 9972.18 111.90
12032 47.4015 9624.88 9971.33 111.87
12033 47.4052 9612.04 9970.50 111.56
12034 47.4090 9761.19 9969.65 113.08
12035 47.4127 9510.28 9968.83 110.98
12036 47.4165 9727.08 9967.97 112.08
12037 47.4202 9495.44 9967.15 109.75
12038 47.4240 9968.21 9966.30 114.93
12039 47.4277 9677.82 9965.47 112.98
12040 47.4314 9701.57 9964.62 112.06
12041 47.4352 9694.11 9963.77 111.91
12042 47.4389 9484.64 9962.94 110.10
12043 47.4427 9502.74 9962.09 110.79
12044 47.4464 9902.14 9961.26 113.28
12045 47.4502 9558.07 9960.41 111.34
12046 47.4539 9632.99 9959.58 111.41
12047 47.4577 9611.85 9958.72 111.28
12048 47.4614 9713.10 9957.89 112.24
12049 47.4652 9519.04 9957.04 111.25
12050 47.4689 9771.79 9956.21 113.07
12051 47.4728 9517.04 9955.36 111.63
12052 47.4766 9828.42 9954.51 112.96
12053 47.4803 9723.77 9953.68 113.11
12054 47.4841 9787.47 9952.83 112.10
12055 47.4878 9662.28 9951.99 111.90
12056 47.4916 9709.44 9951.14 111.91
12057 47.4953 9724.51 9950.31 112.29
12058 47.4991 9643.75 9949.46 111.35
12059 47.5028 9506.24 9948.63 110.67
12060 47.5065 9798.04 9947.77 112.45
12061 47.5103 9733.61 9946.92 112.77
12062 47.5140 9855.06 9946.09 114.13
12063 47.5178 9641.48 9945.23 111.89
12064 47.5215 9722.00 9944.40 111.21
12065 47.5253 9619.78 9943.55 113.27
12066 47.5290 9630.72 9942.72 112.05
12067 47.5328 9624.38 9941.86 111.85
12068 47.5365 9794.95 9941.03 112.70
12069 47.5404 9602.09 9940.18 111.38
12070 47.5440 9775.60 9939.34 112.76
12071 47.5479 9602.50 9938.49 111.07
12072 47.5517 9736.65 9937.64 112.30
12073 47.5554 9527.72 9936.80 111.44
12074 47.5592 9840.04 9935.95 113.40
12075 47.5629 9495.24 9935.12 110.29
12076 47.5667 9781.56 9934.26 112.81
12077 47.5704 9676.27 9933.43 112.52
12078 47.5742 9704.59 9932.57 112.23
12079 47.5779 9438.89 9931.74 110.84
12080 47.5816 9762.39 9930.88 113.05
12081 47.5854 9478.81 9930.03 110.81
12082 47.5891 9746.82 9929.19 112.81
12083 47.5929 9783.24 9928.34 111.34
12084 47.5966 9693.85 9927.51 112.33
12085 47.6004 9533.73 9926.65 110.62
12086 47.6041 9857.85 9925.82 114.13
12087 47.6079 9557.79 9924.96 110.52
12088 47.6116 9809.33 9924.13 113.28
12089 47.6155 9715.75 9923.27 112.64
12090 47.6193 9529.07 9922.41 110.72
12091 47.6230 9633.36 9921.58 111.31
12092 47.6268 9682.44 9920.72 114.50
12093 47.6305 9479.51 9919.89 111.61
12094 47.6343 9860.14 9919.03 112.68
12095 47.6380 9563.27 9918.20 110.74
12096 47.6418 9666.79 9917.34 111.71
12097 47.6455 9400.62 9916.50 109.99
12098 47.6493 9721.60 9915.65 112.32
12099 47.6530 9499.26 9914.79 110.81
12100 47.6567 9696.30 9913.96 112.28
12101 47.6605 9511.07 9913.10 111.03
12102 47.6642 9625.83 9912.26 112.22
12103 47.6680 9453.06 9911.41 110.95
12104 47.6717 9812.86 9910.57 112.84
12105 47.6755 9434.55 9909.71 110.92
12106 47.6792 9585.46 9908.88 111.06
12107 47.6830 9687.77 9908.02 111.50
12108 47.6869 9694.26 9907.16 111.62
12109 47.6906 9469.76 9906.33 110.28
12110 47.6944 9770.25 9905.47 111.54
12111 47.6981 9505.04 9904.63 110.14
12112 47.7019 9642.72 9903.78 111.21
12113 47.7056 9564.76 9902.94 111.27
12114 47.7094 9655.25 9902.08 110.74
12115 47.7131 9658.13 9901.25 111.57
12116 47.7169 9677.77 9900.39 111.64
12117 47.7206 9521.22 9899.53 109.32
12118 47.7243 9657.64 9898.69 111.76
12119 47.7281 9465.91 9897.83 111.36
12120 47.7318 9772.36 9897.00 112.22
12121 47.7356 9579.74 9896.14 110.73
12122 47.7393 9750.37 9895.30 111.92
12123 47.7431 9607.98 9917.88 111.14
12124 47.7468 9758.67 9917.35 112.33
12125 47.7506 9602.21 9916.81 111.01
12126 47.7545 9823.37 9916.28 112.14
12127 47.7581 9572.07 9915.76 111.50
12128 47.7620 9754.42 9915.24 111.73
12129 47.7657 9568.84 9914.74 110.62
12130 47.7695 9593.08 9914.23 110.82
12131 47.7732 9806.39 9913.75 112.95
12132 47.7770 9474.05 9913.25 110.56
12133 47.7808 9414.96 9912.77 109.81
12134 47.7845 9668.98 9912.30 111.63
12135 47.7882 9351.63 9911.83 109.52
12136 47.7920 9610.37 9911.38 111.14
12137 47.7957 9716.53 9910.93 111.93
12138 47.7994 9749.61 9910.50 111.64
12139 47.8032 9435.17 9910.06 110.22
12140 47.8070 9670.22 9909.64 112.10
12141 47.8107 9599.22 9909.23 111.09
12142 47.8145 9602.91 9908.83 111.51
12143 47.8182 9355.75 9908.44 109.68
12144 47.8220 9767.25 9908.06 111.26
12145 47.8257 9571.62 9907.69 112.41
12146 47.8296 9640.79 9907.33 112.39
12147 47.8332 9355.48 9906.99 109.24
12148 47.8371 9580.13 9906.65 110.86
12149 47.8409 9594.58 9906.32 111.42
12150 47.8446 9766.36 9906.01 112.98
12151 47.8484 9432.69 9905.71 110.10
12152 47.8521 9631.33 9905.43 111.23
12153 47.8559 9613.69 9905.15 111.38
12154 47.8596 9717.34 9904.90 112.31
12155 47.8633 9439.54 9904.66 110.30
12156 47.8671 9839.49 9904.42 112.89
12157 47.8708 9461.51 9904.22 110.18
12158 47.8746 9736.97 9904.02 112.36
12159 47.8783 9466.90 9903.84 110.33
12160 47.8821 9676.01 9903.68 111.73
12161 47.8858 9350.90 9903.54 110.02
12162 47.8896 9775.21 9903.41 112.55
12163 47.8933 9504.02 9903.30 111.08
12164 47.8971 9707.39 9946.94 111.72
12165 47.9010 9635.07 9947.46 110.98
12166 47.9047 9581.39 9947.99 112.24
12167 47.9085 9681.46 9948.57 111.45
12168 47.9122 9785.20 9949.17 113.29
12169 47.9160 9637.20 9949.82 111.48
12170 47.9197 9539.70 9950.50 110.84
12171 47.9235 9591.80 9951.23 110.59
12172 47.9272 9805.08 9952.00 114.60
12173 47.9310 9505.65 9952.79 110.84
12174 47.9347 9948.98 9953.64 113.38
12175 47.9384 9497.00 9954.52 110.99
12176 47.9422 9752.46 9955.47 112.09
12177 47.9459 9488.28 9956.44 110.91
12178 47.9497 9819.71 9957.48 112.66
12179 47.9535 9744.36 9958.58 112.47
12180 47.9572 9759.22 9959.70 112.57
12181 47.9610 9605.73 9960.91 111.75
12182 47.9647 9660.89 9962.14 111.70
12183 47.9686 9656.29 9963.46 111.46
12184 47.9723 9729.13 9964.82 112.58
12185 47.9761 9615.31 9966.27 111.86
12186 47.9799 9806.44 9967.79 112.72
12187 47.9836 9617.14 9969.34 111.39
12188 47.9874 9725.81 9971.00 111.57
12189 47.9911 9609.13 9972.69 111.71
12190 47.9949 10002.50 9974.52 113.85
12191 47.9986 9733.37 9976.37 112.36
12192 48.0023 9737.84 9978.36 112.47
12193 48.0061 9811.68 9980.44 113.34
12194 48.0098 9720.67 9982.55 112.08
12195 48.0136 9576.71 9984.83 111.84
12196 48.0173 9840.92 9987.14 112.64
12197 48.0211 9713.00 9989.62 111.07
12198 48.0248 9653.17 9992.15 111.86
12199 48.0286 9514.73 9994.86 111.71
12200 48.0325 9749.42 9997.69 112.55
12201 48.0362 9759.75 10000.60 112.41
12202 48.0400 9957.75 10003.70 113.77
12203 48.0437 9650.96 10006.80 112.19
12204 48.0475 9983.31 10010.20 114.13
12205 48.0512 9621.02 10013.70 112.31
12206 48.0550 9936.10 10017.40 114.01
12207 48.0588 9899.03 10021.30 114.29
12208 48.0625 9953.65 10025.30 113.83
12209 48.0662 9914.31 10029.50 114.08
12210 48.0700 9921.81 10033.90 114.12
12211 48.0737 9699.06 10038.60 112.84
12212 48.0774 9778.38 10043.40 113.23
12213 48.0812 9735.10 10048.50 113.11
12214 48.0850 9925.68 10053.90 113.95
12215 48.0887 9780.34 10059.40 112.12
12216 48.0925 9849.72 10065.40 114.07
12217 48.0962 9939.19 10071.50 114.01
12218 48.1001 9989.77 10078.10 114.01
12219 48.1037 9710.45 10084.90 112.31
12220 48.1076 9931.62 10092.20 114.00
12221 48.1114 9718.90 10099.80 112.54
12222 48.1151 9676.90 10107.70 111.69
12223 48.1189 9993.94 10116.30 114.21
12224 48.1226 9832.42 10125.10 111.35
12225 48.1264 9950.31 10134.60 115.96
12226 48.1301 9984.80 10144.40 114.86
12227 48.1339 9847.53 10155.10 112.08
12228 48.1376 10080.30 10166.40 113.99
12229 48.1413 9876.01 10178.10 112.82
12230 48.1451 9762.86 10190.80 112.56
12231 48.1488 9879.94 10204.00 113.18
12232 48.1526 10120.00 10218.40 114.70
12233 48.1563 9972.21 10233.30 114.41
12234 48.1601 10085.70 10249.60 115.27
12235 48.1640 9813.40 10267.10 112.67
12236 48.1676 10140.60 10285.30 115.13
12237 48.1715 9967.48 10305.30 113.98
12238 48.1752 10113.30 10326.20 114.56
12239 48.1790 10058.80 10349.20 114.46
12240 48.1828 10380.30 10374.00 116.27
12241 48.1865 10014.10 10400.10 113.85
12242 48.1903 10466.60 10429.10 117.32
12243 48.1940 10231.40 10459.60 116.22
12244 48.1978 10478.20 10493.60 117.22
12245 48.2015 10295.10 10529.60 116.21
12246 48.2052 10431.60 10569.90 117.87
12247 48.2090 10260.40 10614.10 116.27
12248 48.2127 10756.30 10661.20 119.20
12249 48.2165 10578.80 10714.50 117.77
12250 48.2202 10934.40 10771.70 119.15
12251 48.2240 10711.40 10836.70 118.86
12252 48.2277 10736.70 10907.20 119.75
12253 48.2315 10712.20 10987.90 119.14
12254 48.2354 11228.00 11078.60 121.94
12255 48.2391 11234.80 11178.10 121.75
12256 48.2429 11470.00 11294.20 123.39
12257 48.2466 11657.10 11423.50 124.09
12258 48.2504 11922.90 11577.30 126.08
12259 48.2541 12194.30 11753.30 128.33
12260 48.2579 12965.60 11970.60 132.11
12261 48.2617 13026.20 12238.80 132.46
12262 48.2654 14075.30 12569.60 139.24
12263 48.2691 14428.90 13012.60 140.82
12264 48.2729 15303.70 13586.70 145.65
12265 48.2766 15878.70 14382.70 148.72
12266 48.2804 17241.10 15460.50 156.57
12267 48.2841 18184.70 16863.70 160.91
12268 48.2879 19974.70 18748.10 169.76
12269 48.2916 21722.30 21085.40 178.40
12270 48.2954 24465.70 24031.90 192.11
12271 48.2991 26838.00 27418.70 203.01
12272 48.3030 31202.20 31313.90 219.65
12273 48.3068 34364.80 35404.10 236.66
12274 48.3105 38033.40 39177.40 248.86
12275 48.3143 39579.10 42259.20 255.78
12276 48.3180 40849.40 43858.80 261.34
12277 48.3218 38958.20 43641.40 251.51
12278 48.3256 37533.70 41610.30 247.44
12279 48.3293 34015.80 38394.20 235.98
12280 48.3330 30807.80 34467.60 219.69
12281 48.3368 26950.30 30562.50 201.65
12282 48.3405 24282.30 26816.40 190.74
12283 48.3442 21724.10 23619.80 178.71
12284 48.3480 20143.70 20878.00 170.58
12285 48.3518 18248.70 18693.20 162.05
12286 48.3555 17170.70 17052.20 156.67
12287 48.3593 16101.50 15796.60 149.93
12288 48.3630 15354.40 14908.80 146.76
12289 48.3669 14594.60 14262.80 141.90
12290 48.3705 14430.20 13825.00 141.00
12291 48.3744 13438.80 13518.90 134.88
12292 48.3782 13628.80 13317.80 135.60
12293 48.3819 13117.90 13197.00 133.62
12294 48.3857 13174.90 13133.00 133.36
12295 48.3894 12851.30 13119.30 132.26
12296 48.3932 12989.40 13149.90 132.07
12297 48.3969 12980.70 13224.10 132.55
12298 48.4007 12920.40 13339.40 132.51
12299 48.4044 13149.90 13506.60 134.35
12300 48.4081 13168.40 13724.50 133.45
12301 48.4119 13550.10 14019.00 136.45
12302 48.4157 14015.80 14406.90 138.28
12303 48.4194 14572.10 14908.70 141.63
12304 48.4232 15444.80 15602.10 145.14
12305 48.4269 16395.90 16524.10 154.64
12306 48.4308 18052.70 17823.00 160.96
12307 48.4344 19448.20 19556.80 167.15
12308 48.4383 21794.50 21966.30 179.02
12309 48.4421 23626.20 25167.30 188.55
12310 48.4458 27282.00 29185.00 205.00
12311 48.4496 31557.60 34317.50 223.74
12312 48.4533 37194.40 40285.40 247.09
12313 48.4571 43819.40 47271.40 272.32
12314 48.4608 53024.50 54760.30 308.49
12315 48.4646 61250.10 61901.40 335.11
12316 48.4683 71020.60 68099.80 369.28
12317 48.4720 76600.50 71860.10 386.40
12318 48.4758 80404.70 72426.80 401.97
12319 48.4795 75858.50 69614.20 386.39
12320 48.4833 69044.80 64017.70 360.89
12321 48.4871 59050.40 56891.40 328.65
12322 48.4908 50417.10 49526.50 297.99
12323 48.4947 41632.70 42290.40 265.43
12324 48.4983 35437.70 35990.70 239.51
12325 48.5022 29853.50 30485.80 216.16
12326 48.5060 26643.70 26013.30 202.76
12327 48.5097 23038.30 22582.40 185.94
12328 48.5135 20937.70 19888.90 174.95
12329 48.5172 18852.70 17926.80 164.93
12330 48.5210 17339.60 16434.10 154.95
12331 48.5247 16136.50 15359.00 152.37
12332 48.5285 15106.20 14533.90 146.40
12333 48.5322 14409.60 13905.30 141.59
12334 48.5359 13443.80 13425.20 135.46
12335 48.5397 13153.00 13026.80 134.41
12336 48.5434 12598.60 12705.50 129.99
12337 48.5472 12263.10 12425.90 128.31
12338 48.5510 12121.90 12186.00 127.90
12339 48.5547 11454.10 11982.70 124.06
12340 48.5586 11661.90 11799.20 124.17
12341 48.5622 11196.50 11641.30 122.24
12342 48.5661 11301.50 11497.00 122.35
12343 48.5698 11024.50 11371.60 121.82
12344 48.5736 10961.40 11255.90 120.95
12345 48.5774 10746.30 11151.90 119.17
12346 48.5811 10949.10 11060.30 120.69
12347 48.5849 10689.00 10975.00 119.07
12348 48.5886 10612.00 10899.40 117.07
12349 48.5924 10221.80 10828.60 116.73
12350 48.5961 10441.80 10763.80 117.70
12351 48.5998 10195.40 10706.00 116.30
12352 48.6036 10274.80 10651.20 116.40
12353 48.6073 10143.40 10602.10 116.16
12354 48.6111 10195.60 10555.50 115.90
12355 48.6149 9969.98 10512.30 114.38
12356 48.6186 10161.00 10473.20 116.32
12357 48.6225 10105.10 10435.90 113.68
12358 48.6261 10167.10 10402.10 117.05
12359 48.6300 9883.17 10369.60 114.94
12360 48.6338 10142.20 10339.20 115.82
12361 48.6375 9876.88 10311.50 114.10
12362 48.6413 10161.70 10284.80 114.75
12363 48.6450 10139.90 10260.40 114.97
12364 48.6488 10020.60 10236.80 113.97
12365 48.6525 9800.59 10215.10 112.76
12366 48.6562 10095.80 10194.00 114.69
12367 48.6600 9551.28 10174.20 110.84
12368 48.6637 9775.00 10155.90 112.62
12369 48.6675 9824.99 10138.10 112.19
12370 48.6712 9780.03 10121.60 112.45
12371 48.6750 9783.02 10105.50 112.14
12372 48.6788 10055.40 10090.30 114.04
12373 48.6825 9793.52 10076.20 112.86
12374 48.6864 9896.40 10062.30 113.05
12375 48.6900 9802.27 10049.50 112.93
12376 48.6939 9797.07 10036.90 111.93
12377 48.6977 9621.92 10024.80 111.27
12378 48.7014 9594.11 10013.60 110.46
12379 48.7052 9724.19 10002.60 112.80
12380 48.7089 9674.88 9992.32 112.22
12381 48.7127 9738.73 9982.18 112.56
12382 48.7164 9688.66 9972.71 111.78
12383 48.7201 9717.21 9963.38 112.20
12384 48.7239 9643.97 9954.41 110.99
12385 48.7276 9587.81 9946.00 112.96
12386 48.7314 9654.77 9937.70 111.71
12387 48.7351 9383.69 9929.90 109.23
12388 48.7389 9677.96 9922.19 111.14
12389 48.7427 9539.53 9914.75 110.78
12390 48.7464 9847.33 9907.75 112.58
12391 48.7503 9551.70 9900.81 111.40
12392 48.7539 9638.94 9894.28 111.77
12393 48.7578 9430.52 9887.79 110.08
12394 48.7616 9436.39 9881.52 110.43
12395 48.7653 9385.25 9875.60 110.21
12396 48.7691 9578.38 9869.71 111.36
12397 48.7728 9498.40 9864.16 110.57
12398 48.7766 9656.03 9858.62 111.50
12399 48.7803 9454.19 9853.25 110.28
12400 48.7840 9798.42 9848.17 113.04
12401 48.7878 9487.69 9843.10 111.03
12402 48.7915 9659.28 9838.30 111.71
12403 48.7953 9628.30 9833.52 110.69
12404 48.7991 9743.89 9828.86 112.10
12405 48.8028 9416.66 9824.45 110.27
12406 48.8066 9679.34 9820.03 112.77
12407 48.8103 9678.85 9815.84 110.95
12408 48.8142 9661.57 9811.64 112.26
12409 48.8178 9582.15 9807.66 111.30
12410 48.8217 9679.46 9803.67 110.73
12411 48.8255 9587.26 9799.78 111.20
12412 48.8292 9584.80 9796.08 113.09
12413 48.8330 9509.64 9792.36 110.43
12414 48.8367 9670.43 9788.83 111.51
12415 48.8405 9555.50 9785.28 110.84
12416 48.8442 9476.67 9781.82 110.22
12417 48.8479 9566.84 9778.51 111.51
12418 48.8517 9611.45 9775.19 111.61
12419 48.8554 9572.44 9772.03 111.54
12420 48.8592 9526.16 9768.85 110.41
12421 48.8630 9498.81 9765.73 111.39
12422 48.8667 9724.58 9762.75 112.13
12423 48.8705 9360.90 9759.75 110.13
12424 48.8742 9440.51 9756.89 110.84
12425 48.8781 9515.97 9754.01 110.89
12426 48.8819 9477.71 9751.18 110.59
12427 48.8856 9253.07 9748.48 109.14
12428 48.8894 9527.91 9745.75 110.55
12429 48.8931 9496.80 9743.15 111.15
12430 48.8969 9405.76 9717.14 110.45
12431 48.9007 9337.74 9714.86 109.43
12432 48.9044 9603.39 9712.67 112.00
12433 48.9081 9453.77 9710.47 110.36
12434 48.9118 9650.77 9708.35 111.70
12435 48.9156 9464.12 9706.21 110.94
12436 48.9194 9600.34 9704.11 111.06
12437 48.9231 9524.09 9702.09 109.27
12438 48.9269 9633.96 9700.05 114.07
12439 48.9306 9393.30 9698.09 111.21
12440 48.9344 9401.82 9696.11 110.29
12441 48.9381 9330.84 9694.21 109.80
12442 48.9420 9554.68 9692.28 111.46
12443 48.9458 9453.78 9690.38 111.06
12444 48.9495 9344.21 9688.56 110.06
12445 48.9533 9164.71 9686.71 108.31
12446 48.9570 9548.46 9684.93 111.88
12447 48.9608 9458.76 9683.12 111.08
12448 48.9646 9514.72 9681.34 111.29
12449 48.9683 9432.28 9679.63 110.20
12450 48.9720 9534.93 9677.89 111.36
12451 48.9757 9361.28 9676.22 110.56
12452 48.9795 9548.42 9674.52 111.48
12453 48.9833 9490.46 9672.84 111.19
12454 48.9870 9700.25 9671.23 112.54
12455 48.9908 9564.75 9669.59 111.76
12456 48.9945 9470.14 9668.01 110.85
12457 48.9983 9529.30 9666.40 109.93
12458 49.0022 9457.57 9664.82 110.87
12459 49.0059 9363.83 9663.28 110.95
12460 49.0097 9360.60 9661.73 110.05
12461 49.0134 9321.54 9660.23 110.21
12462 49.0172 9447.57 9658.70 111.38
12463 49.0210 9166.77 9657.19 108.95
12464 49.0247 9548.10 9655.73 110.99
12465 49.0285 9568.93 9654.25 113.84
12466 49.0322 9662.45 9652.82 112.93
12467 49.0359 9344.72 9651.36 110.56
12468 49.0397 9528.95 9649.92 111.57
12469 49.0434 9339.98 9648.52 110.30
12470 49.0472 9532.74 9647.10 111.75
12471 49.0509 9489.23 9645.73 111.31
12472 49.0547 9466.57 9600.96 111.27
12473 49.0586 9548.73 9600.14 112.28
12474 49.0622 9385.89 9599.41 111.02
12475 49.0661 9431.46 9598.59 110.58
12476 49.0698 9477.10 9597.79 111.69
12477 49.0736 9335.67 9596.97 110.76
12478 49.0774 9418.30 9596.15 111.09
12479 49.0811 9534.98 9595.35 111.87
12480 49.0849 9611.39 9594.53 112.36
12481 49.0886 9374.16 9593.73 110.63
12482 49.0924 9399.96 9592.91 110.56
12483 49.0961 9247.54 9592.09 110.05
12484 49.0998 9358.94 9591.29 110.35
12485 49.1036 9526.54 9590.48 111.83
12486 49.1073 9533.30 9589.68 112.04
12487 49.1111 9419.98 9588.86 110.90
12488 49.1148 9645.53 9588.07 112.61
12489 49.1186 9329.13 9587.25 110.61
12490 49.1225 9511.58 9586.43 111.28
12491 49.1261 9460.38 9585.64 112.57
12492 49.1300 9514.23 9584.82 111.47
12493 49.1337 9477.43 9584.03 111.12
12494 49.1375 9446.61 9583.21 110.62
12495 49.1413 9406.97 9582.40 110.14
12496 49.1450 9530.78 9581.60 111.46
12497 49.1488 9337.74 9580.79 110.15
12498 49.1525 9418.60 9580.00 110.74
12499 49.1562 9192.65 9579.18 108.59
12500 49.1600 9459.40 9578.37 111.51
12501 49.1637 9410.69 9577.58 110.71
12502 49.1675 9432.83 9576.76 111.03
12503 49.1712 9174.35 9575.97 108.89
12504 49.1750 9291.94 9575.16 109.74
12505 49.1788 9147.34 9574.35 109.15
12506 49.1825 9520.70 9573.56 111.68
12507 49.1864 9279.14 9572.75 110.00
12508 49.1900 9347.90 9571.96 110.86
12509 49.1939 9307.44 9571.15 110.14
12510 49.1977 9369.03 9570.34 110.56
12511 49.2014 9311.28 9569.55 109.97
12512 49.2052 9576.61 9568.74 112.23
12513 49.2089 9197.53 9567.95 109.57
12514 49.2127 9469.64 9567.14 111.37
12515 49.2164 9326.90 9566.33 109.72
12516 49.2201 9434.56 9565.55 110.48
12517 49.2239 9197.97 9564.74 108.43
12518 49.2276 9527.36 9563.95 113.57
12519 49.2314 9441.36 9563.15 111.01
12520 49.2352 9400.23 9562.34 110.18
12521 49.2389 9128.68 9561.55 108.67
12522 49.2427 9450.58 9560.75 110.93
12523 49.2464 9347.31 9559.96 109.74
12524 49.2503 9325.09 9559.16 110.46
12525 49.2541 9353.64 9558.35 110.77
12526 49.2578 9464.31 9557.57 111.47
12527 49.2616 9214.19 9556.77 109.46
12528 49.2653 9426.36 9555.99 111.00
12529 49.2691 9290.77 9555.18 109.86
12530 49.2729 9347.40 9554.38 110.04
12531 49.2766 9203.31 9553.60 109.80
12532 49.2803 9567.29 9552.80 111.82
12533 49.2840 9307.66 9552.02 110.50
12534 49.2878 9275.74 9551.21 110.13
12535 49.2916 9310.56 9550.41 109.54
12536 49.2953 9241.66 9549.64 109.11
12537 49.2991 9417.20 9548.84 110.71
12538 49.3028 9418.75 9548.06 111.02
12539 49.3066 9273.03 9547.26 110.33
12540 49.3105 9467.54 9546.46 111.11
12541 49.3142 9126.15 9545.68 108.60
12542 49.3180 9527.67 9544.89 111.07
12543 49.3217 9259.27 9547.21 108.94
12544 49.3255 9528.48 9546.45 111.92
12545 49.3293 9327.12 9545.70 111.86
12546 49.3330 9355.38 9544.96 109.86
12547 49.3368 9323.86 9544.21 110.02
12548 49.3405 9318.65 9543.48 109.99
12549 49.3442 9153.42 9542.73 109.12
12550 49.3480 9467.34 9541.98 111.21
12551 49.3517 9159.50 9541.25 108.78
12552 49.3555 9389.60 9540.51 109.32
12553 49.3592 9141.95 9539.78 109.09
12554 49.3630 9508.84 9539.04 111.34
12555 49.3669 9250.59 9538.30 109.62
12556 49.3705 9400.59 9537.58 110.32
12557 49.3744 9312.25 9536.84 110.55
12558 49.3781 9482.16 9536.13 111.42
12559 49.3819 9283.86 9535.39 108.93
12560 49.3857 9399.38 9534.66 110.69
12561 49.3894 9297.75 9536.72 110.11
12562 49.3932 9471.02 9536.03 111.32
12563 49.3969 9186.99 9535.36 109.73
12564 49.4007 9543.20 9534.67 111.69
12565 49.4044 9306.97 9533.99 109.73
12566 49.4081 9187.17 9533.32 109.96
12567 49.4119 9345.79 9532.65 110.62
12568 49.4156 9470.19 9531.99 111.54
12569 49.4194 9317.47 9531.32 110.06
12570 49.4232 9224.03 9530.65 108.54
12571 49.4269 9420.36 9530.00 112.86
12572 49.4308 9242.80 9529.34 110.55
12573 49.4344 9180.58 9534.43 109.45
12574 49.4383 9448.56 9533.85 110.87
12575 49.4421 9385.45 9533.28 110.82
12576 49.4458 9676.78 9532.72 112.99
12577 49.4496 9273.08 9532.16 110.76
12578 49.4533 9427.75 9531.62 111.28
12579 49.4571 9398.65 9531.07 110.42
12580 49.4608 9607.99 9530.53 112.38
12581 49.4646 9227.49 9532.40 109.99
12582 49.4683 9472.32 9531.90 111.15
12583 49.4720 9310.01 9535.42 110.43
12584 49.4758 9428.46 9534.99 111.89
12585 49.4796 9387.18 9534.57 110.69
12586 49.4833 9490.58 9534.17 111.71
12587 49.4871 9080.53 9533.77 108.52
12588 49.4908 9485.11 9533.39 111.62
12589 49.4947 9227.35 9533.01 109.96
12590 49.4985 9417.47 9532.64 110.84
12591 49.5022 9377.19 9532.30 110.09
12592 49.5060 9486.80 9531.96 112.03
12593 49.5097 9423.13 9531.64 110.79
12594 49.5135 9614.32 9531.33 112.49
12595 49.5173 9184.33 9531.04 109.93
12596 49.5210 9532.63 9530.76 111.57
12597 49.5247 9304.34 9530.50 109.37
12598 49.5285 9760.00 9530.26 115.21
12599 49.5322 9329.17 9530.04 110.98
12600 49.5360 9310.35 9529.83 110.61
12601 49.5397 9291.95 9529.66 109.96
12602 49.5435 9505.43 9529.50 111.71
12603 49.5472 9594.07 9529.38 112.58
12604 49.5510 9560.23 9529.28 111.94
12605 49.5549 9210.12 9529.21 110.14
12606 49.5586 9520.88 9529.18 111.88
12607 49.5624 9362.45 9529.18 110.78
12608 49.5661 9526.97 9529.23 111.19
12609 49.5699 9392.71 9529.32 111.30
12610 49.5737 9558.59 9529.48 111.84
12611 49.5774 9256.44 9529.69 110.36
12612 49.5812 9421.01 9529.99 111.22
12613 49.5849 9371.31 9530.36 111.03
12614 49.5886 9459.25 9530.88 111.76
12615 49.5924 9410.11 9531.56 111.03
12616 49.5961 9411.72 9532.43 110.92
12617 49.5999 9410.49 9533.65 111.46
12618 49.6036 9461.11 9535.25 110.33
12619 49.6074 9385.13 9537.48 110.76
12620 49.6113 9560.97 9540.51 110.94
12621 49.6149 9428.32 9544.43 111.02
12622 49.6188 9512.57 9549.70 111.04
12623 49.6225 9349.63 9556.21 110.08
12624 49.6263 9491.23 9564.43 110.63
12625 49.6301 9434.33 9574.17 112.44
12626 49.6338 9369.55 9584.86 110.06
12627 49.6376 9429.17 9596.55 109.68
12628 49.6413 9333.17 9607.65 109.49
12629 49.6451 9490.49 9617.29 110.70
12630 49.6488 9401.85 9623.38 109.42
12631 49.6525 9508.67 9624.55 110.74
12632 49.6563 9625.69 9620.65 111.81
12633 49.6600 9338.14 9612.94 109.82
12634 49.6638 9488.27 9602.75 110.68
12635 49.6676 9324.40 9591.87 109.31
12636 49.6713 9642.40 9581.73 111.19
12637 49.6752 9329.72 9572.46 109.88
12638 49.6788 9375.46 9564.86 109.59
12639 49.6827 9104.36 9558.62 108.05
12640 49.6865 9385.23 9553.90 110.10
12641 49.6902 9373.65 9550.61 109.76
12642 49.6940 9397.18 9548.34 110.77
12643 49.6977 9271.84 9547.01 109.31
12644 49.7015 9305.92 9546.35 109.10
12645 49.7052 9283.24 9546.24 108.64
12646 49.7090 9363.36 9546.52 110.05
12647 49.7127 9092.90 9547.13 107.94
12648 49.7164 9339.07 9547.97 109.95
12649 49.7202 9351.84 9549.05 109.92
12650 49.7240 9480.05 9550.33 110.10
12651 49.7277 9273.77 9551.76 109.29
12652 49.7315 9400.66 9553.41 111.39
12653 49.7352 9335.76 9555.18 109.61
12654 49.7391 9366.58 9557.18 109.88
12655 49.7429 9280.09 9559.37 109.28
12656 49.7466 9386.75 9561.69 109.43
12657 49.7504 9388.23 9564.27 110.02
12658 49.7541 9295.89 9566.99 109.60
12659 49.7579 9213.08 9570.02 109.06
12660 49.7617 9434.87 9573.28 110.12
12661 49.7654 9219.57 9576.72 109.05
12662 49.7691 9419.18 9580.52 110.18
12663 49.7729 9219.42 9584.52 109.29
12664 49.7766 9500.63 9588.94 110.71
12665 49.7804 9341.68 9593.73 109.99
12666 49.7841 9546.92 9598.77 110.81
12667 49.7879 9395.31 9604.37 110.37
12668 49.7916 9468.01 9610.27 110.31
12669 49.7954 9464.54 9616.85 110.58
12670 49.7993 9767.53 9623.99 112.45
12671 49.8030 9432.20 9631.57 109.67
12672 49.8068 9486.90 9640.04 111.11
12673 49.8105 9458.22 9649.07 110.24
12674 49.8143 9809.75 9659.21 113.10
12675 49.8181 9282.19 9670.38 109.14
12676 49.8218 9722.95 9682.34 111.96
12677 49.8256 9482.58 9695.90 109.07
12678 49.8293 9780.99 9710.56 114.48
12679 49.8330 9427.67 9727.31 110.87
12680 49.8368 9671.45 9746.10 111.77
12681 49.8405 9451.39 9766.71 110.24
12682 49.8443 9857.07 9790.81 113.45
12683 49.8480 9689.27 9817.82 111.98
12684 49.8518 9822.12 9850.33 112.81
12685 49.8555 9789.72 9888.16 112.84
12686 49.8593 10106.20 9935.82 113.88
12687 49.8632 10272.60 9995.91 113.99
12688 49.8669 10348.80 10071.30 116.27
12689 49.8707 10417.30 10172.60 117.06
12690 49.8744 10560.80 10302.70 117.60
12691 49.8782 10697.50 10478.20 118.94
12692 49.8820 11121.40 10706.50 121.29
12693 49.8857 11152.80 10988.80 121.01
12694 49.8895 11607.20 11346.10 124.31
12695 49.8932 12024.90 11773.30 126.12
12696 49.8969 12452.00 12248.90 129.62
12697 49.9007 12971.50 12779.70 132.66
12698 49.9044 13622.10 13301.70 135.95
12699 49.9082 13951.00 13785.70 138.63
12700 49.9119 14394.20 14132.40 140.68
12701 49.9157 14256.80 14289.40 140.09
12702 49.9196 14199.90 14214.00 140.26
12703 49.9232 13741.60 13947.50 135.72
12704 49.9271 13509.10 13550.20 136.18
12705 49.9308 12888.10 13120.00 133.75
12706 49.9346 12686.90 12698.80 130.51
12707 49.9384 12162.90 12343.10 127.40
12708 49.9421 12354.70 12087.50 128.04
12709 49.9459 11862.60 11934.90 125.49
12710 49.9496 12023.20 11902.00 126.96
12711 49.9534 11924.90 11988.90 126.20
12712 49.9571 11934.00 12194.00 126.46
12713 49.9608 12207.60 12497.10 127.38
12714 49.9646 12507.80 12897.10 130.27
12715 49.9683 13173.20 13345.70 134.27
12716 49.9721 13420.20 13826.10 135.77
12717 49.9759 13826.80 14267.90 138.41
12718 49.9796 14330.70 14599.10 140.98
12719 49.9835 14391.40 14791.90 140.87
12720 49.9871 14404.50 14841.40 140.76
12721 49.9910 14512.50 14809.70 142.21
12722 49.9948 14551.20 14783.60 141.83
12723 49.9985 14095.50 14844.10 140.35
12724 50.0023 14537.40 15055.60 141.50
12725 50.0060 14791.70 15441.10 143.25
12726 50.0098 15491.80 16032.20 146.98
12727 50.0135 16121.80 16803.40 150.27
12728 50.0173 17349.30 17677.90 156.77
12729 50.0210 18074.30 18614.70 157.89
12730 50.0247 19600.00 19441.50 166.38
12731 50.0285 20135.70 20073.60 174.48
12732 50.0323 20194.50 20412.40 172.59
12733 50.0360 20245.10 20493.60 172.72
12734 50.0398 20215.00 20436.90 172.00
12735 50.0435 19638.50 20366.70 169.08
12736 50.0474 20134.70 20356.90 172.03
12737 50.0512 20122.80 20417.90 171.87
12738 50.0549 21247.10 20489.70 176.71
12739 50.0587 21308.70 20477.30 177.77
12740 50.0624 21798.30 20279.60 180.41
12741 50.0662 21385.00 19809.30 178.16
12742 50.0700 20444.80 19049.30 173.37
12743 50.0737 19152.50 18083.20 167.39
12744 50.0774 17844.00 16960.80 161.02
12745 50.0812 16041.30 15848.70 150.45
12746 50.0849 15058.20 14769.30 144.80
12747 50.0887 13669.10 13806.30 137.46
12748 50.0924 12942.80 13001.30 133.40
12749 50.0962 11989.20 12316.90 127.08
12750 50.0999 11935.80 11779.30 126.81
12751 50.1037 11212.10 11344.70 122.51
12752 50.1076 11239.80 11009.70 123.10
12753 50.1113 10828.70 10759.30 119.43
12754 50.1151 10492.30 10562.30 118.22
12755 50.1188 10325.10 10413.80 115.53
12756 50.1226 10208.90 10294.00 115.41
12757 50.1264 10018.80 10197.90 114.18
12758 50.1301 10281.10 10121.10 118.18
12759 50.1339 9846.86 10054.60 114.13
12760 50.1376 9860.72 9999.19 113.11
12761 50.1413 9761.07 9949.57 112.84
12762 50.1451 9846.91 9905.97 114.00
12763 50.1488 9704.59 9868.21 112.35
12764 50.1526 9720.05 9833.56 112.79
12765 50.1563 9713.93 9803.17 112.93
12766 50.1601 9680.48 9774.98 112.70
12767 50.1640 9554.77 9749.46 111.80
12768 50.1676 9561.38 9726.81 111.52
12769 50.1715 9424.51 9705.57 111.20
12770 50.1752 9508.44 9686.60 111.19
12771 50.1790 9357.35 9668.70 110.40
12772 50.1827 9556.75 9652.63 111.46
12773 50.1865 9506.82 9637.38 111.74
12774 50.1903 9601.32 9623.24 111.93
12775 50.1940 9514.25 9610.47 111.27
12776 50.1978 9534.88 9598.25 111.60
12777 50.2015 9426.22 9587.16 110.62
12778 50.2052 9462.35 9576.50 110.85
12779 50.2090 9497.57 9566.54 112.21
12780 50.2127 9469.57 9557.42 110.46
12781 50.2165 9310.51 9548.61 110.48
12782 50.2202 9548.78 9540.54 111.59
12783 50.2240 9299.27 9532.72 109.58
12784 50.2279 9379.47 9525.34 110.33
12785 50.2315 9442.71 9518.53 112.81
12786 50.2354 9298.99 9511.91 109.99
12787 50.2391 9381.31 9505.78 109.89
12788 50.2429 9453.32 9499.74 109.89
12789 50.2467 9301.90 9494.05 110.18
12790 50.2504 9478.32 9488.78 111.31
12791 50.2542 9393.35 9483.61 110.46
12792 50.2579 9563.36 9478.80 111.25
12793 50.2617 9272.69 9474.08 109.98
12794 50.2654 9593.36 9469.56 111.30
12795 50.2691 9073.51 9465.34 107.86
12796 50.2729 9311.81 9461.18 110.35
12797 50.2766 9445.92 9457.29 111.15
12798 50.2804 9360.38 9453.46 110.54
12799 50.2842 9246.69 9449.77 109.15
12800 50.2879 9438.45 9446.30 110.43
12801 50.2918 9272.17 9442.87 109.88
12802 50.2954 9392.34 9439.65 110.68
12803 50.2993 9178.11 9436.45 109.22
12804 50.3031 9443.44 9433.37 111.01
12805 50.3068 9228.58 9430.46 109.52
12806 50.3106 9459.66 9427.56 111.04
12807 50.3143 9254.92 9424.84 109.81
12808 50.3181 9604.89 9422.11 111.24
12809 50.3218 9315.04 9419.48 110.38
12810 50.3256 9129.29 9416.99 107.59
12811 50.3293 9364.03 9414.50 112.24
12812 50.3330 9350.86 9412.14 111.25
12813 50.3368 9320.46 9409.79 109.89
12814 50.3405 9414.36 9407.56 110.77
12815 50.3443 9273.34 9405.33 109.59
12816 50.3481 9405.66 9403.15 110.88
12817 50.3518 9405.98 9401.09 111.26
12818 50.3557 9284.13 9399.02 110.00
12819 50.3593 9305.00 9397.05 110.38
12820 50.3632 9621.67 9395.07 112.22
12821 50.3670 9357.51 9393.14 110.69
12822 50.3707 9308.33 9391.30 110.19
12823 50.3745 9269.64 9389.45 109.27
12824 50.3782 9329.40 9387.70 110.38
12825 50.3820 9247.56 9385.92 110.41
12826 50.3857 9491.82 9384.19 111.56
12827 50.3895 9209.50 9382.53 109.47
12828 50.3932 9471.01 9380.86 111.74
12829 50.3969 9281.58 9379.27 110.15
12830 50.4007 9559.54 9377.66 111.93
12831 50.4045 9422.27 9376.08 110.62
12832 50.4082 9590.83 9374.57 112.53
12833 50.4120 9350.32 9373.04 110.63
12834 50.4157 9459.85 9371.59 111.85
12835 50.4196 9343.72 9370.11 109.98
12836 50.4234 9291.51 9368.66 110.45
12837 50.4271 9390.75 9367.27 110.55
12838 50.4309 9311.06 9365.87 111.97
12839 50.4346 9408.94 9364.52 111.31
12840 50.4384 9635.11 9363.15 112.38
12841 50.4421 9280.43 9361.85 109.67
12842 50.4459 9254.31 9360.52 109.76
12843 50.4496 9153.74 9359.21 109.19
12844 50.4534 9527.74 9357.96 112.12
12845 50.4571 9206.49 9356.68 109.04
12846 50.4608 9227.38 9355.46 110.07
12847 50.4646 9374.63 9354.22 110.33
12848 50.4684 9310.99 9353.00 110.75
12849 50.4721 9485.76 9351.82 111.76
12850 50.4759 9491.70 9350.63 112.20
12851 50.4796 9134.07 9349.47 109.18
12852 50.4835 9473.43 9348.31 111.17
12853 50.4873 9095.13 9347.15 108.55
12854 50.4910 9142.40 9346.04 108.30
12855 50.4948 9217.34 9344.91 109.57
12856 50.4985 9447.76 9343.82 111.03
12857 50.5023 9142.38 9342.71 109.01
12858 50.5061 9590.02 9341.62 111.75
12859 50.5098 9490.21 9340.56 112.47
12860 50.5135 9357.45 9336.42 111.00
12861 50.5173 9340.70 9335.43 111.57
12862 50.5210 9411.38 9334.41 111.20
12863 50.5247 9183.81 9333.43 108.25
12864 50.5285 9500.64 9332.43 112.63
12865 50.5323 9386.17 9331.44 112.43
12866 50.5360 9329.45 9330.49 110.31
12867 50.5398 9307.37 9329.51 110.00
12868 50.5435 9334.54 9328.57 110.49
12869 50.5474 9269.00 9327.61 110.27
12870 50.5512 9324.32 9326.66 110.44
12871 50.5549 9348.58 9325.74 110.92
12872 50.5587 9347.49 9324.81 111.00
12873 50.5624 9259.53 9323.90 110.07
12874 50.5662 9343.31 9322.98 110.64
12875 50.5700 9238.89 9322.06 109.50
12876 50.5737 9649.84 9321.17 112.74
12877 50.5774 9403.37 9317.52 110.58
12878 50.5812 9228.32 9316.68 109.83
12879 50.5849 9357.13 9315.82 110.39
12880 50.5887 9299.55 9314.96 110.34
12881 50.5924 9298.68 9314.14 110.33
12882 50.5962 9514.99 9313.29 111.44
12883 50.5999 9350.61 9312.48 110.18
12884 50.6037 9290.35 9311.64 110.13
12885 50.6074 9237.50 9310.83 110.04
12886 50.6113 9444.11 9310.01 111.42
12887 50.6151 9360.55 9309.18 110.28
12888 50.6188 9250.15 9308.39 109.88
12889 50.6226 9297.87 9307.57 109.73
12890 50.6263 9284.76 9301.09 108.89
12891 50.6301 9342.82 9300.35 111.94
12892 50.6339 9391.45 9299.62 111.54
12893 50.6376 9200.36 9298.91 109.63
12894 50.6413 9279.77 9298.18 109.21
12895 50.6451 9099.98 9297.48 108.28
12896 50.6488 9265.45 9296.75 109.62
12897 50.6526 9166.13 9296.04 109.31
12898 50.6563 9428.21 9292.98 111.30
12899 50.6601 9347.93 9292.29 110.47
12900 50.6638 9255.68 9287.64 109.26
12901 50.6676 9198.76 9287.01 109.38
12902 50.6713 9255.63 9286.39 109.55
12903 50.6752 9235.04 9285.76 109.93
12904 50.6790 9391.65 9285.13 110.71
12905 50.6827 9151.59 9284.52 109.02
12906 50.6865 9373.39 9283.89 110.36
12907 50.6902 9053.60 9283.27 108.37
12908 50.6940 9211.66 9282.65 109.20
12909 50.6978 9403.00 9282.02 110.81
12910 50.7015 9244.43 9281.41 109.42
12911 50.7052 9398.40 9280.78 110.86
12912 50.7090 9503.21 9280.17 112.23
12913 50.7127 9318.80 9279.54 110.14
12914 50.7164 9321.09 9278.94 110.72
12915 50.7202 9354.19 9278.31 110.45
12916 50.7240 9522.65 9277.69 110.77
12917 50.7277 9358.27 9277.08 109.87
12918 50.7315 9422.45 9276.46 112.75
12919 50.7352 9242.56 9275.85 109.71
12920 50.7391 9282.29 9275.23 109.73
12921 50.7429 9197.25 9274.61 109.00
12922 50.7466 9353.80 9274.01 110.56
12923 50.7504 9173.48 9273.39 109.62
12924 50.7541 9589.07 9272.79 112.12
12925 50.7579 9098.93 9272.17 109.20
12926 50.7616 9270.15 9271.57 109.94
12927 50.7654 9399.00 9270.95 110.49
12928 50.7691 9417.64 9270.33 110.96
12929 50.7729 9361.94 9269.73 110.64
12930 50.7766 9288.31 9269.12 110.56
12931 50.7803 9399.70 9268.52 110.35
12932 50.7841 9474.88 9267.91 111.56
12933 50.7879 9172.21 9267.29 108.51
12934 50.7916 9405.64 9266.70 110.90
12935 50.7954 9330.48 9266.08 110.34
12936 50.7991 9299.71 9265.49 110.37
12937 50.8030 9431.27 9264.88 110.98
12938 50.8066 9266.14 9264.29 109.21
12939 50.8105 9347.20 9263.68 110.67
12940 50.8143 9557.09 9263.07 111.47
12941 50.8180 9481.75 9262.47 111.98
12942 50.8218 9344.77 9261.87 110.08
12943 50.8255 9253.69 9261.28 108.70
12944 50.8293 9306.43 9260.67 110.80
12945 50.8330 9393.43 9260.06 112.67
12946 50.8368 9358.89 9259.47 110.42
12947 50.8405 9246.46 9258.87 110.01
12948 50.8442 9493.07 9258.28 111.30
12949 50.8480 9496.03 9257.68 111.59
12950 50.8517 9528.61 9257.09 111.95
12951 50.8555 9474.50 9256.49 111.43
12952 50.8593 9483.67 9255.89 110.24
12953 50.8630 9350.69 9255.30 110.94
12954 50.8669 9444.38 9302.66 111.71
12955 50.8705 9382.08 9302.66 110.69
12956 50.8744 9478.33 9302.68 111.59
12957 50.8782 9462.84 9302.71 110.88
12958 50.8819 9570.87 9302.75 111.96
12959 50.8857 9224.20 9302.80 109.77
12960 50.8894 9459.22 9302.87 111.17
12961 50.8932 9305.51 9302.94 110.64
12962 50.8969 9269.00 9303.04 110.14
12963 50.9007 9287.12 9303.14 110.25
12964 50.9044 9547.37 9303.27 112.02
12965 50.9081 9446.84 9303.40 112.19
12966 50.9119 9587.58 9303.56 112.15
12967 50.9156 9343.92 9303.72 110.37
12968 50.9194 9511.22 9303.90 111.44
12969 50.9231 9505.90 9304.10 110.44
12970 50.9269 9509.38 9304.32 111.80
12971 50.9308 9399.52 9350.22 112.91
12972 50.9344 9445.45 9351.02 111.50
12973 50.9383 9391.39 9351.88 110.62
12974 50.9420 9624.84 9352.74 112.28
12975 50.9458 9392.76 9353.66 111.32
12976 50.9496 9583.92 9354.61 111.78
12977 50.9533 9510.93 9355.56 111.95
12978 50.9571 9543.93 9356.58 112.40
12979 50.9608 9447.05 9357.60 111.67
12980 50.9646 9570.30 9358.68 111.93
12981 50.9683 9422.65 9359.77 111.60
12982 50.9720 9754.63 9360.93 113.60
12983 50.9758 9592.35 9362.12 112.41
12984 50.9795 9567.60 9363.33 112.69
12985 50.9833 9432.83 9364.60 111.36
12986 50.9870 9466.08 9365.88 111.23
12987 50.9908 9285.35 9367.24 110.61
12988 50.9945 9798.72 9368.60 114.28
12989 50.9983 9380.50 9370.05 111.14
12990 51.0022 9421.22 9471.29 111.05
12991 51.0059 9592.83 9474.00 112.33
12992 51.0097 9667.32 9476.87 113.76
12993 51.0134 9470.14 9505.08 111.05
12994 51.0172 9586.54 9508.41 112.79
12995 51.0210 9420.42 9511.83 111.30
12996 51.0247 9449.40 9515.25 111.17
12997 51.0285 9480.19 9518.84 110.90
12998 51.0322 9697.96 9522.44 114.93
12999 51.0359 9544.53 9526.22 112.60
13000 51.0396 9589.67 9530.00 112.26
13001 51.0434 9530.52 9533.99 112.47
13002 51.0472 9857.20 9538.08 114.25
13003 51.0509 9432.87 9542.17 111.41
13004 51.0547 9658.93 9546.48 112.91
13005 51.0584 9500.56 9550.79 111.71
13006 51.0622 9733.20 9555.33 113.52
13007 51.0659 9467.61 9559.87 111.55
13008 51.0698 9648.30 9564.66 112.49
13009 51.0736 9504.41 9569.59 111.83
13010 51.0773 9604.29 9574.51 112.88
13011 51.0811 9486.91 9579.71 111.72
13012 51.0848 9764.02 9584.91 112.96
13013 51.0886 9522.66 9590.41 112.02
13014 51.0923 9884.81 9595.90 114.85
13015 51.0961 9569.85 9601.71 112.13
13016 51.0998 9805.85 9607.68 113.42
13017 51.1035 9556.17 9613.66 112.23
13018 51.1073 9717.76 9619.97 113.29
13019 51.1110 9741.61 9626.30 113.29
13020 51.1148 9694.14 9632.99 113.38
13021 51.1186 9643.18 9639.88 112.78
13022 51.1223 9882.36 9646.79 114.13
13023 51.1261 9769.52 9654.08 112.08
13024 51.1298 9892.07 9661.41 116.52
13025 51.1337 9748.83 9669.16 113.56
13026 51.1373 9762.63 9676.94 111.86
13027 51.1412 9650.38 9685.16 112.07
13028 51.1449 9899.15 9693.43 114.36
13029 51.1487 9787.93 9702.18 113.85
13030 51.1525 9790.43 9711.23 113.79
13031 51.1562 9553.30 9720.29 112.30
13032 51.1600 9914.81 9729.92 114.59
13033 51.1637 9805.55 9739.59 113.84
13034 51.1674 10039.20 9749.84 114.95
13035 51.1712 9732.60 9760.45 113.47
13036 51.1749 9907.51 9771.11 114.21
13037 51.1787 9750.79 9782.44 113.15
13038 51.1824 9975.49 9793.83 115.03
13039 51.1862 9842.16 9805.95 113.84
13040 51.1899 9962.15 9818.14 115.28
13041 51.1937 9836.63 9831.12 114.28
13042 51.1974 9947.83 9844.19 114.24
13043 51.2012 10009.50 9858.12 114.88
13044 51.2051 10100.10 9872.53 115.30
13045 51.2088 10033.30 9887.11 115.70
13046 51.2126 10032.60 9902.61 114.71
13047 51.2163 9481.95 9918.30 111.39
13048 51.2201 10184.60 9935.00 116.41
13049 51.2238 9909.32 9951.92 113.66
13050 51.2276 10156.60 9969.98 114.65
13051 51.2313 10085.50 9988.73 117.54
13052 51.2351 10210.30 10007.70 117.11
13053 51.2388 10088.50 10028.00 115.45
13054 51.2425 10322.90 10048.70 116.58
13055 51.2463 10007.30 10070.70 114.94
13056 51.2500 10103.90 10093.10 115.46
13057 51.2538 10006.80 10117.00 115.45
13058 51.2576 10435.60 10142.10 117.71
13059 51.2613 10193.90 10167.50 114.99
13060 51.2651 10208.30 10194.90 116.04
13061 51.2688 10100.00 10222.70 115.25
13062 51.2727 10333.00 10252.60 117.21
13063 51.2763 10197.20 10283.10 116.22
13064 51.2802 10576.90 10316.00 118.35
13065 51.2840 10418.70 10350.50 117.32
13066 51.2877 10365.20 10385.80 117.52
13067 51.2915 10343.60 10423.90 117.28
13068 51.2952 10752.20 10462.90 119.59
13069 51.2990 10501.40 10505.20 117.71
13070 51.3027 10618.00 10548.50 118.36
13071 51.3064 10641.60 10595.50 118.38
13072 51.3102 10874.30 10645.10 121.12
13073 51.3139 10579.70 10696.30 119.22
13074 51.3177 10934.60 10751.90 120.60
13075 51.3214 10797.90 10809.40 119.99
13076 51.3252 10823.30 10872.00 119.65
13077 51.3289 10948.70 10937.00 120.31
13078 51.3327 11056.50 11007.90 123.61
13079 51.3366 11073.60 11083.70 122.17
13080 51.3402 11344.70 11162.60 123.24
13081 51.3441 11333.20 11249.30 123.01
13082 51.3478 11323.70 11339.90 122.79
13083 51.3516 11569.50 11439.80 124.47
13084 51.3553 11573.30 11544.60 125.22
13085 51.3591 11641.80 11660.70 125.31
13086 51.3628 11985.10 11783.20 126.94
13087 51.3666 11998.50 11919.60 127.30
13088 51.3703 12240.00 12068.10 128.74
13089 51.3741 12109.90 12225.70 128.23
13090 51.3778 12795.70 12402.90 131.64
13091 51.3815 12763.50 12592.30 131.39
13092 51.3853 13461.30 12806.70 136.46
13093 51.3890 13541.60 13037.70 136.77
13094 51.3928 13902.90 13301.70 138.93
13095 51.3966 14091.60 13597.60 139.74
13096 51.4003 14711.60 13922.50 143.78
13097 51.4041 15598.60 14303.20 148.05
13098 51.4078 16509.10 14731.50 153.71
13099 51.4117 16855.30 15249.90 153.15
13100 51.4154 18334.30 15857.00 163.05
13101 51.4192 19569.10 16626.40 169.99
13102 51.4229 21057.20 17571.80 176.39
13103 51.4267 22294.60 18823.20 180.19
13104 51.4305 25063.80 20461.00 198.95
13105 51.4342 26842.80 22545.30 204.00
13106 51.4380 29565.80 25330.70 214.79
13107 51.4417 32147.20 28806.40 225.64
13108 51.4454 36134.30 33276.40 240.65
13109 51.4492 40257.20 38589.60 259.65
13110 51.4529 46763.40 45018.10 285.07
13111 51.4567 53109.80 52320.10 308.21
13112 51.4604 60884.70 59978.90 336.60
13113 51.4642 68804.70 67859.30 361.40
13114 51.4679 76775.20 74760.10 389.89
13115 51.4717 79537.60 79970.50 399.71
13116 51.4754 81916.90 82265.90 406.55
13117 51.4793 78761.90 81334.60 397.08
13118 51.4829 75967.40 77622.60 386.91
13119 51.4868 68853.80 71966.70 365.55
13120 51.4906 64307.70 65606.70 345.94
13121 51.4943 58593.70 59679.70 330.39
13122 51.4981 54982.60 54537.30 316.33
13123 51.5018 51018.30 50889.00 300.93
13124 51.5056 50172.20 48806.70 296.30
13125 51.5093 49397.50 48540.40 292.68
13126 51.5131 50774.00 50092.80 300.63
13127 51.5168 53138.00 53288.40 309.46
13128 51.5205 57755.40 58086.30 326.34
13129 51.5243 63883.40 64046.10 346.39
13130 51.5280 72050.60 70412.30 372.53
13131 51.5318 79875.20 76722.30 401.20
13132 51.5355 85381.20 81623.40 417.59
13133 51.5393 87613.10 84322.00 422.77
13134 51.5430 88522.00 84055.70 419.81
13135 51.5468 83510.80 80956.10 409.27
13136 51.5505 78123.30 76002.70 393.01
13137 51.5544 70786.80 70020.30 368.68
13138 51.5582 65916.80 64133.60 352.63
13139 51.5619 60196.80 59203.70 332.93
13140 51.5657 58357.60 55511.40 327.02
13141 51.5694 56041.20 53634.50 318.44
13142 51.5732 57322.80 53807.40 322.32
13143 51.5769 60133.50 56293.20 330.28
13144 51.5807 64707.10 61480.70 346.52
13145 51.5844 70967.90 69262.10 369.14
13146 51.5882 80874.80 80162.20 397.49
13147 51.5919 92172.20 93918.70 437.28
13148 51.5956 109675.00 109774.00 491.20
13149 51.5994 129032.00 127852.00 545.87
13150 51.6031 154124.00 146051.00 614.44
13151 51.6069 175562.00 163402.00 672.22
13152 51.6106 198533.00 176619.00 737.00
13153 51.6144 207851.00 183898.00 753.11
13154 51.6181 211878.00 183452.00 768.33
13155 51.6219 197067.00 175462.00 725.26
13156 51.6258 179816.00 161478.00 679.81
13157 51.6295 153042.00 144319.00 612.92
13158 51.6333 132239.00 125233.00 561.91
13159 51.6370 107285.00 106939.00 482.56
13160 51.6408 90484.50 89610.90 428.85
13161 51.6445 74157.60 74819.20 372.41
13162 51.6483 62482.80 61991.40 341.03
13163 51.6520 52202.50 51824.30 301.71
13164 51.6558 45606.20 43509.50 278.61
13165 51.6595 38871.20 37074.00 250.89
13166 51.6632 34774.80 32277.70 236.03
13167 51.6670 30653.80 28527.10 218.82
13168 51.6707 27736.10 25746.90 202.29
13169 51.6745 25143.20 23547.30 194.24
13170 51.6782 23117.50 21871.70 184.08
13171 51.6820 21039.80 20493.20 173.46
13172 51.6857 19679.50 19394.50 167.38
13173 51.6895 18574.90 18448.90 160.72
13174 51.6932 17656.90 17663.90 157.86
13175 51.6970 16747.10 16965.10 152.73
13176 51.7009 16119.80 16354.40 149.19
13177 51.7046 15237.20 15828.20 144.48
13178 51.7084 15051.50 15347.80 142.75
13179 51.7121 14056.20 14928.70 139.07
13180 51.7159 14024.30 14542.30 135.73
13181 51.7196 13513.30 14202.30 134.50
13182 51.7234 13457.90 13885.80 133.16
13183 51.7271 12970.60 13606.50 131.25
13184 51.7309 13024.90 13344.40 131.28
13185 51.7346 12573.90 13105.40 130.85
13186 51.7383 12583.60 12891.90 130.36
13187 51.7421 11835.20 12690.60 124.54
13188 51.7458 12200.90 12509.80 126.64
13189 51.7496 12097.40 12338.60 126.41
13190 51.7533 12075.30 12184.10 126.49
13191 51.7571 11856.60 12037.20 125.08
13192 51.7608 11809.30 11904.10 125.32
13193 51.7646 11624.10 11777.00 123.86
13194 51.7683 11665.50 11661.40 124.22
13195 51.7721 11437.90 11550.70 123.36
13196 51.7760 11320.10 11447.10 122.50
13197 51.7797 11181.00 11352.70 120.86
13198 51.7835 11385.90 11261.60 122.24
13199 51.7872 11080.60 11178.20 120.58
13200 51.7910 11327.80 11097.70 122.55
13201 51.7947 11076.00 11023.80 119.69
13202 51.7985 11055.40 10952.20 120.78
13203 51.8022 10895.30 10886.40 119.47
13204 51.8060 10891.60 10822.40 119.54
13205 51.8097 10822.80 10763.40 117.93
13206 51.8134 10975.90 10706.10 120.08
13207 51.8172 10700.30 10651.70 117.33
13208 51.8209 10614.70 10601.40 118.07
13209 51.8247 10549.90 10552.30 117.93
13210 51.8284 10771.60 10506.80 117.44
13211 51.8322 10498.50 10462.30 118.17
13212 51.8359 10577.10 10421.00 117.72
13213 51.8397 10282.40 10380.60 115.41
13214 51.8434 10594.60 10343.00 117.19
13215 51.8473 10152.70 10306.10 113.80
13216 51.8509 10481.70 10271.80 115.58
13217 51.8548 10297.20 10238.00 114.96
13218 51.8585 10507.80 10206.60 117.44
13219 51.8623 10500.80 10175.70 116.63
13220 51.8661 10490.80 10146.00 117.00
13221 51.8698 10275.90 10118.30 115.10
13222 51.8736 10338.00 10091.00 116.61
13223 51.8773 10254.50 10065.40 115.99
13224 51.8811 10261.60 10040.20 114.82
13225 51.8848 10256.80 10016.60 114.43
13226 51.8885 10155.10 9993.27 115.35
13227 51.8923 10110.50 9971.41 113.63
13228 51.8960 10187.10 9949.77 115.26
13229 51.8997 9973.11 9929.47 114.07
13230 51.9035 10040.30 9909.36 114.76
13231 51.9073 10006.80 9889.97 113.50
13232 51.9110 10113.50 9871.76 115.07
13233 51.9148 10084.50 9853.69 114.87
13234 51.9185 10251.00 9836.70 114.23
13235 51.9224 9799.76 9819.83 112.98
13236 51.9260 10299.50 9803.96 114.75
13237 51.9299 9995.69 9788.18 114.21
13238 51.9336 10091.20 9773.31 115.75
13239 51.9374 9912.87 9758.53 112.67
13240 51.9411 9966.61 9744.60 113.61
13241 51.9449 9851.78 9730.72 113.02
13242 51.9486 9996.22 9717.64 113.58
13243 51.9524 9718.50 9704.59 111.71
13244 51.9562 10043.40 9691.96 114.98
13245 51.9599 9553.98 9680.02 111.68
13246 51.9636 9970.76 9668.12 112.65
13247 51.9674 9716.76 9656.87 112.62
13248 51.9711 9721.94 9645.64 112.65
13249 51.9748 9652.76 9635.03 110.60
13250 51.9786 9960.72 9624.43 112.71
13251 51.9823 9855.10 9614.40 112.42
13252 51.9861 9828.45 9604.38 112.21
13253 51.9879 9923.46 9599.98 114.54
13254 51.9916 9713.94 9590.36 112.60
13255 51.9954 9711.94 9581.00 112.29
13256 51.9991 9692.01 9572.12 113.25
13257 52.0029 10029.30 9563.25 115.52
13258 52.0066 9907.02 9554.83 114.82
13259 52.0104 9732.17 9546.40 113.21
13260 52.0141 9662.74 9538.41 112.32
13261 52.0179 9698.08 9530.41 113.44
13262 52.0216 9731.39 9522.80 113.31
13263 52.0255 9550.43 9515.20 111.63
13264 52.0293 9776.50 9507.77 111.56
13265 52.0330 9653.41 9500.79 112.15
13266 52.0368 9771.99 9493.72 113.21
13267 52.0405 9608.39 9487.00 112.07
13268 52.0443 9861.20 9480.25 113.82
13269 52.0480 9623.61 9473.85 112.28
13270 52.0518 9840.82 9467.41 113.88
13271 52.0555 9550.42 9461.29 111.86
13272 52.0592 9688.52 9455.15 112.52
13273 52.0630 9694.09 9449.15 111.91
13274 52.0667 9754.38 9443.43 112.49
13275 52.0705 9734.04 9437.68 112.85
13276 52.0742 9806.94 9432.22 112.20
13277 52.0780 9444.30 9426.72 111.00
13278 52.0817 9639.62 9421.49 112.51
13279 52.0855 9620.78 9416.22 112.07
13280 52.0892 9597.53 9364.17 111.71
13281 52.0930 9615.64 9359.71 111.90
13282 52.0969 9663.07 9355.34 112.98
13283 52.1006 9371.31 9351.18 109.90
13284 52.1044 9774.92 9346.99 113.28
13285 52.1081 9407.23 9342.99 110.08
13286 52.1119 9830.88 9338.97 112.70
13287 52.1156 9424.60 9335.14 110.83
13288 52.1194 9555.05 9331.27 113.04
13289 52.1231 9674.58 9327.59 112.38
13290 52.1269 9644.01 9323.88 111.49
13291 52.1306 9520.84 9320.24 109.32
13292 52.1343 9544.13 9316.76 111.81
13293 52.1381 9470.29 9313.26 110.27
13294 52.1418 9492.01 9310.51 110.88
13295 52.1456 9389.61 9307.14 109.49
13296 52.1493 9643.29 9303.93 111.89
13297 52.1531 9552.80 9255.38 111.35
13298 52.1568 9615.11 9252.82 109.70
13299 52.1606 9366.10 9250.25 110.03
13300 52.1643 9594.30 9247.79 111.09
13301 52.1682 9399.97 9245.30 109.38
13302 52.1720 9605.91 9242.87 111.10
13303 52.1757 9362.41 9240.53 108.76
13304 52.1795 9717.01 9238.18 112.34
13305 52.1832 9527.62 9235.93 110.84
13306 52.1870 9678.11 9233.66 111.68
13307 52.1907 9250.75 9231.48 108.92
13308 52.1945 9463.59 9229.29 109.77
13309 52.1982 9370.37 9227.18 110.61
13310 52.2020 9518.60 9225.06 109.06
13311 52.2057 9524.95 9222.97 110.43
13312 52.2094 9554.66 9220.98 109.78
13313 52.2132 9102.04 9218.96 107.54
13314 52.2169 9361.45 9217.02 109.01
13315 52.2170 9337.01 9216.97 110.38
13316 52.2209 9410.47 9215.02 110.84
13317 52.2247 9416.34 9213.09 110.43
13318 52.2284 9532.60 9111.76 111.85
13319 52.2322 9372.27 9111.12 112.41
13320 52.2359 9568.91 9110.50 112.17
13321 52.2397 9342.45 9084.91 109.99
13322 52.2434 9524.35 9084.60 112.39
13323 52.2472 9433.86 9084.28 111.60
13324 52.2509 9443.98 9083.98 110.17
13325 52.2547 9405.42 9083.66 111.64
13326 52.2584 9626.32 9083.36 112.84
13327 52.2621 9287.61 9083.05 110.84
13328 52.2659 9675.12 9082.75 112.64
13329 52.2696 9312.48 9082.44 111.29
13330 52.2734 9644.17 9082.13 112.72
13331 52.2771 9366.66 9081.83 110.76
13332 52.2809 9380.16 9081.53 111.19
13333 52.2846 9246.60 9081.24 110.27
13334 52.2884 9557.68 9080.93 111.42
13335 52.2921 9442.88 9080.64 111.48
13336 52.2960 9526.99 9080.34 112.11
13337 52.2996 9125.81 9080.06 108.94
13338 52.3035 9489.50 9079.76 111.22
13339 52.3072 9369.30 9079.47 110.67
13340 52.3110 9483.98 9079.18 112.42
13341 52.3147 9364.60 9078.90 111.03
13342 52.3185 9457.55 9078.61 112.01
13343 52.3223 9137.36 9078.33 109.20
13344 52.3260 9603.16 9078.05 111.66
13345 52.3298 9091.54 9077.77 109.11
13346 52.3335 9519.77 9077.49 113.60
13347 52.3372 9284.48 9077.21 110.67
13348 52.3410 9421.65 9076.95 109.54
13349 52.3447 9300.42 9076.67 110.42
13350 52.3484 9295.07 9076.40 110.29
13351 52.3522 9268.36 9076.13 110.16
13352 52.3559 9380.92 9075.87 110.80
13353 52.3597 9296.24 9075.61 110.69
13354 52.3635 9253.77 9075.34 109.97
13355 52.3672 9264.59 9075.09 109.96
13356 52.3711 9265.78 9074.83 110.69
13357 52.3747 9370.58 9074.58 110.98
13358 52.3786 9519.11 9074.32 111.81
13359 52.3823 9228.97 9074.08 109.75
13360 52.3861 9446.16 9073.83 111.63
13361 52.3898 9153.22 9073.59 110.02
13362 52.3936 9624.10 9073.35 112.92
13363 52.3973 9427.04 9073.11 111.28
13364 52.4011 9483.22 9072.88 111.34
13365 52.4049 9463.02 9072.64 111.60
13366 52.4086 9497.20 9072.42 112.12
13367 52.4123 9443.42 9072.20 111.10
13368 52.4160 9480.82 9071.98 111.01
13369 52.4198 9333.64 9071.76 110.87
13370 52.4235 9404.92 9071.55 111.50
13371 52.4273 9412.44 9071.34 109.29
13372 52.4310 9520.75 9071.14 114.17
13373 52.4348 9282.98 9070.93 111.09
13374 52.4385 9533.50 9070.96 111.89
13375 52.4423 9209.61 9070.77 109.96
13376 52.4462 9375.43 9070.59 111.03
13377 52.4498 9296.39 9070.41 110.22
13378 52.4537 9373.63 9070.24 111.44
13379 52.4574 9201.17 9070.07 109.76
13380 52.4612 9461.48 9069.91 112.07
13381 52.4649 9057.58 9069.76 109.12
13382 52.4687 9373.36 9069.61 111.14
13383 52.4724 9278.24 9069.48 109.72
13384 52.4762 9577.25 9069.34 112.90
13385 52.4799 9275.97 9069.22 109.69
13386 52.4837 9209.55 9069.11 110.07
13387 52.4874 9361.25 9069.00 111.12
13388 52.4911 9451.16 9068.91 111.71
13389 52.4949 9370.50 9068.82 111.47
13390 52.4986 9493.95 9068.75 111.19
13391 52.5024 9213.50 9068.68 109.83
13392 52.5061 9428.61 9068.63 111.19
13393 52.5099 9200.44 9068.79 110.95
13394 52.5136 9182.10 9068.77 109.94
13395 52.5174 9230.65 9068.77 110.77
13396 52.5213 9234.28 9068.78 110.46
13397 52.5249 9163.06 9068.81 108.98
13398 52.5288 9462.84 9068.86 112.22
13399 52.5325 9438.90 9068.93 112.75
13400 52.5363 9363.01 9069.03 111.18
13401 52.5400 9219.39 9069.15 110.18
13402 52.5438 9221.39 9069.30 109.88
13403 52.5475 9152.05 9069.47 109.83
13404 52.5513 9390.23 9069.69 111.13
13405 52.5550 9297.40 9069.94 110.43
13406 52.5588 9471.58 9070.22 111.86
13407 52.5625 9127.04 9070.56 110.08
13408 52.5662 9395.81 9070.94 111.20
13409 52.5700 9252.99 9071.39 110.39
13410 52.5737 9326.95 9071.89 111.18
13411 52.5775 9269.01 9072.48 110.37
13412 52.5812 9543.84 9073.13 112.57
13413 52.5850 9240.07 9073.91 110.35
13414 52.5887 9312.66 9074.79 111.59
13415 52.5925 9205.27 9075.84 110.01
13416 52.5964 9311.96 9077.09 110.67
13417 52.6001 9458.97 9078.56 111.85
13418 52.6039 9421.27 9080.42 111.10
13419 52.6076 9253.59 9082.66 110.38
13420 52.6114 9530.55 9085.57 112.96
13421 52.6151 9182.54 9089.15 109.01
13422 52.6189 9337.90 9093.80 111.28
13423 52.6227 9401.00 9099.64 110.78
13424 52.6264 9460.88 9106.67 110.79
13425 52.6339 9608.56 9125.39 113.90
13426 52.6376 9323.97 9137.13 110.90
13427 52.6413 9392.07 9149.70 110.97
13428 52.6451 9479.17 9163.22 111.79
13429 52.6488 9448.93 9176.08 111.84
13430 52.6526 9220.80 9187.75 110.43
13431 52.6563 9291.28 9196.41 110.29
13432 52.6601 9174.11 9201.92 110.43
13433 52.6640 9595.98 9204.58 112.36
13434 52.6676 9454.63 9206.04 111.91
13435 52.6715 9518.07 9208.58 112.67
13436 52.6752 9245.28 9214.05 110.55
13437 52.6790 9686.76 9224.39 112.38
13438 52.6827 9421.96 9240.21 110.14
13439 52.6865 9642.54 9262.95 111.77
13440 52.6903 9489.01 9292.35 110.94
13441 52.6940 9459.67 9326.60 108.47
13442 52.7015 9887.16 9405.22 110.58
13443 52.7090 9929.04 9470.69 114.50
13444 52.7127 9627.93 9486.91 111.20
13445 52.7164 9575.84 9489.18 111.56
13446 52.7202 9494.09 9480.80 110.59
13447 52.7240 9922.96 9467.93 113.54
13448 52.7277 9435.32 9457.83 108.85
13449 52.7315 9857.66 9455.82 114.83
13450 52.7352 9797.32 9466.12 113.34
13451 52.7391 9902.92 9491.93 112.65
13452 52.7427 9712.85 9532.79 111.35
13453 52.7466 9947.78 9590.12 112.76
13454 52.7504 9808.71 9659.90 112.41
13455 52.7541 10026.30 9734.45 114.20
13456 52.7579 10038.10 9808.76 113.96
13457 52.7616 10308.10 9866.93 115.88
13458 52.7654 10084.80 9899.18 114.81
13459 52.7691 10359.80 9894.70 116.36
13460 52.7729 10196.50 9852.71 115.75
13461 52.7766 10377.60 9783.40 116.68
13462 52.7803 9975.88 9695.24 114.01
13463 52.7841 9958.93 9601.57 113.52
13464 52.7878 10012.60 9512.96 114.51
13465 52.7916 9828.07 9429.92 113.28
13466 52.7953 9535.16 9359.21 111.43
13467 52.7991 9598.10 9298.14 111.43
13468 52.8028 9570.93 9249.54 111.58
13469 52.8066 9540.82 9209.88 111.26
13470 52.8105 9533.25 9179.05 112.02
13471 52.8142 9362.03 9156.00 109.79
13472 52.8180 9465.24 9137.90 110.91
13473 52.8217 9535.64 9124.41 111.36
13474 52.8255 9262.01 9113.65 108.95
13475 52.8292 9386.94 9105.39 109.13
13476 52.8330 9469.20 9098.53 113.18
13477 52.8367 9434.37 9093.01 111.62
13478 52.8405 8994.89 9088.22 107.54
13479 52.8442 9474.25 9084.11 110.16
13480 52.8479 9181.50 9080.62 108.68
13481 52.8517 9442.74 9077.45 110.41
13482 52.8554 9156.71 9074.72 108.72
13483 52.8592 9292.63 9072.20 110.08
13484 52.8629 9307.96 9070.00 109.85
13485 52.8667 9451.50 9067.96 111.23
13486 52.8705 9263.72 9066.12 109.56
13487 52.8742 9504.14 9064.49 111.04
13488 52.8781 9226.95 9062.97 109.63
13489 52.8817 9347.49 9061.62 110.28
13490 52.8856 9418.16 9060.35 110.65
13491 52.8893 9470.32 9059.22 110.93
13492 52.8931 9293.66 9058.16 109.68
13493 52.8969 9388.42 9057.19 110.13
13494 52.9006 9334.46 9056.32 109.81
13495 52.9044 9261.15 9055.51 108.59
13496 52.9081 9280.30 9054.79 110.09
13497 52.9118 9382.42 9054.11 110.10
13498 52.9156 9170.73 9053.52 109.14
13499 52.9193 9492.84 9052.97 111.61
13500 52.9231 9206.50 9052.47 109.32
13501 52.9268 9363.67 9052.05 108.67
13502 52.9306 9311.73 9051.66 112.30
13503 52.9343 9197.51 9051.34 109.95
13504 52.9381 9136.78 9051.07 108.79
13505 52.9418 9395.37 9050.86 110.03
13506 52.9456 9349.84 9050.69 108.89
13507 52.9493 9257.07 9050.59 109.82
13508 52.9532 9219.70 9050.55 109.35
13509 52.9570 9363.12 9050.57 110.37
13510 52.9607 9172.92 9050.66 109.26
13511 52.9645 9281.41 9050.82 109.32
13512 52.9682 9261.22 9051.06 109.82
13513 52.9720 9354.98 9051.40 110.38
13514 52.9757 9121.92 9051.82 109.22
13515 52.9795 9464.84 9052.37 111.11
13516 52.9832 9143.90 9053.05 108.65
13517 52.9869 9502.94 9053.87 111.61
13518 52.9907 9197.58 9054.89 109.60
13519 52.9944 9247.23 9056.11 109.58
13520 52.9982 9430.76 9057.66 110.43
13521 53.0020 9431.09 9059.59 110.73
13522 53.0057 9105.88 9061.99 108.47
13523 53.0095 9385.02 9065.17 110.91
13524 53.0132 9203.45 9069.24 108.61
13525 53.0171 9438.35 9074.76 110.83
13526 53.0207 9289.97 9081.90 108.80
13527 53.0246 9236.02 9091.56 109.25
13528 53.0283 9171.14 9103.81 107.76
13529 53.0321 9480.95 9119.85 113.46
13530 53.0359 9425.93 9139.92 111.43
13531 53.0396 9462.76 9163.47 110.93
13532 53.0434 9267.52 9191.80 109.47
13533 53.0471 9623.75 9222.69 111.92
13534 53.0508 9435.77 9256.50 110.25
13535 53.0546 9789.45 9289.93 112.05
13536 53.0583 9727.27 9318.65 113.28
13537 53.0621 9757.97 9339.65 113.25
13538 53.0658 9649.63 9347.90 112.32
13539 53.0696 9816.53 9342.13 113.10
13540 53.0733 9726.25 9324.30 112.79
13541 53.0771 9690.27 9297.60 112.64
13542 53.0810 9470.86 9267.20 111.33
13543 53.0846 9554.73 9237.79 111.80
13544 53.0885 9453.62 9210.60 110.84
13545 53.0922 9555.85 9188.73 111.48
13546 53.0960 9565.28 9172.16 111.61
13547 53.0997 9607.40 9162.35 112.12
13548 53.1035 9298.68 9159.05 110.06
13549 53.1073 9501.15 9162.63 111.58
13550 53.1110 9698.75 9172.42 113.59
13551 53.1147 9646.96 9188.39 111.57
13552 53.1185 9640.21 9208.77 112.72
13553 53.1222 9661.30 9233.25 112.82
13554 53.1259 9343.37 9258.42 108.84
13555 53.1297 9862.74 9282.47 113.93
13556 53.1335 9581.98 9300.68 114.05
13557 53.1372 9709.85 9308.85 112.72
13558 53.1410 9606.02 9304.99 111.19
13559 53.1447 9811.50 9289.74 113.30
13560 53.1485 9354.02 9265.30 110.71
13561 53.1522 9489.47 9236.84 111.77
13562 53.1561 9386.37 9206.30 111.25
13563 53.1599 9441.27 9177.00 111.33
13564 53.1636 9375.64 9151.06 111.34
13565 53.1674 9513.97 9127.89 112.21
13566 53.1711 9242.58 9108.91 110.89
13567 53.1749 9362.54 9092.98 111.28
13568 53.1786 9518.04 9080.32 111.74
13569 53.1824 9401.98 9070.67 110.92
13570 53.1861 9321.05 9063.00 111.17
13571 53.1898 9362.51 9057.23 110.67
13572 53.1936 9214.12 9052.63 110.11
13573 53.1973 9321.13 9049.10 110.68
13574 53.2011 9093.75 9046.19 107.80
13575 53.2049 9256.81 9043.80 109.68
13576 53.2086 9242.60 9041.84 110.73
13577 53.2124 9416.34 9040.11 111.64
13578 53.2161 9090.53 9038.63 109.50
13579 53.2200 9402.92 9037.28 111.33
13580 53.2237 9000.85 9036.11 108.77
13581 53.2275 9303.68 9035.01 109.09
13582 53.2313 9282.29 9034.02 112.25
13583 53.2350 9462.69 9033.14 112.88
13584 53.2388 9198.04 9032.30 109.90
13585 53.2425 9348.02 9031.55 110.12
13586 53.2463 9107.47 9030.83 109.12
13587 53.2500 9339.53 9030.17 110.79
13588 53.2537 9180.22 9029.56 109.61
13589 53.2575 9349.48 9028.98 110.52
13590 53.2612 9057.23 9028.45 109.14
13591 53.2650 9297.95 9027.94 110.89
13592 53.2687 9180.10 9027.46 108.32
13593 53.2725 9242.68 9027.00 110.00
13594 53.2763 9209.83 9026.57 109.29
13595 53.2800 9277.04 9026.16 110.19
13596 53.2839 9315.92 9025.70 110.62
13597 53.2876 9398.65 9025.33 110.87
13598 53.2914 9288.67 9024.97 110.37
13599 53.2951 9529.44 9024.63 111.44
13600 53.2989 9106.20 9024.29 108.16
13601 53.3027 9351.02 9023.98 110.86
13602 53.3064 9148.94 9023.67 109.53
13603 53.3102 9413.68 9023.38 111.36
13604 53.3139 9128.23 9023.10 107.79
13605 53.3176 9453.26 9022.82 111.87
13606 53.3214 9197.74 9022.55 110.17
13607 53.3251 9414.16 9022.30 110.80
13608 53.3289 9180.19 9022.04 108.06
13609 53.3326 9608.71 9021.81 115.56
13610 53.3364 9215.11 9021.57 110.44
13611 53.3401 9335.11 9021.09 110.32
13612 53.3439 8932.51 9020.86 106.51
13613 53.3478 9393.80 9020.65 109.84
13614 53.3515 9193.79 9020.44 109.64
13615 53.3553 9421.79 9020.23 110.45
13616 53.3590 9125.12 9020.04 109.54
13617 53.3628 9343.38 9019.84 109.74
13618 53.3666 9206.57 9019.64 108.58
13619 53.3703 9270.13 9019.46 110.20
13620 53.3741 9252.35 9019.27 110.04
13621 53.3778 9408.85 9019.10 110.66
13622 53.3815 9277.69 9018.92 110.00
13623 53.3853 9427.29 9018.75 110.99
13624 53.3890 9112.02 9018.57 109.40
13625 53.3928 9360.91 9018.41 111.01
13626 53.3965 9006.14 9017.66 107.66
13627 53.4003 9314.19 9017.51 110.76
13628 53.4040 9189.88 9017.36 109.53
13629 53.4078 9258.06 9017.21 110.06
13630 53.4117 9249.81 9017.06 110.81
13631 53.4154 9404.22 9016.92 111.35
13632 53.4192 9165.28 9016.77 109.65
13633 53.4229 9472.29 9016.64 110.66
13634 53.4267 9366.10 9016.50 109.26
13635 53.4304 9386.14 9016.37 112.35
13636 53.4342 9296.50 9016.23 112.20
13637 53.4380 9359.87 9016.10 109.02
13638 53.4417 9204.79 9015.97 108.96
13639 53.4454 9321.13 9015.84 110.17
13640 53.4492 9307.33 9015.72 110.12
13641 53.4529 9233.80 9015.59 110.09
13642 53.4567 9191.83 9015.47 109.47
13643 53.4604 9392.85 9015.35 111.38
13644 53.4642 9150.82 9015.23 109.00
13645 53.4679 9300.85 9015.11 110.24
13646 53.4717 9019.01 9015.00 108.68
13647 53.4754 9286.15 9014.88 110.66
13648 53.4793 9094.03 9014.77 108.85
13649 53.4831 9258.64 9014.66 110.26
13650 53.4868 9159.68 9014.55 109.34
13651 53.4906 9369.19 9014.44 110.54
13652 53.4943 9141.04 9014.33 108.18
13653 53.4981 9260.77 9014.22 110.37
13654 53.5019 9251.22 9014.12 110.15
13655 53.5056 9210.26 9014.02 109.66
13656 53.5093 9308.27 9013.91 110.49
13657 53.5131 9317.50 9013.81 110.36
13658 53.5168 9220.50 9013.71 109.97
13659 53.5206 9290.79 9013.61 109.00
13660 53.5243 9201.07 9013.52 109.85
13661 53.5281 9142.75 9013.42 107.20
13662 53.5318 9332.08 9013.33 112.83
13663 53.5356 9297.82 9013.23 111.39
13664 53.5393 9162.22 9013.14 109.67
13665 53.5432 9428.01 9013.05 111.21
13666 53.5470 9203.35 9012.96 109.89
13667 53.5507 9464.22 9012.87 110.83
13668 53.5545 9262.87 9012.78 109.49
13669 53.5582 9285.57 9012.69 110.40
13670 53.5620 9228.36 9012.60 109.57
13671 53.5658 9460.07 9012.52 112.13
13672 53.5695 9124.29 9012.43 109.35
13673 53.5732 9449.19 9012.35 111.26
13674 53.5770 9222.92 9012.27 109.93
13675 53.5807 9453.89 9012.19 111.66
13676 53.5845 9164.31 9012.11 109.87
13677 53.5882 9509.48 9012.03 112.19
13678 53.5920 9241.54 9011.95 110.17
13679 53.5957 9416.24 9011.87 110.28
13680 53.5995 9353.86 9011.79 111.06
13681 53.6032 9471.77 9011.72 111.69
13682 53.6071 9233.21 9011.65 110.18
13683 53.6109 9380.38 9011.57 110.96
13684 53.6146 9262.88 9011.50 110.45
13685 53.6184 9396.96 9011.43 109.82
13686 53.6221 9326.12 9011.36 110.87
13687 53.6259 9459.46 9011.29 111.99
13688 53.6297 9078.70 9011.22 107.28
13689 53.6334 9447.52 9011.15 113.98
13690 53.6371 9058.70 9011.08 110.39
13691 53.6409 9313.57 9011.01 110.01
13692 53.6446 9220.75 9010.95 108.62
13693 53.6484 9327.22 9010.88 110.22
13694 53.6521 9224.41 9010.82 109.53
13695 53.6559 9368.38 9010.76 110.06
13696 53.6596 9218.82 9010.70 109.08
13697 53.6634 9343.20 9010.63 110.39
13698 53.6673 9024.03 9010.57 108.14
13699 53.6710 9321.89 9010.51 110.42
13700 53.6748 9028.43 9010.45 107.33
13701 53.6785 9317.51 9010.40 109.83
13702 53.6823 9284.39 9010.34 109.31
13703 53.6860 9139.68 9010.28 108.82
13704 53.6898 9159.73 9010.23 108.53
13705 53.6936 9378.38 9010.17 110.18
13706 53.6973 9226.13 9009.90 109.29
13707 53.7010 9553.29 9009.85 111.84
13708 53.7048 9243.82 9009.80 109.63
13709 53.7085 9191.34 9009.75 108.74
13710 53.7123 9122.56 9009.71 109.36
13711 53.7160 9393.72 9009.66 110.10
13712 53.7198 9163.39 9009.61 109.35
13713 53.7235 9373.20 9009.57 110.61
13714 53.7273 9144.51 9009.52 108.00
13715 53.7312 9241.59 9009.48 108.82
13716 53.7349 9407.81 9009.43 112.83
13717 53.7387 9359.93 9009.39 109.86
13718 53.7424 9226.15 9009.35 108.93
13719 53.7462 9499.35 9009.31 110.35
13720 53.7500 9093.46 9009.26 108.12
13721 53.7537 9178.57 9009.22 108.59
13722 53.7575 9217.47 9009.19 109.40
13723 53.7612 9588.58 9009.15 111.22
13724 53.7649 9314.47 9009.11 109.92
13725 53.7687 9251.30 9009.07 109.45
13726 53.7724 9201.29 9008.85 107.68
13727 53.7762 9235.54 9008.81 108.58
13728 53.7799 9248.33 9008.78 109.55
13729 53.7837 9355.40 9008.75 110.34
13730 53.7874 9234.42 9008.72 109.38
13731 53.7912 9339.25 9008.69 110.45
13732 53.7951 9295.34 9008.66 110.18
13733 53.7988 9514.24 9008.63 111.31
13734 53.8026 9213.11 9008.60 108.97
13735 53.8063 9365.38 9008.57 110.21
13736 53.8101 9322.86 9008.55 110.07
13737 53.8139 9413.22 9008.52 110.88
13738 53.8176 9450.54 9008.49 111.09
13739 53.8214 9380.72 9008.47 109.64
13740 53.8251 9266.92 9008.45 109.52
13741 53.8288 9201.48 9008.42 107.85
13742 53.8326 9391.29 9008.40 111.88
13743 53.8363 9584.16 9008.38 112.82
13744 53.8401 9323.98 9008.35 110.11
13745 53.8438 9311.87 9008.33 109.03
13746 53.8476 9217.18 9008.31 109.12
13747 53.8515 9397.23 9008.29 110.73
13748 53.8551 9341.47 9062.73 110.39
13749 53.8590 9313.26 9063.36 109.24
13750 53.8627 9286.87 9063.98 110.06
13751 53.8665 9424.27 9064.63 111.00
13752 53.8703 9328.45 9065.30 110.32
13753 53.8740 9517.30 9065.96 111.66
13754 53.8778 9381.17 9066.66 110.62
13755 53.8815 9476.98 9067.34 111.40
13756 53.8853 9367.20 9068.07 110.74
13757 53.8890 9383.68 9068.80 111.25
13758 53.8927 9221.19 9069.53 110.21
13759 53.8965 9493.40 9070.30 111.49
13760 53.9002 9348.82 9071.06 110.29
13761 53.9040 9359.14 9071.85 110.15
13762 53.9077 9289.03 9072.64 110.15
13763 53.9115 9478.02 9073.47 111.92
13764 53.9154 9224.42 9074.31 109.30
13765 53.9190 9422.42 9075.16 111.11
13766 53.9229 9485.62 9076.03 111.63
13767 53.9266 9554.05 9076.91 111.54
13768 53.9304 9320.03 9077.83 108.91
13769 53.9342 9517.18 9078.76 114.45
13770 53.9379 9354.97 9079.69 111.33
13771 53.9417 9651.91 9080.67 112.33
13772 53.9454 9361.69 9081.64 110.28
13773 53.9492 9405.74 9082.66 111.00
13774 53.9529 9482.48 9083.70 111.71
13775 53.9566 9566.02 9084.73 112.45
13776 53.9604 9346.55 9137.71 110.48
13777 53.9641 9423.13 9139.38 110.64
13778 53.9679 9447.82 9141.14 110.92
13779 53.9717 9614.38 9142.94 112.85
13780 53.9754 9517.79 9144.72 112.01
13781 53.9793 9706.05 9146.59 112.90
13782 53.9829 9521.25 9148.45 112.33
13783 53.9868 9459.77 9150.40 111.24
13784 53.9906 9410.07 9152.39 111.05
13785 53.9943 9553.01 9205.14 112.15
13786 53.9981 9325.72 9207.82 110.38
13787 54.0018 9560.00 9210.48 112.09
13788 54.0056 9484.45 9213.27 111.38
13789 54.0093 9734.64 9216.12 112.69
13790 54.0131 9494.59 9218.96 112.44
13791 54.0168 9616.55 9221.92 111.52
13792 54.0205 9440.24 9224.88 112.05
13793 54.0243 9732.21 9227.98 113.52
13794 54.0281 9318.71 9231.14 109.77
13795 54.0318 9738.13 9234.30 114.07
13796 54.0356 9447.03 9237.60 113.81
13797 54.0393 9584.75 9240.89 112.33
13798 54.0432 9562.31 9244.34 111.58
13799 54.0470 9489.74 9247.88 111.52
13800 54.0507 9490.07 9251.40 111.72
13801 54.0545 9564.09 9255.09 111.86
13802 54.0582 9453.40 9258.77 111.68
13803 54.0620 9649.88 9262.65 113.04
13804 54.0658 9347.71 9266.61 110.03
13805 54.0695 9624.40 9270.55 112.68
13806 54.0732 9740.19 9274.70 113.44
13807 54.0770 9538.49 9278.84 112.55
13808 54.0807 9660.35 9283.19 113.09
13809 54.0845 9580.41 9287.64 111.64
13810 54.0882 9596.76 9292.09 111.84
13811 54.0920 9742.80 9296.77 112.72
13812 54.0957 9691.35 9301.44 112.96
13813 54.0995 9736.16 9306.36 113.25
13814 54.1034 9663.06 9311.40 113.00
13815 54.1071 9720.13 9316.43 112.52
13816 54.1109 9531.62 9321.74 112.00
13817 54.1146 9762.86 9327.04 113.91
13818 54.1184 9554.43 9332.63 112.91
13819 54.1222 9750.62 9338.37 113.99
13820 54.1259 9530.37 9344.11 111.69
13821 54.1297 9701.73 9350.16 111.52
13822 54.1334 9587.59 9356.21 114.10
13823 54.1371 9867.58 9362.60 115.33
13824 54.1409 9461.78 9369.16 111.48
13825 54.1446 9753.04 9375.74 111.94
13826 54.1484 9564.49 9382.68 111.70
13827 54.1521 9893.09 9389.64 114.50
13828 54.1559 9536.22 9396.98 111.45
13829 54.1598 9720.75 9404.55 112.61
13830 54.1634 9571.78 9412.14 111.75
13831 54.1673 9788.44 9420.17 113.25
13832 54.1710 9615.77 9428.22 112.54
13833 54.1748 9867.36 9436.74 113.73
13834 54.1786 9553.54 9445.53 112.11
13835 54.1823 9732.94 9454.35 112.85
13836 54.1861 9760.17 9463.72 111.95
13837 54.1898 10042.80 9473.11 114.93
13838 54.1936 9595.85 9483.08 111.62
13839 54.1973 9821.35 9493.36 113.77
13840 54.2010 9636.59 9503.73 111.96
13841 54.2048 9754.48 9514.71 112.90
13842 54.2085 9676.41 9525.79 111.98
13843 54.2123 9889.22 9537.54 114.74
13844 54.2161 9709.43 9549.72 113.00
13845 54.2198 9817.03 9561.99 113.75
13846 54.2237 9652.33 9575.05 112.39
13847 54.2273 9863.22 9588.21 112.56
13848 54.2312 9805.38 9602.25 112.20
13849 54.2349 10047.10 9616.41 117.38
13850 54.2387 9872.86 9631.51 113.60
13851 54.2425 9958.73 9647.21 113.43
13852 54.2462 9720.84 9663.07 112.24
13853 54.2500 9868.78 9680.03 113.30
13854 54.2537 9925.29 9697.65 113.53
13855 54.2575 10068.50 9715.53 115.12
13856 54.2612 9859.98 9734.62 114.01
13857 54.2649 10028.60 9754.02 114.56
13858 54.2687 9938.01 9774.76 114.57
13859 54.2725 10330.80 9796.44 116.22
13860 54.2762 9986.99 9818.46 114.79
13861 54.2800 10198.30 9842.10 115.93
13862 54.2837 10265.90 9866.16 116.36
13863 54.2876 10221.00 9892.03 115.96
13864 54.2912 9946.03 9918.39 113.55
13865 54.2951 10216.30 9946.78 116.00
13866 54.2989 10192.30 9976.58 115.51
13867 54.3026 10354.50 10007.00 116.92
13868 54.3064 10097.20 10039.90 114.55
13869 54.3101 10318.80 10073.60 115.41
13870 54.3139 10227.30 10110.00 116.62
13871 54.3176 10233.80 10148.40 115.77
13872 54.3214 10241.70 10187.90 116.92
13873 54.3251 10565.10 10230.60 118.08
13874 54.3289 10267.50 10276.00 115.69
13875 54.3326 10543.10 10322.60 118.40
13876 54.3364 10453.00 10373.50 119.77
13877 54.3401 10797.50 10426.10 120.15
13878 54.3439 10558.40 10483.50 117.85
13879 54.3476 10878.60 10543.00 120.18
13880 54.3515 10775.80 10608.20 119.94
13881 54.3553 10877.90 10677.90 120.03
13882 54.3590 10720.80 10750.50 119.48
13883 54.3628 11269.80 10830.40 122.61
13884 54.3665 11051.90 10914.00 120.97
13885 54.3703 11161.50 11006.30 122.16
13886 54.3741 11191.70 11106.10 122.59
13887 54.3778 11052.80 11211.00 121.81
13888 54.3815 11474.20 11327.70 123.73
13889 54.3853 11817.80 11454.60 126.00
13890 54.3890 11805.90 11589.10 125.78
13891 54.3928 11820.40 11740.00 125.68
13892 54.3965 11754.50 11900.80 125.31
13893 54.4003 12503.50 12082.40 130.28
13894 54.4040 12316.20 12277.30 129.27
13895 54.4078 12877.60 12499.10 131.92
13896 54.4117 13125.80 12746.30 133.59
13897 54.4154 13400.50 13015.50 135.96
13898 54.4192 13775.00 13327.50 138.15
13899 54.4229 14418.00 13673.20 141.79
13900 54.4267 14866.60 14083.00 142.60
13901 54.4305 15917.70 14564.60 148.25
13902 54.4342 16881.70 15124.90 158.39
13903 54.4380 18166.60 15828.70 162.58
13904 54.4417 18766.90 16710.50 164.61
13905 54.4454 20626.80 17802.70 174.08
13906 54.4492 22320.60 19250.90 180.25
13907 54.4529 24184.60 21078.90 191.01
13908 54.4567 26055.20 23511.30 200.03
13909 54.4605 29475.70 26639.60 213.23
13910 54.4642 31748.10 30476.80 223.20
13911 54.4680 35514.80 35340.30 241.20
13912 54.4717 39803.60 41022.60 259.51
13913 54.4756 45587.10 47817.80 280.52
13914 54.4794 51640.60 55437.20 302.86
13915 54.4831 59658.20 63374.20 330.56
13916 54.4869 65815.30 71517.50 350.35
13917 54.4906 74143.10 78690.70 382.17
13918 54.4944 76774.00 84247.00 389.51
13919 54.4981 79008.20 86953.60 397.45
13920 54.5019 75712.00 86307.30 386.70
13921 54.5056 72732.00 82465.90 376.91
13922 54.5093 65106.30 76440.80 349.45
13923 54.5131 59786.50 68961.40 334.70
13924 54.5169 52114.30 61122.50 304.46
13925 54.5206 46582.40 53796.70 285.08
13926 54.5244 40912.60 46988.90 262.39
13927 54.5281 37845.30 41278.50 246.80
13928 54.5320 34332.60 36435.10 238.71
13929 54.5358 32526.10 32628.30 229.76
13930 54.5395 29761.30 29850.00 216.07
13931 54.5433 29247.40 27867.70 211.31
13932 54.5470 27842.30 26693.60 207.06
13933 54.5508 28616.60 26195.40 211.58
13934 54.5546 28308.50 26373.80 210.76
13935 54.5583 29568.40 27198.30 214.79
13936 54.5620 30712.90 28756.00 220.49
13937 54.5658 32615.70 31035.30 229.30
13938 54.5695 34752.40 34258.30 236.91
13939 54.5733 38801.80 38473.10 255.11
13940 54.5770 42464.70 43602.40 264.93
13941 54.5808 48431.80 49962.60 292.53
13942 54.5845 54510.70 57168.90 313.46
13943 54.5883 63085.20 65463.10 344.06
13944 54.5922 72635.50 74320.10 374.37
13945 54.5959 84129.00 82968.30 414.25
13946 54.5997 93181.70 91070.40 445.14
13947 54.6034 102088.00 97366.00 469.37
13948 54.6072 103768.00 101539.00 471.92
13949 54.6110 105193.00 103360.00 477.95
13950 54.6147 102389.00 103465.00 471.39
13951 54.6185 100460.00 102794.00 464.67
13952 54.6222 97127.40 102172.00 455.98
13953 54.6259 98534.80 101999.00 460.71
13954 54.6297 98520.70 102261.00 456.03
13955 54.6334 102194.00 102446.00 470.88
13956 54.6372 103756.00 101717.00 485.05
13957 54.6409 104059.00 99253.90 478.85
13958 54.6447 97272.80 94416.70 453.48
13959 54.6485 91985.30 87412.30 438.03
13960 54.6522 80131.80 79173.50 399.62
13961 54.6561 70206.10 70133.30 368.17
13962 54.6598 58855.30 61444.90 328.21
13963 54.6636 51414.50 53145.60 302.24
13964 54.6674 43146.00 45739.90 272.66
13965 54.6711 37990.90 39517.10 250.23
13966 54.6749 32394.00 34142.90 227.65
13967 54.6786 28914.30 29864.50 214.11
13968 54.6824 25621.80 26325.60 198.10
13969 54.6861 24123.20 23538.10 191.38
13970 54.6898 21241.90 21413.40 175.88
13971 54.6936 20340.70 19707.10 173.31
13972 54.6973 18306.90 18404.30 163.58
13973 54.7011 17515.90 17341.40 157.78
13974 54.7049 16538.30 16486.60 154.07
13975 54.7086 15733.10 15800.80 148.58
13976 54.7124 14973.30 15210.00 145.56
13977 54.7161 14558.80 14717.50 140.37
13978 54.7200 14012.10 14278.70 139.36
13979 54.7238 13463.40 13893.20 136.72
13980 54.7275 13044.60 13560.30 132.93
13981 54.7313 12675.90 13254.40 129.66
13982 54.7350 12608.00 12986.70 133.89
13983 54.7388 12586.00 12737.90 129.67
13984 54.7425 11870.70 12512.70 126.57
13985 54.7463 11986.00 12313.30 127.15
13986 54.7500 11637.90 12126.20 125.19
13987 54.7537 11742.30 11959.50 126.14
13988 54.7575 11443.80 11802.20 123.26
13989 54.7613 11514.00 11657.70 123.99
13990 54.7650 11252.80 11527.80 122.34
13991 54.7688 11363.70 11404.50 121.59
13992 54.7725 11151.50 11293.20 121.45
13993 54.7763 11087.80 11187.10 121.18
13994 54.7802 11073.30 11088.50 121.19
13995 54.7839 10968.60 10999.00 121.02
13996 54.7877 10804.60 10913.20 120.44
13997 54.7914 10840.20 10835.10 119.40
13998 54.7952 10817.40 10759.90 120.83
13999 54.7990 10814.60 10689.40 120.39
14000 54.8027 10412.80 10625.00 117.21
14001 54.8064 10569.40 10562.80 117.79
14002 54.8102 10455.50 10505.70 115.71
14003 54.8139 10527.40 10450.50 119.75
14004 54.8177 10269.40 10398.40 116.39
14005 54.8214 10565.30 10350.40 119.34
14006 54.8252 10364.40 10303.80 116.50
14007 54.8289 10523.20 10260.80 117.55
14008 54.8327 10258.10 10218.90 115.60
14009 54.8366 10341.80 10179.20 120.30
14010 54.8402 10092.80 10142.50 115.89
14011 54.8441 10317.40 10106.60 116.72
14012 54.8478 10152.50 10073.40 116.11
14013 54.8516 10205.40 10040.80 116.24
14014 54.8554 10135.70 10009.80 115.59
14015 54.8591 10264.20 9981.07 115.74
14016 54.8629 10203.60 9952.81 116.90
14017 54.8666 10294.70 9926.56 116.52
14018 54.8703 9890.70 9900.77 114.53
14019 54.8741 10029.90 9876.13 115.09
14020 54.8778 10066.40 9853.14 114.59
14021 54.8816 9914.00 9830.54 114.67
14022 54.8853 9819.92 9809.41 113.79
14023 54.8891 10133.80 9788.63 116.16
14024 54.8929 9827.07 9768.67 113.86
14025 54.8966 10146.30 9750.02 116.46
14026 54.9005 9743.39 9731.61 113.49
14027 54.9041 9987.40 9714.38 115.15
14028 54.9080 9832.13 9697.35 113.32
14029 54.9118 9870.15 9680.99 114.19
14030 54.9155 9832.66 9665.62 114.29
14031 54.9193 10069.60 9650.42 114.85
14032 54.9230 9724.33 9636.18 113.34
14033 54.9268 9693.21 9622.05 112.59
14034 54.9305 9543.84 9608.45 109.65
14035 54.9342 9967.65 9595.66 117.12
14036 54.9380 9599.96 9582.99 113.40
14037 54.9417 9914.74 9571.05 113.32
14038 54.9455 9683.46 9559.23 112.64
14039 54.9493 9806.68 9547.79 113.72
14040 54.9530 9641.80 9537.04 112.75
14041 54.9568 9810.10 9526.34 113.49
14042 54.9605 9619.77 9516.27 113.54
14043 54.9644 9897.95 9506.25 114.79
14044 54.9682 9749.32 9496.56 113.94
14045 54.9719 9863.90 9487.41 114.70
14046 54.9757 9603.44 9478.32 112.93
14047 54.9794 9974.87 9469.94 114.18
14048 54.9832 9548.92 9461.39 112.78
14049 54.9869 9935.19 9453.11 115.21
14050 54.9907 9745.63 9445.27 112.87
14051 54.9944 9852.24 9437.47 114.63
14052 54.9981 9442.83 9430.10 111.26
14053 55.0019 9798.21 9422.75 113.28
14054 55.0057 9747.19 9415.61 114.00
14055 55.0094 9785.32 9408.86 113.93
14056 55.0132 9572.93 9402.12 112.94
14057 55.0169 9699.52 9395.74 113.26
14058 55.0207 9580.72 9389.37 111.89
14059 55.0246 9653.42 9383.18 113.18
14060 55.0283 9435.87 9377.32 111.15
14061 55.0321 9465.17 9371.50 109.54
14062 55.0358 9565.30 9365.94 114.68
14063 55.0396 9520.91 9360.40 112.34
14064 55.0434 9649.06 9355.00 112.92
14065 55.0471 9713.64 9349.87 112.92
14066 55.0508 9514.14 9344.76 112.15
14067 55.0546 9906.46 9339.90 114.60
14068 55.0583 9479.96 9335.04 111.87
14069 55.0621 9668.35 9330.30 113.36
14070 55.0658 9667.18 9326.24 113.71
14071 55.0696 9654.00 9321.75 113.21
14072 55.0733 9373.57 9317.48 111.68
14073 55.0771 9605.83 9313.21 112.69
14074 55.0810 9440.52 9309.17 112.61
14075 55.0846 9579.56 9305.21 112.96
14076 55.0885 9293.59 9301.25 110.82
14077 55.0922 9752.39 9297.48 114.16
14078 55.0960 9453.33 9293.71 111.96
14079 55.0998 9662.60 9290.02 112.21
14080 55.1035 9539.74 9286.52 112.57
14081 55.1073 9568.14 9283.01 112.18
14082 55.1110 9567.53 9279.67 112.62
14083 55.1147 9681.46 9276.33 113.28
14084 55.1185 9597.22 9273.06 112.85
14085 55.1222 9571.42 9269.95 112.22
14086 55.1260 9357.40 9266.82 111.55
14087 55.1297 9609.34 9263.86 111.35
14088 55.1335 9664.00 9260.88 115.28
14089 55.1373 9652.01 9257.96 114.51
14090 55.1410 9374.84 9255.19 111.01
14091 55.1449 9661.54 9252.41 112.90
14092 55.1485 9250.25 9196.14 110.07
14093 55.1524 9521.18 9194.09 112.36
14094 55.1561 9233.58 9192.16 110.15
14095 55.1599 9588.95 9190.21 112.54
14096 55.1637 9447.15 9188.31 112.21
14097 55.1674 9491.61 9186.50 110.87
14098 55.1712 9344.83 9184.69 110.90
14099 55.1749 9334.67 9182.97 111.12
14100 55.1786 9310.47 9181.24 111.04
14101 55.1824 9582.89 9179.55 112.32
14102 55.1861 9382.54 9177.95 110.85
14103 55.1899 9422.50 9176.33 110.12
14104 55.1936 9509.62 9174.80 112.28
14105 55.1974 9441.04 9173.26 111.10
14106 55.2012 9417.55 9171.75 111.15
14107 55.2049 9521.06 9170.32 112.58
14108 55.2088 9358.19 9168.88 110.98
14109 55.2124 9536.95 9167.52 112.56
14110 55.2163 9524.54 9166.15 112.39
14111 55.2201 9577.22 9164.80 112.50
14112 55.2238 9272.54 9163.53 110.65
14113 55.2276 9530.87 9162.25 112.38
14114 55.2313 9289.49 9161.03 109.10
14115 55.2351 9633.87 9159.80 115.19
14116 55.2388 9286.97 9158.60 111.33
14117 55.2425 9444.30 9157.47 110.94
14118 55.2463 9251.02 9156.32 109.07
14119 55.2500 9347.99 9155.23 110.79
14120 55.2538 9245.65 9154.14 109.35
14121 55.2576 9404.30 9102.08 111.42
14122 55.2613 9393.78 9101.64 111.35
14123 55.2651 9524.97 9101.20 112.05
14124 55.2688 9265.82 9100.78 110.23
14125 55.2727 9413.59 9100.37 110.56
14126 55.2765 9104.91 9099.96 109.54
14127 55.2802 9470.67 9099.58 111.52
14128 55.2840 9104.23 9099.21 109.31
14129 55.2877 9493.81 9098.85 111.81
14130 55.2915 9214.66 9048.05 109.83
14131 55.2952 9370.43 9048.30 110.46
14132 55.2990 9214.02 9048.53 109.08
14133 55.3027 9458.05 9048.78 111.78
14134 55.3064 9329.50 9053.42 110.51
14135 55.3102 9405.15 9053.72 109.90
14136 55.3140 9258.01 9054.02 111.04
14137 55.3177 9365.17 9054.32 110.63
14138 55.3215 9313.57 9054.63 110.47
14139 55.3252 9575.07 9054.93 112.58
14140 55.3290 9130.95 9055.25 109.51
14141 55.3329 9361.46 9055.57 110.12
14142 55.3366 9401.28 9055.88 114.38
14143 55.3404 9500.11 9056.21 111.55
14144 55.3441 9393.47 9056.53 110.84
14145 55.3479 9221.87 9056.86 109.49
14146 55.3516 9075.57 9057.19 108.92
14147 55.3554 9538.19 9057.53 111.83
14148 55.3591 9081.12 9057.87 109.06
14149 55.3629 9365.12 9058.21 110.66
14150 55.3666 9329.53 9058.56 109.92
14151 55.3703 9432.09 9058.91 111.53
14152 55.3741 9297.71 9059.27 109.81
14153 55.3779 9457.91 9059.64 111.54
14154 55.3816 9444.90 9060.00 111.52
14155 55.3854 9652.10 9060.38 112.56
14156 55.3891 9248.09 9060.75 109.97
14157 55.3929 9502.21 9061.14 111.33
14158 55.3968 9436.37 9061.53 111.60
14159 55.4005 9422.63 9061.92 110.97
14160 55.4043 9359.57 9062.32 110.65
14161 55.4080 9437.47 9067.85 111.50
14162 55.4118 9268.01 9068.33 110.31
14163 55.4156 9329.12 9068.82 109.96
14164 55.4193 9584.17 9069.30 113.06
14165 55.4230 9372.58 9069.81 111.62
14166 55.4268 9351.91 9070.31 111.20
14167 55.4305 9382.92 9070.84 108.91
14168 55.4343 9421.59 9074.40 114.29
14169 55.4380 9555.44 9074.97 112.83
14170 55.4418 9385.79 9075.56 109.91
14171 55.4455 9297.50 9076.16 110.26
14172 55.4493 9312.05 9076.78 110.64
14173 55.4532 9391.65 9077.41 110.22
14174 55.4568 9203.83 9078.05 110.26
14175 55.4607 9383.88 9078.72 111.09
14176 55.4644 9396.83 9079.39 111.78
14177 55.4682 9338.22 9080.09 110.76
14178 55.4719 9326.53 9080.80 111.43
14179 55.4757 9425.02 9081.54 112.18
14180 55.4795 9185.02 9082.31 109.92
14181 55.4832 9659.16 9083.08 111.79
14182 55.4869 9409.65 9083.90 111.30
14183 55.4907 9354.66 9084.72 111.79
14184 55.4944 9224.63 9085.59 110.82
14185 55.4982 9412.24 9086.50 110.78
14186 55.5019 9294.73 9087.42 111.49
14187 55.5057 9388.55 9088.39 111.21
14188 55.5094 9283.07 9089.39 110.31
14189 55.5132 9553.18 9090.45 112.75
14190 55.5171 9092.40 9091.57 109.08
14191 55.5207 9437.99 9092.71 112.43
14192 55.5246 9500.76 9093.93 110.74
14193 55.5283 9410.27 9095.19 111.28
14194 55.5321 9362.64 9096.56 109.83
14195 55.5359 9505.23 9098.01 114.99
14196 55.5396 9163.61 9099.51 109.76
14197 55.5434 9380.64 9101.16 110.79
14198 55.5471 9414.83 9102.88 110.71
14199 55.5508 9582.38 9104.78 112.97
14200 55.5546 9235.25 9106.85 109.95
14201 55.5583 9523.34 9109.04 112.98
14202 55.5621 9221.90 9111.54 111.03
14203 55.5658 9518.32 9114.26 111.51
14204 55.5696 9264.31 9117.43 109.60
14205 55.5733 9512.03 9121.02 111.51
14206 55.5771 9388.45 9125.39 110.28
14207 55.5810 9649.63 9130.68 112.52
14208 55.5846 9521.32 9137.03 111.75
14209 55.5885 9496.82 9145.16 111.33
14210 55.5922 9381.91 9155.10 110.74
14211 55.5960 9520.76 9167.86 111.47
14212 55.5998 9361.46 9183.76 110.68
14213 55.6035 9582.04 9202.62 111.40
14214 55.6073 9484.55 9225.84 110.82
14215 55.6110 9570.45 9252.20 110.92
14216 55.6147 9623.35 9282.78 112.36
14217 55.6185 9503.72 9316.12 110.87
14218 55.6222 9489.98 9349.66 111.58
14219 55.6260 9858.30 9382.73 114.03
14220 55.6297 9439.46 9410.17 110.53
14221 55.6335 9536.54 9429.53 110.35
14222 55.6372 9663.87 9436.79 114.40
14223 55.6410 9634.47 9431.67 112.71
14224 55.6449 9586.02 9415.99 111.38
14225 55.6485 9640.74 9394.36 110.97
14226 55.6524 9337.81 9369.76 109.47
14227 55.6561 9448.41 9346.65 111.13
14228 55.6599 9549.24 9326.21 111.15
14229 55.6637 9689.13 9310.59 112.29
14230 55.6674 9554.34 9301.05 110.44
14231 55.6712 9644.33 9297.59 111.90
14232 55.6749 9485.99 9300.74 110.54
14233 55.6786 9540.77 9310.78 111.17
14234 55.6824 9375.55 9327.73 110.50
14235 55.6861 9477.44 9350.83 109.54
14236 55.6899 9624.06 9381.43 111.42
14237 55.6936 9615.10 9418.22 111.37
14238 55.6974 9640.35 9463.71 112.20
14239 55.7011 9688.77 9515.67 112.20
14240 55.7049 9503.12 9576.44 110.74
14241 55.7088 9893.08 9642.66 113.39
14242 55.7124 9877.16 9708.79 113.10
14243 55.7163 9924.45 9772.18 114.31
14244 55.7200 10081.30 9822.15 113.84
14245 55.7238 9973.94 9853.73 114.64
14246 55.7276 9812.52 9860.96 113.18
14247 55.7313 9913.33 9845.09 112.82
14248 55.7351 9968.09 9809.47 114.94
14249 55.7388 9893.85 9761.22 115.22
14250 55.7425 9697.88 9702.56 111.59
14251 55.7463 9831.48 9638.78 112.91
14252 55.7500 9610.46 9575.73 110.70
14253 55.7538 9865.39 9513.56 112.21
14254 55.7575 9363.77 9458.31 110.08
14255 55.7613 9706.90 9408.59 112.21
14256 55.7650 9423.82 9367.69 110.00
14257 55.7688 9697.91 9333.22 112.28
14258 55.7727 9337.29 9305.83 109.87
14259 55.7763 9539.16 9285.07 111.68
14260 55.7802 9471.57 9268.93 110.82
14261 55.7839 9408.35 9257.35 110.35
14262 55.7877 9308.55 9248.89 109.67
14263 55.7915 9631.58 9243.17 111.77
14264 55.7952 9350.46 9239.67 110.12
14265 55.7990 9465.83 9237.76 110.31
14266 55.8027 9327.13 9237.19 109.43
14267 55.8064 9595.07 9237.69 111.61
14268 55.8102 9234.58 9239.07 109.26
14269 55.8139 9564.53 9241.27 111.23
14270 55.8177 9308.44 9244.21 109.52
14271 55.8214 9628.78 9247.72 111.08
14272 55.8252 9293.71 9251.98 110.43
14273 55.8289 9472.79 9256.76 110.81
14274 55.8327 9211.34 9262.34 108.12
14275 55.8366 9697.40 9268.60 114.59
14276 55.8402 9503.23 9275.40 111.87
14277 55.8441 9333.01 9283.14 109.73
14278 55.8478 9276.89 9291.48 109.11
14279 55.8516 9480.50 9300.94 110.55
14280 55.8553 9540.68 9311.08 111.29
14281 55.8591 9602.51 9322.56 112.31
14282 55.8629 9435.73 9335.26 110.21
14283 55.8666 9659.01 9348.91 112.38
14284 55.8703 9504.98 9364.41 110.79
14285 55.8741 9797.12 9381.17 113.49
14286 55.8778 9494.57 9400.31 111.33
14287 55.8816 9744.95 9421.76 112.89
14288 55.8853 9560.37 9445.24 111.74
14289 55.8891 9949.18 9472.60 113.83
14290 55.8928 9575.64 9503.11 112.15
14291 55.8966 9888.96 9539.54 113.63
14292 55.9003 9889.54 9581.44 113.56
14293 55.9041 9911.84 9633.35 113.82
14294 55.9080 10302.40 9697.39 116.29
14295 55.9117 10342.90 9775.52 116.79
14296 55.9155 10509.20 9877.75 118.18
14297 55.9192 10690.50 10005.50 118.57
14298 55.9230 10705.60 10174.30 119.98
14299 55.9267 11286.70 10384.50 123.05
14300 55.9305 10881.40 10657.70 118.70
14301 55.9342 11432.20 10997.10 123.83
14302 55.9380 11979.40 11398.70 130.30
14303 55.9417 12443.80 11885.30 130.30
14304 55.9454 12455.50 12428.40 129.66
14305 55.9492 13582.50 13042.50 135.49
14306 55.9530 13706.40 13687.80 137.10
14307 55.9567 15063.60 14302.20 145.29
14308 55.9605 15138.30 14855.20 145.00
14309 55.9642 15713.60 15241.80 148.15
14310 55.9680 15578.90 15412.00 147.41
14311 55.9717 15523.30 15325.90 148.08
14312 55.9756 15158.40 15002.30 145.71
14313 55.9794 14805.80 14507.10 143.45
14314 55.9831 13768.40 13938.20 137.86
14315 55.9869 13371.00 13332.00 135.73
14316 55.9906 12787.50 12767.80 131.38
14317 55.9944 12387.80 12244.50 129.25
14318 55.9981 11744.90 11796.40 125.87
14319 56.0019 11790.80 11438.20 126.22
14320 56.0056 11464.60 11151.90 124.32
14321 56.0093 11647.90 10949.10 125.55
14322 56.0131 11320.10 10814.60 122.74
14323 56.0168 11393.00 10751.10 124.14
14324 56.0206 11240.10 10752.70 122.16
14325 56.0244 11375.60 10822.20 123.40
14326 56.0281 11543.50 10958.70 124.68
14327 56.0320 11618.10 11175.70 123.94
14328 56.0356 11840.90 11470.50 128.71
14329 56.0395 12569.30 11867.40 132.64
14330 56.0432 12510.60 12354.20 130.40
14331 56.0470 13321.90 12960.40 135.38
14332 56.0508 13726.10 13673.60 137.84
14333 56.0545 14760.80 14458.30 143.22
14334 56.0583 15598.20 15332.00 147.92
14335 56.0620 16793.10 16200.50 154.16
14336 56.0658 17640.10 17041.50 159.26
14337 56.0695 18749.20 17724.70 164.52
14338 56.0732 18986.30 18208.20 166.24
14339 56.0770 19630.20 18432.10 169.89
14340 56.0807 19214.10 18421.20 165.98
14341 56.0845 19326.30 18234.70 167.15
14342 56.0882 18858.50 17940.60 165.52
14343 56.0920 18527.80 17554.80 163.31
14344 56.0957 18244.60 17098.10 162.47
14345 56.0995 17889.20 16531.70 160.07
14346 56.1034 17180.20 15865.80 156.82
14347 56.1071 16409.30 15145.10 151.87
14348 56.1109 15109.50 14377.70 143.82
14349 56.1146 14572.70 13647.80 142.84
14350 56.1184 13455.30 12952.90 136.44
14351 56.1222 12923.60 12332.20 132.87
14352 56.1259 12143.80 11809.00 128.14
14353 56.1297 11765.70 11353.70 125.83
14354 56.1334 11181.10 10986.00 119.39
14355 56.1371 11114.50 10677.50 122.53
14356 56.1409 10734.00 10435.60 120.62
14357 56.1446 10651.40 10237.60 118.12
14358 56.1484 10291.00 10080.80 116.14
14359 56.1521 10224.80 9959.74 116.29
14360 56.1559 9906.06 9860.29 114.37
14361 56.1596 10089.30 9782.13 114.83
14362 56.1634 9962.78 9716.24 114.29
14363 56.1671 9977.45 9662.76 114.99
14364 56.1710 9650.38 9616.13 112.15
14365 56.1748 9700.21 9576.05 112.74
14366 56.1785 9486.45 9541.93 111.13
14367 56.1823 9570.58 9511.01 112.36
14368 56.1860 9441.35 9484.18 111.47
14369 56.1898 9684.52 9459.48 113.03
14370 56.1935 9483.30 9437.83 111.31
14371 56.1973 9622.29 9417.67 112.49
14372 56.2010 9213.24 9399.42 110.00
14373 56.2048 9434.73 9383.20 111.60
14374 56.2085 9437.26 9368.00 110.83
14375 56.2122 9604.68 9354.42 112.16
14376 56.2160 9561.40 9341.62 112.26
14377 56.2197 9497.69 9330.14 111.37
14378 56.2235 9294.79 9319.28 110.75
14379 56.2273 9371.67 9309.23 111.03
14380 56.2310 9323.45 9300.18 110.09
14381 56.2349 9508.71 9291.55 110.96
14382 56.2385 9252.64 9283.75 111.86
14383 56.2424 9431.89 9276.28 111.16
14384 56.2461 9263.72 9269.50 109.56
14385 56.2499 9171.25 9263.01 108.91
14386 56.2537 9290.16 9256.93 110.31
14387 56.2574 9430.36 9251.40 111.18
14388 56.2612 9050.18 9246.07 108.86
14389 56.2649 9474.67 9241.20 109.98
14390 56.2687 9079.77 9236.50 108.93
14391 56.2724 9629.92 9232.20 112.77
14392 56.2761 9374.03 9228.04 110.94
14393 56.2799 9286.13 9224.13 110.70
14394 56.2836 9291.45 9220.53 110.18
14395 56.2874 9377.09 9217.04 110.67
14396 56.2911 9250.49 9213.83 109.83
14397 56.2949 9471.81 9210.72 111.19
14398 56.2986 9231.22 9207.63 110.30
14399 56.3024 9471.45 9204.85 110.81
14400 56.3063 9268.89 9202.20 110.57
14401 56.3100 9376.46 9199.77 110.40
14402 56.3138 9209.40 9197.39 109.45
14403 56.3175 9507.64 9195.20 112.30
14404 56.3213 9115.56 9193.05 109.32
14405 56.3250 9413.01 9191.07 111.40
14406 56.3288 9194.63 9189.14 109.53
14407 56.3325 9103.70 9187.35 107.56
14408 56.3363 9195.40 9185.59 110.36
14409 56.3400 9363.46 9183.93 112.27
14410 56.3438 9374.64 9182.38 110.50
14411 56.3475 9282.08 9180.87 109.64
14412 56.3512 8965.50 9179.44 107.62
14413 56.3550 9360.25 9178.06 110.67
14414 56.3587 9299.67 9176.79 110.79
14415 56.3625 9152.13 9175.54 109.94
14416 56.3663 9214.64 9174.36 109.05
14417 56.3700 9432.34 9173.25 111.54
14418 56.3739 9108.50 9172.17 108.54
14419 56.3775 9305.29 9171.16 110.27
14420 56.3814 9135.25 9170.18 108.58
14421 56.3851 9263.95 9169.26 110.17
14422 56.3889 9305.05 9167.95 109.70
14423 56.3927 9223.09 9167.09 109.57
14424 56.3964 9146.95 9166.30 109.42
14425 56.4002 9234.18 9165.53 109.76
14426 56.4039 9029.49 9164.68 109.18
14427 56.4076 9298.99 9163.97 109.63
14428 56.4114 9249.04 9163.32 109.25
14429 56.4151 9349.82 9162.68 110.29
14430 56.4188 9107.50 9162.08 108.93
14431 56.4226 9143.29 9161.50 110.16
14432 56.4264 9265.11 9160.94 110.80
14433 56.4301 9286.54 9160.42 109.64
14434 56.4339 9099.19 9159.92 108.01
14435 56.4376 9227.28 9159.45 112.77
14436 56.4414 9134.63 9158.99 110.31
14437 56.4451 9380.21 9158.57 110.60
14438 56.4490 9093.41 9158.15 108.58
14439 56.4528 9334.33 9157.76 110.41
14440 56.4565 9247.13 9157.39 110.24
14441 56.4603 9270.69 9157.03 110.39
14442 56.4640 9169.11 9156.71 109.38
14443 56.4678 9365.96 9156.38 110.84
14444 56.4715 9309.95 9156.09 110.12
14445 56.4753 9285.57 9155.80 110.12
14446 56.4790 8973.97 9155.54 107.94
14447 56.4827 9418.10 9155.28 111.48
14448 56.4865 9184.95 9155.04 109.74
14449 56.4902 9521.69 9154.82 112.20
14450 56.4940 9199.06 9154.61 109.71
14451 56.4977 9420.92 9154.41 110.76
14452 56.5015 9113.57 9154.22 109.14
14453 56.5052 9348.78 9154.05 110.12
14454 56.5090 9202.33 9153.89 109.58
14455 56.5127 9243.77 9153.74 109.53
14456 56.5165 9227.44 9153.59 109.58
14457 56.5204 9441.36 9153.46 111.89
14458 56.5241 9257.53 9153.35 110.59
14459 56.5279 9246.66 9153.24 110.08
14460 56.5316 9335.90 9153.14 108.96
14461 56.5354 9404.65 9153.05 112.20
14462 56.5391 9282.34 9152.96 111.58
14463 56.5429 9442.23 9152.89 110.69
14464 56.5466 9311.40 9152.83 109.98
14465 56.5504 9457.31 9152.77 110.91
14466 56.5541 9229.21 9152.72 109.58
14467 56.5578 9464.15 9152.68 111.12
14468 56.5616 9018.42 9152.65 107.99
14469 56.5653 9170.49 9152.62 109.24
14470 56.5691 9285.84 9152.60 110.15
14471 56.5728 9260.53 9152.59 110.15
14472 56.5766 9140.43 9152.59 109.32
14473 56.5804 9082.08 9152.59 108.40
14474 56.5841 9199.55 9152.59 109.29
14475 56.5880 9356.27 9152.61 110.15
14476 56.5916 9317.43 9152.62 110.45
14477 56.5955 9384.51 9152.65 110.19
14478 56.5992 9370.75 9152.68 110.25
14479 56.6030 9298.93 9152.72 109.67
14480 56.6067 9257.11 9152.76 109.53
14481 56.6105 9552.04 9152.80 111.75
14482 56.6143 9167.05 9152.86 108.89
14483 56.6180 9350.46 9152.91 111.23
14484 56.6217 9106.23 9152.97 109.08
14485 56.6255 9046.29 9153.04 108.52
14486 56.6292 9189.71 9153.11 109.56
14487 56.6329 9295.25 9148.81 107.74
14488 56.6367 9177.89 9148.94 110.06
14489 56.6404 9521.42 9149.07 113.47
14490 56.6442 9272.50 9149.21 109.62
14491 56.6480 9509.16 9149.34 110.96
14492 56.6517 9252.55 9149.48 109.82
14493 56.6555 9279.18 9149.63 109.51
14494 56.6592 9131.14 9149.77 109.02
14495 56.6631 9442.12 9149.92 111.01
14496 56.6668 9170.22 9150.07 109.24
14497 56.6706 9188.87 9150.23 109.55
14498 56.6743 9072.89 9150.38 108.16
14499 56.6781 9262.71 9150.54 109.04
14500 56.6818 9095.15 9150.70 108.52
14501 56.6856 9280.60 9150.87 109.61
14502 56.6894 9158.69 9151.04 109.18
14503 56.6931 9391.09 9151.20 110.78
14504 56.6968 9175.79 9151.38 109.17
14505 56.7006 9158.32 9151.55 107.44
14506 56.7043 9071.17 9151.72 107.95
14507 56.7080 9168.54 9151.90 109.65
14508 56.7118 9087.49 9152.08 108.37
14509 56.7155 9275.09 9152.26 110.58
14510 56.7193 9096.66 9152.45 109.11
14511 56.7231 9195.71 9152.63 109.74
14512 56.7268 9061.30 9152.82 108.63
14513 56.7307 9242.33 9153.01 108.65
14514 56.7343 9013.29 9153.20 106.79
14515 56.7382 9423.80 9153.39 112.84
14516 56.7419 9245.35 9148.50 109.29
14517 56.7457 9220.82 9148.75 109.00
14518 56.7494 9269.14 9149.00 109.24
14519 56.7532 9180.65 9149.26 109.01
14520 56.7569 9202.43 9149.51 109.19
14521 56.7607 9242.00 9149.77 109.55
14522 56.7645 9252.50 9150.03 109.21
14523 56.7682 9222.28 9147.28 109.32
14524 56.7719 9284.69 9147.57 110.01
14525 56.7757 9231.44 9147.86 109.37
14526 56.7794 9280.92 9148.15 110.54
14527 56.7831 9400.67 9148.44 108.95
14528 56.7869 9271.19 9148.73 109.98
14529 56.7906 9284.47 9207.31 109.71
14530 56.7944 9198.49 9208.26 109.31
14531 56.7981 9344.83 9209.20 109.73
14532 56.8019 9291.40 9210.17 109.64
14533 56.8058 9498.69 9211.15 111.61
14534 56.8094 9136.12 9212.12 108.70
14535 56.8133 9248.86 9213.12 109.14
14536 56.8170 9164.10 9214.11 109.82
14537 56.8208 9276.71 9215.14 109.30
14538 56.8245 9315.56 9216.16 109.51
14539 56.8283 9324.34 9217.22 110.36
14540 56.8320 9224.55 9218.26 108.41
14541 56.8358 9177.09 9251.15 108.29
14542 56.8395 9373.69 9252.56 112.22
14543 56.8433 9437.57 9254.04 111.54
14544 56.8470 9348.44 9255.54 109.28
14545 56.8507 9205.88 9257.02 108.80
14546 56.8545 9133.47 9258.55 108.25
14547 56.8582 9346.35 9260.08 110.45
14548 56.8620 9280.13 9261.66 109.47
14549 56.8657 9395.58 9263.23 111.07
14550 56.8695 9495.87 9264.86 111.73
14551 56.8732 9337.29 9266.48 110.21
14552 56.8770 9246.40 9268.16 109.83
14553 56.8807 9334.72 9269.82 110.21
14554 56.8845 9206.14 9271.56 109.24
14555 56.8884 9265.71 9273.32 110.09
14556 56.8921 9138.98 9275.06 108.61
14557 56.8959 9379.72 9276.88 111.16
14558 56.8996 9208.63 9278.69 109.05
14559 56.9034 9213.88 9280.56 109.97
14560 56.9071 9314.54 9282.42 110.11
14561 56.9109 9373.68 9284.37 110.79
14562 56.9146 9396.18 9286.29 111.20
14563 56.9184 9438.97 9288.29 109.44
14564 56.9221 9259.16 9290.28 110.14
14565 56.9258 9351.81 9292.36 110.40
14566 56.9296 9205.62 9294.42 109.59
14567 56.9333 9216.92 9296.57 108.16
14568 56.9371 9422.50 9298.75 112.33
14569 56.9408 9380.67 9300.92 110.86
14570 56.9446 9369.60 9303.19 110.42
14571 56.9483 9393.20 9305.44 110.45
14572 56.9521 9328.20 9307.79 110.33
14573 56.9558 9395.61 9310.13 110.34
14574 56.9596 9390.35 9312.56 111.04
14575 56.9633 9532.88 9314.99 111.62
14576 56.9672 9375.89 9317.52 110.23
14577 56.9709 9281.66 9320.04 109.97
14578 56.9747 9259.51 9322.67 109.57
14579 56.9784 9421.68 9325.28 110.35
14580 56.9822 9365.92 9328.02 110.97
14581 56.9860 9314.24 9330.82 110.08
14582 56.9877 9235.65 9332.09 110.08
14583 56.9915 9309.36 9334.96 109.98
14584 56.9952 9396.93 9337.83 111.00
14585 56.9990 9289.14 9340.83 109.95
14586 57.0027 9324.09 9343.81 110.35
14587 57.0065 9550.97 9346.94 112.74
14588 57.0102 9233.97 9350.05 110.55
14589 57.0140 9352.97 9353.32 110.91
14590 57.0177 9305.51 9356.65 108.88
14591 57.0215 9424.26 9359.98 112.46
14592 57.0252 9296.44 9363.46 111.80
14593 57.0289 9561.00 9366.94 111.59
14594 57.0327 9222.64 9370.58 109.51
14595 57.0364 9216.75 9374.22 109.44
14596 57.0402 9201.25 9378.03 109.51
14597 57.0439 9626.65 9381.84 112.31
14598 57.0477 9318.58 9385.84 110.11
14599 57.0514 9279.13 9389.83 110.09
14600 57.0552 9464.56 9394.03 111.46
14601 57.0591 9607.55 9398.33 112.57
14602 57.0628 9342.46 9402.63 110.80
14603 57.0666 9324.26 9407.15 110.13
14604 57.0703 9440.44 9411.66 111.01
14605 57.0741 9479.86 9416.42 111.09
14606 57.0778 9268.21 9421.17 110.25
14607 57.0816 9443.09 9426.17 110.69
14608 57.0854 9313.38 9431.32 110.00
14609 57.0891 9448.15 9436.45 110.78
14610 57.0928 9391.53 9441.88 110.54
14611 57.0965 9513.81 9447.30 111.62
14612 57.1003 9408.14 9453.03 110.61
14613 57.1040 9717.91 9458.75 113.80
14614 57.1078 9536.54 9464.81 112.07
14615 57.1115 9540.81 9470.87 111.94
14616 57.1153 9443.02 9477.28 111.37
14617 57.1191 9610.69 9483.87 109.90
14618 57.1228 9419.34 9490.49 111.80
14619 57.1267 9687.98 9497.50 114.71
14620 57.1303 9361.92 9504.52 110.33
14621 57.1342 9534.15 9511.95 111.24
14622 57.1379 9257.78 9519.42 109.98
14623 57.1417 9531.02 9527.33 111.29
14624 57.1454 9550.79 9535.27 111.93
14625 57.1492 9437.80 9543.70 111.11
14626 57.1530 9291.93 9552.41 110.17
14627 57.1567 9691.43 9561.17 113.00
14628 57.1604 9468.99 9570.47 110.91
14629 57.1642 9567.50 9579.83 111.16
14630 57.1679 9490.76 9589.78 111.26
14631 57.1716 9396.93 9599.81 110.50
14632 57.1754 9486.68 9610.46 111.49
14633 57.1791 9608.13 9621.21 112.33
14634 57.1829 9500.12 9632.66 111.45
14635 57.1866 9707.64 9644.21 111.14
14636 57.1904 9516.59 9656.53 111.01
14637 57.1942 9629.51 9669.30 112.83
14638 57.1979 9631.44 9682.23 112.09
14639 57.2018 9679.10 9696.02 113.39
14640 57.2054 9599.59 9709.98 112.58
14641 57.2093 9538.69 9724.89 112.15
14642 57.2130 9514.58 9740.01 111.77
14643 57.2161 9786.52 9753.57 111.38
14644 57.2200 9784.58 9770.30 110.95
14645 57.2237 9815.64 9787.30 111.40
14646 57.2275 9809.52 9805.49 111.26
14647 57.2312 9809.90 9824.00 110.40
14648 57.2350 9814.61 9843.84 111.24
14649 57.2387 9886.37 9864.05 113.78
14650 57.2425 10002.70 9885.75 112.34
14651 57.2462 9825.63 9907.86 110.44
14652 57.2500 9814.45 9931.68 110.17
14653 57.2537 9715.90 9955.96 110.18
14654 57.2575 9986.38 9982.13 111.54
14655 57.2612 9667.06 10009.60 110.25
14656 57.2649 10066.20 10037.80 112.65
14657 57.2687 9865.54 10068.10 111.29
14658 57.2724 9948.19 10099.30 111.96
14659 57.2762 9896.21 10133.00 111.01
14660 57.2799 10044.60 10167.70 112.62
14661 57.2837 9926.68 10205.20 111.93
14662 57.2874 10349.70 10243.90 113.31
14663 57.2912 10118.50 10285.80 112.68
14664 57.2949 10061.80 10329.10 112.32
14665 57.2988 9975.59 10376.40 112.06
14666 57.3024 10333.70 10425.10 114.37
14667 57.3063 10172.30 10478.40 112.93
14668 57.3100 10344.40 10533.60 113.29
14669 57.3138 10091.00 10594.00 113.80
14670 57.3176 10419.40 10658.70 113.80
14671 57.3213 10204.10 10725.80 114.02
14672 57.3251 10410.50 10799.80 114.69
14673 57.3288 10431.50 10876.90 114.56
14674 57.3326 10549.10 10962.10 114.15
14675 57.3363 10503.60 11051.20 117.84
14676 57.3400 10879.30 11150.20 118.35
14677 57.3438 10511.80 11253.90 115.02
14678 57.3475 10865.00 11369.60 116.98
14679 57.3512 10788.80 11491.50 116.45
14680 57.3550 10989.20 11627.90 118.63
14681 57.3587 11218.20 11772.30 120.25
14682 57.3625 11404.90 11934.80 121.59
14683 57.3663 11330.00 12112.70 120.73
14684 57.3700 11765.00 12303.30 123.09
14685 57.3739 11810.30 12518.80 123.88
14686 57.3775 12390.90 12751.30 126.83
14687 57.3814 12232.10 13016.40 125.58
14688 57.3851 12935.10 13305.00 130.07
14689 57.3889 12847.40 13638.10 129.19
14690 57.3926 13865.60 14006.30 135.66
14691 57.3964 14026.60 14439.60 135.62
14692 57.4001 15069.40 14930.60 141.77
14693 57.4039 15911.90 15527.10 146.18
14694 57.4076 16988.70 16224.40 151.48
14695 57.4114 17641.80 17105.20 154.84
14696 57.4151 19749.00 18205.50 166.32
14697 57.4188 21090.70 19561.60 173.19
14698 57.4226 23442.60 21334.10 183.79
14699 57.4263 25194.30 23537.50 193.17
14700 57.4301 28090.80 26405.20 204.58
14701 57.4338 30801.00 29912.00 215.00
14702 57.4376 35571.80 34352.70 240.36
14703 57.4413 39384.40 39588.20 251.22
14704 57.4451 45226.00 45929.80 272.45
14705 57.4488 51333.00 53029.10 293.93
14706 57.4526 60882.60 61121.30 328.71
14707 57.4563 69727.40 69533.80 357.01
14708 57.4602 81597.60 78233.80 397.73
14709 57.4640 90457.10 86296.90 425.86
14710 57.4677 100009.00 92680.50 454.81
14711 57.4715 102442.00 96848.20 458.63
14712 57.4752 104433.00 98109.30 465.22
14713 57.4790 99209.70 96666.00 448.88
14714 57.4827 94171.20 93311.30 436.88
14715 57.4865 86672.40 88837.70 412.16
14716 57.4902 81947.40 84364.60 396.50
14717 57.4939 75936.20 80288.40 377.64
14718 57.4977 75245.90 77133.50 377.36
14719 57.5014 72696.60 74781.30 368.07
14720 57.5052 75209.30 73102.60 378.65
14721 57.5089 72908.20 71682.60 368.93
14722 57.5127 73280.90 69878.90 372.52
14723 57.5164 70565.20 67292.30 361.27
14724 57.5202 66388.20 63552.90 347.49
14725 57.5239 59509.60 58960.10 325.08
14726 57.5277 53955.20 53635.90 305.26
14727 57.5314 46135.60 48252.30 271.46
14728 57.5353 41880.10 42876.50 265.41
14729 57.5390 35484.40 38005.00 237.60
14730 57.5428 31504.00 33520.40 219.27
14731 57.5466 27413.90 29609.60 199.90
14732 57.5503 25369.10 26377.00 192.02
14733 57.5541 22619.80 23603.30 180.25
14734 57.5578 20568.20 21397.80 170.01
14735 57.5616 18780.70 19564.00 161.71
14736 57.5653 17891.70 18136.70 157.38
14737 57.5690 16246.50 16969.30 148.13
14738 57.5728 15992.90 16060.00 146.20
14739 57.5765 14977.80 15308.60 141.99
14740 57.5802 14641.00 14711.10 140.34
14741 57.5840 13584.60 14202.90 134.21
14742 57.5878 13464.30 13774.50 133.55
14743 57.5915 12716.40 13417.80 127.83
14744 57.5953 12537.30 13098.30 127.50
14745 57.5990 11944.80 12825.00 124.94
14746 57.6029 12036.70 12574.70 124.62
14747 57.6065 11525.90 12357.00 121.45
14748 57.6104 11508.40 12154.90 120.78
14749 57.6141 11307.40 11977.20 121.73
14750 57.6216 11173.40 11663.40 119.79
14751 57.6254 11046.20 11524.60 119.40
14752 57.6292 10777.90 11397.30 117.55
14753 57.6329 10843.10 11283.70 115.91
14754 57.6367 10693.60 11175.80 118.94
14755 57.6404 10783.50 11079.00 118.19
14756 57.6441 10328.80 10986.70 114.55
14757 57.6479 10661.30 10903.60 115.95
14758 57.6516 10395.40 10824.00 114.08
14759 57.6553 10370.20 10752.10 114.18
14760 57.6591 10228.20 10683.00 114.51
14761 57.6629 10496.30 10618.70 115.57
14762 57.6666 10387.30 10560.00 114.85
14763 57.6704 10283.30 10503.60 114.60
14764 57.6741 10032.60 10452.10 113.06
14765 57.6780 10172.20 10402.40 115.08
14766 57.6816 10136.10 10356.80 114.08
14767 57.6855 10084.20 10312.80 114.04
14768 57.6892 9799.89 10272.30 112.30
14769 57.6930 9939.93 10233.10 113.10
14770 57.6968 9855.13 10196.00 112.57
14771 57.7005 10105.20 10162.00 114.62
14772 57.7043 9823.42 10128.80 112.45
14773 57.7080 9886.09 10098.20 112.35
14774 57.7118 9796.11 10068.40 111.80
14775 57.7155 10072.00 10040.80 114.06
14776 57.7192 9820.01 10013.90 112.13
14777 57.7229 9985.57 9988.94 113.61
14778 57.7267 9571.40 9964.59 110.86
14779 57.7305 9940.52 9941.40 112.70
14780 57.7342 9677.83 9919.85 110.87
14781 57.7380 10074.30 9898.76 115.35
14782 57.7417 9792.74 9879.13 112.37
14783 57.7455 10004.00 9859.90 112.72
14784 57.7492 9694.68 9841.97 111.74
14785 57.7531 9779.97 9824.41 111.74
14786 57.7567 9422.82 9808.00 109.45
14787 57.7606 9670.81 9791.86 111.32
14788 57.7644 9426.70 9776.38 109.30
14789 57.7681 9645.89 9761.97 111.10
14790 57.7719 9713.23 9747.73 111.69
14791 57.7756 9662.61 9734.45 111.19
14792 57.7794 9536.45 9721.31 110.89
14793 57.7831 9896.96 9709.04 113.14
14794 57.7868 9531.20 9696.93 110.28
14795 57.7906 9611.71 9685.57 110.86
14796 57.7943 9481.40 9674.36 110.27
14797 57.7981 9671.78 9663.58 110.37
14798 57.8018 9536.68 9653.45 110.63
14799 57.8056 9608.97 9643.44 111.19
14800 57.8093 9531.21 9634.04 110.41
14801 57.8131 9679.98 9624.71 111.01
14802 57.8168 9432.43 9615.98 110.14
14803 57.8206 9641.38 9607.30 111.24
14804 57.8243 9574.33 9599.16 111.12
14805 57.8282 9652.56 9591.07 110.96
14806 57.8320 9308.73 9583.26 107.46
14807 57.8357 9534.53 9575.91 111.46
14808 57.8395 9654.79 9568.62 113.64
14809 57.8432 9543.53 9561.75 110.53
14810 57.8470 9426.80 9554.92 109.50
14811 57.8507 9567.10 9548.49 110.58
14812 57.8545 9348.23 9542.09 109.12
14813 57.8582 9581.90 9536.06 110.95
14814 57.8619 9363.74 9530.06 109.75
14815 57.8657 9584.37 9524.25 110.95
14816 57.8694 9242.05 9518.77 108.76
14817 57.8732 9474.53 9513.30 110.25
14818 57.8769 9509.86 9508.14 110.64
14819 57.8807 9672.97 9503.01 111.88
14820 57.8844 9361.41 9498.16 109.55
14821 57.8882 9627.79 9493.32 111.33
14822 57.8921 9185.36 9488.63 108.43
14823 57.8957 9489.09 9484.20 111.24
14824 57.8996 9513.24 9479.77 110.78
14825 57.9033 9400.40 9475.68 110.05
14826 57.9071 9182.06 9471.51 108.35
14827 57.9108 9358.47 9467.55 109.37
14828 57.9146 9327.15 9463.61 109.72
14829 57.9183 9547.23 9460.14 111.19
14830 57.9221 9421.85 9456.41 110.74
14831 57.9258 9493.41 9452.79 111.29
14832 57.9296 9308.32 9449.35 109.39
14833 57.9333 9414.70 9445.93 108.47
14834 57.9370 9526.49 9442.68 113.17
14835 57.9408 9821.30 9439.43 113.42
14836 57.9445 9236.83 9436.35 108.73
14837 57.9483 9510.72 9433.28 110.28
14838 57.9521 9363.82 9430.28 110.11
14839 57.9558 9377.98 9427.44 109.65
14840 57.9596 9420.14 9424.60 110.90
14841 57.9633 9437.91 9421.90 110.14
14842 57.9672 9350.05 9419.20 110.53
14843 57.9709 9471.65 9416.64 110.99
14844 57.9747 9299.79 9414.07 109.64
14845 57.9784 9515.37 9411.64 110.86
14846 57.9822 9602.52 9409.20 111.00
14847 57.9860 9458.53 9406.82 110.75
14848 57.9897 9534.94 9404.57 110.55
14849 57.9935 9488.12 9402.30 110.81
14850 57.9972 9404.30 9400.16 110.78
14851 58.0009 9579.40 9398.01 111.06
14852 58.0047 9356.55 9395.96 110.63
14853 58.0084 9389.43 9393.91 109.56
14854 58.0122 9195.97 9391.91 108.29
14855 58.0159 9381.98 9390.02 110.63
14856 58.0197 9226.95 9388.11 108.87
14857 58.0234 9450.67 9386.30 111.28
14858 58.0272 9364.76 9384.48 110.30
14859 58.0309 9468.31 9382.76 110.25
14860 58.0348 9390.11 9381.02 109.97
14861 58.0386 9517.38 9379.33 113.94
14862 58.0423 9227.71 9377.72 110.03
14863 58.0461 9355.71 9376.11 109.68
14864 58.0498 9219.25 9374.57 108.54
14865 58.0536 9373.09 9373.03 110.27
14866 58.0573 9305.53 9371.57 109.59
14867 58.0611 9377.66 9370.09 110.35
14868 58.0648 9314.26 9368.70 109.88
14869 58.0686 9452.97 9367.29 110.77
14870 58.0723 9401.72 9365.92 110.75
14871 58.0760 9473.88 9364.61 111.20
14872 58.0798 9314.34 9363.30 110.59
14873 58.0835 9482.29 9362.05 110.98
14874 58.0873 9346.26 9360.79 109.45
14875 58.0910 9530.27 9359.60 111.05
14876 58.0948 9157.17 9358.40 109.04
14877 58.0987 9470.97 9357.23 110.72
14878 58.1023 9361.88 9356.11 109.58
14879 58.1062 9557.93 9354.99 111.06
14880 58.1099 9557.17 9353.92 110.46
14881 58.1137 9551.35 9352.85 110.62
14882 58.1174 9358.20 9351.83 110.22
14883 58.1212 9535.39 9350.81 111.32
14884 58.1250 9350.11 9349.80 110.36
14885 58.1287 9430.71 9348.85 110.70
14886 58.1325 9053.80 9347.89 106.91
14887 58.1362 9258.71 9346.98 109.24
14888 58.1399 9407.79 9346.06 111.84
14889 58.1437 9466.95 9345.18 110.78
14890 58.1474 9391.04 9344.31 109.88
14891 58.1512 9239.52 9343.45 108.62
14892 58.1549 9213.39 9342.63 109.35
14893 58.1587 9343.79 9284.03 109.46
14894 58.1624 9271.17 9283.86 108.58
14895 58.1662 9472.16 9283.70 109.90
14896 58.1699 9269.53 9283.55 108.77
14897 58.1738 9307.79 9283.40 108.58
14898 58.1776 9356.44 9283.26 109.44
14899 58.1813 9307.38 9283.14 109.28
14900 58.1851 9361.35 9283.01 109.60
14901 58.1888 9367.42 9282.89 108.84
14902 58.1926 9354.58 9282.78 109.39
14903 58.1963 9582.24 9282.68 110.87
14904 58.2001 9194.55 9251.09 108.54
14905 58.2038 9410.28 9251.34 109.93
14906 58.2076 9291.97 9251.59 109.28
14907 58.2113 9201.16 9251.84 107.87
14908 58.2150 9229.92 9252.09 107.72
14909 58.2188 9314.28 9252.35 109.15
14910 58.2225 9378.34 9252.60 109.40
14911 58.2263 9291.75 9252.85 109.36
14912 58.2301 9338.30 9253.11 108.73
14913 58.2338 9395.57 9253.36 108.54
14914 58.2377 9260.65 9253.63 109.52
14915 58.2413 9327.42 9253.88 110.28
14916 58.2452 9233.90 9254.14 108.20
14917 58.2489 9416.59 9254.40 108.71
14918 58.2527 9202.96 9254.67 107.82
14919 58.2565 9426.18 9254.94 109.24
14920 58.2602 9264.08 9255.20 108.84
14921 58.2640 9286.78 9255.47 108.80
14922 58.2677 9128.91 9255.74 107.26
14923 58.2715 9260.10 9256.02 108.90
14924 58.2752 9333.40 9256.29 109.74
14925 58.2789 9406.25 9256.57 109.26
14926 58.2827 9296.52 9256.86 108.51
14927 58.2864 9408.58 9257.14 109.62
14928 58.2902 9180.76 9257.43 108.08
14929 58.2939 9254.59 9257.72 108.45
14930 58.2977 9045.58 9258.02 106.68
14931 58.3014 9378.46 9258.32 108.50
14932 58.3052 9248.53 9258.62 108.38
14933 58.3091 9340.13 9258.94 108.47
14934 58.3128 9154.06 9259.25 107.35
14935 58.3166 9269.96 9259.58 108.54
14936 58.3203 8982.67 9259.91 106.76
14937 58.3241 9244.67 9260.26 108.45
14938 58.3279 9228.34 9260.61 109.06
14939 58.3316 9268.46 9260.96 108.64
14940 58.3354 9067.12 9261.34 105.54
14941 58.3391 9495.53 9261.72 112.29
14942 58.3428 9283.31 9262.12 109.18
14943 58.3465 9333.82 9262.53 108.45
14944 58.3503 9347.63 9262.97 108.80
14945 58.3541 9358.24 9263.43 109.22
14946 58.3578 9242.22 9263.91 108.35
14947 58.3616 9234.08 9264.42 108.76
14948 58.3653 9103.01 9264.96 107.30
14949 58.3691 9503.72 9265.57 110.51
14950 58.3728 9146.97 9266.21 108.07
14951 58.3767 9291.28 9266.95 109.26
14952 58.3805 9231.17 9267.80 108.79
14953 58.3842 9452.73 9268.76 110.27
14954 58.3880 9255.92 9269.93 108.36
14955 58.3917 9369.60 9271.31 109.64
14956 58.3955 9150.01 9273.05 107.52
14957 58.3992 9608.10 9275.11 111.10
14958 58.4030 9233.17 9277.72 108.92
14959 58.4067 9414.66 9280.89 109.52
14960 58.4104 9325.65 9284.60 109.19
14961 58.4142 9545.73 9289.09 109.90
14962 58.4179 9295.68 9294.12 109.63
14963 58.4217 9367.29 9299.90 109.39
14964 58.4255 9402.71 9306.15 109.71
14965 58.4292 9482.35 9312.44 110.71
14966 58.4330 9212.62 9318.67 107.28
14967 58.4367 9437.46 9323.94 110.74
14968 58.4406 9362.82 9327.85 111.82
14969 58.4442 9376.88 9329.61 109.91
14970 58.4481 9271.04 9329.05 108.22
14971 58.4519 9601.70 9326.30 111.29
14972 58.4556 9346.75 9322.09 109.60
14973 58.4594 9405.92 9316.88 110.20
14974 58.4631 9169.20 9311.56 108.13
14975 58.4669 9327.15 9306.26 109.22
14976 58.4706 9296.68 9301.44 109.32
14977 58.4743 9549.91 9297.35 110.98
14978 58.4781 9344.63 9293.86 109.02
14979 58.4818 9298.37 9291.16 109.20
14980 58.4856 9118.93 9289.07 108.30
14981 58.4893 9439.13 9287.64 110.28
14982 58.4931 9251.00 9286.71 108.92
14983 58.4969 9397.44 9286.26 110.43
14984 58.5006 9205.59 9286.21 108.60
14985 58.5045 9357.66 9286.49 110.27
14986 58.5081 9336.65 9287.05 109.70
14987 58.5120 9537.41 9287.88 110.01
14988 58.5157 9167.58 9288.94 107.30
14989 58.5195 9351.62 9290.27 109.57
14990 58.5233 9263.01 9291.88 109.21
14991 58.5270 9367.70 9293.73 109.71
14992 58.5308 8986.86 9296.00 107.29
14993 58.5345 9395.38 9298.65 108.08
14994 58.5382 9228.89 9301.96 111.21
14995 58.5420 9273.02 9306.02 109.32
14996 58.5457 9284.60 9310.92 109.17
14997 58.5495 9385.91 9317.22 108.81
14998 58.5532 9538.67 9324.96 110.29
14999 58.5570 9550.29 9334.95 111.18
15000 58.5607 9266.75 9347.17 108.70
15001 58.5645 9321.71 9362.79 108.54
15002 58.5684 9351.02 9382.07 108.70
15003 58.5720 9422.37 9404.83 110.59
15004 58.5759 9296.28 9432.58 109.37
15005 58.5796 9307.32 9463.97 107.72
15006 58.5834 9165.43 9500.28 108.56
15007 58.5872 9534.34 9539.89 110.75
15008 58.5909 9475.82 9579.91 111.05
15009 58.5947 9507.44 9620.52 110.43
15010 58.5984 9595.26 9657.02 111.16
15011 58.6021 9832.46 9688.80 112.12
15012 58.6059 9548.39 9711.76 110.86
15013 58.6096 9595.25 9724.38 111.37
15014 58.6134 9475.82 9723.47 110.31
15015 58.6171 9761.35 9708.66 112.46
15016 58.6209 9610.50 9680.43 111.60
15017 58.6246 9725.58 9643.77 112.48
15018 58.6284 9645.31 9600.88 111.98
15019 58.6323 9624.10 9556.82 111.07
15020 58.6359 9446.93 9515.50 108.89
15021 58.6398 9327.73 9476.61 112.70
15022 58.6435 9443.14 9443.05 110.57
15023 58.6473 9503.45 9413.46 110.49
15024 58.6510 9234.48 9389.28 106.88
15025 58.6548 9378.18 9368.94 109.59
15026 58.6586 8934.50 9352.57 106.15
15027 58.6623 9507.30 9339.94 110.31
15028 58.6660 9216.09 9329.75 108.74
15029 58.6698 9405.45 9321.99 110.05
15030 58.6735 9164.93 9315.75 108.36
15031 58.6773 9436.93 9310.84 108.51
15032 58.6810 9332.12 9307.03 109.69
15033 58.6848 9299.80 9303.85 109.34
15034 58.6885 9155.47 9301.31 108.75
15035 58.6923 9318.85 9299.11 109.71
15036 58.6960 9321.77 9297.30 109.13
15037 58.6998 9321.50 9295.69 109.30
15038 58.7037 9158.22 9294.30 108.34
15039 58.7074 9365.57 9293.11 110.23
15040 58.7112 9216.47 9292.03 108.47
15041 58.7149 9175.04 9291.10 108.52
15042 58.7187 9172.27 9290.26 108.37
15043 58.7225 9317.23 9289.50 109.74
15044 58.7262 9318.96 9288.85 109.54
15045 58.7299 9447.31 9288.26 110.52
15046 58.7337 9194.55 9287.74 106.89
15047 58.7374 9337.00 9287.26 110.09
15048 58.7412 9329.59 9286.83 110.84
15049 58.7449 9126.30 9286.46 108.21
15050 58.7487 9140.80 9286.12 107.74
15051 58.7524 9146.91 9285.83 107.69
15052 58.7562 9045.66 9285.56 106.35
15053 58.7599 9284.33 9285.32 108.73
15054 58.7637 9141.35 9285.11 108.32
15055 58.7676 9185.70 9284.92 107.76
15056 58.7713 9223.33 9284.76 108.66
15057 58.7751 9127.03 9284.61 107.65
15058 58.7788 9271.72 9284.49 109.10
15059 58.7826 9264.59 9284.38 108.45
15060 58.7864 9167.69 9284.28 108.54
15061 58.7901 9366.36 9284.20 109.45
15062 58.7938 9213.97 9284.13 108.99
15063 58.7976 9411.61 9284.08 109.08
15064 58.8013 9305.01 9284.03 109.40
15065 58.8050 9207.67 9284.00 108.88
15066 58.8088 9206.05 9283.97 108.74
15067 58.8126 9236.09 9283.96 108.94
15068 58.8163 8966.87 9283.95 105.34
15069 58.8201 9310.28 9283.94 109.30
15070 58.8238 9015.15 9283.95 107.29
15071 58.8276 9371.94 9283.96 110.13
15072 58.8315 9098.87 9283.98 107.46
15073 58.8352 9156.30 9284.00 106.86
15074 58.8390 9143.06 9284.03 109.62
15075 58.8427 9368.29 9284.06 110.61
15076 58.8465 9152.13 9284.10 108.43
15077 58.8503 9320.57 9284.14 109.23
15078 58.8540 8939.79 9284.18 106.26
15079 58.8577 9256.79 9284.23 108.56
15080 58.8615 9046.94 9284.28 107.50
15081 58.8652 9413.69 9284.33 109.92
15082 58.8689 9151.91 9284.39 108.57
15083 58.8727 9285.19 9284.45 108.12
15084 58.8765 9127.86 9284.51 108.02
15085 58.8802 9236.43 9284.58 108.61
15086 58.8840 9257.19 9284.64 108.73
15087 58.8877 9328.39 9284.71 109.44
15088 58.8915 9141.50 9284.79 108.41
15089 58.8954 9306.08 9284.86 108.65
15090 58.8991 9109.86 9284.93 108.02
15091 58.9029 9217.24 9285.01 108.73
15092 58.9066 9164.97 9285.08 108.21
15093 58.9104 9171.57 9285.16 108.38
15094 58.9142 9181.86 9285.24 107.75
15095 58.9179 9248.43 9285.32 109.51
15096 58.9216 9122.15 9285.40 107.39
15097 58.9254 9265.12 9285.49 109.11
15098 58.9291 9145.23 9285.57 108.08
15099 58.9328 9475.58 9285.65 109.67
15100 58.9366 9224.89 9285.74 108.78
15101 58.9404 9340.31 9285.83 112.12
15102 58.9441 9067.56 9285.91 108.10
15103 58.9479 9272.44 9286.00 108.41
15104 58.9516 9262.45 9286.09 108.71
15105 58.9554 9288.00 9286.17 109.15
15106 58.9593 9093.87 9286.26 108.19
15107 58.9630 9445.27 9286.35 110.79
15108 58.9668 9249.01 9286.44 108.61
15109 58.9705 9225.60 9286.53 108.88
15110 58.9743 9191.54 9286.62 108.53
15111 58.9781 9367.21 9286.71 109.63
15112 58.9818 9207.94 9286.80 109.51
15113 58.9855 9186.58 9286.90 108.50
15114 58.9893 9408.18 9286.98 109.49
15115 58.9930 9482.96 9287.08 110.50
15116 58.9968 9217.50 9287.17 108.50
15117 59.0005 9227.36 9287.26 108.63
15118 59.0043 9247.59 9287.35 108.91
15119 59.0080 9360.82 9287.44 109.86
15120 59.0118 9217.31 9287.53 108.95
15121 59.0155 9229.47 9287.62 108.60
15122 59.0193 9362.81 9287.71 110.78
15123 59.0232 9339.64 9287.81 109.56
15124 59.0269 9230.22 9287.90 109.50
15125 59.0307 9291.11 9287.99 109.94
15126 59.0344 9182.82 9288.08 107.52
15127 59.0382 9383.79 9288.17 110.92
15128 59.0420 9073.80 9288.26 109.51
15129 59.0457 9461.69 9288.35 111.03
15130 59.0494 9197.41 9288.44 108.39
15131 59.0532 9133.88 9288.53 107.79
15132 59.0569 9099.17 9288.62 108.57
15133 59.0607 9400.49 9288.71 109.98
15134 59.0644 9370.31 9288.80 110.23
15135 59.0682 9483.02 9288.89 111.31
15136 59.0719 9157.10 9288.98 108.89
15137 59.0757 9279.54 9289.07 109.26
15138 59.0794 9189.37 9289.15 108.85
15139 59.0832 9391.14 9289.24 109.77
15140 59.0871 9157.35 9289.33 108.99
15141 59.0908 9410.43 9289.42 109.99
15142 59.0946 9141.00 9289.50 108.44
15143 59.0983 9281.69 9289.59 109.61
15144 59.1021 9120.75 9289.67 108.24
15145 59.1059 9375.00 9289.76 110.61
15146 59.1096 9055.66 9289.85 108.32
15147 59.1133 9199.53 9289.93 108.32
15148 59.1171 9201.86 9290.01 110.37
15149 59.1208 9330.95 9290.10 109.10
15150 59.1246 9277.27 9290.18 109.52
15151 59.1283 9310.11 9290.27 108.74
15152 59.1321 8965.95 9290.35 106.85
15153 59.1358 9301.62 9290.43 108.02
15154 59.1396 9105.46 9290.47 110.69
15155 59.1435 9240.84 9290.55 109.25
15156 59.1471 8958.52 9290.63 106.53
15157 59.1510 9276.14 9290.72 108.00
15158 59.1547 9186.95 9290.79 107.23
15159 59.1585 9363.47 9290.88 108.94
15160 59.1623 9208.60 9290.96 108.20
15161 59.1660 9119.36 9291.04 108.36
15162 59.1698 9139.89 9291.12 108.31
15163 59.1735 9042.15 9291.19 106.94
15164 59.1772 9180.37 9291.27 108.39
15165 59.1810 9403.02 9291.35 109.68
15166 59.1847 9155.59 9291.43 108.56
15167 59.1885 9239.60 9291.50 109.04
15168 59.1922 9045.17 9291.58 108.00
15169 59.1960 9145.86 9291.65 108.12
15170 59.1997 9118.29 9291.73 107.16
15171 59.2035 9422.69 9291.80 110.34
15172 59.2074 9099.50 9291.88 108.12
15173 59.2110 9490.04 9291.95 110.28
15174 59.2149 9084.33 9292.02 108.08
15175 59.2186 9405.26 9292.09 110.06
15176 59.2224 9194.72 9292.17 107.71
15177 59.2262 9151.38 9292.24 108.58
15178 59.2299 9261.93 9292.31 108.56
15179 59.2337 9201.53 9292.38 108.84
15180 59.2374 8985.14 9292.45 105.97
15181 59.2411 9579.26 9292.51 113.13
15182 59.2449 9139.62 9292.58 108.11
15183 59.2486 9220.00 9292.65 108.51
15184 59.2524 9149.05 9292.72 108.25
15185 59.2561 9263.28 9292.78 108.86
15186 59.2599 9016.03 9292.85 106.78
15187 59.2637 9259.28 9292.92 109.28
15188 59.2674 9216.40 9292.98 108.32
15189 59.2713 9325.05 9293.04 109.08
15190 59.2749 9077.97 9293.11 107.52
15191 59.2788 9285.51 9293.17 109.12
15192 59.2826 9255.78 9293.24 108.89
15193 59.2863 9345.80 9293.30 109.13
15194 59.2901 9232.36 9293.36 108.78
15195 59.2938 9204.62 9293.42 108.72
15196 59.2976 8964.36 9293.39 106.96
15197 59.3013 9280.75 9293.45 109.03
15198 59.3050 9219.67 9293.51 109.04
15199 59.3088 9265.31 9293.57 108.38
15200 59.3125 9357.71 9293.36 109.29
15201 59.3163 9180.21 9293.42 108.26
15202 59.3200 9014.66 9293.48 107.40
15203 59.3238 9299.62 9293.54 109.36
15204 59.3276 9217.61 9293.60 108.89
15205 59.3313 9139.51 9293.66 107.77
15206 59.3352 9053.89 9293.72 105.75
15207 59.3388 9269.18 9293.78 111.19
15208 59.3427 9099.09 9293.83 109.53
15209 59.3465 9236.98 9293.89 108.21
15210 59.3502 9004.13 9293.94 107.36
15211 59.3540 9445.28 9294.00 110.73
15212 59.3577 9174.86 9294.05 108.11
15213 59.3615 9310.36 9294.10 109.86
15214 59.3652 9225.41 9294.16 108.79
15215 59.3689 9252.70 9294.21 108.20
15216 59.3727 9272.55 9294.26 108.61
15217 59.3764 9344.56 9294.31 109.40
15218 59.3802 9227.52 9294.36 108.93
15219 59.3840 9351.43 9294.41 110.22
15220 59.3877 9198.04 9294.45 108.14
15221 59.3915 9340.02 9294.50 109.41
15222 59.3952 9125.10 9294.55 108.57
15223 59.3991 9267.45 9294.59 109.18
15224 59.4029 9039.31 9294.64 107.17
15225 59.4066 9260.67 9294.68 108.81
15226 59.4104 9271.64 9294.73 108.51
15227 59.4141 9362.68 9294.77 109.27
15228 59.4179 9069.06 9294.81 108.03
15229 59.4216 9359.74 9294.85 110.08
15230 59.4254 9136.04 9294.89 109.21
15231 59.4291 9537.46 9294.93 111.41
15232 59.4328 9290.69 9294.97 109.24
15233 59.4366 9234.98 9295.01 107.13
15234 59.4403 9315.79 9295.05 112.06
15235 59.4441 9359.74 9295.09 110.40
15236 59.4479 8981.41 9295.13 107.38
15237 59.4516 9329.34 9295.16 108.09
15238 59.4554 9357.02 9295.20 109.27
15239 59.4591 9360.52 9295.23 109.63
15240 59.4630 9033.46 9295.27 107.32
15241 59.4668 9260.72 9295.30 109.31
15242 59.4705 9199.43 9295.33 108.72
15243 59.4743 9292.86 9295.37 109.59
15244 59.4780 9160.08 9295.40 108.86
15245 59.4818 9415.69 9295.43 110.58
15246 59.4855 9165.29 9295.46 108.40
15247 59.4893 9366.03 9295.49 110.05
15248 59.4930 9228.19 9295.51 109.73
15249 59.4967 9398.43 9295.54 110.47
15250 59.5005 9293.54 9295.57 109.86
15251 59.5043 9393.53 9295.60 110.56
15252 59.5080 9298.46 9295.62 110.03
15253 59.5118 9376.34 9295.65 109.63
15254 59.5155 9330.47 9295.67 109.49
15255 59.5193 9463.64 9329.38 110.98
15256 59.5232 9051.16 9329.76 108.45
15257 59.5269 9473.57 9330.14 110.85
15258 59.5307 9168.14 9330.53 108.58
15259 59.5344 9355.54 9330.92 108.48
15260 59.5382 9310.09 9331.33 111.08
15261 59.5420 9371.10 9331.73 111.78
15262 59.5457 9225.39 9332.14 108.59
15263 59.5494 9186.05 9332.56 108.25
15264 59.5532 9069.52 9332.98 108.03
15265 59.5569 9235.97 9333.41 108.97
15266 59.5606 9255.62 9333.84 109.57
15267 59.5644 9359.28 9334.29 110.05
15268 59.5682 9328.72 9334.74 109.71
15269 59.5719 9471.39 9335.19 110.47
15270 59.5757 9219.27 9335.65 108.92
15271 59.5794 9390.70 9336.11 109.91
15272 59.5832 9148.18 9336.60 109.04
15273 59.5871 9471.08 9337.08 110.39
15274 59.5908 9101.16 9337.57 108.61
15275 59.5946 9436.93 9338.07 110.62
15276 59.5983 9492.97 9338.57 111.09
15277 59.6021 9477.80 9339.09 111.38
15278 59.6059 9341.67 9339.62 110.45
15279 59.6096 9408.92 9340.14 110.96
15280 59.6133 9005.84 9340.69 107.21
15281 59.6171 9340.78 9405.48 110.12
15282 59.6208 9245.73 9406.73 108.86
15283 59.6246 9346.92 9408.00 109.73
15284 59.6283 9279.92 9409.26 109.37
15285 59.6321 9418.75 9410.57 110.33
15286 59.6358 9298.30 9411.88 108.04
15287 59.6396 9404.68 9413.23 112.53
15288 59.6435 9306.95 9414.61 110.35
15289 59.6471 9404.17 9415.98 109.89
15290 59.6510 9253.75 9417.41 109.10
15291 59.6547 9119.61 9418.83 108.27
15292 59.6585 9264.48 9420.31 109.46
15293 59.6623 9187.76 9421.81 108.80
15294 59.6660 9144.69 9423.31 108.71
15295 59.6698 9353.24 9424.87 109.57
15296 59.6735 9223.51 9426.41 109.05
15297 59.6772 9391.41 9428.03 109.69
15298 59.6810 9143.58 9429.68 108.41
15299 59.6847 9442.08 9431.31 108.79
15300 59.6885 9120.13 9433.02 107.74
15301 59.6922 9339.26 9434.71 109.01
15302 59.6960 9331.92 9436.49 109.72
15303 59.6997 9295.64 9438.25 109.21
15304 59.7035 9120.92 9440.09 108.34
15305 59.7074 9302.14 9441.97 109.56
15306 59.7110 9399.61 9443.83 109.95
15307 59.7149 9335.79 9445.78 109.50
15308 59.7186 9420.99 9447.72 111.16
15309 59.7224 9414.00 9449.75 109.81
15310 59.7262 9096.31 9451.82 108.24
15311 59.7299 9289.96 9453.87 109.21
15312 59.7337 9247.51 9456.03 109.04
15313 59.7374 9107.32 9458.17 106.43
15314 59.7411 9502.16 9460.42 112.74
15315 59.7449 9307.60 9462.71 109.32
15316 59.7486 9234.21 9464.99 108.45
15317 59.7524 9319.43 9467.38 109.21
15318 59.7561 9397.76 9469.75 109.77
15319 59.7599 9437.51 9472.24 110.34
15320 59.7637 9295.69 9474.79 108.89
15321 59.7674 9287.83 9477.32 108.55
15322 59.7713 9216.93 9479.99 108.63
15323 59.7749 9351.51 9482.63 109.74
15324 59.7788 9359.88 9485.41 110.11
15325 59.7826 9231.08 9488.25 108.63
15326 59.7863 9290.19 9491.09 109.38
15327 59.7901 9448.31 9494.06 110.28
15328 59.7938 9421.61 9497.02 109.90
15329 59.7976 9393.85 9500.14 110.14
15330 59.8013 9214.79 9503.33 108.30
15331 59.8050 9570.36 9506.50 111.51
15332 59.8088 9330.58 9509.85 108.63
15333 59.8125 9359.04 9513.17 109.83
15334 59.8163 9236.28 9516.68 108.59
15335 59.8201 9453.76 9520.27 111.40
15336 59.8238 9270.77 9523.86 109.29
15337 59.8276 9245.23 9527.63 109.17
15338 59.8313 9284.34 9531.40 109.80
15339 59.8352 9424.53 9535.36 108.41
15340 59.8388 9522.61 9539.32 111.54
15341 59.8427 9665.15 9543.50 113.96
15342 59.8465 9376.16 9547.78 109.42
15343 59.8502 9327.96 9552.06 109.00
15344 59.8540 9330.08 9556.58 108.73
15345 59.8577 9599.77 9561.08 110.46
15346 59.8615 9462.25 9565.85 110.49
15347 59.8652 9254.00 9570.74 109.20
15348 59.8689 9472.71 9575.64 110.89
15349 59.8727 9538.15 9580.80 110.66
15350 59.8764 9245.47 9585.98 109.46
15351 59.8802 9549.10 9591.44 111.68
15352 59.8840 9477.63 9597.07 110.91
15353 59.8877 9456.28 9602.70 110.06
15354 59.8915 9562.19 9608.67 111.26
15355 59.8952 9549.62 9614.63 111.74
15356 59.8991 9464.32 9620.96 110.45
15357 59.9029 9515.51 9627.47 111.06
15358 59.9066 9449.78 9634.01 110.38
15359 59.9104 9470.46 9640.93 110.19
15360 59.9141 9437.42 9647.88 110.36
15361 59.9179 9601.04 9655.24 111.35
15362 59.9216 9308.78 9662.86 109.49
15363 59.9254 9798.33 9670.49 112.08
15364 59.9291 9390.91 9678.61 110.34
15365 59.9328 9625.19 9686.77 112.10
15366 59.9366 9423.44 9695.42 109.42
15367 59.9404 9760.17 9704.37 115.71
15368 59.9441 9453.70 9713.39 111.64
15369 59.9479 9798.98 9722.97 112.64
15370 59.9516 9618.23 9732.64 111.36
15371 59.9554 9684.77 9742.91 112.04
15372 59.9591 9574.71 9753.29 111.55
15373 59.9630 9574.91 9764.32 110.96
15374 59.9668 9789.87 9775.77 112.91
15375 59.9705 9780.17 9787.35 112.33
15376 59.9743 9531.07 9799.68 111.00
15377 59.9780 9726.10 9812.16 112.52
15378 59.9818 9580.80 9825.49 111.66
15379 59.9855 9874.72 9839.34 113.38
15380 59.9893 9620.97 9853.38 112.23
15381 59.9930 9814.68 9868.38 112.91
15382 59.9967 9737.11 9883.60 112.60
15383 60.0005 9795.49 9899.87 111.86
15384 60.0043 9924.08 9916.89 112.66
15385 60.0080 9706.90 9934.13 112.56
15386 60.0118 9662.92 9952.67 111.79
15387 60.0155 9973.89 9971.48 114.21
15388 60.0193 9799.13 9991.73 114.41
15389 60.0232 9837.63 10012.90 113.44
15390 60.0269 9699.42 10034.50 112.67
15391 60.0307 9971.62 10057.80 114.31
15392 60.0344 9630.83 10081.50 112.14
15393 60.0382 9948.45 10107.10 113.52
15394 60.0420 9931.93 10134.00 117.10
15395 60.0457 10168.10 10161.60 115.59
15396 60.0494 9721.56 10191.40 112.28
15397 60.0532 10109.20 10222.00 114.44
15398 60.0569 9785.66 10255.10 111.63
15399 60.0606 9827.67 10289.20 113.95
15400 60.0644 10090.90 10326.20 115.22
15401 60.0682 10360.20 10365.30 117.28
15402 60.0719 10171.00 10405.80 115.75
15403 60.0757 10086.30 10449.80 114.95
15404 60.0794 10257.40 10495.40 116.49
15405 60.0832 10478.10 10545.20 117.80
15406 60.0871 10095.30 10598.20 115.24
15407 60.0908 10160.40 10653.50 115.73
15408 60.0946 10306.10 10714.00 116.72
15409 60.0983 10425.30 10777.20 116.77
15410 60.1021 10376.20 10846.70 117.37
15411 60.1059 10720.70 10921.70 119.18
15412 60.1096 10378.40 11000.20 116.70
15413 60.1133 10908.20 11087.10 120.53
15414 60.1171 10645.90 11178.80 118.32
15415 60.1208 10879.90 11280.70 120.32
15416 60.1246 11049.10 11391.80 120.66
15417 60.1283 11242.10 11509.50 122.26
15418 60.1321 11307.10 11641.90 122.60
15419 60.1358 11595.70 11783.00 124.22
15420 60.1396 11706.70 11943.10 125.90
15421 60.1433 12062.90 12115.30 129.47
15422 60.1471 12038.10 12312.90 126.54
15423 60.1510 12672.30 12535.10 128.98
15424 60.1547 12609.10 12781.00 129.73
15425 60.1585 13570.40 13071.30 135.92
15426 60.1622 13606.10 13401.80 135.70
15427 60.1660 14646.30 13804.70 141.76
15428 60.1698 14962.70 14293.90 144.22
15429 60.1735 15844.50 14878.60 148.75
15430 60.1772 16520.40 15624.90 152.54
15431 60.1810 17642.70 16536.80 157.81
15432 60.1847 18607.80 17712.50 162.85
15433 60.1885 20145.90 19189.40 170.96
15434 60.1922 21314.80 20976.90 177.67
15435 60.1960 23246.50 23223.50 185.29
15436 60.1997 25083.00 25860.40 193.00
15437 60.2035 27924.50 29050.40 207.24
15438 60.2074 30496.50 32727.90 218.33
15439 60.2110 34402.50 36736.80 235.71
15440 60.2149 38338.00 41177.70 249.60
15441 60.2186 43286.00 45644.60 269.69
15442 60.2224 47840.00 50074.50 289.96
15443 60.2261 51492.80 53851.40 296.74
15444 60.2299 53091.00 56697.10 305.44
15445 60.2337 54367.20 58057.60 310.11
15446 60.2374 52529.20 57753.70 301.60
15447 60.2411 51036.50 55875.40 301.39
15448 60.2449 47154.60 52877.50 286.96
15449 60.2486 44300.10 49090.40 274.52
15450 60.2524 40420.60 45033.30 257.43
15451 60.2561 37392.10 41181.50 247.01
15452 60.2599 34354.30 37550.70 233.07
15453 60.2636 32824.10 34501.70 228.00
15454 60.2674 30620.40 31954.00 218.59
15455 60.2713 30241.10 30071.30 216.74
15456 60.2749 29732.00 28911.00 215.41
15457 60.2788 29836.70 28445.40 215.61
15458 60.2825 30307.70 28731.50 216.70
15459 60.2863 31934.70 29826.70 224.45
15460 60.2901 33149.00 31791.10 228.32
15461 60.2938 36160.30 34586.80 243.23
15462 60.2976 38578.90 38433.60 251.16
15463 60.3013 42457.90 43156.20 268.27
15464 60.3050 46598.40 49005.80 280.98
15465 60.3088 53573.10 55633.30 307.73
15466 60.3125 60038.40 63238.40 329.88
15467 60.3163 69870.90 71390.30 365.02
15468 60.3200 78910.60 79439.10 393.55
15469 60.3238 89626.40 87154.80 429.21
15470 60.3275 97209.40 93331.80 453.34
15471 60.3313 104262.00 97372.10 474.97
15472 60.3352 104126.00 98364.50 471.64
15473 60.3388 100526.00 96189.00 450.29
15474 60.3427 93547.10 91112.30 449.64
15475 60.3464 84575.90 84203.90 412.06
15476 60.3502 72500.60 75970.70 371.51
15477 60.3540 63560.60 67413.00 338.54
15478 60.3577 54101.30 59300.70 309.69
15479 60.3615 47050.80 51581.70 284.04
15480 60.3652 40629.50 44846.90 260.61
15481 60.3689 35633.30 38842.50 239.02
15482 60.3727 30838.80 33881.60 219.78
15483 60.3764 27888.90 29661.00 206.80
15484 60.3802 24648.60 26228.50 191.57
15485 60.3839 22794.10 23554.20 183.03
15486 60.3877 20787.80 21367.50 174.19
15487 60.3914 19298.20 19689.40 167.34
15488 60.3952 17824.50 18323.00 159.15
15489 60.3991 17045.40 17240.80 155.06
15490 60.4027 16167.20 16391.60 150.45
15491 60.4066 15330.80 15679.20 144.81
15492 60.4103 14315.90 15101.80 139.05
15493 60.4141 14052.70 14600.40 138.37
15494 60.4178 13275.00 14180.20 133.51
15495 60.4216 13020.90 13804.40 133.09
15496 60.4254 12654.50 13473.00 130.84
15497 60.4291 12497.00 13186.20 128.73
15498 60.4328 11848.30 12922.50 125.71
15499 60.4366 11852.70 12691.00 124.84
15500 60.4403 11472.20 12476.10 124.13
15501 60.4441 11343.60 12281.10 123.38
15502 60.4478 11146.00 12107.80 122.05
15503 60.4516 11001.80 11945.40 120.45
15504 60.4553 10787.90 11800.20 119.17
15505 60.4591 10871.80 11663.30 119.18
15506 60.4630 10697.50 11537.20 119.28
15507 60.4666 10984.40 11424.10 121.06
15508 60.4705 10546.30 11316.40 118.42
15509 60.4742 10625.30 11219.40 118.42
15510 60.4780 10247.60 11126.60 116.45
15511 60.4817 10382.80 11042.80 117.16
15512 60.4855 10463.70 10962.40 116.78
15513 60.4893 10347.50 10887.50 116.87
15514 60.4930 10250.40 10819.30 115.72
15515 60.4967 10255.90 10753.70 116.47
15516 60.5005 10056.20 10693.80 114.90
15517 60.5042 10353.80 10636.00 116.34
15518 60.5080 10046.50 10581.60 112.67
15519 60.5117 10076.40 10531.90 115.00
15520 60.5155 9896.57 10483.60 113.54
15521 60.5192 9992.97 10439.30 114.71
15522 60.5230 9926.50 10396.30 112.49
15523 60.5267 10096.60 10356.60 115.60
15524 60.5305 9754.75 10318.10 112.69
15525 60.5344 10059.00 10281.60 114.53
15526 60.5381 9752.83 10247.90 110.35
15527 60.5419 9911.76 10215.00 116.63
15528 60.5456 9768.78 10184.50 113.61
15529 60.5494 9793.60 10154.70 111.80
15530 60.5532 9778.33 10126.30 112.11
15531 60.5569 9730.79 10100.00 111.99
15532 60.5606 9706.30 10074.20 112.95
15533 60.5644 9936.62 10050.30 113.93
15534 60.5681 9567.48 10026.80 110.98
15535 60.5719 9813.21 10004.30 113.01
15536 60.5756 9651.81 9983.47 111.81
15537 60.5794 9628.93 9962.89 111.61
15538 60.5831 9490.00 9943.68 110.52
15539 60.5869 9623.78 9924.78 110.19
15540 60.5906 9501.90 9907.10 110.96
15541 60.5945 9594.69 9889.70 111.18
15542 60.5983 9705.28 9872.96 111.65
15543 60.6020 9551.02 9857.33 110.91
15544 60.6058 9663.00 9841.86 110.85
15545 60.6095 9783.61 9827.40 112.10
15546 60.6133 9277.20 9813.07 109.05
15547 60.6171 9684.77 9799.29 112.18
15548 60.6208 9556.53 9786.36 110.75
15549 60.6245 9616.08 9773.79 109.80
15550 60.6283 9723.78 9761.76 112.68
15551 60.6320 9709.87 9749.83 111.97
15552 60.6357 9561.89 9738.64 110.76
15553 60.6395 9664.29 9727.51 110.23
15554 60.6433 9596.59 9716.78 114.24
15555 60.6470 9637.43 9706.66 112.14
15556 60.6508 9336.66 9696.63 109.34
15557 60.6545 9465.66 9687.36 110.00
15558 60.6584 9567.43 9677.96 111.05
15559 60.6620 9480.20 9669.08 110.29
15560 60.6659 9451.36 9660.26 109.95
15561 60.6697 9634.32 9651.72 111.26
15562 60.6734 9248.63 9643.65 108.63
15563 60.6772 9551.77 9635.61 110.53
15564 60.6809 9551.91 9628.01 110.84
15565 60.6847 9352.50 9620.44 110.14
15566 60.6884 9404.65 9613.09 109.66
15567 60.6922 9461.59 9606.14 110.41
15568 60.6959 9356.51 9599.21 109.40
15569 60.6996 9646.63 9592.65 111.52
15570 60.7034 9162.19 9586.10 108.44
15571 60.7071 9451.46 9579.90 109.97
15572 60.7109 9312.94 9573.70 109.11
15573 60.7147 9452.29 9567.68 109.95
15574 60.7184 9165.83 9561.96 108.03
15575 60.7223 9607.18 9556.25 111.46
15576 60.7259 9196.47 9550.83 108.68
15577 60.7298 9373.24 9545.41 109.84
15578 60.7336 9339.54 9540.13 109.10
15579 60.7373 9096.71 9535.12 106.22
15580 60.7411 9283.09 9530.09 110.55
15581 60.7448 9338.47 9525.33 110.97
15582 60.7486 9319.59 9520.55 109.14
15583 60.7523 9408.64 9516.01 109.72
15584 60.7561 9235.31 9511.47 108.52
15585 60.7598 9336.15 9507.02 109.57
15586 60.7635 9136.37 9502.81 108.12
15587 60.7673 9379.18 9498.57 109.47
15588 60.7710 9010.56 9494.54 107.39
15589 60.7748 9259.56 9490.50 107.81
15590 60.7785 9132.06 9486.65 107.93
15591 60.7823 9490.83 9482.78 110.58
15592 60.7862 9276.56 9479.01 108.71
15593 60.7898 9108.85 9475.41 107.94
15594 60.7937 9305.80 9471.80 108.11
15595 60.7974 9329.20 9468.35 109.23
15596 60.8012 9241.98 9464.89 109.12
15597 60.8050 9362.71 9461.50 108.50
15598 60.8087 9254.62 9458.65 107.19
15599 60.8125 9336.78 9455.40 109.19
15600 60.8162 9189.97 9452.31 108.79
15601 60.8200 9376.73 9449.19 110.22
15602 60.8237 9265.26 9446.22 109.47
15603 60.8274 9324.42 9443.23 109.32
15604 60.8312 9102.56 9440.30 107.91
15605 60.8349 9124.40 9437.50 107.88
15606 60.8387 9193.63 9434.69 106.92
15607 60.8424 9332.29 9431.99 111.35
15608 60.8462 9164.08 9429.28 108.77
15609 60.8499 9179.95 9426.69 108.51
15610 60.8537 9079.65 9424.08 106.69
15611 60.8576 9283.01 9421.52 108.51
15612 60.8613 9238.61 9419.07 108.71
15613 60.8651 9268.94 9416.60 109.32
15614 60.8688 9193.77 9414.24 108.50
15615 60.8726 9362.09 9411.86 109.20
15616 60.8763 9110.61 9409.58 108.08
15617 60.8801 9291.95 9407.28 109.13
15618 60.8839 9095.95 9406.32 107.97
15619 60.8876 9384.36 9404.17 110.47
15620 60.8913 9028.88 9402.00 107.70
15621 60.8951 9271.79 9399.93 109.50
15622 60.8988 9259.02 9397.84 109.30
15623 60.9026 9363.45 9395.78 109.25
15624 60.9063 9206.90 9393.81 108.00
15625 60.9101 9346.58 9391.81 108.54
15626 60.9138 9128.63 9389.91 108.26
15627 60.9176 9270.91 9387.98 109.25
15628 60.9213 9008.60 9386.14 108.30
15629 60.9252 9160.13 9384.28 108.73
15630 60.9290 9195.88 9382.44 108.90
15631 60.9327 9254.84 9380.68 109.08
15632 60.9365 9051.82 9378.91 107.21
15633 60.9402 9216.63 9378.42 108.45
15634 60.9440 9209.73 9376.71 109.72
15635 60.9477 9339.13 9375.07 110.11
15636 60.9515 9267.23 9339.86 108.32
15637 60.9552 9236.05 9338.58 108.38
15638 60.9590 9147.39 9337.36 108.68
15639 60.9627 9262.64 9336.12 109.28
15640 60.9664 9159.26 9334.94 109.09
15641 60.9702 9247.48 9333.74 109.26
15642 60.9739 9181.91 9332.58 108.90
15643 60.9777 9245.91 9331.42 108.98
15644 60.9815 9131.46 9330.28 108.72
15645 60.9852 9264.58 9329.18 109.50
15646 60.9891 8919.68 9328.07 106.80
15647 60.9927 9310.69 9327.00 109.54
15648 60.9966 9235.28 9325.92 108.96
15649 61.0003 9208.42 9324.89 109.49
15650 61.0041 9134.87 9323.84 108.33
15651 61.0079 9260.03 9322.81 109.12
15652 61.0116 9172.22 9323.94 108.86
15653 61.0154 9316.21 9322.96 109.76
15654 61.0191 9356.90 9322.03 109.29
15655 61.0229 9238.56 9321.08 109.85
15656 61.0266 9055.15 9320.17 108.12
15657 61.0303 9216.67 9319.26 108.77
15658 61.0341 9250.51 9318.36 109.57
15659 61.0378 9040.04 9317.50 106.75
15660 61.0416 9020.11 9316.62 109.52
15661 61.0453 9424.66 9315.79 111.55
15662 61.0491 9210.67 9314.95 109.03
15663 61.0528 9299.99 9249.89 108.58
15664 61.0566 9219.03 9249.75 108.81
15665 61.0605 9325.02 9249.62 109.43
15666 61.0642 9173.51 9249.49 109.20
15667 61.0680 9249.59 9249.37 109.63
15668 61.0717 9062.65 9249.25 107.00
15669 61.0755 9339.20 9249.13 109.72
15670 61.0792 9250.91 9249.02 107.50
15671 61.0830 9459.36 9248.92 110.52
15672 61.0868 9007.88 9248.82 107.79
15673 61.0905 9242.47 9248.73 108.75
15674 61.0942 8923.41 9248.65 107.20
15675 61.0979 9018.52 9248.57 107.54
15676 61.1017 9194.81 9248.50 108.79
15677 61.1054 9250.35 9248.44 109.11
15678 61.1092 8980.24 9248.39 106.75
15679 61.1130 9346.30 9248.34 109.97
15680 61.1167 9206.94 9248.31 108.00
15681 61.1205 9227.71 9248.29 109.99
15682 61.1242 8983.24 9248.27 107.11
15683 61.1281 9411.73 9248.27 110.25
15684 61.1317 9147.03 9248.29 109.05
15685 61.1356 9169.37 9248.31 108.32
15686 61.1394 9159.29 9248.35 107.26
15687 61.1431 9319.69 9248.41 112.22
15688 61.1469 9329.83 9248.48 110.01
15689 61.1506 9063.50 9248.57 107.54
15690 61.1544 9080.18 9248.68 107.12
15691 61.1581 9215.47 9248.81 109.12
15692 61.1618 9199.74 9248.96 108.91
15693 61.1656 9153.39 9249.14 108.21
15694 61.1693 9155.13 9249.34 108.31
15695 61.1731 9141.80 9249.58 108.13
15696 61.1768 8949.89 9249.84 107.81
15697 61.1806 9096.09 9250.14 107.46
15698 61.1843 8997.14 9250.47 107.81
15699 61.1881 9202.96 9250.85 108.83
15700 61.1918 9231.19 9251.27 108.51
15701 61.1956 9301.75 9251.75 109.42
15702 61.1995 8905.80 9252.29 106.53
15703 61.2032 9294.44 9252.87 109.20
15704 61.2070 9043.08 9253.54 107.38
15705 61.2107 9105.32 9254.27 107.89
15706 61.2145 9109.52 9255.12 108.22
15707 61.2182 9224.78 9256.04 107.74
15708 61.2220 9033.17 9257.13 108.52
15709 61.2257 9158.06 9258.37 108.61
15710 61.2295 8856.54 9259.76 106.99
15711 61.2332 9242.98 9261.44 109.18
15712 61.2369 9099.92 9263.36 106.80
15713 61.2407 9162.20 9265.73 107.67
15714 61.2444 9232.78 9268.51 111.17
15715 61.2482 9179.65 9272.01 108.79
15716 61.2519 9092.48 9276.17 108.16
15717 61.2557 9202.33 9281.41 108.69
15718 61.2595 9089.42 9287.80 107.39
15719 61.2632 9112.69 9295.33 107.79
15720 61.2671 9247.83 9304.54 109.02
15721 61.2707 9004.81 9315.11 107.62
15722 61.2746 9077.40 9327.62 107.73
15723 61.2783 9286.12 9341.42 109.34
15724 61.2821 9036.61 9357.05 107.81
15725 61.2859 9155.11 9373.86 107.64
15726 61.2896 9186.08 9390.72 108.92
15727 61.2934 9151.73 9407.75 108.66
15728 61.2971 9306.22 9423.00 109.28
15729 61.3008 9201.46 9436.29 108.83
15730 61.3046 9166.38 9446.51 108.10
15731 61.3083 9253.19 9454.58 108.63
15732 61.3120 9420.95 9461.31 109.57
15733 61.3158 9344.00 9468.79 109.66
15734 61.3196 9448.25 9478.54 110.34
15735 61.3233 9425.07 9491.52 110.47
15736 61.3271 9306.59 9509.18 110.01
15737 61.3308 9356.95 9530.83 109.86
15738 61.3346 9348.69 9557.16 109.87
15739 61.3383 9269.01 9585.68 107.31
15740 61.3422 9261.20 9615.84 111.49
15741 61.3460 9541.83 9644.12 112.10
15742 61.3497 9505.29 9666.95 110.61
15743 61.3535 9604.70 9683.22 111.22
15744 61.3572 9505.91 9691.50 110.01
15745 61.3610 9463.37 9693.38 110.28
15746 61.3647 9323.10 9690.91 109.46
15747 61.3685 9625.60 9686.05 111.59
15748 61.3722 9348.74 9680.15 109.52
15749 61.3759 9601.73 9672.69 111.66
15750 61.3797 9504.78 9662.40 110.56
15751 61.3834 9570.10 9647.82 110.79
15752 61.3872 9364.81 9626.83 109.44
15753 61.3909 9563.38 9600.48 111.54
15754 61.3947 9450.70 9568.81 110.75
15755 61.3984 9379.85 9535.59 109.37
15756 61.4022 9399.65 9501.35 109.15
15757 61.4059 9314.51 9469.51 109.64
15758 61.4098 9198.66 9439.58 108.76
15759 61.4136 9269.52 9413.00 108.73
15760 61.4173 9375.43 9390.70 110.03
15761 61.4211 9210.00 9371.34 109.18
15762 61.4248 9093.94 9355.88 108.16
15763 61.4286 9146.85 9343.10 108.54
15764 61.4323 9134.55 9333.39 108.31
15765 61.4361 9449.96 9325.85 110.60
15766 61.4398 9047.01 9320.52 105.94
15767 61.4436 9272.28 9316.78 111.77
15768 61.4473 9275.14 9314.51 110.41
15769 61.4510 9308.35 9313.50 109.21
15770 61.4548 9168.77 9313.52 107.92
15771 61.4585 9078.42 9314.48 108.06
15772 61.4623 9068.54 9316.39 107.98
15773 61.4660 9325.49 9319.15 109.98
15774 61.4698 9200.24 9323.02 108.99
15775 61.4735 9336.97 9327.92 110.22
15776 61.4773 9115.75 9334.38 108.72
15777 61.4812 9164.75 9342.57 109.07
15778 61.4849 9165.74 9352.65 108.95
15779 61.4887 9399.18 9365.62 110.63
15780 61.4924 9098.95 9381.41 108.09
15781 61.4962 9229.73 9401.46 109.27
15782 61.4999 9308.18 9425.38 110.18
15783 61.5037 9382.55 9455.03 110.02
15784 61.5074 9031.48 9489.16 108.03
15785 61.5112 9584.28 9530.00 111.65
15786 61.5149 9323.10 9576.39 109.69
15787 61.5187 9329.41 9626.38 109.59
15788 61.5224 9578.33 9681.23 112.21
15789 61.5261 9604.96 9736.03 112.37
15790 61.5299 9566.92 9790.26 112.02
15791 61.5336 9709.72 9836.94 112.90
15792 61.5374 9441.64 9873.68 109.33
15793 61.5411 9581.43 9894.99 112.83
15794 61.5449 9582.65 9900.90 112.68
15795 61.5486 9571.90 9893.46 110.91
15796 61.5524 9509.51 9877.44 109.94
15797 61.5563 9628.57 9859.34 110.87
15798 61.5600 9424.91 9845.60 110.64
15799 61.5638 9521.33 9840.76 110.97
15800 61.5675 9670.74 9849.23 112.28
15801 61.5713 9863.04 9874.98 111.52
15802 61.5750 9707.48 9919.40 112.07
15803 61.5788 9961.60 9986.95 114.06
15804 61.5825 9848.91 10074.90 113.76
15805 61.5863 9955.28 10188.40 113.67
15806 61.5900 10334.30 10323.50 116.82
15807 61.5938 10495.80 10472.90 116.55
15808 61.5975 10532.30 10638.70 116.94
15809 61.6012 10785.50 10803.70 119.30
15810 61.6050 10952.10 10964.00 120.50
15811 61.6087 11119.50 11095.90 121.07
15812 61.6125 10886.60 11190.10 120.39
15813 61.6162 11187.00 11230.70 121.35
15814 61.6200 11050.20 11218.50 120.76
15815 61.6237 10993.30 11163.40 120.68
15816 61.6275 11032.70 11080.00 121.57
15817 61.6314 10895.40 10988.60 120.29
15818 61.6351 10574.80 10908.10 117.54
15819 61.6389 10477.30 10845.90 115.74
15820 61.6426 10622.60 10813.00 119.78
15821 61.6464 10674.60 10811.00 118.53
15822 61.6501 10751.10 10840.10 118.94
15823 61.6539 10819.20 10898.20 117.03
15824 61.6576 10726.90 10974.70 118.62
15825 61.6614 11091.70 11062.50 120.55
15826 61.6651 11099.90 11143.10 120.46
15827 61.6688 11229.00 11197.80 121.63
15828 61.6726 11335.80 11214.20 123.12
15829 61.6763 11122.20 11184.60 120.99
15830 61.6801 11071.10 11110.70 120.36
15831 61.6838 10879.80 11008.90 119.22
15832 61.6876 10653.00 10890.10 117.49
15833 61.6913 10751.70 10776.90 118.93
15834 61.6951 10426.30 10676.00 116.29
15835 61.6988 10277.40 10603.60 116.02
15836 61.7026 10431.80 10562.90 116.07
15837 61.7063 10279.30 10561.80 115.90
15838 61.7102 10075.30 10603.60 113.23
15839 61.7140 9985.06 10690.50 113.28
15840 61.7177 10336.90 10817.90 115.09
15841 61.7215 10815.20 10989.10 119.64
15842 61.7252 10575.10 11189.30 117.41
15843 61.7290 10960.50 11418.50 120.32
15844 61.7327 11153.10 11650.10 121.46
15845 61.7365 11381.10 11874.60 122.32
15846 61.7402 11551.40 12053.20 121.68
15847 61.7439 11931.70 12167.50 128.46
15848 61.7477 11588.00 12189.10 124.49
15849 61.7514 11839.70 12112.10 125.51
15850 61.7552 11490.40 11946.00 122.62
15851 61.7589 11464.90 11721.40 122.69
15852 61.7627 10903.00 11454.70 119.37
15853 61.7664 10786.30 11182.70 119.14
15854 61.7702 10443.50 10909.50 117.60
15855 61.7739 10096.40 10660.50 114.53
15856 61.7777 9999.40 10429.80 113.29
15857 61.7814 9869.42 10232.30 113.66
15858 61.7853 9733.07 10058.70 112.75
15859 61.7890 9650.38 9916.68 111.63
15860 61.7928 9419.20 9796.47 109.79
15861 61.7965 9369.63 9701.19 109.83
15862 61.8003 9374.01 9622.49 110.15
15863 61.8041 9309.10 9559.56 109.32
15864 61.8078 9299.23 9510.63 109.45
15865 61.8116 9356.69 9470.09 109.25
15866 61.8153 9365.28 9438.03 109.53
15867 61.8190 9189.34 9410.94 108.88
15868 61.8228 9301.69 9388.82 110.42
15869 61.8265 9245.52 9369.50 108.80
15870 61.8302 9106.42 9353.21 108.88
15871 61.8340 9233.53 9338.55 109.11
15872 61.8377 9121.73 9325.87 107.21
15873 61.8415 9235.58 9314.21 109.17
15874 61.8452 9179.02 9303.95 110.41
15875 61.8490 9045.49 9294.39 108.32
15876 61.8529 8950.70 9285.67 106.67
15877 61.8565 9216.34 9277.88 107.67
15878 61.8604 9050.00 9270.52 107.69
15879 61.8641 9285.57 9263.90 109.69
15880 61.8679 8950.93 9257.60 107.58
15881 61.8716 9394.92 9251.91 110.13
15882 61.8754 9081.44 9246.47 108.15
15883 61.8791 9225.53 9241.52 109.11
15884 61.8829 8937.82 9236.76 107.17
15885 61.8866 9157.15 9232.42 108.27
15886 61.8904 9121.77 9228.23 108.40
15887 61.8941 9116.00 9224.39 108.29
15888 61.8979 8888.95 9220.67 107.19
15889 61.9016 9286.54 9217.15 109.70
15890 61.9053 9035.71 9213.90 107.79
15891 61.9091 8968.17 9210.75 107.67
15892 61.9128 9051.96 9207.81 108.93
15893 61.9166 9110.40 9204.96 108.57
15894 61.9203 9022.66 9202.29 108.45
15895 61.9241 9135.65 9199.69 109.46
15896 61.9278 9034.84 9197.26 108.22
15897 61.9316 9275.67 9194.87 109.76
15898 61.9353 9216.17 9192.64 108.99
15899 61.9392 9138.80 9190.44 107.50
15900 61.9428 9017.78 9188.38 109.57
15901 61.9467 9128.49 9186.34 109.57
15902 61.9504 8874.90 9184.43 107.11
15903 61.9542 9236.49 9182.53 108.49
15904 61.9580 8849.30 9180.70 106.98
15905 61.9617 9087.60 9178.97 108.56
15906 61.9655 9159.78 9177.25 108.30
15907 61.9692 9162.07 9175.63 109.32
15908 61.9729 9027.70 9174.01 108.47
15909 61.9767 9141.77 9172.49 107.89
15910 61.9804 8882.03 9170.96 107.12
15911 61.9841 9051.80 9169.51 107.32
15912 61.9860 9015.71 9168.79 108.35
15913 61.9897 9224.26 9167.40 109.09
15914 61.9935 8965.20 9166.00 107.71
15915 61.9972 9006.56 9164.68 107.94
15916 62.0010 9048.94 9163.35 107.99
15917 62.0047 9134.49 9162.09 108.42
15918 62.0085 9021.41 9160.82 108.62
15919 62.0122 8915.85 9159.61 107.89
15920 62.0160 9094.86 9158.39 109.00
15921 62.0197 9103.48 9157.23 109.01
15922 62.0235 8891.18 9156.06 105.82
15923 62.0274 9129.61 9154.91 109.93
15924 62.0311 9101.63 9153.81 109.59
15925 62.0349 9092.08 9152.60 107.88
15926 62.0386 9223.44 9151.54 108.19
15927 62.0424 9090.87 9150.47 107.46
15928 62.0461 9043.49 9149.44 108.22
15929 62.0499 9149.33 9148.41 108.63
15930 62.0536 9140.56 9147.41 108.90
15931 62.0574 9142.25 9146.40 106.99
15932 62.0611 9071.58 9145.41 108.01
15933 62.0648 8999.65 9144.45 107.85
15934 62.0686 8972.76 9143.48 108.08
15935 62.0723 9193.88 9142.55 108.82
15936 62.0761 9160.83 9141.61 109.28
15937 62.0798 9124.64 9140.70 107.84
15938 62.0836 9215.57 9139.54 108.59
15939 62.0873 9073.92 9138.65 108.36
15940 62.0911 9029.91 9137.75 108.21
15941 62.0950 9209.93 9136.86 108.99
15942 62.0987 9092.72 9136.00 108.90
15943 62.1025 9211.42 9135.13 108.88
15944 62.1062 9094.77 9134.28 108.33
15945 62.1100 9153.70 9133.42 108.97
15946 62.1137 8986.19 9132.60 108.42
15947 62.1175 9139.10 9131.55 109.07
15948 62.1212 8903.48 9130.74 106.81
15949 62.1250 9080.10 9129.91 106.90
15950 62.1287 8969.63 9129.11 109.03
15951 62.1325 9241.44 9128.29 109.41
15952 62.1362 9196.21 9127.49 109.05
15953 62.1399 9102.50 9126.70 106.30
15954 62.1437 9052.14 9125.90 107.93
15955 62.1474 9049.78 9125.13 107.61
15956 62.1512 9080.43 9124.34 107.69
15957 62.1549 9112.81 9143.43 108.24
15958 62.1587 9051.67 9142.85 108.57
15959 62.1624 9220.56 9142.29 108.97
15960 62.1662 8993.96 9141.73 107.18
15961 62.1699 9055.48 9141.19 107.63
15962 62.1738 8994.24 9140.64 106.94
15963 62.1774 8920.09 9140.11 107.19
15964 62.1813 9066.48 9139.58 107.62
15965 62.1851 9070.76 9139.05 108.27
15966 62.1888 8951.48 9138.54 106.61
15967 62.1926 9033.60 9138.03 107.90
15968 62.1963 9020.72 9137.53 106.52
15969 62.2001 9168.94 9137.03 108.10
15970 62.2038 8934.59 9136.55 106.15
15971 62.2076 9028.26 9136.06 108.19
15972 62.2113 8966.90 9135.59 107.12
15973 62.2150 9001.96 9135.12 107.82
15974 62.2152 9106.61 9135.09 107.60
15975 62.2191 9104.68 9134.63 108.48
15976 62.2228 8998.84 9134.18 108.96
15977 62.2266 8879.39 9174.49 106.75
15978 62.2303 9114.44 9174.45 109.30
15979 62.2341 9235.53 9174.43 109.96
15980 62.2378 9231.97 9174.43 109.11
15981 62.2416 9164.83 9174.43 110.10
15982 62.2453 9254.41 9174.45 111.61
15983 62.2491 9230.71 9174.48 109.69
15984 62.2528 9113.67 9174.53 108.96
15985 62.2565 9243.81 9174.59 109.97
15986 62.2603 9154.42 9174.66 107.20
15987 62.2640 9189.12 9174.75 109.10
15988 62.2678 9050.23 9174.85 108.78
15989 62.2715 9307.49 9174.97 110.11
15990 62.2753 9163.50 9174.72 108.74
15991 62.2790 9185.33 9174.87 108.71
15992 62.2828 9214.06 9216.52 109.22
15993 62.2865 9242.10 9217.12 109.92
15994 62.2904 9072.30 9217.74 109.09
15995 62.2940 9138.91 9218.38 108.81
15996 62.2979 9071.45 9219.05 108.89
15997 62.3016 9116.39 9219.73 109.03
15998 62.3054 9080.50 9220.45 108.58
15999 62.3091 9196.25 9221.18 109.64
16000 62.3129 9041.63 9221.95 108.32
16001 62.3166 9141.58 9222.73 108.39
16002 62.3204 9097.52 9223.56 108.01
16003 62.3241 9225.07 9224.38 108.97
16004 62.3279 9136.27 9225.26 109.64
16005 62.3316 9001.46 9226.17 108.90
16006 62.3354 8991.29 9227.08 107.64
16007 62.3391 9061.07 9228.05 107.21
16008 62.3428 9160.68 9229.02 111.61
16009 62.3466 9251.01 9230.04 110.46
16010 62.3503 9121.51 9288.48 108.99
16011 62.3541 9139.52 9290.18 108.58
16012 62.3578 9132.37 9313.20 108.24
16013 62.3616 9148.67 9315.20 109.09
16014 62.3653 9118.58 9317.20 108.99
16015 62.3691 9201.36 9319.30 109.04
16016 62.3728 9036.32 9321.39 108.21
16017 62.3767 9329.63 9323.59 110.35
16018 62.3803 9180.36 9325.78 109.21
16019 62.3842 9454.45 9328.08 111.10
16020 62.3880 9112.10 9330.44 108.67
16021 62.3917 9095.64 9332.79 108.83
16022 62.3955 9180.32 9335.26 109.43
16023 62.3992 9234.50 9337.72 109.93
16024 62.4030 9105.48 9340.31 109.10
16025 62.4067 9250.56 9342.89 109.17
16026 62.4104 9240.18 9344.40 109.51
16027 62.4142 9263.30 9347.12 109.98
16028 62.4179 9201.71 9349.97 109.10
16029 62.4216 9294.60 9352.82 110.51
16030 62.4254 9192.70 9355.80 109.13
16031 62.4291 9104.42 9358.79 109.64
16032 62.4329 9151.11 9361.92 108.91
16033 62.4367 9131.88 9365.13 109.08
16034 62.4404 9152.29 9368.33 108.45
16035 62.4442 9418.44 9371.70 112.66
16036 62.4479 9220.65 9375.06 109.42
16037 62.4518 9232.81 9378.59 109.56
16038 62.4554 9209.43 9382.11 108.38
16039 62.4593 9060.99 9385.82 108.51
16040 62.4630 9241.94 9389.52 109.58
16041 62.4668 9265.22 9393.41 108.90
16042 62.4705 9221.18 9397.29 109.84
16043 62.4743 9271.95 9401.37 110.41
16044 62.4780 9168.85 9405.45 108.60
16045 62.4818 9294.84 9409.75 110.08
16046 62.4855 9279.89 9411.92 109.91
16047 62.4893 9339.27 9416.47 110.52
16048 62.4930 9215.39 9421.11 109.96
16049 62.4967 9432.26 9425.76 110.85
16050 62.5005 9489.69 9430.64 112.21
16051 62.5042 9138.18 9435.53 108.81
16052 62.5080 9192.24 9440.67 109.63
16053 62.5117 9266.62 9445.81 109.92
16054 62.5155 9143.14 9451.22 109.55
16055 62.5192 9304.17 9456.64 110.02
16056 62.5230 9386.21 9462.34 111.25
16057 62.5267 9361.44 9468.04 110.86
16058 62.5305 9193.78 9474.05 109.51
16059 62.5344 9475.95 9480.23 110.71
16060 62.5381 9249.68 9486.40 108.77
16061 62.5419 9272.26 9492.93 111.17
16062 62.5456 9307.66 9499.45 111.91
16063 62.5494 9503.93 9506.33 111.52
16064 62.5531 9378.16 9513.22 110.24
16065 62.5569 9344.37 9520.48 110.62
16066 62.5606 9300.98 9527.77 109.92
16067 62.5644 9408.97 9535.45 110.38
16068 62.5681 9428.00 9543.16 110.89
16069 62.5718 9288.01 9551.29 109.61
16070 62.5756 9454.34 9559.45 111.12
16071 62.5793 9467.41 9568.07 110.50
16072 62.5831 9392.58 9576.96 110.83
16073 62.5868 9678.80 9585.86 112.45
16074 62.5906 9356.57 9595.29 110.76
16075 62.5943 9465.38 9604.74 110.25
16076 62.5981 9514.31 9614.76 110.78
16077 62.6018 9595.92 9624.79 111.90
16078 62.6057 9448.63 9635.45 110.96
16079 62.6093 9474.63 9646.15 111.18
16080 62.6132 9644.21 9657.47 112.29
16081 62.6169 9438.24 9668.86 109.80
16082 62.6207 9488.91 9680.92 110.61
16083 62.6245 9734.94 9693.42 112.48
16084 62.6282 9504.01 9705.95 111.52
16085 62.6320 9645.26 9719.29 112.19
16086 62.6357 9599.27 9732.69 110.79
16087 62.6395 9698.52 9746.95 111.20
16088 62.6432 9848.15 9761.29 114.24
16089 62.6469 9701.99 9776.56 114.21
16090 62.6507 9682.79 9791.93 112.52
16091 62.6544 9568.37 9808.32 110.09
16092 62.6582 9728.76 9825.28 112.42
16093 62.6619 9811.59 9842.42 112.36
16094 62.6657 9696.37 9860.67 112.06
16095 62.6694 9851.63 9879.12 113.91
16096 62.6732 9658.91 9898.78 112.50
16097 62.6769 9714.20 9918.69 112.96
16098 62.6808 9761.20 9939.91 113.18
16099 62.6844 9804.45 9961.43 113.30
16100 62.6883 9807.99 9984.40 112.99
16101 62.6920 10060.20 10007.70 114.60
16102 62.6958 9933.85 10032.60 114.03
16103 62.6996 9868.54 10058.60 113.56
16104 62.7033 9929.92 10085.00 114.00
16105 62.7071 10051.30 10113.30 114.47
16106 62.7108 10145.20 10142.10 115.14
16107 62.7146 9915.90 10173.00 114.44
16108 62.7183 10062.10 10204.50 114.45
16109 62.7220 10133.80 10238.30 115.75
16110 62.7257 10035.00 10272.80 114.68
16111 62.7295 10295.00 10310.00 117.00
16112 62.7332 9932.34 10348.00 113.23
16113 62.7370 10175.70 10389.00 115.18
16114 62.7408 10112.10 10432.10 114.03
16115 62.7445 10261.90 10476.30 118.28
16116 62.7483 10171.80 10524.10 114.99
16117 62.7520 10305.90 10573.30 116.23
16118 62.7559 10418.80 10626.60 116.66
16119 62.7595 10350.90 10681.50 116.27
16120 62.7634 10538.40 10741.20 117.36
16121 62.7671 10570.80 10802.90 118.37
16122 62.7709 10720.70 10870.20 119.26
16123 62.7747 10826.70 10941.90 119.43
16124 62.7784 10691.40 11016.10 118.87
16125 62.7822 11017.60 11097.60 121.34
16126 62.7859 10870.50 11182.50 120.68
16127 62.7896 11004.40 11275.70 121.13
16128 62.7934 11335.10 11373.40 123.14
16129 62.7971 11370.60 11481.20 123.45
16130 62.8008 11248.00 11594.60 122.51
16131 62.8046 11650.40 11720.50 124.67
16132 62.8084 11943.90 11857.80 126.85
16133 62.8121 12018.30 12003.30 127.36
16134 62.8159 12199.20 12167.80 127.82
16135 62.8196 12398.10 12344.30 128.66
16136 62.8234 12917.10 12547.00 133.21
16137 62.8271 13016.00 12768.90 132.93
16138 62.8310 13597.60 13029.50 137.04
16139 62.8346 14060.60 13322.50 138.97
16140 62.8385 14407.70 13676.80 140.81
16141 62.8423 15053.90 14099.00 143.86
16142 62.8460 15612.80 14594.90 149.91
16143 62.8498 15950.10 15214.50 148.41
16144 62.8535 16805.70 15948.80 152.79
16145 62.8573 17609.10 16871.30 158.35
16146 62.8610 18453.10 17958.60 162.22
16147 62.8647 19598.00 19305.00 168.89
16148 62.8685 20595.20 20857.30 173.58
16149 62.8722 22367.60 22724.10 182.60
16150 62.8760 24125.40 24862.50 191.03
16151 62.8797 26425.30 27196.30 201.75
16152 62.8835 28377.30 29804.10 211.18
16153 62.8872 31335.40 32479.50 223.53
16154 62.8910 33454.20 35236.00 233.18
16155 62.8947 35985.90 37761.70 242.21
16156 62.8985 37128.90 39961.70 247.42
16157 62.9022 38461.10 41500.40 253.75
16158 62.9061 38689.70 42290.50 250.69
16159 62.9099 38786.90 42255.00 253.82
16160 62.9136 37385.00 41556.70 247.46
16161 62.9174 36955.20 40410.80 246.37
16162 62.9211 36300.40 39155.10 244.68
16163 62.9249 35957.30 37991.20 243.73
16164 62.9286 34953.30 37196.40 239.53
16165 62.9324 35529.10 36895.60 241.71
16166 62.9361 36009.30 37231.10 242.78
16167 62.9398 37206.30 38309.60 244.97
16168 62.9436 39659.80 40186.20 262.70
16169 62.9473 42147.70 42799.00 269.81
16170 62.9511 45231.50 46254.60 279.88
16171 62.9548 50480.10 50302.10 297.99
16172 62.9586 55191.30 55006.40 315.37
16173 62.9623 61812.60 59911.90 339.17
16174 62.9661 67363.80 64944.10 358.35
16175 62.9698 72605.50 69432.50 377.71
16176 62.9737 76926.70 73118.10 385.44
16177 62.9775 78270.30 75435.00 396.65
16178 62.9812 78393.70 76165.10 393.78
16179 62.9850 76976.80 75455.20 391.97
16180 62.9887 73594.40 73730.40 380.02
16181 62.9925 71367.20 71448.90 371.16
16182 62.9962 67296.30 69263.10 354.45
16183 63.0000 65815.70 67483.40 352.14
16184 63.0037 64303.60 66490.00 345.74
16185 63.0075 64748.40 66442.10 351.02
16186 63.0112 66206.50 67387.90 354.07
16187 63.0149 69621.00 69216.40 365.35
16188 63.0187 74202.10 71835.50 377.13
16189 63.0224 79929.40 74805.80 403.01
16190 63.0262 83254.00 77833.10 411.87
16191 63.0299 87650.90 80248.50 428.44
16192 63.0337 88103.00 81669.50 428.14
16193 63.0376 89125.80 81703.30 428.07
16194 63.0412 85313.40 80418.30 415.70
16195 63.0451 83681.80 78083.20 423.99
16196 63.0488 77616.20 75350.50 394.98
16197 63.0526 74654.50 72655.70 384.00
16198 63.0563 70612.60 70626.70 366.23
16199 63.0601 69394.40 69556.00 365.96
16200 63.0639 67800.10 69797.10 361.99
16201 63.0676 69674.10 71462.20 367.73
16202 63.0714 71964.60 74724.10 369.14
16203 63.0751 77169.00 79363.30 391.57
16204 63.0788 83222.40 85499.60 411.77
16205 63.0826 91854.10 92491.10 440.42
16206 63.0863 101182.00 100273.00 467.49
16207 63.0900 113199.00 107743.00 504.52
16208 63.0938 122103.00 114471.00 523.18
16209 63.0976 129499.00 119247.00 550.29
16210 63.1013 131539.00 121238.00 555.05
16211 63.1051 130046.00 120100.00 553.35
16212 63.1088 123467.00 115953.00 531.61
16213 63.1127 114712.00 109103.00 505.21
16214 63.1163 102324.00 100652.00 470.47
16215 63.1202 89730.10 90996.20 432.59
16216 63.1240 78141.10 81078.40 397.62
16217 63.1277 67461.30 71694.40 360.46
16218 63.1315 58117.10 62714.30 326.62
16219 63.1352 50661.50 54847.60 300.37
16220 63.1390 44139.20 47732.40 271.93
16221 63.1427 39317.00 41785.10 260.19
16222 63.1465 34193.60 36643.10 238.98
16223 63.1502 31138.90 32389.50 223.40
16224 63.1539 28107.50 28996.30 208.36
16225 63.1577 25911.30 26173.90 198.90
16226 63.1614 23419.70 23955.10 186.18
16227 63.1652 22209.30 22120.60 181.11
16228 63.1689 20516.90 20674.00 173.16
16229 63.1727 19370.00 19463.40 166.87
16230 63.1764 18112.40 18489.70 161.49
16231 63.1802 17191.20 17653.50 155.65
16232 63.1841 16311.40 16943.40 151.20
16233 63.1878 15860.00 16348.80 148.31
16234 63.1916 15223.90 15813.90 145.13
16235 63.1953 14679.20 15354.70 141.93
16236 63.1991 14265.30 14933.10 140.48
16237 63.2028 13650.40 14564.90 135.38
16238 63.2066 13399.40 14222.20 134.76
16239 63.2104 13207.80 13911.60 133.73
16240 63.2141 12809.10 13635.40 131.40
16241 63.2178 12556.90 13375.80 129.43
16242 63.2215 12283.70 13143.50 126.64
16243 63.2253 12136.40 12923.70 128.02
16244 63.2290 12005.00 12726.50 127.14
16245 63.2328 11876.40 12538.70 126.57
16246 63.2366 11599.40 12365.10 124.29
16247 63.2403 11300.50 12207.80 120.52
16248 63.2441 11311.20 12057.60 123.39
16249 63.2478 11398.20 11921.10 124.19
16250 63.2517 11094.70 11790.20 121.16
16251 63.2553 11026.10 11670.90 120.02
16252 63.2592 10900.10 11556.10 119.01
16253 63.2630 10709.30 11448.50 118.82
16254 63.2667 10839.90 11349.90 119.70
16255 63.2705 10822.50 11254.50 119.45
16256 63.2742 10795.60 11167.10 119.46
16257 63.2780 10759.20 11082.30 118.57
16258 63.2817 10509.00 11004.40 117.59
16259 63.2854 10554.60 10928.50 117.56
16260 63.2892 10459.40 10856.90 116.94
16261 63.2929 10288.80 10790.60 116.02
16262 63.2967 10305.00 10726.20 116.11
16263 63.3004 10255.00 10666.40 115.68
16264 63.3042 10326.20 10608.20 116.82
16265 63.3079 10194.20 10554.10 115.86
16266 63.3117 10121.90 10501.30 115.23
16267 63.3156 10217.20 10450.90 115.28
16268 63.3192 10009.00 10404.10 114.01
16269 63.3231 10114.80 10358.20 116.07
16270 63.3268 10041.00 10315.40 114.18
16271 63.3306 9965.80 10273.40 114.39
16272 63.3343 10070.80 10234.20 114.51
16273 63.3381 9984.77 10195.70 112.33
16274 63.3419 9898.39 10158.70 112.97
16275 63.3456 9934.72 10124.20 116.48
16276 63.3493 10097.60 10090.20 114.96
16277 63.3531 9903.21 10058.40 113.35
16278 63.3568 9957.35 10027.00 113.54
16279 63.3605 9859.71 9997.62 112.95
16280 63.3643 9785.63 9968.57 112.80
16281 63.3681 9759.15 9940.56 112.76
16282 63.3718 9881.93 9914.34 114.06
16283 63.3756 9901.58 9888.32 113.88
16284 63.3793 9670.39 9863.95 111.74
16285 63.3831 9770.88 9839.74 112.46
16286 63.3868 9713.10 9817.02 112.16
16287 63.3907 9688.30 9794.44 112.29
16288 63.3945 9633.86 9772.66 112.56
16289 63.3982 9665.55 9752.13 111.91
16290 63.4020 9573.29 9731.76 112.17
16291 63.4057 9669.10 9712.54 112.16
16292 63.4095 9519.87 9693.42 111.45
16293 63.4132 9479.16 9675.42 111.15
16294 63.4170 9416.85 9657.47 110.11
16295 63.4207 9611.75 9640.11 110.41
16296 63.4244 9353.24 9623.70 110.90
16297 63.4282 9667.42 9607.36 110.66
16298 63.4319 9317.04 9591.90 110.56
16299 63.4357 9254.49 9576.51 109.95
16300 63.4395 9241.05 9561.56 108.60
16301 63.4432 9572.87 9547.40 110.64
16302 63.4470 9415.27 9533.28 112.53
16303 63.4507 9492.12 9519.90 111.38
16304 63.4546 9309.69 9506.54 109.11
16305 63.4582 9266.85 9493.88 108.35
16306 63.4621 9472.26 9481.23 110.80
16307 63.4659 9334.01 9468.92 110.10
16308 63.4696 9376.99 9457.24 110.82
16309 63.4734 9292.14 9445.54 110.11
16310 63.4771 9371.15 9434.46 110.85
16311 63.4809 9280.89 9423.34 109.91
16312 63.4846 9283.28 9412.93 109.89
16313 63.4883 9174.81 9402.38 109.41
16314 63.4921 9132.80 9392.08 109.14
16315 63.4958 9135.38 9382.29 109.09
16316 63.4996 9350.19 9372.48 110.00
16317 63.5033 9135.99 9363.15 109.17
16318 63.5071 9348.04 9353.79 109.48
16319 63.5108 9380.76 9344.88 110.62
16320 63.5146 9271.03 9335.94 110.21
16321 63.5185 9185.04 9327.20 109.03
16322 63.5221 9271.43 9318.90 110.15
16323 63.5260 9246.67 9310.53 109.43
16324 63.5297 9332.87 9302.58 109.74
16325 63.5335 9200.54 9294.58 108.91
16326 63.5372 9015.00 9286.95 108.32
16327 63.5410 9321.00 9279.29 109.01
16328 63.5448 9159.42 9271.78 111.56
16329 63.5485 9083.10 9264.64 109.17
16330 63.5522 9201.30 9257.43 109.32
16331 63.5560 9165.47 9250.57 109.01
16332 63.5597 9293.67 9243.65 108.95
16333 63.5635 9167.86 9236.88 109.33
16334 63.5672 9261.81 9230.41 110.05
16335 63.5710 9145.87 9223.90 107.96
16336 63.5747 9074.26 9217.68 108.49
16337 63.5785 9016.89 9211.41 107.46
16338 63.5822 9012.16 9205.42 108.37
16339 63.5860 9270.39 9199.38 110.53
16340 63.5899 9081.89 9193.46 108.82
16341 63.5936 9095.06 9187.79 108.73
16342 63.5974 8933.30 9182.08 107.45
16343 63.6011 9125.61 9176.61 109.17
16344 63.6049 8855.91 9171.10 106.93
16345 63.6086 9107.06 9165.82 109.12
16346 63.6124 9113.11 9160.73 109.23
16347 63.6161 9021.70 9155.50 108.42
16348 63.6199 9041.07 9150.49 107.38
16349 63.6236 9167.84 9145.43 110.00
16350 63.6273 8925.13 9140.59 107.24
16351 63.6311 9020.58 9135.70 108.87
16352 63.6349 8971.17 9130.89 108.73
16353 63.6386 8985.48 9126.27 107.19
16354 63.6424 8959.37 9121.62 106.62
16355 63.6461 9018.94 9117.15 110.14
16356 63.6499 8969.57 9112.63 107.47
16357 63.6536 9005.17 9108.30 106.93
16358 63.6575 9084.05 9084.11 107.34
16359 63.6613 9058.21 9079.99 107.21
16360 63.6650 8923.38 9076.05 106.66
16361 63.6688 9007.22 9072.06 107.56
16362 63.6725 8911.32 9068.23 107.36
16363 63.6763 8916.09 9064.91 106.36
16364 63.6800 9000.77 9061.09 107.57
16365 63.6838 8973.56 9057.44 107.20
16366 63.6875 8884.29 9053.73 106.28
16367 63.6912 8963.77 9050.17 107.28
16368 63.6950 8868.55 9046.56 104.45
16369 63.6987 8845.45 9043.10 106.35
16370 63.7025 8900.68 9039.59 106.60
16371 63.7063 9053.20 9036.13 106.24
16372 63.7100 8733.64 9032.81 105.28
16373 63.7138 8715.93 9029.44 105.19
16374 63.7175 8831.04 9026.20 106.03
16375 63.7214 8870.12 9022.92 105.70
16376 63.7251 8892.04 9019.77 106.83
16377 63.7289 9024.17 9016.57 107.72
16378 63.7327 8742.43 8972.76 105.66
16379 63.7364 8971.62 8970.12 107.35
16380 63.7402 8771.19 8967.44 104.70
16381 63.7439 8903.69 8964.87 107.28
16382 63.7477 8892.48 8962.25 108.13
16383 63.7514 8847.24 8959.67 106.51
16384 63.7551 8774.58 8957.18 105.56
16385 63.7589 8911.48 8954.66 106.32
16386 63.7626 8807.76 8952.22 106.25
16387 63.7664 8732.47 8949.76 103.87
16388 63.7701 8863.65 8947.38 106.78
16389 63.7739 8749.62 8944.97 105.30
16390 63.7777 8792.22 8942.59 105.63
16391 63.7814 8832.81 8940.29 106.01
16392 63.7853 8638.19 8937.96 104.73
16393 63.7890 8756.96 8894.20 105.21
16394 63.7928 8679.23 8892.33 105.32
16395 63.7966 8708.48 8890.49 105.08
16396 63.8003 8705.04 8888.71 105.57
16397 63.8041 8805.57 8886.90 105.45
16398 63.8078 8474.54 8885.16 102.72
16399 63.8116 8750.94 8883.38 105.74
16400 63.8153 8901.91 8881.68 106.70
16401 63.8190 8786.68 8879.94 105.55
16402 63.8228 8903.15 8878.23 105.67
16403 63.8265 8765.27 8876.57 105.93
16404 63.8303 8691.13 8874.90 105.87
16405 63.8340 8788.86 8873.28 105.34
16406 63.8378 8877.76 8871.64 105.70
16407 63.8416 8575.39 8870.02 102.71
16408 63.8453 8871.34 8868.46 107.88
16409 63.8492 8655.03 8866.88 105.82
16410 63.8529 9075.08 8865.36 106.81
16411 63.8567 8743.66 8805.86 104.96
16412 63.8604 8787.73 8804.95 104.23
16413 63.8642 8747.28 8782.89 105.56
16414 63.8680 8711.22 8782.21 105.82
16415 63.8717 8834.61 8781.55 106.69
16416 63.8755 8603.71 8780.91 104.79
16417 63.8792 8664.71 8780.31 105.22
16418 63.8829 8833.33 8779.73 106.16
16419 63.8867 8826.35 8779.21 106.29
16420 63.8904 8840.83 8778.75 106.95
16421 63.8942 8849.39 8778.37 106.44
16422 63.8979 8685.79 8778.10 104.70
16423 63.9017 8767.16 8777.94 106.40
16424 63.9054 8612.13 8777.95 105.48
16425 63.9092 8714.64 8778.14 105.46
16426 63.9131 8750.40 8778.56 106.21
16427 63.9168 8689.47 8779.20 105.80
16428 63.9206 8765.58 8780.13 105.76
16429 63.9243 8725.78 8781.30 106.85
16430 63.9281 8814.60 8782.78 105.27
16431 63.9319 8686.70 8784.50 106.05
16432 63.9356 8656.27 8786.35 105.24
16433 63.9394 8891.24 8788.34 105.89
16434 63.9431 8623.28 8790.20 106.45
16435 63.9468 8754.32 8791.84 107.75
16436 63.9506 8751.04 8792.95 106.27
16437 63.9543 8583.74 8793.31 104.34
16438 63.9581 8721.35 8792.82 105.43
16439 63.9618 8871.49 8791.52 106.83
16440 63.9656 8730.49 8789.53 105.60
16441 63.9693 8765.44 8787.20 106.25
16442 63.9731 8786.95 8784.69 106.46
16443 63.9770 8622.06 8782.27 105.07
16444 63.9807 8752.70 8780.18 105.08
16445 63.9845 8754.23 8778.43 105.30
16446 63.9882 8642.26 8777.18 105.37
16447 63.9920 8987.55 8776.41 107.65
16448 63.9958 8606.35 8776.15 105.37
16449 63.9995 8666.39 8776.38 105.54
16450 64.0033 8686.56 8777.04 105.54
16451 64.0070 8884.92 8778.04 106.95
16452 64.0107 8643.47 8779.29 105.56
16453 64.0145 8779.27 8780.62 105.39
16454 64.0182 8613.72 8781.96 105.14
16455 64.0220 8842.90 8783.23 106.27
16456 64.0257 8723.31 8784.42 106.25
16457 64.0295 8817.52 8785.76 106.76
16458 64.0332 8629.17 8787.37 105.70
16459 64.0370 8676.89 8789.50 105.42
16460 64.0408 8670.03 8792.27 104.65
16461 64.0445 8791.25 8795.57 108.28
16462 64.0483 8815.27 8799.55 107.42
16463 64.0520 8791.52 8803.75 106.87
16464 64.0558 8736.42 8808.08 105.90
16465 64.0596 8865.96 8811.87 107.04
16466 64.0633 8679.39 8814.46 105.84
16467 64.0671 8754.83 8815.40 106.13
16468 64.0708 8806.95 8814.27 106.94
16469 64.0747 8803.85 8811.02 106.64
16470 64.0785 8746.50 8806.02 105.92
16471 64.0822 8691.05 8800.03 105.57
16472 64.0860 8741.86 8793.34 106.22
16473 64.0897 8818.27 8786.78 105.70
16474 64.0935 8824.78 8780.34 106.96
16475 64.0972 8853.51 8774.60 105.87
16476 64.1010 8650.16 8769.32 105.65
16477 64.1048 8677.60 8764.69 106.12
16478 64.1085 8815.10 8760.76 106.60
16479 64.1123 8756.72 8757.18 106.81
16480 64.1160 8712.76 8754.04 106.42
16481 64.1198 8785.67 8751.03 105.62
16482 64.1236 8775.72 8748.19 105.74
16483 64.1273 8790.18 8745.57 106.08
16484 64.1311 8721.20 8743.04 105.89
16485 64.1348 8775.80 8740.76 106.73
16486 64.1385 8877.58 8738.62 106.61
16487 64.1423 8761.47 8736.74 104.20
16488 64.1460 8756.05 8735.04 107.80
16489 64.1498 8700.77 8733.55 106.66
16490 64.1535 8683.05 8732.32 105.29
16491 64.1573 8716.64 8731.26 105.24
16492 64.1610 8581.18 8730.44 104.29
16493 64.1648 8926.20 8729.80 106.99
16494 64.1686 8692.92 8729.37 105.56
16495 64.1723 8833.43 8729.18 106.59
16496 64.1761 8741.78 8729.23 104.90
16497 64.1798 8729.08 8729.56 104.62
16498 64.1836 8591.83 8730.25 104.67
16499 64.1874 8802.88 8731.36 106.02
16500 64.1911 8678.31 8732.96 105.61
16501 64.1949 8761.07 8735.25 105.32
16502 64.1986 8555.71 8738.27 104.66
16503 64.2025 8833.52 8742.35 106.37
16504 64.2063 8747.63 8747.63 105.71
16505 64.2100 8718.42 8754.09 105.68
16506 64.2138 8682.18 8762.24 105.20
16507 64.2175 8749.85 8771.79 105.38
16508 64.2213 8654.50 8783.33 104.80
16509 64.2250 8764.64 8796.10 106.24
16510 64.2288 8742.27 8810.76 105.51
16511 64.2326 9039.75 8826.46 107.32
16512 64.2363 8769.04 8842.18 105.21
16513 64.2401 8916.98 8857.76 106.62
16514 64.2438 8812.77 8871.14 104.82
16515 64.2476 8986.69 8881.44 109.52
16516 64.2514 8864.56 8886.81 107.23
16517 64.2551 8850.49 8886.43 105.73
16518 64.2589 8814.05 8880.30 105.28
16519 64.2626 8607.47 8869.67 104.42
16520 64.2663 8763.51 8855.49 105.21
16521 64.2701 8689.46 8839.97 104.78
16522 64.2738 8846.28 8823.63 105.67
16523 64.2776 8797.70 8807.85 105.66
16524 64.2813 8752.11 8793.62 106.04
16525 64.2851 8742.11 8780.60 105.71
16526 64.2888 8634.00 8769.65 104.29
16527 64.2926 8737.80 8760.26 105.67
16528 64.2964 8729.23 8752.71 105.53
16529 64.3001 8619.97 8747.08 104.66
16530 64.3039 8550.08 8742.94 103.93
16531 64.3076 8717.90 8740.43 104.95
16532 64.3114 8607.64 8739.32 104.48
16533 64.3152 8705.32 8739.68 105.13
16534 64.3189 8676.37 8741.48 105.16
16535 64.3227 8783.96 8744.91 105.91
16536 64.3264 8793.09 8749.96 105.88
16537 64.3303 8680.62 8757.13 105.42
16538 64.3341 8668.74 8766.59 105.54
16539 64.3378 8694.05 8778.31 105.71
16540 64.3416 8472.49 8793.19 102.53
16541 64.3453 8928.72 8810.70 107.13
16542 64.3491 8986.34 8831.96 108.11
16543 64.3528 8751.84 8855.65 106.01
16544 64.3566 8823.90 8883.13 105.97
16545 64.3604 8926.20 8913.03 106.20
16546 64.3641 8852.52 8943.68 105.98
16547 64.3679 9038.93 8975.26 107.52
16548 64.3716 8937.38 9004.25 107.23
16549 64.3754 9095.14 9029.73 107.79
16550 64.3792 9166.08 9048.52 108.33
16551 64.3829 9223.31 9058.93 108.87
16552 64.3867 9134.50 9061.65 108.19
16553 64.3904 9203.91 9058.36 109.03
16554 64.3941 8952.09 9052.04 107.20
16555 64.3979 9138.01 9046.30 108.01
16556 64.4016 8908.07 9044.36 106.37
16557 64.4054 8826.08 9048.68 105.91
16558 64.4091 8867.03 9060.78 106.84
16559 64.4129 9113.25 9082.44 107.72
16560 64.4167 9009.55 9113.71 106.44
16561 64.4204 9109.95 9153.08 107.73
16562 64.4242 9076.62 9201.23 107.77
16563 64.4279 9250.55 9253.38 109.42
16564 64.4317 9029.53 9308.46 108.43
16565 64.4354 9265.82 9358.65 109.09
16566 64.4392 9245.05 9400.05 108.76
16567 64.4430 9208.97 9424.52 106.58
16568 64.4467 9403.32 9427.13 112.75
16569 64.4505 9393.25 9406.42 109.48
16570 64.4542 9397.01 9365.74 109.61
16571 64.4581 9339.34 9308.32 109.07
16572 64.4619 9057.76 9241.39 107.60
16573 64.4656 9130.01 9172.57 108.44
16574 64.4694 8896.73 9102.70 107.15
16575 64.4731 8922.65 9038.20 106.75
16576 64.4769 8877.15 8977.40 106.33
16577 64.4806 8824.68 8924.92 106.72
16578 64.4844 8822.98 8877.65 106.39
16579 64.4882 8638.47 8837.45 104.27
16580 64.4919 8738.66 8804.50 105.48
16581 64.4957 8675.12 8776.44 105.48
16582 64.4994 8454.28 8753.96 103.38
16583 64.5032 8607.96 8735.13 104.96
16584 64.5070 8464.74 8719.80 103.95
16585 64.5107 8612.62 8707.58 104.42
16586 64.5145 8668.96 8697.22 105.32
16587 64.5182 8774.25 8688.80 106.37
16588 64.5219 8524.36 8681.47 103.61
16589 64.5257 8724.79 8675.17 106.30
16590 64.5294 8528.17 8669.81 103.69
16591 64.5332 8512.92 8664.91 104.84
16592 64.5369 8653.60 8660.62 104.89
16593 64.5407 8575.07 8656.61 104.07
16594 64.5445 8507.25 8652.93 103.89
16595 64.5482 8565.10 8649.61 106.74
16596 64.5520 8490.63 8646.44 103.86
16597 64.5557 8510.68 8643.55 103.82
16598 64.5595 8618.18 8640.76 104.29
16599 64.5633 8652.92 8638.13 104.82
16600 64.5670 8494.58 8635.70 104.40
16601 64.5708 8515.16 8633.33 103.90
16602 64.5745 8536.68 8631.13 103.08
16603 64.5783 8648.49 8628.97 105.27
16604 64.5822 8577.46 8626.90 104.52
16605 64.5859 8524.17 8624.96 104.51
16606 64.5897 8604.59 8623.05 104.54
16607 64.5934 8603.10 8621.25 104.66
16608 64.5972 8343.89 8619.46 103.71
16609 64.6009 8529.17 8617.77 104.74
16610 64.6047 8470.23 8616.08 103.91
16611 64.6085 8712.71 8614.44 105.35
16612 64.6122 8562.10 8612.89 104.61
16613 64.6160 8459.94 8611.33 103.59
16614 64.6197 8632.08 8609.85 104.17
16615 64.6235 8799.78 8608.37 106.01
16616 64.6273 8427.72 8606.91 103.96
16617 64.6310 8508.26 8605.52 104.67
16618 64.6348 8439.16 8604.12 104.00
16619 64.6385 8498.42 8602.77 103.87
16620 64.6423 8410.16 8601.42 102.04
16621 64.6460 8743.75 8600.08 108.27
16622 64.6497 8546.23 8598.80 104.12
16623 64.6535 8560.54 8597.50 104.55
16624 64.6572 8457.10 8596.25 103.32
16625 64.6610 8523.70 8594.99 103.91
16626 64.6647 8602.07 8593.77 104.99
16627 64.6685 8455.06 8592.53 104.12
16628 64.6723 8506.66 8591.31 104.45
16629 64.6760 8686.75 8590.13 105.69
16630 64.6798 8708.33 8588.93 105.87
16631 64.6835 8470.30 8587.77 104.06
16632 64.6873 8426.39 8586.59 103.67
16633 64.6911 8537.85 8585.42 104.48
16634 64.6948 8294.43 8584.29 102.70
16635 64.6986 8578.71 8583.14 104.45
16636 64.7023 8372.22 8582.02 103.30
16637 64.7061 8526.30 8580.89 104.55
16638 64.7100 8747.06 8579.75 106.35
16639 64.7137 8374.67 8578.66 103.15
16640 64.7175 8480.25 8577.54 103.92
16641 64.7212 8653.94 8576.44 105.19
16642 64.7250 8423.18 8575.34 104.17
16643 64.7287 8611.47 8574.27 105.33
16644 64.7325 8400.32 8573.17 103.86
16645 64.7363 8383.86 8572.08 103.64
16646 64.7400 8437.20 8571.02 103.90
16647 64.7438 8574.32 8569.94 103.52
16648 64.7475 8558.75 8568.90 106.93
16649 64.7513 8573.98 8567.82 105.46
16650 64.7551 8473.12 8566.75 104.03
16651 64.7588 8542.63 8565.72 102.50
16652 64.7626 8598.42 8564.66 104.86
16653 64.7663 8317.47 8563.63 102.32
16654 64.7701 8469.70 8562.57 104.53
16655 64.7738 8562.57 8561.52 104.47
16656 64.7775 8442.56 8560.50 104.27
16657 64.7813 8632.04 8559.45 105.21
16658 64.7850 8534.93 8558.44 104.32
16659 64.7888 8557.25 8557.38 104.75
16660 64.7926 8543.63 8556.34 104.54
16661 64.7963 8713.83 8555.33 104.22
16662 64.8001 8434.16 8554.30 103.99
16663 64.8038 8505.13 8553.30 103.62
16664 64.8076 8588.02 8552.27 105.25
16665 64.8114 8339.38 8551.24 103.84
16666 64.8151 8372.95 8550.24 103.71
16667 64.8189 8572.61 8549.22 104.90
16668 64.8226 8413.58 8548.22 103.60
16669 64.8264 8533.21 8547.20 104.70
16670 64.8301 8512.70 8546.21 104.35
16671 64.8339 8507.10 8545.19 104.61
16672 64.8378 8534.02 8544.12 103.78
16673 64.8415 8378.96 8543.13 102.18
16674 64.8453 8420.45 8542.12 104.62
16675 64.8490 8575.69 8541.13 106.90
16676 64.8528 8601.62 8540.12 105.02
16677 64.8566 8484.52 8539.11 103.94
16678 64.8603 8597.40 8538.13 104.95
16679 64.8641 8500.73 8537.13 104.40
16680 64.8678 8478.67 8536.15 104.36
16681 64.8716 8547.33 8535.14 104.84
16682 64.8753 8455.58 8534.16 103.91
16683 64.8791 8471.21 8533.16 103.92
16684 64.8829 8497.50 8532.16 103.11
16685 64.8866 8396.61 8531.18 104.21
16686 64.8904 8493.90 8530.18 104.23
16687 64.8941 8456.87 8529.20 104.37
16688 64.8979 8523.72 8528.21 103.72
16689 64.9016 8577.62 8527.21 104.23
16690 64.9053 8525.99 8526.24 104.72
16691 64.9091 8483.04 8525.24 104.62
16692 64.9128 8611.13 8524.27 105.08
16693 64.9166 8562.96 8523.28 104.43
16694 64.9204 8472.70 8522.28 104.27
16695 64.9241 8615.03 8521.32 105.04
16696 64.9279 8568.77 8520.33 105.61
16697 64.9316 8548.82 8519.36 104.66
16698 64.9354 8466.08 8518.37 104.68
16699 64.9392 8625.50 8517.38 105.88
16700 64.9429 8294.89 8516.41 101.68
16701 64.9467 8589.09 8515.42 106.67
16702 64.9504 8615.85 8514.46 105.49
16703 64.9542 8461.79 8513.47 103.97
16704 64.9581 8419.01 8512.48 103.98
16705 64.9617 8371.76 8511.52 103.56
16706 64.9656 8518.66 8510.53 104.37
16707 64.9693 8548.97 8509.57 104.77
16708 64.9731 8435.06 8508.58 103.69
16709 64.9768 8484.96 8507.62 103.95
16710 64.9806 8524.03 8506.63 104.96
16711 64.9844 8464.69 8505.65 105.02
16712 64.9881 8547.18 8504.69 104.92
16713 64.9919 8730.06 8503.70 106.46
16714 64.9956 8480.61 8502.74 105.02
16715 64.9994 8516.29 8501.76 104.57
16716 65.0032 8505.37 8500.78 104.46
16717 65.0069 8438.23 8499.82 103.57
16718 65.0107 8475.21 8498.83 104.80
16719 65.0144 8505.39 8497.88 105.07
16720 65.0182 8481.74 8496.90 104.65
16721 65.0219 8450.86 8495.94 103.93
16722 65.0257 8463.75 8494.82 105.49
16723 65.0294 8587.11 8493.84 105.17
16724 65.0331 8467.34 8492.89 104.94
16725 65.0369 8574.27 8491.91 105.10
16726 65.0406 8542.47 8490.95 103.96
16727 65.0444 8498.30 8489.97 104.12
16728 65.0482 8688.73 8488.99 108.43
16729 65.0519 8517.32 8488.04 105.28
16730 65.0557 8273.07 8487.06 103.18
16731 65.0594 8417.12 8486.11 104.16
16732 65.0632 8394.73 8485.13 102.84
16733 65.0670 8512.72 8484.15 104.54
16734 65.0707 8423.24 8483.20 103.74
16735 65.0745 8451.85 8482.22 104.68
16736 65.0782 8370.76 8481.27 104.64
16737 65.0820 8638.30 8480.29 105.02
16738 65.0859 8476.33 8479.32 104.06
16739 65.0895 8565.03 8478.36 104.75
16740 65.0934 8442.86 8477.39 102.92
16741 65.0971 8604.52 8476.44 104.82
16742 65.1009 8557.24 8475.46 104.45
16743 65.1046 8492.27 8474.51 103.98
16744 65.1084 8410.66 8473.53 103.84
16745 65.1122 8438.98 8472.56 103.47
16746 65.1159 8531.17 8471.60 103.83
16747 65.1197 8587.44 8470.63 104.45
16748 65.1234 8587.60 8469.68 104.45
16749 65.1272 8501.70 8468.70 104.72
16750 65.1310 8472.42 8467.73 103.94
16751 65.1347 8478.88 8466.78 104.26
16752 65.1385 8305.15 8465.80 102.16
16753 65.1422 8443.47 8464.85 102.46
16754 65.1460 8427.58 8463.88 105.02
16755 65.1497 8562.34 8462.93 105.53
16756 65.1535 8600.31 8461.72 104.76
16757 65.1572 8557.67 8460.75 103.97
16758 65.1609 8572.19 8459.80 104.05
16759 65.1647 8434.60 8458.83 103.47
16760 65.1684 8465.01 8457.88 103.93
16761 65.1722 8398.66 8456.91 103.18
16762 65.1760 8609.79 8455.94 105.13
16763 65.1797 8587.45 8454.99 104.28
16764 65.1835 8559.38 8454.02 104.07
16765 65.1872 8359.15 8453.07 103.17
16766 65.1910 8537.52 8452.10 104.54
16767 65.1948 8552.53 8451.13 104.51
16768 65.1985 8642.20 8450.18 105.14
16769 65.2023 8613.03 8449.21 104.72
16770 65.2060 8348.47 8448.27 102.93
16771 65.2098 8392.99 8447.30 103.46
16772 65.2135 8421.16 8446.35 103.48
16773 65.2173 8564.92 8445.38 103.55
16774 65.2212 8480.92 8443.85 103.94
16775 65.2249 8422.28 8442.92 103.30
16776 65.2287 8429.54 8441.95 102.47
16777 65.2324 8376.03 8441.01 102.48
16778 65.2362 8462.66 8440.04 104.10
16779 65.2400 8427.33 8439.08 103.15
16780 65.2437 8272.77 8438.14 101.23
16781 65.2475 8549.36 8437.17 106.35
16782 65.2512 8524.84 8436.23 105.56
16783 65.2550 8546.29 8435.27 104.54
16784 65.2587 8455.38 8434.33 102.78
16785 65.2625 8432.30 8433.36 103.03
16786 65.2663 8265.72 8432.40 102.34
16787 65.2700 8478.85 8431.46 103.47
16788 65.2738 8518.29 8430.49 103.81
16789 65.2775 8490.27 8429.55 104.11
16790 65.2812 8422.99 8428.59 103.51
16791 65.2850 8386.37 8427.62 103.34
16792 65.2887 8241.39 8426.69 102.46
16793 65.2925 8411.20 8425.72 103.56
16794 65.2962 8487.26 8424.78 104.09
16795 65.3000 8385.51 8423.82 103.04
16796 65.3038 8387.33 8422.85 103.19
16797 65.3075 8421.89 8421.91 102.52
16798 65.3113 8361.74 8420.95 102.01
16799 65.3150 8435.50 8420.01 103.37
16800 65.3188 8265.30 8419.04 102.27
16801 65.3225 8442.12 8418.11 102.87
16802 65.3263 8478.56 8417.14 104.63
16803 65.3301 8211.02 8416.18 100.86
16804 65.3338 8476.57 8415.24 104.05
16805 65.3376 8494.43 8414.27 104.28
16806 65.3413 8234.80 8413.33 101.75
16807 65.3452 8411.42 8412.37 103.59
16808 65.3490 8451.96 8411.41 105.59
16809 65.3527 8349.27 8410.47 102.77
16810 65.3565 8244.26 8409.50 101.90
16811 65.3602 8459.39 8408.56 103.11
16812 65.3640 8325.17 8407.60 103.12
16813 65.3677 8456.86 8406.66 103.68
16814 65.3715 8577.72 8405.70 104.24
16815 65.3753 8497.75 8404.73 104.07
16816 65.3790 8447.12 8403.79 103.93
16817 65.3828 8493.27 8402.83 104.15
16818 65.3865 8418.39 8401.89 104.00
16819 65.3903 8291.17 8400.93 102.80
16820 65.3941 8387.58 8399.96 103.69
16821 65.3978 8525.28 8399.03 103.96
16822 65.4016 8392.56 8398.06 103.66
16823 65.4053 8346.68 8397.13 103.28
16824 65.4090 8606.46 8396.16 104.39
16825 65.4128 8482.12 8395.22 104.23
16826 65.4165 8427.11 8394.26 103.74
16827 65.4203 8494.99 8393.30 104.12
16828 65.4240 8365.98 8392.36 103.18
16829 65.4278 8379.22 8391.40 104.21
16830 65.4315 8423.54 8390.46 103.97
16831 65.4353 8527.06 8389.50 104.54
16832 65.4391 8279.87 8388.54 102.83
16833 65.4428 8510.61 8387.60 103.22
16834 65.4466 8484.71 8386.64 105.10
16835 65.4503 8491.95 8385.70 105.57
16836 65.4541 8408.30 8384.74 103.38
16837 65.4578 8361.99 8383.80 102.96
16838 65.4616 8461.97 8382.84 103.83
16839 65.4654 8387.00 8381.88 103.46
16840 65.4691 8515.17 8380.94 104.18
16841 65.4730 8408.14 8379.98 104.05
16842 65.4766 8146.56 8379.04 102.42
16843 65.4805 8404.37 8378.08 104.03
16844 65.4843 8463.87 8377.12 103.98
16845 65.4880 8550.98 8376.18 104.32
16846 65.4917 8306.29 8375.22 102.50
16847 65.4955 8478.35 8374.29 103.81
16848 65.4993 8460.47 8373.32 104.27
16849 65.5030 8567.81 8372.39 104.53
16850 65.5068 8177.84 8371.43 102.40
16851 65.5106 8378.41 8370.47 103.87
16852 65.5143 8331.87 8369.53 102.95
16853 65.5181 8342.45 8368.57 103.14
16854 65.5218 8529.26 8367.64 103.76
16855 65.5256 8645.92 8366.68 106.08
16856 65.5293 8332.61 8365.74 102.80
16857 65.5331 8471.61 8364.78 105.05
16858 65.5368 8301.81 8363.82 102.76
16859 65.5406 8553.39 8362.89 104.25
16860 65.5443 8303.29 8361.93 102.11
16861 65.5480 8580.93 8360.99 107.40
16862 65.5518 8323.73 8360.03 103.84
16863 65.5556 8443.49 8359.08 103.60
16864 65.5593 8282.56 8358.14 103.40
16865 65.5631 8440.58 8357.18 103.68
16866 65.5668 8464.10 8356.25 104.05
16867 65.5706 8576.61 8355.29 104.86
16868 65.5743 8381.98 8354.36 103.26
16869 65.5781 8656.46 8353.40 105.18
16870 65.5819 8441.25 8352.44 103.98
16871 65.5856 8349.30 8351.51 102.53
16872 65.5894 8392.89 8350.55 103.48
16873 65.5931 8465.67 8349.62 104.19
16874 65.5969 8377.48 8348.66 103.77
16875 65.6008 8410.48 8347.70 103.80
16876 65.6044 8538.00 8346.77 104.73
16877 65.6083 8249.69 8345.81 102.65
16878 65.6120 8231.09 8344.88 102.59
16879 65.6158 8466.09 8343.92 103.06
16880 65.6195 8485.37 8342.99 103.98
16881 65.6233 8405.36 8342.04 103.25
16882 65.6271 8525.71 8341.08 105.01
16883 65.6308 8322.92 8340.15 102.56
16884 65.6346 8557.57 8339.19 104.94
16885 65.6383 8443.98 8338.26 104.04
16886 65.6421 8563.23 8337.30 103.99
16887 65.6458 8294.13 8336.37 101.49
16888 65.6496 8496.40 8335.42 106.12
16889 65.6534 8261.66 8334.46 102.60
16890 65.6571 8299.33 8333.53 101.78
16891 65.6609 8405.89 8332.58 103.36
16892 65.6646 8363.10 8331.65 102.76
16893 65.6684 8500.57 8330.69 103.65
16894 65.6721 8474.29 8329.76 104.11
16895 65.6758 8123.97 8328.81 101.39
16896 65.6796 8333.57 8327.85 103.33
16897 65.6833 8291.75 8326.93 102.82
16898 65.6871 8336.39 8325.97 102.85
16899 65.6908 8365.74 8325.04 103.40
16900 65.6946 8211.38 8324.09 101.60
16901 65.6984 8292.44 8323.14 102.47
16902 65.7021 8400.26 8322.21 103.24
16903 65.7059 8437.81 8321.25 103.60
16904 65.7096 8395.46 8320.33 103.55
16905 65.7134 8422.31 8319.38 103.21
16906 65.7171 8261.57 8318.45 102.43
16907 65.7209 8336.90 8317.50 103.21
16908 65.7247 8474.65 8316.54 103.74
16909 65.7284 8310.70 8315.62 103.21
16910 65.7322 8184.05 8314.67 102.22
16911 65.7359 8259.67 8313.74 101.61
16912 65.7398 8208.27 8312.79 101.95
16913 65.7434 8305.28 8311.86 101.52
16914 65.7473 8354.85 8310.91 104.56
16915 65.7511 8506.43 8309.96 103.22
16916 65.7548 8454.74 8309.04 103.96
16917 65.7586 8362.79 8308.08 102.89
16918 65.7623 8255.85 8307.16 101.72
16919 65.7661 8446.40 8306.21 104.02
16920 65.7698 8283.50 8305.28 102.34
16921 65.7736 8242.19 8304.33 102.25
16922 65.7774 8427.20 8303.38 103.83
16923 65.7811 8472.21 8302.46 104.01
16924 65.7849 8385.50 8301.51 103.68
16925 65.7886 8478.47 8300.59 104.03
16926 65.7924 8358.76 8299.64 103.18
16927 65.7961 8366.53 8298.72 103.06
16928 65.7999 8417.04 8297.77 103.62
16929 65.8036 8480.70 8296.82 103.66
16930 65.8074 8302.43 8295.90 102.69
16931 65.8111 8461.53 8294.95 104.33
16932 65.8148 8451.77 8294.10 103.81
16933 65.8186 8385.23 8293.16 102.64
16934 65.8224 8318.27 8292.21 102.68
16935 65.8261 8330.16 8291.29 102.00
16936 65.8299 8373.56 8290.34 103.62
16937 65.8336 8349.24 8289.42 103.78
16938 65.8374 8333.97 8288.48 103.24
16939 65.8411 8394.35 8287.56 103.16
16940 65.8449 8311.75 8286.62 101.48
16941 65.8487 8366.82 8285.67 105.50
16942 65.8524 8359.46 8284.75 103.97
16943 65.8562 8056.51 8283.81 101.13
16944 65.8599 8314.25 8282.89 102.62
16945 65.8637 8292.50 8281.95 102.50
16946 65.8674 8451.89 8281.03 104.07
16947 65.8712 8298.54 8280.09 103.24
16948 65.8751 8425.97 8279.14 103.89
16949 65.8788 8320.71 8278.23 103.53
16950 65.8826 8411.27 8277.29 103.91
16951 65.8863 8392.66 8276.37 103.42
16952 65.8901 8262.92 8275.43 101.46
16953 65.8938 8373.22 8274.51 102.60
16954 65.8976 8205.79 8273.57 102.60
16955 65.9013 8396.21 8272.65 103.19
16956 65.9051 8503.42 8271.71 104.57
16957 65.9089 8404.50 8270.77 103.93
16958 65.9126 8396.81 8269.86 103.40
16959 65.9164 8504.64 8268.92 103.88
16960 65.9201 8334.62 8268.00 103.33
16961 65.9239 8387.14 8267.18 103.22
16962 65.9277 8433.00 8266.25 104.36
16963 65.9314 8309.00 8265.33 102.90
16964 65.9352 8273.43 8264.40 103.20
16965 65.9389 8342.70 8263.48 103.43
16966 65.9426 8397.80 8262.55 102.49
16967 65.9464 8255.81 8261.64 103.79
16968 65.9501 8378.83 8260.70 104.95
16969 65.9539 8297.94 8259.77 103.42
16970 65.9576 8220.58 8258.86 102.15
16971 65.9614 8286.87 8257.93 103.85
16972 65.9651 8240.77 8257.02 102.66
16973 65.9689 8454.33 8256.08 103.48
16974 65.9726 8277.91 8255.17 102.58
16975 65.9764 8327.57 8254.24 103.74
16976 65.9802 8510.77 8253.31 104.50
16977 65.9839 8521.90 8252.40 104.68
16978 65.9877 8256.54 8251.47 103.30
16979 65.9914 8383.12 8250.56 103.54
16980 65.9952 8243.54 8249.63 102.81
16981 65.9989 8194.90 8248.72 102.38
16982 66.0027 8271.93 8247.79 103.02
16983 66.0066 8272.48 8246.86 102.76
16984 66.0102 8514.35 8245.95 105.12
16985 66.0141 8404.17 8245.03 104.12
16986 66.0178 8461.10 8244.12 104.02
16987 66.0216 8505.96 8243.19 104.84
16988 66.0253 8363.38 8242.29 103.27
16989 66.0291 8349.97 8241.36 103.66
16990 66.0328 8277.76 8240.45 103.76
16991 66.0366 8367.28 8239.52 103.89
16992 66.0404 8260.19 8238.60 103.44
16993 66.0441 8253.87 8237.69 101.70
16994 66.0479 8361.57 8236.77 106.22
16995 66.0516 8550.56 8235.87 106.65
16996 66.0554 8216.46 8234.94 102.63
16997 66.0591 8458.90 8234.04 104.50
16998 66.0629 8328.81 8233.11 102.77
16999 66.0667 8451.84 8232.19 104.36
17000 66.0704 8387.42 8231.29 104.37
17001 66.0742 8476.88 8230.37 105.57
17002 66.0779 8296.79 8229.47 103.75
17003 66.0816 8418.60 8228.54 104.76
17004 66.0854 8580.15 8227.64 104.50
17005 66.0891 8495.70 8226.72 105.54
17006 66.0929 8267.25 8225.80 103.41
17007 66.0966 8264.99 8224.90 103.57
17008 66.1004 8168.01 8225.06 101.51
17009 66.1041 8248.69 8224.17 103.70
17010 66.1079 8332.72 8223.26 103.04
17011 66.1116 8389.49 8222.38 104.32
17012 66.1154 8401.96 8221.47 104.74
17013 66.1191 8257.50 8220.58 103.77
17014 66.1229 8231.21 8219.68 103.10
17015 66.1267 8366.84 8218.77 104.85
17016 66.1304 8463.12 8217.89 104.96
17017 66.1342 8244.40 8216.98 103.93
17018 66.1379 8190.44 8216.10 102.76
17019 66.1417 8172.65 8215.20 102.65
17020 66.1454 8378.28 8214.32 102.82
17021 66.1492 8236.79 8213.42 105.95
17022 66.1531 8367.10 8212.51 105.67
17023 66.1568 8419.82 8211.64 103.63
17024 66.1606 8333.96 8210.73 103.72
17025 66.1643 8395.12 8209.86 103.35
17026 66.1681 8384.46 8208.96 104.36
17027 66.1718 8517.87 8210.16 104.74
17028 66.1756 8459.37 8209.28 104.88
17029 66.1792 8293.22 8208.43 103.29
17030 66.1831 8339.04 8207.55 104.64
17031 66.1869 8282.92 8206.67 103.46
17032 66.1906 8239.89 8205.82 103.40
17033 66.1944 8332.26 8204.95 104.03
17034 66.1981 8279.50 8204.10 103.25
17035 66.2019 8316.49 8203.23 102.65
17036 66.2056 8605.75 8202.38 104.19
17037 66.2094 8324.55 8201.51 103.44
17038 66.2132 8363.05 8200.65 104.05
17039 66.2169 8536.48 8199.80 104.42
17040 66.2206 8415.71 8198.94 104.36
17041 66.2243 8394.30 8199.84 103.38
17042 66.2281 8155.27 8198.99 103.20
17043 66.2318 8353.77 8198.17 103.49
17044 66.2356 8351.35 8197.33 104.18
17045 66.2393 8380.22 8196.51 104.01
17046 66.2431 8308.57 8195.67 103.39
17047 66.2469 8308.13 8194.83 102.50
17048 66.2506 8301.26 8194.02 106.18
17049 66.2544 8361.62 8193.18 104.04
17050 66.2581 8270.66 8192.37 103.05
17051 66.2619 8191.69 8191.54 102.25
17052 66.2656 8263.93 8193.93 102.93
17053 66.2694 8270.04 8193.13 102.96
17054 66.2731 8280.07 8192.36 103.35
17055 66.2769 8420.11 8191.56 104.58
17056 66.2807 8353.58 8190.77 103.20
17057 66.2844 8380.14 8190.01 103.96
17058 66.2883 8444.47 8189.23 104.71
17059 66.2919 8298.51 8188.46 103.13
17060 66.2958 8333.82 8188.54 102.50
17061 66.2995 8484.46 8187.79 104.15
17062 66.3033 8414.97 8187.03 103.63
17063 66.3070 8421.41 8186.27 104.19
17064 66.3108 8184.96 8185.53 102.49
17065 66.3146 8463.89 8184.77 102.77
17066 66.3183 8271.48 8184.04 103.29
17067 66.3221 8271.82 8183.29 102.71
17068 66.3258 8343.19 8182.56 103.92
17069 66.3296 8304.78 8181.82 102.59
17070 66.3333 8306.61 8181.10 104.00
17071 66.3371 8441.99 8180.37 103.85
17072 66.3408 8291.55 8179.65 103.76
17073 66.3446 8454.45 8178.93 103.47
17074 66.3484 8501.38 8178.20 105.29
17075 66.3521 8256.08 8177.50 104.75
17076 66.3559 8297.49 8176.79 103.51
17077 66.3596 8272.28 8176.10 101.99
17078 66.3633 8453.41 8175.39 103.81
17079 66.3671 8407.23 8174.71 104.31
17080 66.3708 8143.42 8174.01 102.29
17081 66.3745 8381.10 8173.34 104.73
17082 66.3783 8346.35 8172.65 103.42
17083 66.3821 8271.91 8171.97 103.66
17084 66.3858 8335.78 8171.31 103.80
17085 66.3896 8421.17 8170.64 103.54
17086 66.3933 8279.47 8169.99 103.51
17087 66.3971 8356.87 8169.33 103.43
17088 66.4008 8300.17 8168.70 103.41
17089 66.4046 8350.59 8168.05 104.60
17090 66.4083 8285.63 8167.43 103.35
17091 66.4121 8240.89 8166.80 103.49
17092 66.4159 8243.75 8166.18 103.36
17093 66.4196 8347.18 8165.58 103.20
17094 66.4234 8315.53 8164.97 103.54
17095 66.4271 8345.59 8164.38 104.60
17096 66.4309 8164.10 8163.79 102.88
17097 66.4346 8320.39 8163.22 104.26
17098 66.4385 8302.57 8162.65 104.18
17099 66.4421 8235.63 8162.10 103.30
17100 66.4460 8137.50 8161.55 101.18
17101 66.4498 8440.94 8161.01 107.14
17102 66.4535 8310.45 8160.49 104.30
17103 66.4573 8268.09 8159.97 103.68
17104 66.4610 8175.45 8159.48 102.32
17105 66.4648 8259.77 8158.99 102.32
17106 66.4685 8257.91 8158.53 102.87
17107 66.4723 8230.48 8158.07 103.67
17108 66.4760 8321.69 8157.64 103.22
17109 66.4798 8093.14 8157.22 102.17
17110 66.4835 8242.84 8156.82 103.01
17111 66.4873 8287.22 8156.44 103.28
17112 66.4911 8400.00 8156.08 103.91
17113 66.4948 8290.98 8155.75 103.67
17114 66.4986 8288.28 8155.44 103.63
17115 66.5023 8243.64 8155.16 102.70
17116 66.5061 8344.91 8154.92 104.03
17117 66.5098 8301.79 8154.71 103.61
17118 66.5135 8344.38 8154.54 103.76
17119 66.5173 8175.81 8154.42 102.67
17120 66.5210 8479.96 8154.34 105.44
17121 66.5248 8348.54 8154.33 103.69
17122 66.5285 8364.70 8154.40 104.61
17123 66.5323 8309.83 8154.56 103.48
17124 66.5360 8419.87 8154.82 104.56
17125 66.5398 8389.30 8155.24 104.05
17126 66.5435 8298.09 8155.82 102.88
17127 66.5473 8541.11 8156.65 104.95
17128 66.5510 8517.63 8157.73 106.59
17129 66.5548 8254.76 8159.20 103.54
17130 66.5585 8335.25 8161.05 103.08
17131 66.5623 8212.66 8163.47 102.18
17132 66.5661 8289.32 8166.53 102.89
17133 66.5698 8239.71 8170.17 102.79
17134 66.5736 8579.78 8174.69 103.76
17135 66.5773 8189.47 8179.90 102.22
17136 66.5811 8252.79 8186.08 103.10
17137 66.5848 8326.75 8192.89 103.64
17138 66.5887 8332.71 8200.58 103.29
17139 66.5923 8298.42 8208.58 103.11
17140 66.5962 8221.53 8217.00 101.58
17141 66.6000 8441.67 8225.16 103.54
17142 66.6037 8413.97 8232.26 104.24
17143 66.6075 8506.27 8237.94 104.88
17144 66.6112 8170.71 8241.23 102.43
17145 66.6150 8268.11 8241.86 103.09
17146 66.6187 8359.27 8239.73 102.89
17147 66.6225 8427.75 8235.11 104.16
17148 66.6262 8472.04 8228.89 103.83
17149 66.6300 8467.08 8221.51 103.55
17150 66.6337 8329.37 8213.97 103.63
17151 66.6375 8299.19 8206.43 103.18
17152 66.6412 8415.88 8199.62 104.29
17153 66.6450 8465.73 8193.44 102.10
17154 66.6488 8288.11 8188.25 104.78
17155 66.6525 8405.32 8184.26 105.25
17156 66.6562 8370.35 8181.30 103.81
17157 66.6600 8327.01 8179.60 102.76
17158 66.6637 8188.21 8179.09 102.02
17159 66.6674 8375.91 8179.83 103.63
17160 66.6712 8450.51 8181.93 104.37
17161 66.6749 8385.71 8185.31 103.41
17162 66.6787 8356.76 8190.25 103.68
17163 66.6824 8319.69 8196.52 102.86
17164 66.6862 8225.96 8204.54 103.03
17165 66.6900 8643.26 8214.13 105.79
17166 66.6937 8271.40 8224.95 102.74
17167 66.6975 8565.77 8237.44 103.37
17168 66.7012 8441.99 8250.71 103.08
17169 66.7050 8320.61 8265.03 103.13
17170 66.7087 8472.21 8279.05 104.49
17171 66.7125 8432.29 8292.60 103.94
17172 66.7162 8401.58 8303.92 103.93
17173 66.7200 8445.39 8312.38 104.19
17174 66.7237 8497.33 8316.64 104.68
17175 66.7275 8513.28 8316.48 104.65
17176 66.7312 8459.08 8312.19 104.35
17177 66.7350 8580.81 8304.45 105.54
17178 66.7389 8469.41 8294.48 104.11
17179 66.7426 8363.99 8283.74 103.97
17180 66.7464 8290.34 8272.54 102.18
17181 66.7501 8490.20 8262.09 105.82
17182 66.7539 8460.00 8252.24 105.06
17183 66.7576 8416.98 8243.73 104.19
17184 66.7614 8315.25 8236.24 102.89
17185 66.7651 8376.34 8230.31 103.12
17186 66.7689 8411.44 8225.56 104.48
17187 66.7726 8340.38 8222.29 103.47
17188 66.7764 8474.17 8220.25 102.85
17189 66.7801 8307.36 8219.48 103.95
17190 66.7839 8356.04 8219.84 103.23
17191 66.7876 8433.34 8221.23 104.02
17192 66.7914 8377.52 8223.66 103.72
17193 66.7952 8301.95 8227.04 102.04
17194 66.7989 8376.47 8231.20 103.79
17195 66.8027 8465.79 8236.37 104.19
17196 66.8064 8456.39 8242.30 103.31
17197 66.8102 8531.82 8249.35 104.46
17198 66.8139 8434.77 8257.26 104.64
17199 66.8176 8494.82 8266.58 104.71
17200 66.8214 8459.25 8277.04 104.18
17201 66.8251 8415.23 8289.46 103.41
17202 66.8288 8248.72 8303.60 103.53
17203 66.8326 8483.35 8320.69 104.07
17204 66.8363 8549.15 8340.49 105.24
17205 66.8401 8646.15 8364.84 105.60
17206 66.8439 8522.25 8394.26 104.54
17207 66.8476 8609.30 8428.93 104.75
17208 66.8514 8754.41 8471.91 108.34
17209 66.8551 8544.34 8522.34 105.75
17210 66.8589 8580.33 8584.16 105.36
17211 66.8626 8786.66 8655.45 106.50
17212 66.8664 8626.43 8740.87 105.36
17213 66.8701 8902.41 8836.67 108.01
17214 66.8739 8865.91 8947.76 106.75
17215 66.8776 9157.55 9067.72 109.49
17216 66.8814 9258.55 9200.78 110.25
17217 66.8851 8983.82 9336.87 108.33
17218 66.8889 9095.50 9477.63 109.01
17219 66.8926 9431.50 9608.63 111.58
17220 66.8964 9336.83 9727.10 111.32
17221 66.9003 9588.21 9819.40 112.33
17222 66.9040 9729.22 9876.14 113.66
17223 66.9078 9580.56 9897.78 112.63
17224 66.9115 9586.73 9887.17 112.31
17225 66.9153 9650.89 9853.66 112.10
17226 66.9190 9547.56 9811.36 111.44
17227 66.9228 9539.05 9770.97 110.52
17228 66.9265 9312.52 9745.58 110.47
17229 66.9303 9679.43 9742.56 114.11
17230 66.9340 9857.79 9768.47 114.33
17231 66.9378 9743.60 9828.98 113.29
17232 66.9415 9901.11 9923.29 115.00
17233 66.9453 10199.80 10056.50 115.40
17234 66.9490 10255.70 10220.00 117.56
17235 66.9528 10427.80 10417.60 118.44
17236 66.9565 10785.00 10631.70 120.78
17237 66.9603 11093.50 10861.80 121.00
17238 66.9640 11247.30 11080.90 122.67
17239 66.9678 11564.50 11280.90 124.96
17240 66.9715 11646.00 11432.40 125.55
17241 66.9753 11836.30 11528.00 126.78
17242 66.9790 11589.40 11557.90 123.25
17243 66.9827 11584.00 11531.40 124.65
17244 66.9846 11477.60 11501.90 124.59
17245 66.9883 11386.10 11426.50 123.29
17246 66.9921 11442.50 11343.80 124.39
17247 66.9959 11353.90 11276.00 123.70
17248 66.9996 11279.00 11239.20 123.06
17249 67.0034 11308.10 11241.40 123.35
17250 67.0071 11382.90 11287.40 124.58
17251 67.0109 11512.10 11380.40 124.38
17252 67.0146 11699.00 11511.10 126.49
17253 67.0184 11979.20 11678.40 127.30
17254 67.0221 12244.00 11859.80 129.27
17255 67.0259 12554.70 12050.60 130.76
17256 67.0297 12442.60 12231.30 129.42
17257 67.0334 12579.10 12391.00 130.73
17258 67.0372 12672.40 12539.70 133.52
17259 67.0409 12368.70 12678.70 130.18
17260 67.0447 12498.50 12826.80 129.68
17261 67.0484 12621.90 12984.10 130.34
17262 67.0523 12885.50 13159.40 132.12
17263 67.0559 13081.90 13334.90 133.58
17264 67.0598 13294.70 13500.30 133.05
17265 67.0635 13381.30 13621.20 135.04
17266 67.0673 13190.20 13675.60 134.49
17267 67.0711 13221.10 13638.30 134.70
17268 67.0748 13174.80 13508.50 133.93
17269 67.0786 12711.50 13290.30 131.29
17270 67.0823 12567.80 13017.60 129.19
17271 67.0861 12423.80 12701.10 128.90
17272 67.0898 11743.10 12376.30 125.91
17273 67.0936 11324.60 12038.60 123.35
17274 67.0973 11149.90 11710.40 122.12
17275 67.1011 10886.00 11376.30 120.45
17276 67.1048 10562.80 11054.30 117.47
17277 67.1086 10363.80 10730.80 117.11
17278 67.1123 10130.70 10429.10 114.92
17279 67.1161 9971.69 10137.50 113.62
17280 67.1199 9732.37 9870.59 113.20
17281 67.1236 9523.20 9636.59 111.57
17282 67.1273 9374.68 9424.23 110.91
17283 67.1311 9299.09 9243.50 107.73
17284 67.1348 9051.01 9083.31 110.19
17285 67.1385 8871.22 8949.53 108.60
17286 67.1423 8862.30 8832.69 107.30
17287 67.1460 8831.85 8736.19 106.31
17288 67.1498 8789.38 8652.56 106.25
17289 67.1535 8656.50 8583.77 105.67
17290 67.1573 8843.11 8524.16 107.17
17291 67.1611 8503.51 8473.74 104.34
17292 67.1648 8584.93 8431.86 105.36
17293 67.1686 8630.04 8394.99 105.10
17294 67.1723 8515.51 8363.88 105.16
17295 67.1761 8509.83 8335.99 104.99
17296 67.1798 8418.09 8312.00 103.87
17297 67.1836 8461.00 8290.08 102.78
17298 67.1873 8427.91 8270.88 103.10
17299 67.1911 8614.46 8253.04 105.26
17300 67.1948 8531.80 8237.20 105.01
17301 67.1986 8393.55 8222.31 103.79
17302 67.2025 8357.50 8208.58 103.75
17303 67.2061 8519.88 8196.25 104.82
17304 67.2100 8418.17 8184.48 104.25
17305 67.2137 8386.28 8173.83 103.89
17306 67.2142 8062.67 8172.15 100.22
17307 67.2179 8346.88 8162.32 102.25
17308 67.2217 8115.67 8152.85 100.45
17309 67.2254 8167.36 8144.23 101.12
17310 67.2292 8307.53 8135.89 103.13
17311 67.2329 8269.18 8128.26 101.98
17312 67.2367 8082.14 8120.86 101.37
17313 67.2404 8196.57 8114.06 101.89
17314 67.2442 8164.98 8107.45 100.67
17315 67.2479 8268.77 8101.36 103.16
17316 67.2517 8103.45 8095.41 102.45
17317 67.2554 8170.02 8089.91 101.61
17318 67.2592 8229.16 8084.52 101.15
17319 67.2629 8249.42 8079.54 101.33
17320 67.2667 8139.36 8074.64 101.40
17321 67.2706 8168.94 8069.97 101.14
17322 67.2742 7979.07 8065.61 99.99
17323 67.2781 8281.29 8061.33 102.50
17324 67.2818 7951.59 8057.33 99.75
17325 67.2856 8226.00 8053.38 102.07
17326 67.2893 8009.34 8049.69 100.54
17327 67.2931 8112.36 8046.04 101.66
17328 67.2968 8210.15 8042.62 101.68
17329 67.3006 8274.35 8039.23 101.97
17330 67.3042 8196.33 8036.05 101.96
17331 67.3081 8221.17 8032.89 101.91
17332 67.3118 8357.80 8029.91 102.83
17333 67.3156 8070.61 8026.96 100.88
17334 67.3193 8124.25 8024.17 101.25
17335 67.3231 8098.68 8021.40 100.90
17336 67.3268 8110.36 8018.78 101.64
17337 67.3306 8244.64 8016.17 102.00
17338 67.3344 8171.64 8013.64 101.61
17339 67.3381 8166.68 8011.24 101.50
17340 67.3419 8114.42 8008.84 101.07
17341 67.3456 8279.42 8006.57 101.33
17342 67.3493 8265.09 8004.29 104.14
17343 67.3531 8178.67 8002.13 102.36
17344 67.3568 8303.16 7999.97 103.05
17345 67.3605 8217.18 7997.92 101.89
17346 67.3643 8079.49 7995.85 99.68
17347 67.3680 8308.53 7993.89 102.93
17348 67.3718 8143.46 7991.92 101.24
17349 67.3755 8321.26 7990.05 102.77
17350 67.3793 8100.21 7988.16 101.19
17351 67.3831 8284.64 7986.31 102.51
17352 67.3868 8139.17 7984.55 101.80
17353 67.3906 8177.59 8010.67 101.89
17354 67.3943 8141.86 8009.23 101.81
17355 67.3981 8090.83 8007.79 101.53
17356 67.4018 8261.60 8006.42 102.26
17357 67.4056 8085.32 8005.05 101.29
17358 67.4093 8051.07 8003.74 101.17
17359 67.4131 8182.75 8002.43 101.99
17360 67.4168 8187.90 8001.11 101.17
17361 67.4206 8149.27 7999.86 101.74
17362 67.4245 7969.81 7998.64 100.01
17363 67.4281 8353.81 7997.48 103.53
17364 67.4320 8218.18 7996.32 101.94
17365 67.4357 8327.07 7995.21 103.51
17366 67.4395 8109.03 7994.09 101.36
17367 67.4432 8096.59 7993.03 100.88
17368 67.4470 8261.04 7991.97 102.00
17369 67.4507 8459.69 7990.95 106.04
17370 67.4545 8145.42 7989.93 101.89
17371 67.4582 8253.94 7988.96 102.28
17372 67.4620 8105.74 7987.99 100.62
17373 67.4657 8214.65 7987.06 101.91
17374 67.4695 8162.59 7986.13 101.69
17375 67.4732 8410.60 7985.24 103.59
17376 67.4770 8365.02 7984.35 103.88
17377 67.4808 8334.58 7983.48 103.00
17378 67.4845 8183.14 7982.65 101.96
17379 67.4883 8389.97 7981.81 103.66
17380 67.4920 8174.44 7981.02 102.13
17381 67.4958 8257.30 7980.23 102.63
17382 67.4995 8240.69 7979.47 102.79
17383 67.5033 8272.83 7978.71 102.81
17384 67.5070 8207.63 7977.99 102.37
17385 67.5107 8245.81 7977.26 102.36
17386 67.5145 8177.10 7976.57 102.09
17387 67.5182 8238.51 7975.88 102.75
17388 67.5220 8346.57 7975.21 103.12
17389 67.5257 8356.14 7974.57 103.08
17390 67.5295 8303.09 7973.81 102.82
17391 67.5332 8313.58 7973.21 103.29
17392 67.5370 8157.92 7972.60 102.58
17393 67.5407 8233.58 7972.03 102.08
17394 67.5445 8129.28 7971.46 100.49
17395 67.5482 8429.68 7970.92 105.94
17396 67.5520 8104.51 7999.67 102.37
17397 67.5558 8305.08 7999.42 102.81
17398 67.5595 8225.72 7999.18 101.18
17399 67.5633 8314.45 7998.98 102.83
17400 67.5670 8287.98 7998.79 103.35
17401 67.5708 8315.21 7998.62 103.39
17402 67.5745 8207.08 8024.00 102.26
17403 67.5783 8477.74 8024.11 104.43
17404 67.5820 8323.38 8024.24 103.06
17405 67.5859 8214.86 8024.40 102.55
17406 67.5895 8348.66 8024.57 103.02
17407 67.5934 8292.35 8024.78 102.80
17408 67.5972 8247.03 8025.01 102.77
17409 67.6009 8388.65 8025.26 103.83
17410 67.6047 8099.85 8025.54 101.71
17411 67.6084 8154.64 8025.84 101.76
17412 67.6122 8385.55 8026.18 103.91
17413 67.6159 8400.32 8026.53 103.16
17414 67.6197 8301.29 8026.91 102.86
17415 67.6234 8296.07 8027.32 102.72
17416 67.6272 8327.43 8027.76 103.29
17417 67.6309 8382.36 8028.22 102.99
17418 67.6347 8132.44 8028.72 101.83
17419 67.6385 8352.95 8029.25 103.03
17420 67.6422 8346.55 8029.79 102.94
17421 67.6460 8395.09 8030.38 102.18
17422 67.6497 8315.21 8030.98 105.32
17423 67.6535 8406.99 8031.63 104.19
17424 67.6572 8312.70 8032.30 102.50
17425 67.6609 8095.78 8033.01 100.29
17426 67.6646 8351.45 8033.74 102.90
17427 67.6684 8279.82 8034.52 102.41
17428 67.6722 8113.55 8035.34 101.72
17429 67.6759 8265.73 8036.17 101.87
17430 67.6797 8275.86 8037.05 102.71
17431 67.6834 8085.55 8037.95 100.61
17432 67.6872 8112.64 8038.91 101.18
17433 67.6909 8277.33 8039.88 102.67
17434 67.6947 8216.69 8040.92 101.95
17435 67.6984 8201.70 8041.97 101.87
17436 67.7022 8289.52 8043.09 102.55
17437 67.7060 8188.13 8044.25 101.62
17438 67.7097 8075.18 8044.34 100.87
17439 67.7135 8188.21 8045.60 101.70
17440 67.7172 8109.62 8046.87 101.11
17441 67.7210 8313.13 8048.21 102.07
17442 67.7247 8128.40 8049.57 101.14
17443 67.7286 8323.88 8051.01 103.64
17444 67.7322 8173.37 8052.46 101.64
17445 67.7361 8347.22 8054.00 103.20
17446 67.7399 8284.99 8055.60 102.48
17447 67.7436 8367.08 8057.20 102.38
17448 67.7473 8296.84 8058.90 101.43
17449 67.7511 8465.87 8060.61 106.03
17450 67.7549 8121.48 8062.44 101.52
17451 67.7586 8489.20 8064.26 103.27
17452 67.7624 8118.66 8066.20 101.27
17453 67.7661 8361.11 8068.14 102.75
17454 67.7699 8348.59 8070.21 103.26
17455 67.7736 8288.87 8072.29 102.41
17456 67.7774 8159.00 8074.48 101.69
17457 67.7812 8287.04 8076.75 102.20
17458 67.7849 8343.76 8076.98 102.64
17459 67.7887 8264.28 8079.42 102.75
17460 67.7924 8276.95 8081.87 102.25
17461 67.7962 8411.05 8084.46 103.40
17462 67.7999 8317.26 8087.06 102.97
17463 67.8036 8464.19 8089.82 103.47
17464 67.8074 8309.64 8092.60 102.55
17465 67.8111 8256.43 8095.53 102.52
17466 67.8149 8168.53 8098.56 101.59
17467 67.8186 8281.42 8101.61 102.38
17468 67.8224 8125.62 8104.83 101.00
17469 67.8261 8292.29 8108.08 102.13
17470 67.8299 8367.14 8111.51 103.49
17471 67.8336 8328.71 8114.97 102.85
17472 67.8374 8492.48 8116.89 104.48
17473 67.8412 8306.24 8120.69 102.94
17474 67.8449 8223.40 8124.50 100.99
17475 67.8487 8412.79 8128.55 104.46
17476 67.8524 8298.73 8132.62 104.45
17477 67.8562 8460.17 8136.93 104.59
17478 67.8599 8354.75 8141.27 102.33
17479 67.8637 8354.28 8145.88 102.66
17480 67.8674 8214.06 8150.51 102.35
17481 67.8712 8415.64 8155.42 103.33
17482 67.8751 8252.30 8160.50 102.72
17483 67.8788 8555.37 8162.45 104.64
17484 67.8826 8309.04 8167.91 103.16
17485 67.8863 8435.44 8173.41 104.29
17486 67.8901 8352.15 8179.25 103.13
17487 67.8938 8461.72 8185.14 104.02
17488 67.8976 8470.26 8191.40 104.57
17489 67.9013 8674.00 8197.70 105.51
17490 67.9051 8474.86 8204.41 104.18
17491 67.9089 8531.58 8211.37 104.75
17492 67.9126 8411.58 8217.52 103.65
17493 67.9164 8517.52 8225.00 104.86
17494 67.9201 8369.34 8232.52 103.56
17495 67.9239 8497.26 8240.56 103.98
17496 67.9276 8430.77 8248.66 104.70
17497 67.9314 8433.04 8257.32 103.72
17498 67.9352 8576.06 8266.29 104.95
17499 67.9389 8420.89 8275.38 104.58
17500 67.9426 8524.82 8285.07 104.25
17501 67.9464 8666.38 8294.89 103.59
17502 67.9501 8762.32 8305.36 108.63
17503 67.9538 8672.73 8315.99 106.45
17504 67.9576 8441.61 8327.33 103.62
17505 67.9613 8735.16 8338.86 105.15
17506 67.9651 8629.48 8351.17 105.13
17507 67.9689 8424.24 8364.02 104.03
17508 67.9726 8712.89 8377.09 105.78
17509 67.9764 8907.21 8391.08 107.32
17510 67.9801 8608.43 8405.33 105.80
17511 67.9839 8782.28 8420.60 106.27
17512 67.9876 8765.49 8436.18 106.70
17513 67.9914 8681.66 8452.90 105.75
17514 67.9952 8757.30 8470.45 106.86
17515 67.9989 8538.28 8488.32 104.86
17516 68.0027 8841.53 8507.62 107.42
17517 68.0064 8875.78 8527.29 107.23
17518 68.0102 8906.57 8548.57 107.57
17519 68.0139 8995.99 8570.30 108.37
17520 68.0178 8821.06 8593.85 107.23
17521 68.0216 8871.71 8618.63 107.21
17522 68.0253 8922.44 8644.09 107.62
17523 68.0291 8881.94 8671.67 107.59
17524 68.0328 8890.85 8700.07 107.31
17525 68.0366 9094.30 8730.94 108.92
17526 68.0403 9015.11 8762.69 108.46
17527 68.0441 8943.38 8797.35 106.92
17528 68.0478 8892.20 8833.15 106.75
17529 68.0516 9149.36 8872.18 111.05
17530 68.0554 9288.26 8913.76 110.28
17531 68.0591 9235.91 8956.97 109.40
17532 68.0629 9330.76 9004.28 109.99
17533 68.0666 9242.23 9053.59 109.69
17534 68.0704 9426.35 9107.77 110.63
17535 68.0741 9510.63 9164.42 111.76
17536 68.0779 9525.84 9226.88 111.96
17537 68.0816 9801.58 9294.33 113.43
17538 68.0854 9499.44 9365.17 110.81
17539 68.0891 9900.13 9443.76 113.79
17540 68.0928 9932.63 9526.83 113.94
17541 68.0966 10082.20 9619.49 115.37
17542 68.1003 10194.10 9718.03 116.26
17543 68.1041 10518.80 9828.72 118.15
17544 68.1079 10426.80 9950.66 117.60
17545 68.1116 10786.30 10082.20 120.07
17546 68.1154 10934.70 10232.60 120.82
17547 68.1191 11234.50 10397.30 122.23
17548 68.1229 11413.40 10589.20 123.20
17549 68.1266 11985.40 10804.10 126.75
17550 68.1304 12641.70 11060.60 131.50
17551 68.1342 13028.30 11363.60 132.86
17552 68.1379 13158.00 11716.10 134.10
17553 68.1417 14051.30 12152.50 139.59
17554 68.1454 14333.30 12669.90 139.74
17555 68.1492 15368.60 13318.60 147.22
17556 68.1529 15895.20 14092.20 151.79
17557 68.1568 16696.30 15060.30 153.78
17558 68.1606 17754.40 16239.30 157.87
17559 68.1643 18764.80 17617.30 163.03
17560 68.1681 20105.70 19294.50 171.60
17561 68.1718 21544.20 21206.60 178.17
17562 68.1756 23109.70 23466.70 186.45
17563 68.1792 25731.20 25943.80 196.95
17564 68.1831 27657.20 28759.10 205.26
17565 68.1868 30509.90 31705.80 218.47
17566 68.1906 33166.40 34851.50 228.09
17567 68.1944 36148.70 37983.00 241.33
17568 68.1981 38568.00 40835.40 252.87
17569 68.2019 40343.30 43314.50 259.04
17570 68.2056 40592.90 45042.90 259.80
17571 68.2094 41240.20 45887.00 263.05
17572 68.2132 39210.90 45674.60 254.71
17573 68.2169 38101.50 44491.40 250.12
17574 68.2206 35425.30 42443.10 237.26
17575 68.2243 33213.00 39889.30 228.89
17576 68.2281 30678.40 36937.50 219.99
17577 68.2318 28308.60 33969.20 209.02
17578 68.2356 25893.80 30974.90 198.18
17579 68.2394 23998.50 28163.10 189.73
17580 68.2431 22199.20 25662.20 180.77
17581 68.2469 20841.60 23382.00 172.06
17582 68.2506 19601.50 21452.20 170.64
17583 68.2544 18359.00 19770.90 162.36
17584 68.2581 17511.30 18408.70 156.47
17585 68.2619 16886.50 17272.30 153.15
17586 68.2657 15955.90 16372.20 148.79
17587 68.2694 15934.80 15693.40 149.53
17588 68.2732 15222.00 15172.60 144.19
17589 68.2769 15112.00 14810.90 144.73
17590 68.2807 14979.00 14567.60 143.36
17591 68.2844 14797.10 14438.50 142.64
17592 68.2883 14992.10 14404.90 144.16
17593 68.2921 14886.80 14464.70 142.39
17594 68.2958 14867.20 14611.50 141.58
17595 68.2996 15335.00 14858.50 145.56
17596 68.3033 15561.80 15201.70 146.91
17597 68.3070 16227.30 15677.70 150.15
17598 68.3108 17079.50 16281.10 154.96
17599 68.3146 17840.00 17077.80 158.42
17600 68.3184 18498.30 18083.00 162.34
17601 68.3221 19989.80 19304.40 168.81
17602 68.3259 20956.80 20848.50 174.10
17603 68.3296 23033.30 22680.90 185.13
17604 68.3334 24180.10 24939.90 189.18
17605 68.3371 26744.20 27549.40 201.76
17606 68.3409 29205.50 30673.50 211.85
17607 68.3447 32442.00 34265.00 225.66
17608 68.3484 36288.40 38207.50 237.07
17609 68.3521 41098.80 42662.60 266.89
17610 68.3559 45310.70 47321.20 279.62
17611 68.3596 50949.40 52276.80 297.92
17612 68.3633 56097.80 57072.90 314.30
17613 68.3671 61757.60 61685.10 335.29
17614 68.3709 66103.40 65695.70 349.74
17615 68.3746 69778.40 68762.50 361.97
17616 68.3784 71755.90 70916.40 371.96
17617 68.3821 73048.70 71999.30 375.01
17618 68.3859 73301.80 72112.60 375.69
17619 68.3897 72633.40 71258.90 368.53
17620 68.3934 69726.60 69517.80 364.02
17621 68.3972 68166.30 66816.70 360.06
17622 68.4009 63249.00 63356.10 341.50
17623 68.4047 58388.20 59111.70 325.52
17624 68.4084 53378.80 54522.10 308.24
17625 68.4122 48023.70 49612.30 287.60
17626 68.4161 42506.80 44740.60 268.06
17627 68.4197 38085.90 40208.60 250.13
17628 68.4236 33431.40 35905.60 230.35
17629 68.4273 30228.70 32115.70 216.45
17630 68.4311 27010.20 28672.10 203.51
17631 68.4348 24543.00 25672.70 192.98
17632 68.4386 22179.30 23171.50 181.04
17633 68.4424 20492.50 20983.60 172.77
17634 68.4461 18839.00 19200.40 162.75
17635 68.4499 17731.10 17676.90 159.33
17636 68.4536 16381.20 16447.40 153.23
17637 68.4574 15476.80 15406.10 146.60
17638 68.4611 14519.10 14568.10 140.44
17639 68.4649 14234.40 13856.20 138.58
17640 68.4687 13245.30 13264.50 132.87
17641 68.4724 12789.20 12779.80 131.26
17642 68.4762 12335.80 12357.70 129.26
17643 68.4799 12116.80 12004.40 127.39
17644 68.4837 11487.60 11689.60 123.64
17645 68.4874 11232.50 11413.60 122.11
17646 68.4911 10882.00 11175.00 119.90
17647 68.4949 10769.80 10956.10 119.41
17648 68.4986 10568.80 10763.70 118.00
17649 68.5024 10465.90 10584.90 117.70
17650 68.5061 10430.60 10426.10 116.71
17651 68.5099 10089.80 10277.10 114.04
17652 68.5137 9843.51 10140.20 113.80
17653 68.5174 9731.82 10017.60 112.78
17654 68.5212 9817.95 9901.45 113.04
17655 68.5249 9606.64 9796.73 111.11
17656 68.5287 9514.84 9697.12 111.75
17657 68.5325 9666.14 9604.68 112.46
17658 68.5362 9376.44 9520.86 111.08
17659 68.5400 9184.49 9440.63 109.19
17660 68.5437 9314.54 9367.59 110.42
17661 68.5475 9170.28 9297.50 107.49
17662 68.5512 9206.69 9233.48 112.03
17663 68.5551 9007.44 9171.86 108.92
17664 68.5589 9077.43 9114.02 108.25
17665 68.5626 9054.56 9060.97 108.10
17666 68.5664 9067.47 9009.69 108.16
17667 68.5701 9002.19 8962.55 107.91
17668 68.5739 8711.71 8916.72 105.97
17669 68.5776 8959.21 8874.78 107.37
17670 68.5814 8878.29 8833.77 107.22
17671 68.5852 8938.13 8795.08 107.33
17672 68.5889 8693.91 8759.30 105.93
17673 68.5927 8779.24 8724.45 106.28
17674 68.5964 8639.75 8692.17 105.75
17675 68.6002 8655.63 8660.66 105.65
17676 68.6040 8549.45 8630.68 104.75
17677 68.6077 8741.96 8602.83 106.19
17678 68.6115 8477.71 8575.59 104.40
17679 68.6152 8667.20 8550.23 105.46
17680 68.6189 8547.72 8525.38 104.49
17681 68.6227 8592.28 8501.60 104.88
17682 68.6264 8580.79 8479.50 104.35
17683 68.6302 8548.11 8457.71 105.03
17684 68.6339 8542.31 8437.44 105.22
17685 68.6377 8596.02 8417.42 104.68
17686 68.6414 8470.93 8398.77 104.09
17687 68.6452 8675.79 8380.33 105.08
17688 68.6490 8372.24 8362.67 102.66
17689 68.6527 8623.58 8346.11 106.92
17690 68.6565 8404.69 8329.78 102.67
17691 68.6602 8539.87 8314.45 103.96
17692 68.6640 8442.99 8299.32 102.81
17693 68.6678 8410.89 8284.74 103.22
17694 68.6715 8342.66 8271.04 101.89
17695 68.6753 8426.95 8257.49 103.71
17696 68.6790 8337.61 8244.75 103.08
17697 68.6829 8502.07 8232.12 104.19
17698 68.6865 8319.80 8220.24 103.62
17699 68.6904 8362.89 8208.45 103.43
17700 68.6942 8234.17 8197.07 102.04
17701 68.6979 8338.26 8186.33 102.89
17702 68.7017 8269.17 8175.64 102.82
17703 68.7054 8436.38 8165.62 103.11
17704 68.7092 8147.22 8155.59 102.10
17705 68.7130 8343.22 8145.92 103.09
17706 68.7167 8356.51 8136.78 103.22
17707 68.7205 8497.58 8127.68 104.55
17708 68.7242 8179.87 8119.09 101.62
17709 68.7280 8215.10 8110.53 101.76
17710 68.7317 8308.85 8102.43 102.40
17711 68.7355 8248.03 8094.36 102.53
17712 68.7393 8366.16 8086.52 103.37
17713 68.7430 8243.05 8079.10 102.04
17714 68.7467 8225.17 8071.70 100.71
17715 68.7505 8447.29 8064.68 103.99
17716 68.7542 8425.18 8057.68 105.06
17717 68.7580 8334.82 8050.86 103.05
17718 68.7617 8068.65 8044.41 100.17
17719 68.7655 8175.05 8037.94 101.21
17720 68.7692 8209.32 8031.82 101.78
17721 68.7730 8124.62 8025.69 101.43
17722 68.7768 8192.67 8019.72 101.16
17723 68.7805 8146.08 8014.05 99.99
17724 68.7843 8151.57 8008.38 101.56
17725 68.7880 8223.03 8002.99 101.79
17726 68.7918 8000.37 7997.59 100.54
17727 68.7955 8245.14 7992.45 102.09
17728 68.7993 7982.33 7987.31 100.70
17729 68.8031 8136.77 7982.29 99.84
17730 68.8068 8040.53 7977.52 100.80
17731 68.8107 8073.00 7972.73 101.19
17732 68.8143 8049.41 7968.17 100.70
17733 68.8182 8257.20 7963.59 102.15
17734 68.8220 8173.81 7959.12 101.94
17735 68.8257 8128.38 7954.86 101.28
17736 68.8295 8100.63 7950.58 100.17
17737 68.8332 8231.79 7946.51 101.62
17738 68.8370 8212.08 7942.41 102.32
17739 68.8407 8416.12 7938.51 103.68
17740 68.8445 7907.70 7934.59 99.30
17741 68.8483 8032.22 7930.75 99.50
17742 68.8520 8208.81 7927.09 104.11
17743 68.8558 8141.03 7923.41 101.92
17744 68.8595 8069.57 7919.89 99.66
17745 68.8633 8143.35 7916.36 101.22
17746 68.8671 8183.71 7912.90 101.40
17747 68.8708 8116.95 7909.59 101.00
17748 68.8745 8090.13 7906.27 101.47
17749 68.8783 7997.79 7903.09 100.85
17750 68.8820 7993.14 7899.89 101.20
17751 68.8858 8064.14 7896.74 101.23
17752 68.8895 8115.32 7893.75 101.69
17753 68.8933 8078.35 7890.72 100.91
17754 68.8970 8095.60 7887.83 101.59
17755 68.9008 8011.68 7884.92 100.97
17756 68.9045 8275.39 7882.14 102.98
17757 68.9083 8098.63 7879.33 101.16
17758 68.9121 8094.35 7876.57 102.17
17759 68.9158 8051.64 7873.93 102.01
17760 68.9196 8151.42 7871.27 102.03
17761 68.9233 8067.90 7868.73 101.07
17762 68.9271 8018.09 7866.16 101.00
17763 68.9309 8006.69 7863.64 101.39
17764 68.9346 7930.57 7861.22 100.41
17765 68.9385 7966.47 7858.78 100.65
17766 68.9421 8076.43 7856.45 101.94
17767 68.9460 8271.97 7854.09 101.78
17768 68.9498 8163.03 7851.77 101.30
17769 68.9535 8014.21 7849.55 102.79
17770 68.9573 8211.50 7847.30 101.42
17771 68.9610 8035.79 7845.15 101.26
17772 68.9648 7972.13 7842.98 100.61
17773 68.9685 8057.75 7840.90 100.70
17774 68.9723 7856.00 7838.79 98.34
17775 68.9761 8037.15 7836.72 101.31
17776 68.9798 8024.17 7834.74 100.97
17777 68.9836 8060.92 7832.73 102.06
17778 68.9873 8024.53 7830.81 101.32
17779 68.9911 8185.64 7828.87 102.26
17780 68.9949 7994.65 7826.95 100.90
17781 68.9986 7939.27 7825.12 101.03
17782 69.0023 7928.75 7823.26 100.51
17783 69.0061 8138.83 7821.48 102.11
17784 69.0098 8096.32 7819.68 102.12
17785 69.0136 8107.27 7817.91 101.39
17786 69.0173 7988.44 7816.21 101.17
17787 69.0211 7941.09 7814.48 100.51
17788 69.0248 8020.08 7812.83 101.34
17789 69.0286 8089.12 7811.16 101.75
17790 69.0324 7969.99 7809.52 101.27
17791 69.0361 7920.31 7780.38 101.15
17792 69.0399 7890.86 7779.04 100.62
17793 69.0436 8100.93 7777.74 101.79
17794 69.0474 7947.62 7776.44 99.37
17795 69.0511 8216.27 7775.19 104.37
17796 69.0549 8003.62 7773.92 101.78
17797 69.0587 8062.10 7772.68 101.41
17798 69.0624 7986.34 7771.48 100.54
17799 69.0663 7970.14 7770.27 100.53
17800 69.0699 8003.38 7769.11 101.00
17801 69.0738 8045.02 7767.94 101.40
17802 69.0776 7969.54 7766.79 100.87
17803 69.0813 7950.43 7765.69 100.37
17804 69.0851 8040.08 7764.57 101.25
17805 69.0888 8075.31 7763.51 102.08
17806 69.0926 7952.45 7762.43 100.53
17807 69.0964 8019.94 7761.38 101.00
17808 69.1001 7926.29 7760.36 100.76
17809 69.1039 7885.72 7759.35 99.59
17810 69.1076 7924.62 7758.37 100.28
17811 69.1114 8010.57 7757.40 101.41
17812 69.1151 7910.95 7756.46 100.64
17813 69.1189 8122.63 7755.52 101.48
17814 69.1227 7966.54 7754.61 100.25
17815 69.1264 8060.18 7753.74 100.38
17816 69.1301 8059.56 7752.87 101.64
17817 69.1339 8157.97 7752.04 101.23
17818 69.1376 8073.98 7751.22 100.87
17819 69.1414 7990.12 7750.42 100.48
17820 69.1451 7967.57 7749.67 99.95
17821 69.1489 7907.29 7748.93 99.88
17822 69.1526 7881.93 7748.23 100.49
17823 69.1564 8023.48 7747.55 101.33
17824 69.1602 7923.61 7746.91 99.34
17825 69.1639 7940.69 7746.32 99.34
17826 69.1677 8096.16 7745.75 101.36
17827 69.1714 7892.30 7745.24 99.88
17828 69.1752 8018.85 7744.77 101.07
17829 69.1790 7899.64 7744.36 100.03
17830 69.1827 7971.97 7744.02 100.13
17831 69.1865 7935.97 7743.74 99.88
17832 69.1902 7798.21 7743.56 99.50
17833 69.1941 8002.65 7743.49 100.87
17834 69.1979 7886.95 7743.55 99.70
17835 69.2016 7883.04 7714.76 99.89
17836 69.2054 7739.05 7715.46 99.02
17837 69.2091 8105.90 7716.40 101.31
17838 69.2129 7898.12 7717.69 100.14
17839 69.2166 8033.51 7719.34 101.14
17840 69.2204 7860.06 7721.55 99.92
17841 69.2242 7991.01 7698.98 99.99
17842 69.2279 7844.23 7702.66 98.98
17843 69.2317 8066.68 7707.29 101.85
17844 69.2354 7946.27 7712.72 99.98
17845 69.2392 7968.61 7719.34 100.44
17846 69.2430 8002.54 7727.09 100.45
17847 69.2467 7947.13 7735.75 99.66
17848 69.2505 8098.61 7745.73 100.43
17849 69.2542 8153.94 7756.40 103.60
17850 69.2579 8022.11 7768.09 100.55
17851 69.2617 8048.75 7780.17 100.21
17852 69.2654 8061.58 7791.69 100.59
17853 69.2692 8033.23 7802.57 100.84
17854 69.2729 7832.48 7811.30 99.34
17855 69.2767 8077.15 7817.36 101.31
17856 69.2805 7982.04 7819.73 100.67
17857 69.2842 8089.58 7818.16 100.60
17858 69.2880 8112.14 7812.82 101.51
17859 69.2917 8026.55 7804.68 99.35
17860 69.2955 8033.68 7794.32 100.54
17861 69.2993 7880.65 7782.91 99.80
17862 69.3030 7866.74 7771.59 99.01
17863 69.3068 7979.34 7760.44 100.61
17864 69.3105 7920.23 7750.45 100.33
17865 69.3143 8009.51 7741.44 100.56
17866 69.3182 7901.70 7733.86 100.24
17867 69.3219 7994.50 7728.01 100.58
17868 69.3257 7675.70 7723.59 97.93
17869 69.3294 8140.32 7720.87 102.24
17870 69.3332 7882.92 7719.65 99.61
17871 69.3370 7995.93 7719.94 100.93
17872 69.3407 7865.62 7721.57 100.16
17873 69.3445 8014.70 7724.47 100.27
17874 69.3482 7876.19 7728.31 98.70
17875 69.3520 8077.12 7733.02 103.04
17876 69.3557 7866.56 7738.07 100.33
17877 69.3595 7934.92 7743.27 100.53
17878 69.3633 7908.19 7747.96 99.84
17879 69.3670 8113.21 7751.46 101.48
17880 69.3708 7885.70 7753.38 99.85
17881 69.3745 7997.91 7753.19 100.16
17882 69.3783 8045.80 7750.77 101.03
17883 69.3820 7957.85 7746.29 100.49
17884 69.3857 7943.20 7740.38 99.78
17885 69.3895 8035.26 7733.30 101.17
17886 69.3932 8108.94 7725.90 101.63
17887 69.3970 8004.74 7718.25 101.18
17888 69.4008 7756.70 7710.83 99.31
17889 69.4045 7862.60 7704.05 99.77
17890 69.4083 7932.71 7697.68 100.54
17891 69.4120 8026.37 7692.09 100.98
17892 69.4158 7828.58 7687.03 100.13
17893 69.4196 7915.28 7682.63 100.35
17894 69.4233 7889.76 7678.93 100.42
17895 69.4271 7907.25 7675.69 99.58
17896 69.4308 7888.09 7673.01 100.59
17897 69.4346 7905.19 7670.67 99.93
17898 69.4385 7862.20 7668.70 100.07
17899 69.4421 7863.02 7667.06 99.32
17900 69.4460 7742.93 7665.62 98.99
17901 69.4497 7779.88 7664.39 98.42
17902 69.4535 7864.79 7663.29 102.56
17903 69.4572 7897.59 7662.33 100.68
17904 69.4610 7749.37 7661.44 98.69
17905 69.4648 7907.92 7660.63 98.89
17906 69.4685 7780.94 7659.90 99.40
17907 69.4723 7862.33 7659.21 99.83
17908 69.4760 8039.40 7658.57 101.55
17909 69.4798 7810.39 7657.95 99.70
17910 69.4836 7813.57 7657.36 99.75
17911 69.4873 8073.57 7656.81 101.29
17912 69.4911 7822.52 7656.27 99.49
17913 69.4948 7916.84 7655.77 100.53
17914 69.4986 8055.18 7655.27 101.31
17915 69.5023 7808.46 7654.78 100.05
17916 69.5061 7887.83 7654.33 99.92
17917 69.5098 7909.03 7653.88 100.78
17918 69.5135 7792.65 7653.45 99.33
17919 69.5173 7915.62 7653.02 100.50
17920 69.5211 7807.69 7652.60 99.82
17921 69.5248 7801.47 7652.20 99.02
17922 69.5286 7767.54 7651.81 99.40
17923 69.5323 7855.34 7651.42 100.18
17924 69.5361 7922.52 7651.04 100.84
17925 69.5399 7871.06 7650.67 100.50
17926 69.5436 7966.40 7650.31 100.72
17927 69.5474 7819.33 7649.95 98.72
17928 69.5511 7937.09 7649.60 101.68
17929 69.5549 7838.45 7649.25 100.77
17930 69.5587 7729.43 7648.90 99.16
17931 69.5624 7767.35 7648.57 99.00
17932 69.5663 7752.83 7648.23 99.76
17933 69.5699 7839.18 7647.91 99.88
17934 69.5738 7890.77 7647.58 100.01
17935 69.5776 7977.32 7647.26 101.52
17936 69.5813 7917.03 7646.95 100.51
17937 69.5851 7787.88 7646.63 99.35
17938 69.5888 7764.60 7646.32 99.61
17939 69.5926 7923.83 7646.01 100.43
17940 69.5963 7826.50 7645.71 100.45
17941 69.6001 7906.88 7645.41 100.69
17942 69.6039 7985.77 7645.11 100.44
17943 69.6076 7953.12 7644.82 99.70
17944 69.6114 7700.47 7644.52 98.31
17945 69.6151 7741.89 7644.24 98.86
17946 69.6189 7760.80 7643.95 98.69
17947 69.6227 7716.10 7643.66 98.45
17948 69.6264 7773.36 7643.38 98.61
17949 69.6301 7847.19 7643.09 99.95
17950 69.6339 7814.66 7642.82 99.09
17951 69.6376 7878.71 7642.54 99.61
17952 69.6414 7680.72 7642.26 98.23
17953 69.6451 7743.64 7641.99 98.32
17954 69.6489 7813.74 7641.71 97.93
17955 69.6526 7812.33 7641.45 101.46
17956 69.6564 7792.19 7641.18 99.42
17957 69.6602 7723.18 7640.91 98.33
17958 69.6639 7809.01 7640.65 98.42
17959 69.6677 7956.11 7640.38 100.11
17960 69.6714 7787.11 7640.12 99.06
17961 69.6752 7798.47 7639.86 98.90
17962 69.6790 7545.48 7639.60 97.36
17963 69.6827 7874.22 7639.35 99.61
17964 69.6865 7786.70 7639.09 98.96
17965 69.6902 7819.14 7638.84 98.99
17966 69.6941 7761.22 7638.58 98.32
17967 69.6979 7753.16 7638.33 98.76
17968 69.7016 7849.35 7638.08 99.05
17969 69.7054 7689.88 7637.83 98.06
17970 69.7091 7814.16 7637.58 99.50
17971 69.7129 7744.52 7637.33 97.77
17972 69.7166 7849.65 7637.09 99.51
17973 69.7204 7920.88 7636.84 99.50
17974 69.7242 7684.15 7636.60 97.60
17975 69.7279 7835.82 7636.36 98.64
17976 69.7317 7867.22 7636.12 99.34
17977 69.7354 7858.87 7635.88 98.94
17978 69.7392 7854.66 7635.64 99.19
17979 69.7430 7833.31 7635.40 98.94
17980 69.7467 7685.33 7635.17 97.20
17981 69.7505 7737.87 7634.93 98.29
17982 69.7542 7756.21 7634.70 100.50
17983 69.7579 7812.75 7634.46 99.16
17984 69.7617 7807.57 7634.23 98.29
17985 69.7654 7642.72 7634.00 97.40
17986 69.7692 7800.63 7633.77 99.09
17987 69.7729 7765.79 7633.54 98.18
17988 69.7767 7960.05 7633.31 100.22
17989 69.7805 7774.91 7633.08 98.79
17990 69.7842 7793.07 7632.86 99.04
17991 69.7880 7873.02 7632.63 99.44
17992 69.7917 7875.03 7632.41 99.62
17993 69.7955 7831.52 7632.18 98.67
17994 69.7993 7627.13 7631.96 97.85
17995 69.8030 7809.34 7631.74 98.97
17996 69.8068 7642.46 7631.52 97.82
17997 69.8105 7847.02 7631.30 99.40
17998 69.8143 7708.19 7631.08 98.47
17999 69.8182 7807.88 7630.86 98.86
18000 69.8219 7680.98 7630.65 98.38
18001 69.8257 7800.50 7630.43 99.11
18002 69.8294 7708.14 7630.22 98.28
18003 69.8332 7750.77 7630.00 99.14
18004 69.8369 7779.85 7629.79 98.31
18005 69.8407 7823.54 7629.58 99.29
18006 69.8445 7779.83 7629.36 99.27
18007 69.8482 7651.77 7629.16 96.45
18008 69.8520 7654.09 7628.95 98.82
18009 69.8557 7889.68 7628.74 100.83
18010 69.8595 7836.01 7628.53 99.66
18011 69.8633 7602.69 7628.32 97.64
18012 69.8670 7716.12 7628.12 98.33
18013 69.8708 7822.22 7627.91 99.26
18014 69.8745 7752.40 7627.71 98.63
18015 69.8783 7763.22 7627.50 98.82
18016 69.8820 7836.88 7627.30 99.99
18017 69.8857 7648.66 7627.10 98.56
18018 69.8895 7833.39 7626.90 100.07
18019 69.8932 7767.67 7626.70 99.58
18020 69.8970 7795.80 7626.50 99.56
18021 69.9008 7799.11 7626.30 99.40
18022 69.9045 7750.80 7626.10 99.30
18023 69.9083 7537.63 7625.90 98.00
18024 69.9120 7868.82 7625.71 100.26
18025 69.9158 7851.19 7625.51 99.70
18026 69.9196 7727.58 7625.31 99.17
18027 69.9233 7844.28 7625.12 100.11
18028 69.9271 7767.39 7624.93 98.70
18029 69.9308 7934.58 7624.74 101.08
18030 69.9346 7661.68 7624.54 98.22
18031 69.9383 7901.33 7624.36 100.76
18032 69.9421 7766.56 7624.16 99.65
18033 69.9460 7804.25 7623.97 98.90
18034 69.9497 7763.31 7623.79 98.56
18035 69.9535 7886.78 7623.60 102.31
18036 69.9572 7774.34 7623.41 99.77
18037 69.9610 7893.89 7623.23 99.70
18038 69.9648 7815.38 7623.04 99.04
18039 69.9685 7753.24 7622.86 98.87
18040 69.9723 7764.02 7622.67 99.47
18041 69.9760 7855.18 7622.49 99.70
18042 69.9798 7733.40 7622.30 99.13
18043 69.9836 7887.71 7622.12 99.88
18044 69.9873 7760.83 7621.94 99.39
18045 69.9911 7675.66 7621.76 99.00
18046 69.9948 7807.99 7621.58 99.40
18047 69.9986 7836.20 7636.43 99.79
18048 70.0023 7761.97 7636.39 99.73
18049 70.0061 7888.53 7636.34 100.54
18050 70.0098 7858.62 7636.30 99.88
18051 70.0135 7812.93 7636.27 99.70
18052 70.0173 7706.87 7636.23 99.02
18053 70.0210 7931.44 7636.20 100.87
18054 70.0248 7895.08 7636.17 100.08
18055 70.0286 7736.08 7636.14 99.28
18056 70.0323 7813.69 7636.12 100.83
18057 70.0361 7888.17 7636.09 100.47
18058 70.0398 7866.86 7636.07 100.24
18059 70.0436 7856.59 7636.06 100.20
18060 70.0474 7679.03 7636.04 97.82
18061 70.0511 7845.76 7636.03 100.43
18062 70.0549 7756.81 7636.03 101.62
18063 70.0586 7677.53 7636.02 99.10
18064 70.0624 7838.98 7636.02 99.76
18065 70.0663 7834.22 7636.02 99.51
18066 70.0699 7707.69 7636.03 98.70
18067 70.0738 7791.82 7636.03 99.51
18068 70.0775 7840.48 7636.04 101.11
18069 70.0813 7927.26 7636.06 100.42
18070 70.0851 7774.20 7636.08 99.00
18071 70.0888 7674.10 7636.10 98.74
18072 70.0926 7881.27 7636.12 99.58
18073 70.0963 7915.09 7636.15 99.82
18074 70.1001 7726.27 7636.18 98.75
18075 70.1038 7889.62 7636.21 100.31
18076 70.1076 7885.61 7636.25 100.10
18077 70.1114 7777.43 7636.29 99.41
18078 70.1151 7909.71 7636.34 100.03
18079 70.1189 7764.42 7643.50 99.37
18080 70.1226 7884.47 7643.51 99.58
18081 70.1264 7774.84 7643.63 98.67
18082 70.1301 7732.53 7643.76 98.54
18083 70.1339 7934.03 7643.88 100.92
18084 70.1376 7804.22 7644.02 99.36
18085 70.1413 7780.88 7644.16 99.51
18086 70.1451 7750.01 7644.31 98.94
18087 70.1489 7684.32 7644.46 97.56
18088 70.1526 7839.88 7644.62 100.54
18089 70.1564 7861.54 7644.78 101.47
18090 70.1601 7783.09 7644.95 99.28
18091 70.1639 7753.89 7645.12 98.14
18092 70.1677 7664.63 7645.30 98.26
18093 70.1714 7919.98 7645.48 99.68
18094 70.1752 7832.18 7645.68 99.49
18095 70.1789 7695.89 7645.87 98.36
18096 70.1827 7742.08 7646.08 99.00
18097 70.1865 7775.81 7646.29 99.02
18098 70.1902 7673.94 7646.50 98.43
18099 70.1941 7754.30 7646.72 99.01
18100 70.1977 7743.68 7646.95 98.94
18101 70.2016 7932.67 7647.19 99.24
18102 70.2053 7874.96 7647.43 100.10
18103 70.2091 7849.51 7647.68 99.14
18104 70.2129 7747.10 7647.94 98.86
18105 70.2166 7818.20 7648.13 99.34
18106 70.2204 7783.28 7648.41 99.10
18107 70.2241 7926.15 7648.69 99.85
18108 70.2279 7763.02 7648.98 98.59
18109 70.2317 7779.37 7649.28 99.60
18110 70.2354 7602.00 7649.58 98.53
18111 70.2392 7675.81 7649.89 98.77
18112 70.2429 7912.44 7650.21 100.00
18113 70.2467 8002.48 7650.54 99.16
18114 70.2505 7541.28 7650.88 95.89
18115 70.2542 7829.73 7651.22 100.95
18116 70.2579 7649.34 7651.58 98.91
18117 70.2617 7746.78 7651.94 98.77
18118 70.2654 7769.29 7652.32 98.79
18119 70.2691 7860.87 7652.70 99.74
18120 70.2729 7612.42 7653.10 98.20
18121 70.2767 7761.07 7653.52 98.42
18122 70.2804 7674.72 7653.93 97.99
18123 70.2842 7667.50 7654.36 98.28
18124 70.2879 7715.99 7654.79 98.53
18125 70.2917 7709.69 7655.25 98.28
18126 70.2955 7704.50 7655.71 98.44
18127 70.2992 7654.70 7656.18 98.24
18128 70.3030 7893.15 7656.67 99.79
18129 70.3067 7763.95 7657.17 98.63
18130 70.3105 7642.17 7657.68 98.28
18131 70.3143 7658.84 7658.21 97.78
18132 70.3180 7715.45 7658.74 98.72
18133 70.3219 7666.65 7659.30 96.76
18134 70.3255 7770.27 7659.86 98.87
18135 70.3294 7686.81 7660.45 98.06
18136 70.3332 7765.34 7661.06 99.67
18137 70.3369 7847.60 7661.66 98.81
18138 70.3407 7669.58 7662.30 98.43
18139 70.3444 7787.71 7662.93 99.48
18140 70.3482 7881.05 7663.60 99.23
18141 70.3519 7572.36 7664.27 97.07
18142 70.3557 7770.09 7664.97 100.27
18143 70.3595 7718.57 7665.69 98.59
18144 70.3632 7763.59 7666.42 98.55
18145 70.3670 7907.36 7667.18 99.32
18146 70.3707 7628.56 7667.94 98.27
18147 70.3745 7680.17 7668.74 98.51
18148 70.3782 7673.36 7669.54 97.81
18149 70.3820 7813.57 7670.39 99.63
18150 70.3857 7767.51 7671.26 98.78
18151 70.3895 7737.24 7672.12 97.95
18152 70.3932 7665.80 7673.04 98.57
18153 70.3969 7665.62 7673.95 98.33
18154 70.4007 7436.31 7674.92 97.02
18155 70.4045 7862.45 7675.91 99.41
18156 70.4082 7763.93 7676.90 99.02
18157 70.4120 7577.53 7677.95 97.94
18158 70.4157 7787.10 7679.00 99.63
18159 70.4195 7744.76 7680.10 99.36
18160 70.4233 7677.86 7681.24 98.63
18161 70.4270 7722.67 7682.37 98.59
18162 70.4308 7829.06 7683.57 99.71
18163 70.4345 7875.72 7684.78 100.03
18164 70.4383 7652.62 7686.04 98.90
18165 70.4421 7578.99 7687.35 98.26
18166 70.4458 7658.52 7688.66 98.62
18167 70.4497 7811.28 7690.04 98.35
18168 70.4533 7846.55 7691.42 100.83
18169 70.4572 7892.97 7692.89 101.54
18170 70.4609 7684.73 7694.35 98.91
18171 70.4647 7876.09 7695.90 99.37
18172 70.4685 7818.59 7697.51 99.76
18173 70.4722 7721.71 7699.10 99.04
18174 70.4760 7856.66 7700.81 100.43
18175 70.4797 7684.89 7702.51 98.65
18176 70.4835 7865.35 7704.31 99.91
18177 70.4872 7869.02 7706.12 99.53
18178 70.4910 7837.49 7708.03 99.98
18179 70.4948 7776.51 7710.00 99.81
18180 70.4985 7878.09 7711.99 100.07
18181 70.5023 7764.54 7714.09 99.55
18182 70.5060 7931.08 7716.20 100.01
18183 70.5098 7702.55 7718.44 98.70
18184 70.5135 7957.11 7720.76 101.36
18185 70.5173 7791.68 7723.09 100.00
18186 70.5210 7758.83 7725.56 99.57
18187 70.5247 7757.68 7728.05 99.35
18188 70.5285 7649.43 7730.69 98.25
18189 70.5323 7861.43 7733.42 100.36
18190 70.5360 7819.31 7736.17 99.63
18191 70.5398 7905.32 7739.11 100.93
18192 70.5435 7807.90 7742.05 99.49
18193 70.5473 7761.28 7745.20 99.28
18194 70.5510 7615.10 7748.36 96.87
18195 70.5548 7875.25 7751.73 102.46
18196 70.5586 7992.98 7755.23 102.09
18197 70.5623 8009.79 7758.76 100.01
18198 70.5661 7757.76 7762.53 98.22
18199 70.5698 7845.04 7766.34 99.17
18200 70.5736 7849.80 7770.39 99.48
18201 70.5775 7629.82 7774.61 97.44
18202 70.5811 7913.64 7778.89 99.50
18203 70.5850 7920.12 7783.45 99.70
18204 70.5887 7781.59 7788.07 98.51
18205 70.5925 7806.42 7793.02 99.11
18206 70.5962 7953.95 7798.03 99.58
18207 70.6000 7768.19 7803.40 98.97
18208 70.6038 7836.43 7809.02 99.06
18209 70.6075 7801.32 7814.71 98.84
18210 70.6113 7848.65 7820.81 99.09
18211 70.6150 7854.85 7827.02 99.35
18212 70.6188 7786.97 7833.68 98.59
18213 70.6225 7785.95 7840.47 98.52
18214 70.6263 8053.55 7847.76 100.47
18215 70.6301 7967.84 7855.39 99.84
18216 70.6338 7937.52 7863.20 100.27
18217 70.6376 8065.44 7871.60 99.66
18218 70.6413 7907.70 7880.19 99.71
18219 70.6451 8081.87 7889.45 100.25
18220 70.6488 7643.07 7899.19 97.34
18221 70.6525 7772.19 7909.19 98.14
18222 70.6563 8046.08 7919.98 103.00
18223 70.6600 7942.98 7931.08 99.96
18224 70.6638 7695.24 7943.09 97.61
18225 70.6675 7881.24 7955.45 99.61
18226 70.6713 7820.33 7968.88 98.67
18227 70.6751 7836.44 7983.08 99.12
18228 70.6788 8002.00 7997.75 100.54
18229 70.6826 7962.38 8013.70 99.36
18230 70.6863 7945.02 8030.22 100.09
18231 70.6901 8071.04 8048.24 100.73
18232 70.6939 7971.03 8067.43 100.14
18233 70.6976 8029.51 8087.37 100.30
18234 70.7014 8120.81 8109.21 101.21
18235 70.7051 8124.34 8131.96 101.07
18236 70.7089 7958.83 8156.95 99.65
18237 70.7126 8195.02 8183.08 101.52
18238 70.7165 8109.31 8211.85 100.95
18239 70.7203 8078.30 8242.85 101.01
18240 70.7240 8274.41 8275.41 102.34
18241 70.7278 8289.34 8311.49 101.85
18242 70.7315 8308.69 8349.56 102.49
18243 70.7353 8411.24 8392.08 103.37
18244 70.7390 8233.08 8436.86 101.94
18245 70.7428 8519.17 8487.35 103.89
18246 70.7466 8431.33 8542.53 103.43
18247 70.7503 8580.85 8601.71 103.16
18248 70.7541 8793.50 8668.88 106.68
18249 70.7578 8842.74 8741.80 107.85
18250 70.7616 8951.11 8825.78 107.00
18251 70.7654 9145.00 8921.08 107.62
18252 70.7691 9014.22 9027.49 106.20
18253 70.7729 9383.28 9153.96 109.41
18254 70.7766 9451.24 9298.49 109.77
18255 70.7803 9964.32 9474.30 113.02
18256 70.7840 9915.39 9679.51 113.40
18257 70.7878 10219.30 9933.57 115.07
18258 70.7916 10674.20 10243.00 117.97
18259 70.7953 10961.80 10608.10 119.28
18260 70.7991 11601.40 11063.90 123.74
18261 70.8028 12228.30 11598.30 127.16
18262 70.8066 12828.60 12257.50 130.80
18263 70.8104 13081.40 13039.70 131.72
18264 70.8141 13823.30 13932.70 136.70
18265 70.8179 14650.60 14990.80 141.09
18266 70.8216 15547.40 16162.80 145.93
18267 70.8254 16925.70 17504.50 153.02
18268 70.8291 18233.40 18933.60 160.51
18269 70.8329 19799.40 20495.40 168.03
18270 70.8367 21486.10 22107.60 177.11
18271 70.8404 23275.80 23661.10 184.82
18272 70.8443 25451.30 25142.90 195.54
18273 70.8480 26732.90 26367.10 200.74
18274 70.8518 27281.40 27273.80 201.66
18275 70.8555 27913.30 27715.40 209.99
18276 70.8593 27121.50 27657.70 204.67
18277 70.8631 26348.80 27091.10 198.48
18278 70.8667 24808.40 26130.60 191.29
18279 70.8706 23457.50 24827.20 185.74
18280 70.8743 22015.60 23380.90 179.26
18281 70.8781 20410.90 21814.30 171.63
18282 70.8818 18752.20 20300.20 163.79
18283 70.8856 17435.90 18811.30 156.50
18284 70.8894 16370.50 17437.70 150.87
18285 70.8931 15506.90 16231.80 145.99
18286 70.8969 14559.90 15144.70 140.84
18287 70.9006 13726.70 14235.90 135.88
18288 70.9044 13210.40 13456.90 133.82
18289 70.9081 12725.60 12841.90 130.61
18290 70.9118 12733.10 12351.00 130.44
18291 70.9156 12202.20 11993.00 127.94
18292 70.9193 12264.80 11763.50 128.31
18293 70.9231 12168.00 11643.10 127.08
18294 70.9268 11723.10 11631.80 124.67
18295 70.9306 12030.30 11723.90 126.47
18296 70.9343 12239.20 11911.20 128.92
18297 70.9381 12087.50 12199.90 127.06
18298 70.9419 12361.00 12583.40 129.05
18299 70.9456 12883.80 13041.10 132.13
18300 70.9494 13270.80 13591.90 132.84
18301 70.9531 13797.00 14192.60 135.99
18302 70.9569 14730.40 14860.10 145.29
18303 70.9607 15653.10 15549.00 147.42
18304 70.9644 16173.60 16205.60 149.68
18305 70.9682 17204.20 16815.10 154.49
18306 70.9719 17631.90 17291.40 157.78
18307 70.9758 18191.80 17601.50 160.55
18308 70.9794 18165.20 17686.70 160.30
18309 70.9833 17784.00 17533.80 158.97
18310 70.9871 17473.40 17152.80 157.45
18311 70.9908 16370.90 16603.00 151.21
18312 70.9945 15677.40 15912.30 147.37
18313 70.9983 14708.00 15170.20 141.95
18314 71.0021 13884.10 14385.00 137.54
18315 71.0058 12689.70 13634.40 130.60
18316 71.0096 12276.10 12903.50 127.85
18317 71.0133 11696.00 12244.90 125.12
18318 71.0171 11139.90 11633.00 121.30
18319 71.0209 10774.80 11091.70 119.14
18320 71.0246 10191.80 10631.00 114.82
18321 71.0284 10014.20 10224.10 114.13
18322 71.0321 9824.43 9886.88 113.37
18323 71.0359 9411.05 9595.67 110.14
18324 71.0396 9327.77 9358.54 110.38
18325 71.0434 9348.78 9156.38 111.21
18326 71.0471 9030.33 8989.00 108.17
18327 71.0508 8826.23 8853.46 105.01
18328 71.0546 8854.61 8737.41 108.83
18329 71.0583 8834.29 8642.46 107.72
18330 71.0621 8565.98 8559.66 104.27
18331 71.0658 8440.70 8490.42 103.09
18332 71.0696 8430.32 8428.75 103.18
18333 71.0734 8353.58 8374.70 103.11
18334 71.0771 8273.83 8327.94 102.38
18335 71.0809 8326.36 8284.98 103.11
18336 71.0846 8221.01 8247.16 102.32
18337 71.0884 8190.31 8211.90 102.27
18338 71.0921 8050.03 8180.49 101.14
18339 71.0959 8225.82 8150.84 103.12
18340 71.0997 8148.04 8123.61 101.85
18341 71.1034 8235.83 8099.06 102.84
18342 71.1072 8123.23 8075.72 101.61
18343 71.1109 7999.63 8054.58 100.96
18344 71.1148 7956.72 8034.38 100.56
18345 71.1184 7903.45 8016.00 99.96
18346 71.1223 7977.05 7998.39 100.92
18347 71.1261 7953.00 7981.91 100.59
18348 71.1298 7800.51 7966.84 99.32
18349 71.1336 7994.24 7952.29 101.35
18350 71.1373 7794.12 7939.01 99.30
18351 71.1411 8091.40 7926.12 101.86
18352 71.1448 7988.63 7914.29 101.12
18353 71.1486 7788.86 7902.83 99.21
18354 71.1524 7989.68 7891.99 99.49
18355 71.1561 7887.04 7882.02 102.03
18356 71.1599 7833.38 7872.29 99.72
18357 71.1636 7822.83 7863.32 99.26
18358 71.1674 7809.96 7854.55 98.81
18359 71.1711 7921.24 7846.46 99.97
18360 71.1749 7821.55 7838.53 99.20
18361 71.1786 7871.89 7831.19 99.66
18362 71.1824 7955.00 7823.99 100.29
18363 71.1861 7759.20 7817.94 98.67
18364 71.1898 7851.02 7811.57 99.90
18365 71.1936 7745.64 7805.32 98.47
18366 71.1973 7791.78 7799.50 99.99
18367 71.2011 7761.80 7793.78 99.36
18368 71.2048 7799.94 7788.45 99.06
18369 71.2086 7652.98 7783.21 98.84
18370 71.2124 7679.03 7778.18 98.19
18371 71.2161 7780.25 7773.48 99.46
18372 71.2199 7754.14 7768.84 98.72
18373 71.2236 7647.40 7764.51 98.25
18374 71.2274 8031.75 7760.23 101.10
18375 71.2311 7640.28 7756.22 98.04
18376 71.2349 7727.19 7752.26 99.69
18377 71.2387 7703.42 7748.44 99.07
18378 71.2424 7828.25 7744.87 99.65
18379 71.2462 7900.10 7741.33 100.28
18380 71.2499 7747.07 7738.01 97.93
18381 71.2538 7783.21 7736.71 100.51
18382 71.2574 7766.38 7733.64 99.90
18383 71.2613 7777.14 7730.58 99.20
18384 71.2651 7806.36 7727.64 99.23
18385 71.2688 7513.55 7724.87 97.04
18386 71.2726 7574.09 7722.12 97.65
18387 71.2763 7715.16 7719.53 98.78
18388 71.2801 7716.89 7716.96 98.54
18389 71.2838 7837.93 7714.53 99.42
18390 71.2876 7616.50 7712.13 98.32
18391 71.2913 7676.09 7709.86 98.32
18392 71.2951 7541.55 7707.60 97.80
18393 71.2989 7815.18 7705.41 98.90
18394 71.3026 7886.20 7703.35 100.03
18395 71.3064 7582.56 7701.30 97.72
18396 71.3101 7831.10 7699.36 99.43
18397 71.3139 7792.03 7697.42 99.38
18398 71.3176 7626.61 7695.60 98.47
18399 71.3214 7710.37 7693.78 98.60
18400 71.3251 7542.53 7692.06 97.21
18401 71.3288 7595.33 7690.34 97.61
18402 71.3326 7701.33 7688.68 99.04
18403 71.3363 7662.39 7687.10 98.37
18404 71.3401 7671.05 7686.88 98.76
18405 71.3438 7650.61 7685.40 98.14
18406 71.3476 7676.38 7683.93 98.56
18407 71.3513 7833.76 7682.54 98.53
18408 71.3551 7683.15 7681.15 100.38
18409 71.3588 7764.64 7679.83 100.22
18410 71.3626 7830.11 7679.11 100.02
18411 71.3664 7678.42 7677.83 98.24
18412 71.3701 7716.18 7676.63 98.65
18413 71.3739 7515.43 7675.42 97.28
18414 71.3776 7711.42 7674.28 99.13
18415 71.3814 7643.41 7673.14 98.53
18416 71.3851 7538.37 7672.06 97.65
18417 71.3889 7658.39 7670.98 98.60
18418 71.3928 7595.16 7669.93 98.13
18419 71.3964 7828.26 7668.93 99.97
18420 71.4003 7656.76 7667.94 98.60
18421 71.4040 7507.88 7667.00 97.45
18422 71.4078 7890.60 7666.05 100.05
18423 71.4115 7820.59 7665.16 99.71
18424 71.4153 7845.33 7664.27 100.23
18425 71.4190 7757.38 7663.42 99.17
18426 71.4228 7665.98 7662.57 98.47
18427 71.4265 7725.74 7661.77 99.20
18428 71.4303 7529.87 7660.97 97.43
18429 71.4341 7726.18 7660.19 99.36
18430 71.4378 7651.90 7659.45 98.14
18431 71.4416 7759.05 7658.71 100.10
18432 71.4453 7704.25 7658.01 99.01
18433 71.4491 7723.31 7657.31 97.18
18434 71.4528 7660.34 7656.65 97.90
18435 71.4566 7590.32 7655.99 100.02
18436 71.4603 7569.41 7655.36 97.90
18437 71.4641 7913.79 7654.73 99.29
18438 71.4678 7619.44 7654.12 97.08
18439 71.4715 7684.64 7653.55 98.59
18440 71.4753 7735.76 7652.97 99.00
18441 71.4790 7718.39 7652.43 99.70
18442 71.4828 7639.13 7651.89 98.43
18443 71.4865 7710.93 7651.37 98.78
18444 71.4903 7702.73 7650.86 99.04
18445 71.4940 7677.10 7650.38 99.10
18446 71.4978 7655.35 7649.90 98.79
18447 71.5016 7594.28 7649.44 98.43
18448 71.5053 7947.13 7649.00 100.62
18449 71.5091 7561.12 7648.57 98.01
18450 71.5128 7762.12 7648.16 99.75
18451 71.5166 7651.52 7647.75 98.66
18452 71.5203 7648.71 7647.37 98.58
18453 71.5241 7574.44 7646.99 98.56
18454 71.5278 7593.30 7646.63 97.46
18455 71.5316 7717.30 7646.28 99.63
18456 71.5355 7751.83 7645.95 99.52
18457 71.5391 7584.53 7645.63 97.90
18458 71.5430 7702.01 7645.32 99.38
18459 71.5467 7684.29 7645.04 98.90
18460 71.5505 7666.80 7644.75 97.23
18461 71.5542 7788.28 7644.49 101.68
18462 71.5580 7672.20 7644.24 99.84
18463 71.5617 7566.13 7644.01 97.92
18464 71.5655 7844.57 7643.78 99.41
18465 71.5692 7602.84 7643.58 98.21
18466 71.5730 7512.99 7643.38 97.32
18467 71.5768 7655.88 7643.20 98.69
18468 71.5805 7700.83 7643.04 99.02
18469 71.5843 7846.70 7642.89 100.29
18470 71.5880 7636.09 7642.76 98.74
18471 71.5918 7652.81 7642.64 98.66
18472 71.5955 7755.06 7642.54 99.62
18473 71.5993 7767.43 7642.46 98.92
18474 71.6030 7794.12 7642.40 99.52
18475 71.6068 7791.72 7642.36 99.64
18476 71.6105 7727.22 7642.34 98.67
18477 71.6143 7544.77 7642.35 97.92
18478 71.6180 7563.55 7642.39 97.78
18479 71.6217 7591.47 7642.45 97.99
18480 71.6255 7623.17 7642.56 98.50
18481 71.6292 7481.82 7642.70 97.07
18482 71.6330 7686.69 7642.90 99.44
18483 71.6367 7708.21 7643.15 99.09
18484 71.6405 7710.38 7643.47 99.45
18485 71.6442 7561.58 7643.87 98.19
18486 71.6480 7706.09 7644.37 98.52
18487 71.6518 7561.76 7644.97 96.40
18488 71.6555 7721.81 7645.67 101.48
18489 71.6593 7720.86 7646.52 99.86
18490 71.6630 7762.70 7647.47 99.18
18491 71.6668 7611.82 7648.60 97.81
18492 71.6705 7633.89 7649.83 97.90
18493 71.6743 7774.30 7651.23 99.05
18494 71.6780 7897.27 7652.71 99.92
18495 71.6818 7595.61 7654.31 98.32
18496 71.6855 7638.62 7655.93 97.92
18497 71.6893 7607.70 7657.57 98.02
18498 71.6932 7677.08 7659.12 98.64
18499 71.6969 7600.12 7660.45 98.01
18500 71.7007 7656.19 7661.57 98.69
18501 71.7044 7720.08 7662.36 98.86
18502 71.7082 7612.44 7662.88 98.25
18503 71.7119 7639.32 7663.16 98.38
18504 71.7157 7605.31 7663.33 98.04
18505 71.7194 7471.12 7648.58 97.49
18506 71.7232 7452.60 7649.02 97.17
18507 71.7269 7658.72 7649.69 98.27
18508 71.7307 7657.01 7650.72 98.49
18509 71.7344 7660.80 7652.13 98.97
18510 71.7382 7694.22 7654.04 98.74
18511 71.7420 7716.30 7656.46 99.43
18512 71.7457 7456.05 7659.31 97.49
18513 71.7495 7594.46 7662.72 97.96
18514 71.7532 7550.87 7666.48 96.73
18515 71.7570 7672.50 7670.70 99.92
18516 71.7607 7678.57 7675.04 97.62
18517 71.7645 7632.93 7679.54 98.10
18518 71.7682 7637.15 7683.73 97.94
18519 71.7719 7475.64 7687.55 96.91
18520 71.7757 7607.92 7690.53 98.32
18521 71.7794 7678.31 7692.61 98.62
18522 71.7832 7620.58 7693.63 97.80
18523 71.7869 7678.10 7693.66 98.40
18524 71.7907 7657.06 7692.96 98.62
18525 71.7944 7511.47 7691.86 97.27
18526 71.7982 7741.58 7690.62 98.53
18527 71.8019 7729.86 7689.57 97.85
18528 71.8057 7494.30 7688.85 97.36
18529 71.8094 7690.11 7688.63 98.73
18530 71.8132 7635.13 7688.98 98.50
18531 71.8169 7686.89 7689.89 99.07
18532 71.8207 7676.63 7691.37 98.84
18533 71.8244 7562.65 7693.25 97.73
18534 71.8282 7632.10 7695.50 98.32
18535 71.8320 7608.90 7697.86 97.30
18536 71.8357 7633.30 7700.08 98.53
18537 71.8395 7617.42 7702.11 98.34
18538 71.8432 7647.17 7696.67 98.44
18539 71.8471 7682.90 7698.15 98.51
18540 71.8508 7625.29 7699.46 97.47
18541 71.8546 7910.44 7700.94 101.15
18542 71.8583 7673.67 7702.79 99.56
18543 71.8621 7616.24 7705.37 97.74
18544 71.8658 7685.63 7708.83 99.01
18545 71.8695 7755.56 7713.56 99.04
18546 71.8733 7714.71 7719.52 99.06
18547 71.8771 7911.22 7727.21 100.28
18548 71.8808 7688.48 7736.34 98.71
18549 71.8846 7623.89 7747.49 98.56
18550 71.8884 7675.97 7760.48 98.89
18551 71.8921 7713.91 7774.91 98.98
18552 71.8959 7705.51 7791.46 99.24
18553 71.8996 7830.49 7808.97 99.48
18554 71.9034 7825.09 7828.13 99.42
18555 71.9071 7753.72 7847.28 99.12
18556 71.9109 7959.31 7866.81 100.85
18557 71.9146 7795.71 7884.74 99.98
18558 71.9184 7951.62 7901.13 100.70
18559 71.9221 7927.70 7914.07 100.58
18560 71.9258 8023.09 7923.43 101.88
18561 71.9296 8031.63 7928.02 101.27
18562 71.9333 7925.34 7927.80 101.16
18563 71.9370 7802.75 7922.99 99.86
18564 71.9408 7816.40 7914.09 99.76
18565 71.9446 7967.63 7902.36 101.31
18566 71.9483 7923.78 7889.41 100.79
18567 71.9521 7924.49 7875.78 99.90
18568 71.9558 7931.25 7863.07 102.59
18569 71.9596 7712.13 7851.38 100.16
18570 71.9633 7853.84 7841.79 100.80
18571 71.9671 7842.93 7834.20 99.88
18572 71.9708 7706.79 7829.25 98.84
18573 71.9746 7758.43 7826.87 98.38
18574 71.9783 7861.54 7827.37 100.01
18575 71.9821 7929.76 7830.97 99.62
18576 71.9839 7825.64 7833.84 100.12
18577 71.9877 7860.43 7842.48 100.45
18578 71.9914 8039.29 7854.57 101.38
18579 71.9952 7915.67 7871.15 100.66
18580 71.9989 7944.39 7891.88 101.16
18581 72.0027 7924.91 7918.39 100.72
18582 72.0066 8059.24 7950.88 101.61
18583 72.0102 8047.68 7988.96 102.06
18584 72.0141 7812.14 8035.23 99.13
18585 72.0178 8240.98 8087.93 103.46
18586 72.0216 8259.87 8150.18 103.22
18587 72.0253 8251.87 8219.03 102.73
18588 72.0291 8255.63 8297.89 103.42
18589 72.0328 8165.76 8382.22 102.42
18590 72.0366 8384.97 8475.40 102.32
18591 72.0404 8520.31 8573.18 107.03
18592 72.0441 8540.59 8669.74 106.11
18593 72.0479 8530.87 8766.75 104.81
18594 72.0516 8655.76 8853.87 105.14
18595 72.0554 8631.28 8930.99 105.52
18596 72.0591 8804.55 8989.46 106.44
18597 72.0629 8852.29 9030.77 107.14
18598 72.0666 8795.03 9053.94 106.76
18599 72.0704 8774.75 9065.25 106.87
18600 72.0741 8915.62 9071.00 107.78
18601 72.0779 8977.58 9079.51 107.98
18602 72.0816 8929.82 9098.18 107.91
18603 72.0854 8990.53 9132.11 107.46
18604 72.0891 8989.10 9187.51 107.89
18605 72.0928 9070.27 9264.29 108.59
18606 72.0966 9175.44 9367.47 108.73
18607 72.1003 9425.87 9491.15 111.01
18608 72.1041 9552.24 9639.00 111.53
18609 72.1078 9736.68 9798.64 112.75
18610 72.1116 9922.16 9970.44 114.28
18611 72.1154 10270.70 10139.20 116.03
18612 72.1191 10270.40 10287.10 117.10
18613 72.1229 10394.60 10405.80 117.30
18614 72.1266 10461.90 10475.10 118.13
18615 72.1304 10496.60 10488.00 118.12
18616 72.1341 10391.50 10441.30 116.62
18617 72.1379 10135.00 10338.30 113.70
18618 72.1416 10184.60 10196.20 118.63
18619 72.1454 9852.17 10022.90 114.59
18620 72.1491 9653.94 9842.64 112.17
18621 72.1529 9360.56 9657.79 109.91
18622 72.1568 9126.48 9484.31 108.29
18623 72.1605 9008.20 9333.16 107.66
18624 72.1643 9031.17 9201.91 107.82
18625 72.1680 8779.32 9100.77 106.71
18626 72.1718 8751.17 9026.97 105.75
18627 72.1755 8863.12 8985.53 106.86
18628 72.1792 8775.65 8974.79 106.40
18629 72.1830 8772.82 8994.93 106.30
18630 72.1868 8793.38 9045.95 106.74
18631 72.1905 8928.65 9123.15 107.34
18632 72.1943 8809.76 9227.57 106.72
18633 72.1980 9100.27 9349.90 108.60
18634 72.2018 9347.89 9490.70 110.14
18635 72.2056 9361.96 9639.23 110.70
18636 72.2093 9237.17 9781.96 109.67
18637 72.2131 9630.90 9914.86 111.82
18638 72.2168 9627.42 10019.80 112.07
18639 72.2193 9973.91 10071.90 113.28
18640 72.2231 9797.71 10117.50 113.06
18641 72.2268 9906.02 10120.50 113.78
18642 72.2306 9835.53 10083.00 112.77
18643 72.2343 9848.08 10012.00 114.32
18644 72.2381 9658.00 9908.54 112.38
18645 72.2417 9532.91 9784.47 111.35
18646 72.2456 9455.36 9636.57 110.35
18647 72.2493 9185.86 9479.00 108.29
18648 72.2531 9039.45 9309.17 107.04
18649 72.2568 9062.09 9141.72 110.46
18650 72.2606 8808.74 8973.79 106.64
18651 72.2644 8776.99 8814.48 106.40
18652 72.2681 8487.33 8670.64 103.74
18653 72.2719 8389.80 8536.74 103.08
18654 72.2756 8362.27 8420.26 103.59
18655 72.2794 7976.32 8315.14 99.29
18656 72.2831 8149.23 8226.05 101.74
18657 72.2868 8087.32 8147.38 100.89
18658 72.2906 7909.63 8081.89 100.65
18659 72.2943 8012.45 8024.89 101.66
18660 72.2980 7868.37 7977.94 100.00
18661 72.3018 7843.69 7937.35 99.84
18662 72.3055 7961.35 7903.99 100.82
18663 72.3093 7803.63 7875.08 99.23
18664 72.3131 7701.09 7850.56 97.46
18665 72.3168 7752.66 7830.22 98.78
18666 72.3206 7755.83 7812.20 98.44
18667 72.3243 7674.86 7797.00 98.39
18668 72.3281 7527.07 7783.29 97.01
18669 72.3318 7583.84 7771.51 98.08
18670 72.3356 7659.80 7760.69 99.59
18671 72.3393 7681.01 7751.24 98.75
18672 72.3431 7489.45 7742.42 97.61
18673 72.3468 7605.71 7734.61 98.43
18674 72.3506 7684.08 7727.25 97.90
18675 72.3544 7560.58 7720.50 98.92
18676 72.3581 7636.93 7714.42 99.30
18677 72.3620 7748.71 7708.64 99.33
18678 72.3656 7552.88 7703.41 97.47
18679 72.3695 7737.29 7698.41 98.97
18680 72.3732 7698.20 7693.87 98.26
18681 72.3770 7636.86 7689.51 97.99
18682 72.3807 7675.92 7685.54 98.87
18683 72.3845 7466.75 7681.71 97.35
18684 72.3882 7430.42 7678.20 97.07
18685 72.3920 7507.75 7674.82 96.78
18686 72.3957 7598.13 7671.72 97.96
18687 72.3995 7629.07 7668.71 98.54
18688 72.4032 7669.36 7665.94 99.49
18689 72.4070 7708.71 7663.25 99.55
18690 72.4108 7677.91 7660.72 98.87
18691 72.4145 7627.57 7658.37 98.87
18692 72.4183 7690.25 7656.08 98.76
18693 72.4220 7630.88 7653.96 98.13
18694 72.4258 7734.90 7651.90 98.78
18695 72.4295 7483.68 7659.42 97.55
18696 72.4333 7738.80 7657.63 99.64
18697 72.4370 7787.97 7655.97 99.64
18698 72.4408 7536.07 7654.34 98.26
18699 72.4445 7574.11 7652.80 97.87
18700 72.4482 7490.33 7651.36 97.88
18701 72.4520 7500.75 7649.96 96.79
18702 72.4557 7641.77 7648.65 100.63
18703 72.4595 7717.18 7647.37 100.28
18704 72.4632 7540.14 7646.18 97.48
18705 72.4670 7593.52 7645.01 97.11
18706 72.4707 7528.66 7643.92 97.33
18707 72.4745 7715.80 7642.85 99.23
18708 72.4782 7567.58 7641.85 97.76
18709 72.4820 7594.67 7640.87 98.76
18710 72.4858 7557.98 7639.94 98.04
18711 72.4895 7772.36 7639.06 99.69
18712 72.4933 7544.46 7638.19 98.10
18713 72.4970 7488.97 7647.56 97.48
18714 72.5008 7622.96 7646.85 97.99
18715 72.5045 7528.66 7646.20 98.08
18716 72.5083 7631.52 7645.56 98.97
18717 72.5120 7506.44 7644.96 97.68
18718 72.5158 7691.15 7644.37 98.94
18719 72.5195 7619.42 7643.83 98.07
18720 72.5234 7532.60 7643.30 98.31
18721 72.5272 7687.30 7642.80 98.51
18722 72.5309 7498.80 7642.33 97.51
18723 72.5347 7701.10 7641.87 99.23
18724 72.5384 7422.31 7641.45 96.91
18725 72.5422 7613.46 7641.04 98.96
18726 72.5459 7560.87 7640.66 98.02
18727 72.5497 7554.00 7668.98 97.86
18728 72.5534 7740.26 7668.87 97.96
18729 72.5572 7767.32 7668.79 101.76
18730 72.5609 7589.43 7668.73 99.37
18731 72.5647 7547.57 7668.69 97.52
18732 72.5685 7496.79 7668.67 97.40
18733 72.5722 7665.21 7668.67 98.51
18734 72.5760 7665.86 7668.69 99.05
18735 72.5797 7617.32 7668.72 98.39
18736 72.5835 7778.53 7668.78 99.76
18737 72.5872 7602.38 7668.85 98.58
18738 72.5910 7532.41 7668.95 98.04
18739 72.5947 7451.47 7669.06 97.54
18740 72.5984 7559.51 7669.19 98.36
18741 72.6022 7606.12 7669.34 99.33
18742 72.6059 7649.35 7669.50 98.52
18743 72.6097 7609.30 7669.69 98.48
18744 72.6134 7496.87 7669.88 97.49
18745 72.6172 7545.77 7680.65 98.52
18746 72.6209 7650.59 7680.96 99.45
18747 72.6247 7619.97 7681.30 97.89
18748 72.6284 7583.55 7681.66 97.26
18749 72.6322 7450.71 7682.03 97.35
18750 72.6360 7559.29 7682.43 98.83
18751 72.6397 7743.69 7682.83 99.41
18752 72.6435 7662.50 7683.26 99.47
18753 72.6472 7639.33 7683.69 98.73
18754 72.6510 7528.27 7684.16 97.04
18755 72.6547 7695.85 7684.59 99.11
18756 72.6585 7739.71 7685.09 100.27
18757 72.6622 7595.03 7685.59 98.31
18758 72.6661 7664.31 7686.13 97.94
18759 72.6699 7554.35 7686.68 97.65
18760 72.6736 7732.48 7687.24 98.88
18761 72.6774 7708.05 7687.82 99.93
18762 72.6811 7746.89 7688.41 99.18
18763 72.6848 7607.68 7689.04 97.39
18764 72.6886 7396.78 7689.66 95.71
18765 72.6924 7624.96 7690.32 97.32
18766 72.6961 7522.21 7690.99 97.05
18767 72.6999 7576.67 7691.68 97.49
18768 72.7037 7367.90 7692.40 95.92
18769 72.7074 7527.02 7693.12 97.14
18770 72.7112 7582.42 7693.87 97.42
18771 72.7149 7665.62 7694.62 97.85
18772 72.7187 7546.23 7695.39 97.06
18773 72.7224 7663.85 7696.19 97.97
18774 72.7262 7425.23 7697.02 95.82
18775 72.7299 7555.65 7697.86 96.94
18776 72.7337 7633.78 7698.73 97.86
18777 72.7374 7631.28 7699.63 97.55
18778 72.7411 7377.35 7700.53 96.21
18779 72.7449 7639.54 7701.47 97.78
18780 72.7486 7596.77 7702.41 97.43
18781 72.7524 7549.88 7703.39 95.32
18782 72.7561 7699.43 7704.38 99.65
18783 72.7599 7665.04 7705.41 98.81
18784 72.7637 7603.18 7706.46 97.11
18785 72.7674 7441.30 7707.51 95.73
18786 72.7712 7602.03 7708.62 96.92
18787 72.7749 7614.28 7709.72 96.68
18788 72.7787 7597.77 7710.88 97.70
18789 72.7824 7657.09 7712.03 97.92
18790 72.7862 7507.74 7713.24 97.15
18791 72.7899 7644.97 7714.45 97.68
18792 72.7937 7473.23 7715.66 96.91
18793 72.7975 7542.95 7716.96 97.28
18794 72.8012 7569.88 7718.24 97.62
18795 72.8051 7512.89 7719.60 96.62
18796 72.8087 7589.12 7720.94 97.47
18797 72.8126 7666.18 7722.22 97.77
18798 72.8163 7601.90 7723.63 97.74
18799 72.8201 7571.11 7725.11 97.41
18800 72.8239 7496.29 7726.63 96.55
18801 72.8276 7464.37 7728.14 96.42
18802 72.8314 7571.75 7729.72 96.98
18803 72.8351 7519.89 7731.30 96.41
18804 72.8389 7600.66 7732.96 97.56
18805 72.8426 7609.55 7734.61 97.89
18806 72.8464 7615.27 7736.34 97.57
18807 72.8501 7521.13 7738.06 96.33
18808 72.8539 7652.68 7739.88 97.47
18809 72.8577 7708.65 7741.73 100.18
18810 72.8614 7658.41 7743.58 98.14
18811 72.8652 7846.81 7745.52 99.34
18812 72.8689 7775.17 7747.45 98.66
18813 72.8727 7786.74 7749.49 97.83
18814 72.8764 7513.39 7751.51 97.02
18815 72.8801 7528.68 7753.65 97.41
18816 72.8839 7678.17 7755.77 98.02
18817 72.8876 7678.92 7758.00 97.96
18818 72.8914 7606.68 7760.29 97.64
18819 72.8951 7734.47 7762.57 97.54
18820 72.8989 7559.45 7764.96 97.21
18821 72.9026 7654.47 7767.36 98.01
18822 72.9064 7577.86 7769.87 97.23
18823 72.9101 7611.73 7772.38 97.73
18824 72.9139 7732.42 7775.02 98.41
18825 72.9177 7712.39 7777.73 98.82
18826 72.9214 7575.03 7780.43 97.16
18827 72.9252 7675.48 7783.28 98.56
18828 72.9289 7738.73 7786.12 98.85
18829 72.9327 7731.81 7789.11 98.88
18830 72.9364 7610.19 7792.10 97.98
18831 72.9402 7764.93 7794.45 99.78
18832 72.9441 7726.76 7797.69 98.95
18833 72.9477 7542.35 7800.92 97.17
18834 72.9516 7521.20 7804.34 95.83
18835 72.9553 7888.85 7807.74 101.40
18836 72.9591 7672.32 7811.34 99.15
18837 72.9628 7746.79 7814.93 99.13
18838 72.9666 7585.20 7818.72 97.01
18839 72.9703 7664.26 7822.51 97.51
18840 72.9741 7752.91 7826.52 98.94
18841 72.9779 7823.20 7830.64 99.49
18842 72.9816 7885.68 7834.76 99.78
18843 72.9854 7890.61 7839.11 100.16
18844 72.9891 7683.43 7843.47 98.49
18845 72.9929 7761.20 7848.07 98.93
18846 72.9966 7616.10 7852.68 98.31
18847 73.0004 7815.07 7857.56 99.39
18848 73.0042 7765.04 7862.58 98.94
18849 73.0079 7627.24 7867.62 98.68
18850 73.0117 7865.91 7870.97 100.40
18851 73.0154 7749.41 7876.33 99.00
18852 73.0191 7757.22 7882.01 99.23
18853 73.0229 7890.63 7887.71 100.25
18854 73.0266 7633.01 7893.75 97.90
18855 73.0304 7825.41 7899.99 99.17
18856 73.0341 7894.87 7906.24 100.83
18857 73.0379 7722.61 7912.89 98.60
18858 73.0416 7891.20 7919.56 100.27
18859 73.0454 7783.44 7926.65 99.90
18860 73.0492 7921.76 7933.97 100.37
18861 73.0529 7886.44 7941.35 99.45
18862 73.0567 7927.48 7949.18 102.44
18863 73.0604 7778.27 7957.07 99.66
18864 73.0642 7745.93 7965.46 98.22
18865 73.0679 7724.75 7973.92 98.17
18866 73.0717 7806.77 7982.92 99.60
18867 73.0755 7796.21 7992.25 99.51
18868 73.0792 7871.82 8001.68 99.62
18869 73.0831 7941.49 8011.72 100.40
18870 73.0867 7929.92 8021.87 100.57
18871 73.0906 8019.79 8032.69 100.89
18872 73.0943 7866.51 8043.66 100.11
18873 73.0981 7813.62 8055.35 99.86
18874 73.1019 7965.27 8067.56 100.49
18875 73.1056 8156.20 8078.51 102.53
18876 73.1094 7901.53 8091.76 100.11
18877 73.1131 7940.40 8105.17 100.14
18878 73.1169 7968.22 8119.52 100.48
18879 73.1206 7959.53 8134.11 100.59
18880 73.1244 8048.76 8149.74 101.16
18881 73.1281 8138.83 8165.07 102.11
18882 73.1319 7900.75 8182.16 99.89
18883 73.1357 8017.63 8200.04 101.08
18884 73.1394 8172.81 8218.31 102.02
18885 73.1432 8199.55 8237.95 101.83
18886 73.1469 8150.06 8258.03 101.52
18887 73.1507 7970.02 8279.66 99.42
18888 73.1544 8417.47 8302.42 105.62
18889 73.1581 8067.74 8325.75 103.41
18890 73.1619 8091.24 8350.96 101.52
18891 73.1656 8286.93 8376.87 102.31
18892 73.1694 8174.70 8404.93 100.87
18893 73.1731 8055.34 8433.82 100.75
18894 73.1769 8319.92 8465.19 102.49
18895 73.1807 8432.77 8498.50 103.05
18896 73.1844 8334.05 8532.82 102.48
18897 73.1882 8346.14 8570.37 102.82
18898 73.1919 8401.04 8609.24 103.53
18899 73.1957 8454.01 8651.75 103.72
18900 73.1994 8713.90 8695.99 104.74
18901 73.2032 8564.21 8744.56 103.88
18902 73.2070 8644.33 8796.70 105.40
18903 73.2107 8646.01 8851.36 104.99
18904 73.2145 8760.68 8911.87 105.85
18905 73.2182 8935.11 8975.77 107.33
18906 73.2221 9030.71 9047.11 107.23
18907 73.2259 9127.62 9125.30 108.38
18908 73.2296 9109.38 9209.29 108.21
18909 73.2334 9201.75 9304.99 108.27
18910 73.2371 9644.83 9409.51 111.91
18911 73.2409 9441.60 9531.28 110.73
18912 73.2445 9725.11 9665.86 111.51
18913 73.2484 9796.82 9826.24 112.46
18914 73.2521 10282.10 10007.10 114.17
18915 73.2559 10650.00 10225.10 119.36
18916 73.2597 10967.90 10481.60 122.00
18917 73.2634 10986.50 10776.60 120.40
18918 73.2672 11250.70 11133.10 120.04
18919 73.2709 11439.10 11541.60 122.89
18920 73.2747 12050.30 12031.40 125.80
18921 73.2785 12442.00 12600.60 128.80
18922 73.2822 13139.00 13238.10 130.91
18923 73.2859 13598.90 13980.80 136.01
18924 73.2896 14339.30 14792.50 140.15
18925 73.2934 15212.80 15712.10 145.13
18926 73.2971 16410.60 16685.10 150.33
18927 73.3009 17237.00 17746.00 155.49
18928 73.3047 18314.00 18847.10 161.15
18929 73.3084 19440.10 19917.90 167.29
18930 73.3122 20239.70 20972.20 170.62
18931 73.3159 21433.60 21891.70 175.39
18932 73.3197 21902.20 22667.90 179.19
18933 73.3235 22260.10 23216.60 180.89
18934 73.3272 22377.80 23508.20 180.75
18935 73.3310 22240.20 23568.30 180.87
18936 73.3347 22084.70 23438.60 181.33
18937 73.3385 21468.20 23183.30 175.79
18938 73.3422 21342.70 22891.60 177.17
18939 73.3460 21181.80 22622.40 176.19
18940 73.3499 21028.50 22445.70 174.86
18941 73.3536 21210.30 22407.80 174.43
18942 73.3574 21784.80 22539.30 181.95
18943 73.3611 21995.80 22852.80 180.09
18944 73.3649 23038.90 23373.10 183.70
18945 73.3687 24063.50 24094.50 187.78
18946 73.3723 25499.00 24968.20 195.95
18947 73.3762 26869.30 26024.40 199.65
18948 73.3799 28388.80 27156.70 208.22
18949 73.3837 30076.20 28380.20 216.24
18950 73.3874 31615.40 29568.50 222.64
18951 73.3912 32324.20 30742.50 226.04
18952 73.3950 33030.30 31839.50 228.61
18953 73.3987 33718.20 32848.30 232.32
18954 73.4025 34581.90 33868.60 235.43
18955 73.4062 34909.00 34916.10 237.57
18956 73.4100 35436.10 36117.50 238.66
18957 73.4137 36576.40 37467.20 243.85
18958 73.4174 38951.40 39065.00 252.67
18959 73.4212 40540.80 40873.20 257.36
18960 73.4249 42802.60 42794.20 268.36
18961 73.4287 46488.00 44836.60 281.68
18962 73.4324 49228.40 46764.70 293.27
18963 73.4362 51907.80 48498.30 303.55
18964 73.4400 53817.20 49781.40 307.30
18965 73.4437 54737.80 50411.00 312.79
18966 73.4475 53838.10 50301.50 310.68
18967 73.4512 51999.20 49439.20 300.18
18968 73.4550 49809.40 47862.30 294.42
18969 73.4587 46581.00 45825.70 287.85
18970 73.4625 43373.40 43415.00 270.73
18971 73.4663 39756.50 40891.30 255.89
18972 73.4700 36721.60 38479.50 243.18
18973 73.4738 33732.10 36178.20 231.97
18974 73.4775 32005.60 34184.50 225.49
18975 73.4814 30012.20 32445.20 217.36
18976 73.4852 29090.60 31037.00 212.80
18977 73.4889 28093.20 29978.90 207.28
18978 73.4927 28250.00 29188.90 209.88
18979 73.4964 27773.70 28659.00 207.41
18980 73.5002 28468.80 28290.40 210.47
18981 73.5039 28249.60 28017.10 208.04
18982 73.5077 28346.90 27723.10 209.28
18983 73.5115 28290.50 27319.00 209.41
18984 73.5152 27560.40 26750.00 206.03
18985 73.5190 26791.60 25947.70 201.27
18986 73.5227 25503.90 24966.10 196.37
18987 73.5265 24056.90 23789.70 189.66
18988 73.5303 22375.40 22507.90 181.94
18989 73.5340 20437.30 21215.10 173.51
18990 73.5378 18987.70 19896.60 164.88
18991 73.5415 17538.80 18657.50 157.54
18992 73.5452 16040.10 17461.40 150.07
18993 73.5490 15126.80 16385.30 144.47
18994 73.5527 14222.90 15383.10 138.24
18995 73.5565 13673.20 14487.50 140.49
18996 73.5602 12993.40 13716.00 135.09
18997 73.5640 12378.10 13024.10 129.21
18998 73.5677 11830.20 12439.90 125.77
18999 73.5715 11403.20 11924.60 123.66
19000 73.5753 11035.50 11484.20 121.79
19001 73.5790 10542.00 11119.70 117.12
19002 73.5828 10430.90 10800.00 118.17
19003 73.5865 10059.50 10535.10 115.33
19004 73.5903 9985.40 10301.40 114.47
19005 73.5941 9755.93 10100.80 113.27
19006 73.5978 9445.82 9930.89 111.27
19007 73.6016 9493.43 9778.14 110.77
19008 73.6053 9327.38 9646.47 108.59
19009 73.6092 9128.66 9525.92 108.70
19010 73.6130 9035.84 9417.58 108.49
19011 73.6167 9025.39 9321.82 108.12
19012 73.6205 8832.24 9232.14 106.74
19013 73.6242 8717.58 9151.91 106.04
19014 73.6280 8593.79 9075.87 104.47
19015 73.6317 8545.72 9007.51 104.69
19016 73.6355 8577.79 8942.13 105.43
19017 73.6393 8532.37 8881.30 105.24
19018 73.6430 8493.44 8826.15 102.90
19019 73.6468 8412.72 8773.02 102.56
19020 73.6505 8386.61 8724.58 102.14
19021 73.6543 8302.27 8677.92 101.37
19022 73.6581 8586.98 8634.07 106.14
19023 73.6618 8397.89 8593.82 102.85
19024 73.6656 8329.92 8555.26 100.98
19025 73.6693 8139.62 8519.43 100.26
19026 73.6730 8193.80 8484.68 100.55
19027 73.6768 8231.86 8452.61 101.41
19028 73.6805 8098.74 8421.44 100.87
19029 73.6843 8133.21 8391.89 100.60
19030 73.6880 7955.28 8364.53 99.16
19031 73.6918 8197.24 8337.86 101.53
19032 73.6955 7969.20 8313.12 99.75
19033 73.6993 8016.87 8288.94 99.66
19034 73.7031 8079.79 8265.87 99.68
19035 73.7068 7944.91 8244.49 99.01
19036 73.7106 7729.11 8223.47 97.97
19037 73.7143 8014.34 8203.96 99.96
19038 73.7181 7929.10 8184.75 99.15
19039 73.7219 7948.37 8166.41 99.40
19040 73.7256 7929.14 8149.28 99.25
19041 73.7294 8009.42 8132.44 99.53
19042 73.7331 7823.64 8116.69 97.95
19043 73.7370 7861.28 8101.19 98.38
19044 73.7408 7814.87 8086.31 97.99
19045 73.7445 7879.97 8072.37 98.66
19046 73.7483 7840.19 8058.61 98.59
19047 73.7520 7885.01 8045.71 98.56
19048 73.7558 7842.39 8032.95 98.21
19049 73.7595 7878.29 8021.01 100.72
19050 73.7633 7681.80 8009.14 97.39
19051 73.7671 8182.23 7997.74 100.73
19052 73.7708 7580.42 7987.02 96.02
19053 73.7746 7636.37 7976.41 97.20
19054 73.7783 7728.54 7966.41 97.41
19055 73.7821 7618.29 7956.51 96.68
19056 73.7859 7699.77 7947.43 98.03
19057 73.7896 7836.46 7938.41 98.18
19058 73.7934 7677.32 7929.46 97.77
19059 73.7971 7720.83 7921.01 98.11
19060 73.8008 7616.00 7912.62 96.57
19061 73.8046 7682.20 7904.50 97.21
19062 73.8083 7899.87 7896.82 99.08
19063 73.8121 7654.40 7889.19 96.96
19064 73.8158 7665.83 7881.97 97.32
19065 73.8196 7617.09 7874.79 97.11
19066 73.8233 7789.06 7867.99 97.96
19067 73.8271 7679.71 7861.22 97.22
19068 73.8309 7572.28 7854.63 95.73
19069 73.8346 7664.38 7848.42 98.12
19070 73.8384 7615.80 7842.20 97.08
19071 73.8421 7457.83 7836.32 96.25
19072 73.8459 7687.17 7831.02 98.10
19073 73.8497 7788.62 7825.31 98.19
19074 73.8534 7488.56 7819.90 95.42
19075 73.8572 7860.27 7814.49 101.04
19076 73.8609 7724.86 7809.36 98.63
19077 73.8648 7406.38 7804.23 95.34
19078 73.8686 7488.65 7799.24 95.87
19079 73.8723 7500.33 7794.49 95.33
19080 73.8761 7596.45 7789.75 96.99
19081 73.8798 7659.34 7785.24 97.79
19082 73.8836 7687.76 7780.71 98.61
19083 73.8874 7751.84 7776.30 98.10
19084 73.8911 7557.77 7772.11 96.76
19085 73.8949 7635.04 7767.91 97.72
19086 73.8986 7629.47 7763.92 97.38
19087 73.9024 7649.32 7759.92 97.53
19088 73.9062 7779.94 7756.01 98.48
19089 73.9099 7627.97 7752.29 97.66
19090 73.9137 7627.65 7748.55 97.01
19091 73.9174 7623.83 7744.99 98.09
19092 73.9212 7683.04 7741.42 97.52
19093 73.9249 7840.60 7738.02 99.03
19094 73.9286 7702.69 7734.60 98.25
19095 73.9324 7705.90 7731.26 97.83
19096 73.9361 7576.50 7728.07 98.14
19097 73.9399 7767.07 7724.87 98.43
19098 73.9436 7503.69 7721.81 96.64
19099 73.9474 7598.36 7718.74 98.05
19100 73.9512 7574.86 7715.73 96.86
19101 73.9549 7407.32 7712.86 95.45
19102 73.9587 7688.00 7709.97 99.78
19103 73.9624 7453.70 7707.21 96.55
19104 73.9662 7431.28 7704.43 96.08
19105 73.9700 7553.39 7701.71 96.67
19106 73.9737 7684.42 7699.11 98.03
19107 73.9775 7602.41 7696.50 96.99
19108 73.9812 7528.46 7693.99 96.55
19109 73.9850 7544.11 7691.47 96.87
19110 73.9889 7392.95 7689.00 96.07
19111 73.9926 7384.22 7686.64 96.35
19112 73.9964 7529.06 7684.25 96.95
19113 74.0001 7516.64 7681.97 96.90
19114 74.0039 7565.62 7679.68 97.37
19115 74.0077 7530.68 7677.41 97.08
19116 74.0114 7595.21 7675.25 97.10
19117 74.0152 7703.88 7673.08 98.26
19118 74.0189 7450.64 7670.99 96.30
19119 74.0227 7526.99 7668.89 97.03
19120 74.0265 7460.85 7666.83 96.47
19121 74.0302 7559.30 7664.85 96.74
19122 74.0340 7724.03 7662.85 98.68
19123 74.0377 7412.22 7660.94 96.24
19124 74.0415 7667.75 7659.01 98.23
19125 74.0452 7593.90 7657.16 97.81
19126 74.0490 7439.09 7655.29 96.15
19127 74.0527 7447.62 7653.45 95.14
19128 74.0564 7652.63 7651.69 100.24
19129 74.0602 7685.31 7649.91 99.12
19130 74.0639 7549.85 7648.21 96.72
19131 74.0677 7571.77 7646.48 96.86
19132 74.0715 7514.52 7644.79 96.79
19133 74.0752 7605.77 7643.17 97.68
19134 74.0790 7384.89 7641.52 95.68
19135 74.0827 7488.37 7639.95 96.82
19136 74.0865 7438.23 7638.36 96.31
19137 74.0903 7395.34 7636.79 96.17
19138 74.0940 7632.04 7635.29 98.04
19139 74.0978 7477.03 7633.77 96.54
19140 74.1015 7451.69 7632.32 96.75
19141 74.1053 7502.77 7630.85 96.65
19142 74.1092 7463.32 7629.40 96.85
19143 74.1128 7353.86 7628.01 95.06
19144 74.1167 7633.43 7626.61 97.76
19145 74.1204 7593.59 7625.26 98.03
19146 74.1242 7488.50 7623.90 96.65
19147 74.1280 7495.37 7622.55 96.09
19148 74.1317 7470.65 7621.27 96.09
19149 74.1355 7372.61 7619.97 96.45
19150 74.1392 7502.06 7618.73 95.88
19151 74.1430 7374.04 7617.47 95.53
19152 74.1468 7519.93 7616.23 96.68
19153 74.1505 7426.40 7615.05 95.31
19154 74.1543 7568.97 7613.85 96.03
19155 74.1580 7496.41 7612.71 98.45
19156 74.1618 7419.62 7611.55 96.31
19157 74.1656 7516.15 7610.41 96.39
19158 74.1693 7531.54 7609.32 96.50
19159 74.1730 7446.43 7608.23 96.06
19160 74.1768 7447.74 7607.18 95.92
19161 74.1805 7408.36 7606.13 95.41
19162 74.1843 7452.53 7605.09 95.81
19163 74.1880 7416.77 7604.10 95.68
19164 74.1918 7455.36 7603.12 96.23
19165 74.1955 7607.90 7602.17 97.23
19166 74.1993 7494.75 7601.23 96.60
19167 74.2031 7499.37 7600.31 96.19
19168 74.2068 7408.61 7599.44 95.81
19169 74.2106 7426.93 7598.57 95.96
19170 74.2143 7413.79 7597.75 95.52
19171 74.2181 7502.05 7596.94 96.12
19172 74.2219 7481.85 7596.16 95.61
19173 74.2256 7464.77 7586.06 96.05
19174 74.2294 7409.38 7585.44 94.84
19175 74.2331 7407.80 7584.88 95.62
19176 74.2370 7411.28 7584.34 96.34
19177 74.2408 7304.19 7583.86 94.46
19178 74.2445 7314.38 7583.46 95.24
19179 74.2483 7392.16 7583.11 95.83
19180 74.2520 7317.41 7582.84 94.64
19181 74.2558 7319.43 7582.65 94.75
19182 74.2595 7517.15 7582.56 98.59
19183 74.2633 7289.41 7582.55 95.17
19184 74.2671 7283.41 7582.66 94.79
19185 74.2708 7490.38 7582.87 95.44
19186 74.2746 7366.77 7583.22 94.97
19187 74.2783 7365.10 7583.67 95.50
19188 74.2821 7427.93 7584.27 95.69
19189 74.2859 7259.95 7585.01 94.44
19190 74.2896 7391.77 7585.86 95.89
19191 74.2934 7391.74 7576.74 95.90
19192 74.2971 7479.54 7577.93 96.39
19193 74.3008 7287.69 7579.29 94.80
19194 74.3046 7424.13 7580.82 95.33
19195 74.3083 7442.11 7582.51 96.07
19196 74.3121 7412.72 7584.51 95.61
19197 74.3158 7374.69 7586.81 95.32
19198 74.3196 7352.82 7589.60 95.14
19199 74.3234 7396.60 7592.89 95.62
19200 74.3271 7423.29 7596.62 95.66
19201 74.3309 7337.32 7600.99 95.31
19202 74.3346 7334.79 7605.76 95.13
19203 74.3384 7511.42 7611.10 96.88
19204 74.3422 7476.66 7616.77 96.06
19205 74.3459 7502.99 7593.82 96.48
19206 74.3497 7507.51 7599.68 96.16
19207 74.3534 7360.39 7604.92 94.42
19208 74.3572 7542.78 7609.41 97.46
19209 74.3611 7551.08 7612.67 97.49
19210 74.3648 7358.03 7614.45 95.32
19211 74.3686 7390.72 7614.84 95.46
19212 74.3723 7549.63 7614.04 96.72
19213 74.3761 7303.10 7612.40 94.81
19214 74.3799 7626.07 7610.43 97.42
19215 74.3836 7524.41 7608.68 96.27
19216 74.3874 7454.64 7607.47 96.11
19217 74.3911 7419.36 7607.20 95.63
19218 74.3949 7460.36 7608.10 96.35
19219 74.3987 7439.93 7610.38 95.96
19220 74.4024 7409.22 7614.00 95.54
19221 74.4062 7489.68 7619.16 96.75
19222 74.4099 7527.69 7625.49 96.17
19223 74.4137 7361.92 7633.17 95.17
19224 74.4174 7520.98 7631.26 96.66
19225 74.4212 7605.38 7640.07 96.62
19226 74.4249 7583.65 7648.92 96.51
19227 74.4286 7474.63 7656.65 95.97
19228 74.4324 7554.25 7662.85 96.32
19229 74.4362 7448.50 7666.53 95.89
19230 74.4399 7436.26 7667.18 95.67
19231 74.4437 7631.37 7664.66 97.14
19232 74.4474 7676.41 7659.35 98.47
19233 74.4512 7711.09 7651.56 97.85
19234 74.4550 7565.38 7642.16 95.56
19235 74.4587 7545.38 7632.15 98.90
19236 74.4625 7657.67 7621.68 98.09
19237 74.4662 7464.97 7611.76 95.58
19238 74.4700 7566.18 7602.21 96.94
19239 74.4738 7500.14 7593.61 96.18
19240 74.4775 7388.01 7586.27 95.46
19241 74.4814 7501.66 7579.93 96.76
19242 74.4850 7460.14 7574.97 95.54
19243 74.4889 7351.10 7571.16 95.07
19244 74.4927 7418.53 7568.67 96.00
19245 74.4964 7476.02 7567.55 96.29
19246 74.5002 7517.30 7567.77 95.98
19247 74.5039 7353.34 7569.38 95.40
19248 74.5077 7504.05 7572.56 95.89
19249 74.5115 7371.86 7577.43 95.44
19250 74.5152 7413.85 7583.94 95.71
19251 74.5190 7629.09 7592.68 97.32
19252 74.5227 7598.91 7603.38 96.81
19253 74.5265 7582.47 7616.93 97.00
19254 74.5303 7589.65 7633.27 96.40
19255 74.5340 7478.65 7652.13 95.69
19256 74.5378 7621.50 7674.65 97.95
19257 74.5415 7566.78 7699.81 96.47
19258 74.5452 7633.40 7728.86 97.74
19259 74.5490 7621.16 7761.03 97.04
19260 74.5527 7680.12 7795.01 97.05
19261 74.5565 7680.52 7831.86 97.23
19262 74.5602 8060.63 7868.74 102.67
19263 74.5640 7831.40 7906.07 98.47
19264 74.5678 7841.17 7940.90 98.80
19265 74.5715 7734.40 7970.12 97.24
19266 74.5753 7908.59 7992.71 99.05
19267 74.5790 7938.14 8005.37 99.70
19268 74.5828 7839.01 8007.41 98.68
19269 74.5866 7858.84 7998.30 98.74
19270 74.5903 7722.92 7979.96 98.11
19271 74.5941 7818.43 7953.63 98.81
19272 74.5978 7628.96 7923.14 97.35
19273 74.6016 7770.78 7889.40 98.27
19274 74.6055 7665.59 7855.25 98.51
19275 74.6092 7615.66 7823.16 97.44
19276 74.6130 7730.45 7792.64 98.90
19277 74.6167 7626.28 7766.05 97.88
19278 74.6205 7690.96 7742.58 98.40
19279 74.6243 7448.52 7723.33 97.03
19280 74.6280 7680.34 7709.03 98.34
19281 74.6318 7422.29 7699.00 96.44
19282 74.6355 7577.11 7693.96 97.27
19283 74.6393 7464.07 7693.73 97.21
19284 74.6430 7371.23 7698.42 96.00
19285 74.6468 7735.51 7708.44 99.14
19286 74.6506 7603.78 7723.79 97.65
19287 74.6543 7583.20 7743.98 96.88
19288 74.6581 7602.09 7770.12 98.86
19289 74.6618 7807.73 7800.86 100.22
19290 74.6656 7555.62 7837.66 97.25
19291 74.6693 7856.24 7879.50 99.41
19292 74.6730 7545.70 7924.62 97.24
19293 74.6768 7801.80 7974.53 99.65
19294 74.6806 8020.94 8026.83 100.34
19295 74.6843 8036.84 8078.40 100.68
19296 74.6881 8130.13 8129.56 100.77
19297 74.6918 8084.15 8174.99 101.29
19298 74.6956 8078.48 8214.12 101.27
19299 74.6994 8084.77 8242.97 101.31
19300 74.7031 8079.83 8259.96 101.31
19301 74.7069 8173.77 8266.31 101.56
19302 74.7106 8127.78 8263.68 101.90
19303 74.7144 8164.19 8255.12 102.10
19304 74.7182 8129.67 8244.29 101.78
19305 74.7219 8167.00 8234.78 102.00
19306 74.7258 7975.22 8228.71 99.97
19307 74.7294 8082.55 8228.04 100.91
19308 74.7333 7917.67 8233.57 100.01
19309 74.7371 8046.61 8245.29 100.91
19310 74.7408 8041.09 8261.68 101.28
19311 74.7445 8073.37 8281.59 100.84
19312 74.7483 8197.25 8301.19 102.14
19313 74.7521 8116.18 8317.81 101.66
19314 74.7558 8119.68 8326.52 100.18
19315 74.7596 8307.98 8324.19 104.84
19316 74.7634 8191.13 8307.95 102.85
19317 74.7671 8176.45 8278.26 101.82
19318 74.7709 8029.50 8235.05 100.15
19319 74.7746 8187.79 8183.31 101.55
19320 74.7784 7996.32 8123.85 100.73
19321 74.7822 8011.98 8061.33 101.18
19322 74.7859 7827.23 8000.18 99.60
19323 74.7896 7713.73 7939.34 98.42
19324 74.7934 7557.11 7883.30 97.23
19325 74.7971 7634.81 7830.11 97.92
19326 74.8009 7590.14 7781.81 96.77
19327 74.8046 7543.59 7739.64 96.56
19328 74.8084 7339.12 7701.36 96.23
19329 74.8121 7637.28 7668.88 97.97
19330 74.8159 7392.02 7642.76 96.39
19331 74.8197 7378.90 7618.09 96.68
19332 74.8234 7459.09 7597.61 97.12
19333 74.8272 7419.13 7579.79 96.65
19334 74.8309 7475.18 7565.09 97.09
19335 74.8347 7371.85 7552.31 96.56
19336 74.8385 7500.64 7541.47 98.33
19337 74.8422 7309.21 7532.44 95.87
19338 74.8460 7286.70 7524.46 95.81
19339 74.8497 7388.60 7517.70 96.38
19340 74.8536 7378.05 7511.60 95.21
19341 74.8574 7418.42 7506.20 97.24
19342 74.8611 7291.32 7501.48 97.30
19343 74.8649 7160.99 7497.10 94.80
19344 74.8686 7371.90 7493.21 95.90
19345 74.8723 7187.70 7489.54 94.65
19346 74.8762 7255.61 7486.14 95.22
19347 74.8799 7363.59 7483.08 95.95
19348 74.8837 7271.24 7480.14 95.31
19349 74.8874 7354.31 7477.46 95.98
19350 74.8912 7383.81 7474.87 96.39
19351 74.8950 7198.10 7472.44 95.21
19352 74.8987 7266.84 7470.19 95.46
19353 74.9025 7121.51 7468.01 95.16
19354 74.9062 7297.18 7465.99 95.98
19355 74.9100 7363.56 7464.02 95.70
19356 74.9137 7221.76 7462.14 95.83
19357 74.9174 7341.31 7460.39 96.25
19358 74.9212 7351.07 7458.67 96.18
19359 74.9249 7205.57 7457.07 95.10
19360 74.9287 7212.82 7455.49 95.29
19361 74.9325 7261.91 7453.97 95.50
19362 74.9362 7472.39 7452.54 97.41
19363 74.9400 7244.31 7451.13 95.72
19364 74.9437 7231.17 7449.80 96.13
19365 74.9475 7229.38 7448.48 95.71
19366 74.9513 7370.82 7447.20 96.19
19367 74.9550 7256.14 7446.00 94.35
19368 74.9588 7465.37 7444.79 98.71
19369 74.9625 7197.08 7464.63 96.28
19370 74.9663 7280.65 7463.66 95.56
19371 74.9702 7236.88 7462.73 95.14
19372 74.9738 7293.96 7461.84 95.17
19373 74.9777 7293.17 7460.97 95.85
19374 74.9814 7315.41 7460.14 95.95
19375 74.9852 7282.15 7459.31 95.60
19376 74.9890 7166.85 7458.51 94.96
19377 74.9927 7275.86 7457.75 96.15
19378 74.9965 7264.13 7456.99 95.77
19379 75.0002 7323.63 7456.27 95.76
19380 75.0040 7149.12 7455.55 94.83
19381 75.0077 7183.07 7454.87 95.34
19382 75.0115 7268.08 7454.19 95.95
19383 75.0153 7120.46 7453.52 95.12
19384 75.0190 7324.05 7452.89 97.00
19385 75.0228 7157.13 7452.25 95.23
19386 75.0265 7195.75 7451.65 95.22
19387 75.0303 7198.13 7451.05 95.46
19388 75.0340 7319.36 7450.46 95.84
19389 75.0378 7166.18 7449.90 96.24
19390 75.0415 7196.77 7449.33 94.94
19391 75.0452 7177.73 7448.80 94.81
19392 75.0490 7303.70 7458.32 96.49
19393 75.0528 7166.14 7457.88 94.10
19394 75.0565 7064.50 7457.45 94.64
19395 75.0603 7284.95 7457.03 97.89
19396 75.0640 7147.26 7456.64 95.01
19397 75.0678 7060.08 7456.24 93.76
19398 75.0716 7399.66 7455.85 96.39
19399 75.0753 7164.37 7455.49 94.88
19400 75.0791 7420.82 7460.17 97.31
19401 75.0828 7361.29 7459.86 96.69
19402 75.0866 7205.94 7459.56 95.51
19403 75.0904 7261.32 7459.28 95.84
19404 75.0941 7340.98 7459.01 96.40
19405 75.0980 7212.74 7458.74 95.14
19406 75.1016 7290.69 7458.49 96.06
19407 75.1055 7317.57 7458.25 96.22
19408 75.1093 7260.84 7458.01 95.98
19409 75.1130 7272.73 7457.80 95.90
19410 75.1167 7440.86 7457.58 96.28
19411 75.1205 7477.39 7457.39 97.59
19412 75.1243 7441.31 7457.20 96.99
19413 75.1281 7400.67 7457.02 95.89
19414 75.1318 7570.09 7456.85 97.24
19415 75.1356 7237.97 7456.69 95.79
19416 75.1393 7098.34 7456.55 94.50
19417 75.1431 7351.58 7456.41 95.40
19418 75.1469 7284.91 7456.29 95.84
19419 75.1506 7030.02 7456.17 93.55
19420 75.1544 7158.86 7456.07 93.89
19421 75.1581 7425.05 7455.98 98.00
19422 75.1618 7193.32 7455.90 96.25
19423 75.1656 7297.09 7455.83 95.41
19424 75.1693 7237.66 7455.77 95.24
19425 75.1731 7267.87 7455.72 95.63
19426 75.1768 7283.46 7455.69 95.75
19427 75.1806 7313.60 7455.66 96.24
19428 75.1844 7320.67 7455.65 95.88
19429 75.1881 7372.48 7455.65 95.53
19430 75.1919 7585.82 7455.66 98.56
19431 75.1956 7337.98 7455.69 96.32
19432 75.1994 7303.08 7455.72 96.06
19433 75.2032 7175.68 7455.77 95.27
19434 75.2069 7367.27 7455.83 95.63
19435 75.2107 7293.33 7455.91 95.62
19436 75.2144 7267.53 7456.00 95.83
19437 75.2182 7192.81 7456.09 95.40
19438 75.2219 7435.61 7456.21 96.80
19439 75.2258 7316.14 7456.34 95.64
19440 75.2296 7219.91 7456.49 95.12
19441 75.2333 7245.21 7456.64 95.65
19442 75.2371 7359.38 7456.82 96.51
19443 75.2408 7227.05 7457.01 94.84
19444 75.2445 7452.58 7457.21 97.11
19445 75.2484 7187.51 7457.43 94.91
19446 75.2521 7172.91 7457.67 95.03
19447 75.2559 7172.00 7457.92 93.71
19448 75.2596 7336.27 7458.19 97.93
19449 75.2634 7423.53 7458.48 98.19
19450 75.2672 7401.34 7458.79 96.71
19451 75.2709 7325.24 7459.10 95.31
19452 75.2747 7269.04 7459.45 94.90
19453 75.2784 7224.58 7459.74 95.58
19454 75.2822 7272.80 7460.13 95.92
19455 75.2859 7409.19 7460.53 96.86
19456 75.2896 7186.42 7460.94 94.66
19457 75.2934 7200.94 7461.39 95.24
19458 75.2971 7287.49 7461.84 96.12
19459 75.3009 7244.36 7462.33 95.82
19460 75.3047 7294.60 7462.84 96.05
19461 75.3084 7188.10 7463.36 94.79
19462 75.3122 7181.04 7463.92 94.82
19463 75.3159 7286.06 7464.48 95.79
19464 75.3197 7337.56 7465.09 96.34
19465 75.3235 7171.98 7465.72 94.81
19466 75.3272 7325.33 7466.36 96.18
19467 75.3310 7110.00 7467.05 94.22
19468 75.3347 7266.08 7467.74 95.82
19469 75.3385 7251.70 7468.49 96.39
19470 75.3422 7155.64 7469.23 94.83
19471 75.3460 7184.56 7470.04 95.73
19472 75.3499 7374.98 7470.87 96.26
19473 75.3536 7347.65 7471.71 95.59
19474 75.3574 7328.33 7472.50 95.80
19475 75.3611 7369.89 7473.40 98.02
19476 75.3649 7409.04 7474.37 97.02
19477 75.3687 7376.81 7475.37 95.99
19478 75.3723 7461.58 7476.39 96.36
19479 75.3762 7313.41 7477.46 95.39
19480 75.3799 7380.79 7478.55 96.87
19481 75.3837 7477.07 7479.71 97.20
19482 75.3875 7448.99 7480.91 96.82
19483 75.3912 7259.27 7482.12 95.61
19484 75.3950 7555.10 7483.41 97.68
19485 75.3987 7312.68 7484.70 96.31
19486 75.4025 7450.04 7486.09 96.96
19487 75.4062 7285.73 7487.48 95.31
19488 75.4100 7345.44 7488.96 96.24
19489 75.4137 7406.84 7490.49 96.32
19490 75.4174 7335.56 7492.04 96.45
19491 75.4212 7377.83 7493.68 96.44
19492 75.4249 7306.02 7495.34 96.35
19493 75.4287 7331.18 7497.10 96.44
19494 75.4325 7351.43 7498.92 96.61
19495 75.4362 7328.15 7500.77 96.15
19496 75.4400 7422.31 7502.72 96.76
19497 75.4437 7401.10 7504.69 96.61
19498 75.4475 7278.71 7506.79 96.30
19499 75.4513 7454.49 7508.97 97.80
19500 75.4550 7367.35 7511.15 95.78
19501 75.4588 7439.32 7513.49 98.16
19502 75.4625 7468.17 7515.84 98.92
19503 75.4663 7284.20 7518.34 96.06
19504 75.4702 7412.13 7520.94 96.02
19505 75.4738 7336.37 7523.56 95.88
19506 75.4777 7286.13 7526.34 95.33
19507 75.4814 7418.13 7529.16 96.45
19508 75.4852 7324.38 7532.15 96.66
19509 75.4890 7451.09 7535.26 97.43
19510 75.4927 7412.34 7538.40 96.98
19511 75.4965 7373.25 7541.75 97.03
19512 75.5002 7315.67 7544.77 96.66
19513 75.5040 7477.29 7548.37 97.64
19514 75.5077 7427.65 7552.03 97.58
19515 75.5115 7365.20 7555.92 96.67
19516 75.5153 7407.19 7559.98 97.36
19517 75.5190 7535.74 7564.07 98.09
19518 75.5228 7556.50 7568.45 98.30
19519 75.5265 7360.04 7572.88 96.73
19520 75.5303 7645.93 7577.62 98.72
19521 75.5340 7348.02 7582.55 96.19
19522 75.5378 7403.51 7587.56 97.94
19523 75.5415 7515.84 7592.92 97.89
19524 75.5452 7664.61 7598.36 99.23
19525 75.5490 7510.03 7604.18 98.23
19526 75.5528 7340.57 7610.26 96.23
19527 75.5565 7373.45 7616.45 96.21
19528 75.5603 7697.88 7623.09 101.42
19529 75.5640 7488.86 7629.85 98.25
19530 75.5678 7499.73 7637.11 97.78
19531 75.5715 7535.45 7644.52 97.65
19532 75.5753 7717.73 7652.48 98.95
19533 75.5791 7500.63 7660.86 97.46
19534 75.5828 7610.54 7669.39 98.29
19535 75.5866 7560.06 7678.62 98.52
19536 75.5903 7531.66 7688.05 98.44
19537 75.5941 7685.99 7698.26 99.02
19538 75.5980 7551.31 7709.02 98.41
19539 75.6016 7574.56 7720.07 98.44
19540 75.6055 7574.14 7732.05 98.31
19541 75.6092 7629.83 7744.39 98.14
19542 75.6130 7754.02 7757.80 98.96
19543 75.6167 7678.95 7772.04 98.69
19544 75.6205 7649.24 7786.29 98.68
19545 75.6243 7720.61 7802.43 99.77
19546 75.6280 7635.35 7819.19 98.73
19547 75.6318 7520.38 7837.60 97.15
19548 75.6355 7926.43 7856.87 100.85
19549 75.6393 7767.56 7878.18 100.23
19550 75.6431 7884.86 7901.35 100.10
19551 75.6468 7899.51 7925.88 100.92
19552 75.6506 7808.32 7953.60 100.33
19553 75.6543 7766.17 7983.39 99.29
19554 75.6581 7949.92 8017.62 100.83
19555 75.6618 7993.07 8056.16 101.66
19556 75.6656 8083.10 8098.85 102.00
19557 75.6693 8001.68 8149.06 100.77
19558 75.6730 8226.59 8205.57 101.83
19559 75.6768 8237.82 8272.90 103.21
19560 75.6805 8328.05 8349.43 102.56
19561 75.6843 8438.73 8440.52 103.17
19562 75.6881 8588.48 8547.65 105.44
19563 75.6918 8705.40 8669.08 105.42
19564 75.6956 8620.58 8813.12 105.19
19565 75.6993 8883.36 8974.31 107.57
19566 75.7031 9214.23 9162.39 109.41
19567 75.7069 9231.98 9374.72 109.68
19568 75.7106 9579.33 9603.83 111.87
19569 75.7144 9768.80 9862.12 113.18
19570 75.7181 9822.68 10132.20 113.56
19571 75.7219 10271.30 10425.50 116.62
19572 75.7258 10407.80 10726.50 117.45
19573 75.7294 10752.40 11018.10 119.42
19574 75.7333 10754.20 11301.80 118.78
19575 75.7370 11055.30 11547.60 120.42
19576 75.7408 11287.50 11750.30 123.02
19577 75.7445 11290.00 11884.40 122.79
19578 75.7483 11386.60 11946.10 123.76
19579 75.7521 10799.00 11929.10 119.54
19580 75.7558 10698.50 11844.00 118.14
19581 75.7596 10704.10 11701.00 120.08
19582 75.7633 10637.60 11524.80 120.26
19583 75.7671 10412.40 11324.10 117.48
19584 75.7708 10085.90 11124.00 114.57
19585 75.7746 9985.30 10926.60 114.39
19586 75.7784 9963.57 10746.20 114.00
19587 75.7821 10104.60 10594.00 115.45
19588 75.7859 10129.80 10465.50 114.44
19589 75.7896 9855.00 10371.30 113.24
19590 75.7934 9837.33 10308.50 113.15
19591 75.7971 10023.00 10281.90 114.82
19592 75.8008 10084.10 10292.40 115.39
19593 75.8046 10269.50 10342.80 116.42
19594 75.8083 10623.40 10433.10 118.36
19595 75.8121 10537.80 10571.70 118.39
19596 75.8158 10916.70 10756.70 120.24
19597 75.8196 11392.50 11004.30 122.04
19598 75.8234 11754.10 11319.20 125.15
19599 75.8271 12254.40 11701.10 128.49
19600 75.8309 12591.30 12181.90 130.25
19601 75.8346 13072.80 12750.50 132.09
19602 75.8384 14046.70 13451.20 140.10
19603 75.8422 14456.70 14287.20 140.90
19604 75.8459 15194.70 15241.50 146.22
19605 75.8497 16213.90 16382.70 150.40
19606 75.8534 17016.60 17654.10 154.31
19607 75.8572 18219.50 19134.90 160.95
19608 75.8609 20019.40 20737.70 174.16
19609 75.8648 21624.60 22546.10 178.41
19610 75.8686 23282.10 24488.10 184.02
19611 75.8723 26128.10 26475.80 199.64
19612 75.8761 28137.20 28554.60 208.47
19613 75.8798 30887.90 30542.00 221.24
19614 75.8836 33636.90 32438.80 234.10
19615 75.8873 34599.90 34018.80 236.51
19616 75.8911 36290.70 35243.20 244.17
19617 75.8949 36768.10 35943.60 245.50
19618 75.8986 36335.70 36059.50 243.84
19619 75.9024 35177.70 35596.20 239.74
19620 75.9061 34326.00 34647.20 234.79
19621 75.9099 32122.80 33274.00 227.27
19622 75.9137 30008.50 31642.70 215.21
19623 75.9174 28128.20 29932.70 208.63
19624 75.9212 26394.80 28170.60 202.25
19625 75.9249 24676.80 26532.90 194.18
19626 75.9286 23491.30 25002.70 188.70
19627 75.9324 21952.40 23704.10 179.23
19628 75.9361 21581.30 22602.70 177.88
19629 75.9399 20762.90 21755.30 176.43
19630 75.9436 20512.60 21183.30 173.43
19631 75.9474 19899.40 20858.00 170.88
19632 75.9511 20511.30 20788.50 173.74
19633 75.9549 20385.60 20956.40 172.41
19634 75.9587 21320.40 21343.40 176.62
19635 75.9624 21736.30 21901.10 182.80
19636 75.9662 22593.80 22617.00 184.56
19637 75.9699 23724.60 23404.50 188.87
19638 75.9737 24901.80 24240.20 193.12
19639 75.9774 25831.80 25011.50 199.26
19640 75.9812 26589.30 25684.40 202.60
19641 75.9850 26671.10 26168.80 203.12
19642 75.9887 26985.80 26419.20 204.78
19643 75.9926 27028.50 26435.70 204.35
19644 75.9962 26716.20 26232.00 203.02
19645 76.0001 26142.80 25829.40 199.71
19646 76.0038 25246.30 25281.80 196.25
19647 76.0076 24463.90 24588.20 192.68
19648 76.0114 23632.60 23776.70 189.06
19649 76.0151 22885.40 22887.40 185.13
19650 76.0189 22139.90 21879.60 181.80
19651 76.0226 20832.90 20827.90 176.41
19652 76.0264 19912.30 19704.20 171.35
19653 76.0301 18321.30 18597.00 162.90
19654 76.0339 17503.10 17481.50 157.23
19655 76.0377 16240.30 16413.20 151.91
19656 76.0414 15132.50 15441.10 146.48
19657 76.0452 14340.70 14520.90 142.23
19658 76.0489 13246.90 13711.40 134.65
19659 76.0527 12575.20 12965.90 129.69
19660 76.0564 11822.60 12324.90 124.13
19661 76.0602 11635.10 11745.90 126.53
19662 76.0639 11270.60 11243.50 121.72
19663 76.0676 10617.30 10819.70 118.11
19664 76.0714 10415.60 10445.10 116.09
19665 76.0751 10020.90 10131.60 114.15
19666 76.0789 9630.09 9855.97 112.39
19667 76.0826 9521.30 9625.64 110.43
19668 76.0864 9358.92 9422.75 109.89
19669 76.0902 9121.13 9248.26 108.93
19670 76.0939 9122.32 9100.97 108.61
19671 76.0977 8948.62 8969.29 107.81
19672 76.1014 8734.67 8856.62 105.92
19673 76.1052 8726.48 8754.38 106.43
19674 76.1090 8543.10 8663.20 105.04
19675 76.1127 8560.48 8583.62 105.55
19676 76.1165 8376.89 8509.48 102.30
19677 76.1202 8387.68 8443.90 103.66
19678 76.1240 8393.65 8382.04 103.89
19679 76.1277 8143.77 8326.75 101.94
19680 76.1316 8205.58 8274.12 102.21
19681 76.1354 8161.10 8225.43 101.27
19682 76.1391 8112.32 8181.26 102.45
19683 76.1429 7876.12 8138.99 99.86
19684 76.1466 7904.55 8100.46 99.80
19685 76.1504 8002.37 8063.35 101.32
19686 76.1541 7701.40 8029.51 98.50
19687 76.1579 7789.64 7996.75 98.74
19688 76.1616 7879.22 7966.73 102.58
19689 76.1654 7917.81 7937.68 100.73
19690 76.1692 7838.13 7910.27 100.17
19691 76.1729 7881.95 7884.99 100.13
19692 76.1767 7760.69 7860.44 98.98
19693 76.1804 7728.20 7837.75 99.16
19694 76.1842 7607.03 7815.66 98.15
19695 76.1879 7653.60 7795.19 98.43
19696 76.1917 7636.04 7775.22 98.31
19697 76.1954 7711.07 7756.19 98.49
19698 76.1992 7652.94 7738.57 98.26
19699 76.2029 7667.39 7721.26 98.73
19700 76.2066 7684.65 7705.20 98.16
19701 76.2104 7629.61 7689.40 98.19
19702 76.2141 7535.45 7674.70 96.89
19703 76.2179 7471.52 7660.25 97.05
19704 76.2217 7649.70 7646.42 98.29
19705 76.2254 7822.25 7633.49 99.40
19706 76.2292 7653.55 7620.76 98.22
19707 76.2329 7574.00 7608.85 98.05
19708 76.2367 7424.50 7597.10 96.16
19709 76.2404 7622.47 7586.08 98.72
19710 76.2442 7528.10 7575.21 97.38
19711 76.2480 7346.18 7564.74 96.10
19712 76.2517 7531.48 7554.91 98.04
19713 76.2555 7357.25 7545.18 95.50
19714 76.2592 7652.06 7536.04 98.73
19715 76.2630 7476.96 7526.98 98.72
19716 76.2667 7392.80 7518.44 97.28
19717 76.2706 7456.51 7509.99 96.02
19718 76.2744 7454.11 7501.79 96.54
19719 76.2781 7461.29 7494.10 96.92
19720 76.2819 7515.61 7486.43 97.44
19721 76.2856 7416.18 7479.21 96.78
19722 76.2894 7419.55 7471.99 96.59
19723 76.2931 7332.58 7465.70 95.75
19724 76.2969 7426.53 7458.93 96.92
19725 76.3007 7377.00 7453.26 96.40
19726 76.3044 7320.65 7447.06 96.51
19727 76.3082 7469.86 7440.89 97.22
19728 76.3119 7597.75 7435.04 97.73
19729 76.3157 7200.06 7429.21 94.79
19730 76.3194 7532.21 7423.69 97.50
19731 76.3232 7422.74 7418.17 96.02
19732 76.3269 7315.54 7412.93 96.08
19733 76.3307 7392.38 7407.71 96.11
19734 76.3344 7319.31 7402.61 95.52
19735 76.3382 7436.92 7397.78 96.98
19736 76.3419 7367.00 7392.93 96.43
19737 76.3456 7286.97 7388.34 96.20
19738 76.3494 7618.73 7383.74 98.55
19739 76.3531 7324.15 7379.37 95.94
19740 76.3569 7306.42 7374.98 94.51
19741 76.3607 7490.36 7370.70 99.33
19742 76.3644 7333.24 7366.63 96.67
19743 76.3682 7277.64 7362.55 95.16
19744 76.3719 7466.20 7358.66 96.03
19745 76.3757 7289.21 7354.76 95.70
19746 76.3794 7273.98 7351.04 95.44
19747 76.3832 7315.42 7347.31 96.02
19748 76.3870 7548.45 7343.66 97.50
19749 76.3907 7449.19 7340.17 96.27
19750 76.3945 7375.88 7336.68 95.89
19751 76.3982 7285.74 7333.33 95.91
19752 76.4020 7362.83 7329.98 96.44
19753 76.4057 7414.22 7326.77 96.47
19754 76.4096 7283.42 7323.54 95.79
19755 76.4133 7372.93 7320.46 96.45
19756 76.4171 7236.72 7317.36 95.64
19757 76.4209 7381.00 7314.32 96.85
19758 76.4246 7355.75 7311.41 97.39
19759 76.4284 7363.09 7308.47 97.02
19760 76.4320 7356.10 7305.68 96.45
19761 76.4359 7318.71 7302.85 96.63
19762 76.4396 7497.21 7300.15 97.84
19763 76.4434 7231.84 7297.43 96.07
19764 76.4471 7482.99 7294.82 97.78
19765 76.4509 7392.22 7292.19 96.88
19766 76.4547 7310.86 7289.61 96.07
19767 76.4584 7158.84 7287.14 93.99
19768 76.4622 7451.93 7284.64 99.09
19769 76.4659 7352.47 7282.25 97.25
19770 76.4697 7445.57 7279.83 96.95
19771 76.4734 7320.56 7277.52 94.91
19772 76.4771 7330.59 7275.18 96.25
19773 76.4809 7343.27 7272.88 96.46
19774 76.4846 7382.40 7270.67 96.14
19775 76.4884 7360.96 7268.45 96.67
19776 76.4921 7319.88 7266.31 95.68
19777 76.4959 7213.81 7264.15 95.35
19778 76.4996 7322.79 7262.07 96.46
19779 76.5034 7285.68 7259.98 94.17
19780 76.5071 7216.42 7257.96 94.88
19781 76.5109 7192.01 7255.93 94.97
19782 76.5147 7250.54 7253.92 95.62
19783 76.5184 7250.04 7252.00 95.59
19784 76.5222 7168.30 7250.05 95.07
19785 76.5259 7201.79 7248.18 96.66
19786 76.5297 7381.44 7246.29 95.35
19787 76.5334 7220.45 7244.47 94.36
19788 76.5372 7359.90 7242.63 94.88
19789 76.5409 7391.09 7240.86 96.36
19790 76.5447 7504.14 7239.08 96.58
19791 76.5486 7336.07 7237.31 95.50
19792 76.5523 7420.30 7235.62 95.99
19793 76.5561 7222.81 7233.90 94.07
19794 76.5598 7193.81 7232.25 94.01
19795 76.5636 7292.12 7230.58 96.69
19796 76.5673 7310.65 7228.98 95.28
19797 76.5711 7083.21 7227.35 93.02
19798 76.5748 7191.18 7225.79 93.62
19799 76.5786 7262.53 7224.21 94.50
19800 76.5823 7316.09 7222.69 95.17
19801 76.5861 7297.11 7221.15 94.86
19802 76.5899 7215.96 7219.64 94.38
19803 76.5936 7263.40 7218.18 94.61
19804 76.5974 7344.93 7216.71 95.19
19805 76.6011 7298.27 7215.29 95.39
19806 76.6049 7375.44 7213.86 95.94
19807 76.6086 7304.64 7212.49 95.11
19808 76.6124 7137.81 7211.10 93.61
19809 76.6161 7130.27 7209.77 93.48
19810 76.6199 7275.13 7208.42 94.72
19811 76.6236 7226.27 7207.10 93.97
19812 76.6273 7287.52 7205.83 95.02
19813 76.6311 7197.92 7204.56 94.10
19814 76.6348 7243.24 7203.35 94.51
19815 76.6386 7168.58 7202.13 93.95
19816 76.6423 7083.08 7200.97 94.16
19817 76.6461 7049.78 7199.82 93.85
19818 76.6498 7327.48 7198.73 95.63
19819 76.6536 7359.47 7197.65 95.39
19820 76.6574 7078.40 7196.62 92.45
19821 76.6611 7340.79 7195.67 95.96
19822 76.6649 7235.46 7194.75 95.85
19823 76.6686 7187.03 7193.91 94.45
19824 76.6724 7270.14 7193.11 94.73
19825 76.6761 7131.90 7192.40 93.42
19826 76.6799 7330.07 7191.74 95.67
19827 76.6836 7048.17 7188.39 92.94
19828 76.6874 7139.74 7187.89 93.85
19829 76.6913 7273.35 7187.46 94.96
19830 76.6949 7157.00 7187.10 93.64
19831 76.6988 7269.08 7186.76 94.98
19832 76.7025 7384.06 7186.46 96.19
19833 76.7063 7292.13 7186.14 95.01
19834 76.7100 7279.54 7185.79 94.78
19835 76.7138 7395.71 7185.36 95.58
19836 76.7175 7352.81 7184.81 95.59
19837 76.7213 6989.28 7184.10 93.05
19838 76.7250 7172.26 7183.24 94.33
19839 76.7288 7270.30 7182.20 94.78
19840 76.7326 7259.20 7181.02 94.15
19841 76.7363 7331.86 7179.78 94.90
19842 76.7401 7220.35 7178.45 95.01
19843 76.7438 7218.08 7177.14 94.06
19844 76.7476 7262.27 7175.82 95.35
19845 76.7513 7242.64 7174.57 94.67
19846 76.7551 7384.55 7173.35 95.52
19847 76.7588 7187.29 7172.24 93.28
19848 76.7626 7465.49 7171.18 98.16
19849 76.7663 7301.27 7170.23 96.01
19850 76.7701 7289.94 7169.35 95.61
19851 76.7738 7182.36 7168.56 93.40
19852 76.7775 7054.26 7167.89 93.44
19853 76.7813 7216.58 7167.28 95.07
19854 76.7850 7317.36 7166.78 95.03
19855 76.7888 7140.90 7166.36 93.87
19856 76.7925 7298.07 7166.04 95.22
19857 76.7963 7126.21 7165.80 93.88
19858 76.8000 7239.94 7165.65 95.10
19859 76.8038 7165.44 7165.60 94.11
19860 76.8075 7375.99 7165.65 95.45
19861 76.8113 7119.08 7165.82 93.95
19862 76.8151 7236.12 7166.11 94.64
19863 76.8188 7260.17 7166.53 94.83
19864 76.8226 7313.00 7167.11 94.51
19865 76.8263 7215.22 7167.86 94.73
19866 76.8301 7258.61 7168.82 94.79
19867 76.8338 7256.02 7149.07 94.65
19868 76.8376 7210.72 7150.70 94.43
19869 76.8413 7343.04 7152.58 96.33
19870 76.8452 7208.00 7154.84 94.55
19871 76.8488 7296.23 7157.42 95.27
19872 76.8527 7292.40 7160.48 95.52
19873 76.8565 7273.03 7164.00 94.51
19874 76.8602 7283.16 7167.93 94.65
19875 76.8640 7358.59 7172.50 96.85
19876 76.8677 7334.73 7177.51 96.02
19877 76.8715 7321.36 7183.26 95.15
19878 76.8752 7260.98 7189.45 94.12
19879 76.8790 7327.11 7196.42 95.13
19880 76.8827 7331.62 7203.80 95.26
19881 76.8865 7445.24 7211.92 96.73
19882 76.8902 7396.26 7220.33 95.71
19883 76.8940 7374.32 7229.41 96.43
19884 76.8977 7612.62 7238.65 98.47
19885 76.9015 7373.44 7248.65 96.28
19886 76.9052 7556.24 7259.00 97.12
19887 76.9090 7410.67 7270.61 96.60
19888 76.9128 7488.88 7283.58 96.70
19889 76.9165 7443.74 7298.00 96.08
19890 76.9202 7489.95 7315.08 97.07
19891 76.9240 7489.14 7334.39 97.03
19892 76.9277 7662.35 7347.24 97.67
19893 76.9314 7693.71 7372.85 97.62
19894 76.9352 7659.02 7402.59 97.75
19895 76.9389 7740.33 7434.99 98.89
19896 76.9427 7819.79 7471.72 100.13
19897 76.9464 7709.21 7510.91 98.57
19898 76.9502 7838.33 7554.57 99.47
19899 76.9539 7794.17 7600.51 99.28
19900 76.9577 7918.12 7645.92 98.65
19901 76.9615 8074.72 7699.28 101.81
19902 76.9652 8201.71 7753.18 103.16
19903 76.9690 8065.72 7808.82 101.07
19904 76.9727 8121.91 7861.08 100.84
19905 76.9765 8269.79 7909.49 102.29
19906 76.9802 8172.78 7947.95 101.07
19907 76.9840 8155.73 7974.55 101.49
19908 76.9877 8297.38 7984.84 102.10
19909 76.9895 8076.98 7983.68 99.84
19910 76.9933 8236.85 7967.85 102.24
19911 76.9970 7862.09 7936.10 99.90
19912 77.0008 8170.18 7889.69 102.30
19913 77.0045 7935.00 7834.65 100.62
19914 77.0083 8055.73 7772.08 101.56
19915 77.0120 7755.12 7708.50 100.83
19916 77.0158 7994.69 7643.44 99.79
19917 77.0197 7675.71 7580.63 97.73
19918 77.0234 7722.80 7522.96 97.57
19919 77.0272 7675.58 7468.37 98.51
19920 77.0309 7678.47 7420.10 97.93
19921 77.0347 7642.53 7375.86 97.81
19922 77.0384 7700.70 7337.86 98.10
19923 77.0422 7494.15 7303.88 96.12
19924 77.0459 7554.74 7275.49 96.71
19925 77.0497 7529.30 7250.59 98.53
19926 77.0534 7496.60 7230.14 96.72
19927 77.0572 7388.04 7212.56 95.33
19928 77.0610 7486.46 7197.93 95.85
19929 77.0647 7409.74 7186.14 95.66
19930 77.0685 7493.67 7176.14 96.55
19931 77.0722 7334.12 7168.11 95.24
19932 77.0760 7441.13 7161.33 96.11
19933 77.0797 7453.96 7155.90 96.09
19934 77.0835 7316.49 7151.34 95.10
19935 77.0872 7375.06 7147.72 96.05
19936 77.0910 7508.81 7144.73 97.01
19937 77.0947 7203.18 7142.37 94.48
19938 77.0984 7486.95 7140.61 96.23
19939 77.1022 7393.04 7139.29 95.48
19940 77.1059 7349.29 7138.46 95.36
19941 77.1097 7472.65 7138.05 95.84
19942 77.1134 7422.94 7138.05 96.10
19943 77.1172 7185.77 7138.48 94.11
19944 77.1209 7240.94 7139.30 94.60
19945 77.1247 7408.93 7140.58 95.79
19946 77.1285 7381.04 7142.31 96.45
19947 77.1322 7289.55 7144.47 95.72
19948 77.1360 7449.93 7147.21 96.62
19949 77.1397 7434.90 7150.43 96.04
19950 77.1435 7444.34 7154.40 95.18
19951 77.1472 7423.00 7158.96 96.67
19952 77.1510 7357.62 7164.51 96.85
19953 77.1547 7258.45 7170.89 95.07
19954 77.1585 7447.26 7178.67 96.12
19955 77.1624 7440.06 7187.92 95.75
19956 77.1661 7492.20 7198.69 96.95
19957 77.1699 7436.97 7211.91 95.86
19958 77.1736 7569.96 7227.41 97.06
19959 77.1774 7452.17 7246.56 96.36
19960 77.1811 7549.25 7269.04 96.56
19961 77.1848 7547.55 7296.79 97.09
19962 77.1886 7802.97 7329.23 99.30
19963 77.1924 7596.46 7369.02 97.30
19964 77.1961 7660.40 7414.91 97.61
19965 77.1999 7641.47 7470.24 97.44
19966 77.2037 7915.35 7534.76 99.70
19967 77.2074 7891.05 7607.16 99.65
19968 77.2112 7960.89 7691.61 100.08
19969 77.2149 7919.50 7783.95 99.51
19970 77.2187 8285.15 7888.60 101.46
19971 77.2194 8118.28 7908.83 100.96
19972 77.2231 8258.89 8021.10 101.69
19973 77.2269 8515.97 8143.40 104.23
19974 77.2307 8982.83 8269.55 107.07
19975 77.2344 8914.50 8392.46 106.95
19976 77.2382 8994.36 8513.04 106.92
19977 77.2419 9308.96 8618.72 110.14
19978 77.2457 9391.93 8707.50 109.96
19979 77.2494 9544.25 8767.85 111.39
19980 77.2532 9625.07 8804.14 111.23
19981 77.2569 9402.10 8797.90 108.82
19982 77.2607 9220.77 8756.20 109.69
19983 77.2644 9245.25 8685.27 110.25
19984 77.2682 9064.45 8587.36 108.15
19985 77.2719 8858.23 8475.41 106.11
19986 77.2757 8718.27 8350.20 104.94
19987 77.2794 8408.42 8225.10 103.40
19988 77.2831 8354.94 8097.75 103.07
19989 77.2869 8048.27 7975.83 101.16
19990 77.2906 8155.23 7864.43 102.04
19991 77.2944 7923.51 7759.35 100.58
19992 77.2981 7894.95 7666.68 100.39
19993 77.3019 7808.15 7581.91 99.23
19994 77.3056 7801.47 7509.15 99.60
19995 77.3094 7667.70 7444.17 98.39
19996 77.3131 7681.33 7389.57 98.41
19997 77.3169 7646.40 7341.68 97.89
19998 77.3206 7730.77 7302.04 98.89
19999 77.3244 7443.08 7267.66 96.97
20000 77.3281 7432.85 7239.41 97.31
20001 77.3319 7460.13 7228.79 97.19
20002 77.3357 7400.92 7208.30 96.63
20003 77.3394 7420.87 7191.38 97.23
20004 77.3432 7453.55 7176.56 97.02
20005 77.3469 7607.14 7164.16 98.94
20006 77.3508 7359.82 7153.11 96.82
20007 77.3544 7347.53 7143.69 96.25
20008 77.3583 7236.06 7135.14 94.15
20009 77.3620 7413.47 7127.71 98.11
20010 77.3658 7301.81 7120.85 96.61
20011 77.3695 7518.04 7114.79 97.33
20012 77.3733 7344.87 7109.13 96.25
20013 77.3770 7297.03 7104.06 95.07
20014 77.3808 7406.35 7099.27 95.55
20015 77.3845 7165.94 7094.96 95.46
20016 77.3883 7352.23 7090.84 96.29
20017 77.3920 7344.83 7087.13 96.10
20018 77.3958 7274.40 7083.56 95.89
20019 77.3996 7422.12 7080.23 96.65
20020 77.4033 7393.33 7077.19 96.18
20021 77.4071 7317.48 7074.27 96.22
20022 77.4108 7246.53 7071.59 95.63
20023 77.4146 7353.28 7069.00 96.40
20024 77.4183 7266.21 7066.62 96.10
20025 77.4221 7429.72 7064.31 96.83
20026 77.4258 7360.32 7062.19 95.93
20027 77.4296 7476.02 7060.12 96.86
20028 77.4333 7424.54 7058.21 97.00
20029 77.4370 7232.82 7056.35 95.80
20030 77.4408 7435.89 7054.59 97.87
20031 77.4445 7210.67 7052.95 95.29
20032 77.4483 7250.40 7064.50 96.04
20033 77.4520 7191.82 7063.11 95.64
20034 77.4558 7218.27 7061.76 94.80
20035 77.4595 7358.99 7060.51 96.51
20036 77.4633 7399.12 7059.29 98.61
20037 77.4670 7384.93 7058.16 97.46
20038 77.4708 7238.52 7057.05 95.17
20039 77.4745 7258.53 7056.03 95.32
20040 77.4783 7295.64 7055.02 95.78
20041 77.4820 7242.54 7054.10 94.98
20042 77.4858 7357.46 7068.35 96.30
20043 77.4896 7306.38 7067.60 95.94
20044 77.4933 7323.48 7066.91 96.16
20045 77.4971 7323.53 7066.25 95.87
20046 77.5008 7440.09 7065.64 97.04
20047 77.5046 7338.22 7065.05 96.42
20048 77.5083 7350.85 7079.67 96.44
20049 77.5122 7455.81 7079.27 97.39
20050 77.5158 7181.97 7078.91 95.48
20051 77.5197 7309.77 7078.58 95.92
20052 77.5234 7450.46 7078.29 97.77
20053 77.5272 7092.98 7078.02 94.76
20054 77.5310 7325.19 7077.78 96.22
20055 77.5347 7285.80 7077.58 95.94
20056 77.5385 7552.83 7077.40 98.50
20057 77.5422 7349.01 7077.25 97.38
20058 77.5460 7328.80 7077.13 97.01
20059 77.5497 7213.42 7077.04 95.83
20060 77.5535 7286.03 7076.97 95.94
20061 77.5572 7093.89 7076.93 93.21
20062 77.5610 7484.43 7076.91 99.24
20063 77.5647 7096.79 7076.92 95.50
20064 77.5685 7420.43 7076.95 96.78
20065 77.5723 7252.59 7077.01 94.45
20066 77.5760 7283.82 7077.09 95.66
20067 77.5798 7463.88 7077.20 96.79
20068 77.5835 7172.96 7077.33 95.77
20069 77.5872 7206.77 7077.49 95.36
20070 77.5910 7368.26 7077.67 97.01
20071 77.5947 7332.49 7077.87 96.90
20072 77.5984 7211.65 7078.10 95.59
20073 77.6022 7395.36 7078.35 97.40
20074 77.6059 7289.66 7078.62 95.84
20075 77.6097 7173.33 7078.92 95.47
20076 77.6135 7268.58 7079.24 96.12
20077 77.6172 7270.12 7079.58 96.43
20078 77.6210 7307.62 7079.96 96.26
20079 77.6247 7340.87 7080.34 97.11
20080 77.6285 7308.07 7080.76 96.36
20081 77.6322 7181.98 7081.20 95.18
20082 77.6360 7133.55 7081.67 94.09
20083 77.6397 7074.25 7082.15 94.63
20084 77.6435 7236.87 7082.67 95.20
20085 77.6473 7256.87 7083.21 95.94
20086 77.6510 7256.55 7083.77 95.89
20087 77.6548 7231.96 7084.36 94.66
20088 77.6585 7070.83 7084.97 93.31
20089 77.6624 7339.42 7085.62 98.38
20090 77.6736 7226.91 7087.68 95.29
20091 77.6774 7217.84 7088.43 96.14
20092 77.6811 7183.55 7089.20 95.14
20093 77.6848 7159.91 7090.01 93.69
20094 77.6887 7179.87 7090.85 94.58
20095 77.6924 7305.66 7091.70 95.36
20096 77.6962 7237.79 7092.60 95.27
20097 77.6999 7326.38 7093.51 96.06
20098 77.7037 7347.98 7094.47 96.17
20099 77.7074 7272.04 7095.43 95.47
20100 77.7112 7217.25 7096.46 95.17
20101 77.7149 7250.96 7097.49 94.83
20102 77.7187 7322.35 7098.58 95.98
20103 77.7225 7183.04 7099.70 95.19
20104 77.7262 7384.06 7100.83 96.48
20105 77.7299 7283.33 7102.03 95.75
20106 77.7337 7307.82 7103.22 95.86
20107 77.7374 7276.74 7104.49 94.97
20108 77.7411 7441.09 7105.76 97.04
20109 77.7449 7264.97 7107.10 94.99
20110 77.7486 7187.66 7108.44 95.06
20111 77.7524 7292.78 7109.86 95.66
20112 77.7562 7283.15 7111.32 94.38
20113 77.7599 7346.67 7112.79 95.27
20114 77.7637 7539.63 7114.33 99.47
20115 77.7674 7186.54 7115.88 95.28
20116 77.7712 7258.66 7117.52 95.26
20117 77.7749 7228.58 7119.16 95.17
20118 77.7787 7279.52 7120.88 95.67
20119 77.7824 7299.47 7122.61 94.76
20120 77.7862 7459.05 7124.44 96.58
20121 77.7900 7224.48 7126.32 95.67
20122 77.7937 7254.24 7128.20 95.17
20123 77.7975 7209.74 7130.18 95.34
20124 77.8012 7180.02 7132.16 95.41
20125 77.8051 7331.59 7134.26 95.50
20126 77.8087 7234.52 7136.35 94.17
20127 77.8126 7231.13 7138.56 95.84
20128 77.8163 7214.08 7140.77 95.27
20129 77.8201 7387.64 7143.11 96.76
20130 77.8239 7352.56 7145.51 95.27
20131 77.8276 7486.08 7147.91 97.14
20132 77.8314 7491.62 7150.45 96.95
20133 77.8351 7326.75 7152.99 95.00
20134 77.8389 7456.69 7155.67 96.75
20135 77.8426 7428.83 7158.35 96.48
20136 77.8464 7647.17 7161.18 98.60
20137 77.8501 7514.96 7164.01 98.02
20138 77.8539 7619.46 7166.97 97.80
20139 77.8577 7592.86 7170.06 95.65
20140 77.8614 7501.57 7173.13 99.26
20141 77.8652 7514.00 7176.40 97.53
20142 77.8689 7272.64 7179.65 95.78
20143 77.8727 7399.51 7183.11 96.51
20144 77.8764 7642.38 7186.55 97.43
20145 77.8801 7464.13 7190.21 96.88
20146 77.8839 7579.18 7193.86 97.60
20147 77.8876 7548.24 7197.73 97.87
20148 77.8914 7538.32 7201.71 97.89
20149 77.8951 7348.17 7205.71 96.56
20150 77.8989 7582.54 7209.93 98.14
20151 77.9026 7585.95 7214.10 98.26
20152 77.9064 7447.57 7218.58 96.91
20153 77.9101 7678.79 7223.08 98.87
20154 77.9139 7543.71 7227.84 97.82
20155 77.9177 7540.38 7232.75 97.46
20156 77.9214 7664.59 7237.69 99.07
20157 77.9252 7466.98 7242.91 97.08
20158 77.9289 7586.48 7248.16 97.81
20159 77.9327 7433.54 7253.73 96.88
20160 77.9364 7518.47 7259.32 97.11
20161 77.9402 7666.37 7265.25 98.74
20162 77.9439 7584.03 7270.55 96.96
20163 77.9477 7647.93 7276.88 99.01
20164 77.9516 7579.33 7283.44 97.70
20165 77.9553 7457.66 7290.03 97.04
20166 77.9591 7654.06 7297.04 96.47
20167 77.9628 7536.17 7304.09 98.86
20168 77.9666 7725.27 7311.60 98.79
20169 77.9703 7515.07 7319.15 97.39
20170 77.9741 7552.43 7327.21 97.58
20171 77.9778 7728.07 7335.30 98.04
20172 77.9816 7683.50 7343.97 98.85
20173 77.9854 7685.69 7352.93 98.48
20174 77.9891 7620.20 7361.99 97.43
20175 77.9929 7699.52 7371.64 99.08
20176 77.9966 7729.10 7381.41 99.42
20177 78.0004 7633.62 7391.82 98.76
20178 78.0041 7633.97 7402.38 98.70
20179 78.0079 7665.87 7413.64 98.65
20180 78.0117 7813.58 7425.37 99.35
20181 78.0154 7760.53 7437.28 99.13
20182 78.0191 7631.65 7450.00 98.66
20183 78.0229 7655.43 7462.95 98.66
20184 78.0266 7686.06 7476.83 98.56
20185 78.0303 7680.65 7490.90 98.87
20186 78.0341 7834.63 7506.05 99.50
20187 78.0379 7821.71 7521.87 99.36
20188 78.0416 7895.99 7538.00 100.85
20189 78.0454 8007.65 7555.35 101.78
20190 78.0491 7971.31 7573.07 101.36
20191 78.0529 7885.16 7592.15 100.41
20192 78.0566 7947.94 7611.69 100.15
20193 78.0604 8027.89 7632.76 101.26
20194 78.0642 8269.18 7654.96 104.28
20195 78.0679 7801.61 7677.75 99.91
20196 78.0717 8110.68 7702.42 101.36
20197 78.0754 8063.37 7727.81 101.29
20198 78.0792 8118.45 7755.36 101.51
20199 78.0829 8243.32 7783.80 103.02
20200 78.0867 8091.40 7814.74 101.95
20201 78.0904 8423.12 7846.79 104.40
20202 78.0943 8234.82 7881.78 102.27
20203 78.0981 8464.18 7919.14 104.70
20204 78.1018 8430.02 7958.08 104.47
20205 78.1056 8700.44 8000.99 106.07
20206 78.1093 8463.77 8045.85 104.30
20207 78.1131 8806.40 8095.84 106.99
20208 78.1167 8695.06 8148.36 105.94
20209 78.1206 8756.30 8207.62 105.79
20210 78.1244 8938.88 8272.60 107.45
20211 78.1281 9234.84 8342.71 109.91
20212 78.1319 9129.84 8422.96 108.65
20213 78.1356 9555.40 8510.96 111.56
20214 78.1394 9602.65 8613.34 111.73
20215 78.1431 9697.53 8727.40 112.38
20216 78.1469 9944.58 8862.04 114.57
20217 78.1507 10047.30 9018.06 115.01
20218 78.1544 10213.60 9194.63 116.05
20219 78.1581 10705.20 9405.26 118.05
20220 78.1618 11058.50 9643.89 123.23
20221 78.1656 11136.30 9927.74 122.12
20222 78.1693 11394.80 10247.20 122.81
20223 78.1731 11849.60 10623.20 125.09
20224 78.1769 12081.80 11052.80 127.12
20225 78.1806 12584.10 11523.70 130.16
20226 78.1844 13177.30 12065.00 133.45
20227 78.1881 13730.20 12645.00 136.83
20228 78.1919 14458.50 13295.10 139.91
20229 78.1956 15265.80 13971.60 145.01
20230 78.1994 15943.20 14704.10 148.85
20231 78.2032 16759.10 15455.50 153.63
20232 78.2069 17712.80 16185.60 158.21
20233 78.2107 18497.90 16902.60 162.56
20234 78.2144 18927.20 17537.70 164.99
20235 78.2182 19111.00 18085.90 164.30
20236 78.2219 19219.20 18490.40 165.85
20237 78.2258 18920.60 18752.10 164.69
20238 78.2296 19122.40 18858.70 166.05
20239 78.2333 19146.30 18833.70 164.62
20240 78.2371 18726.10 18713.80 162.91
20241 78.2408 18683.60 18550.70 164.46
20242 78.2445 18202.30 18384.70 160.51
20243 78.2483 18228.20 18267.00 162.26
20244 78.2521 18024.70 18228.80 160.01
20245 78.2559 18396.70 18304.20 161.02
20246 78.2596 18310.50 18506.90 159.77
20247 78.2634 18978.10 18862.70 168.29
20248 78.2671 19145.20 19358.50 166.24
20249 78.2709 19713.90 20019.30 168.22
20250 78.2746 20718.70 20803.30 172.22
20251 78.2784 21703.00 21732.80 177.70
20252 78.2822 23016.40 22760.10 184.57
20253 78.2859 24244.00 23815.10 191.40
20254 78.2896 25278.00 24896.70 195.82
20255 78.2934 25901.10 25883.00 196.93
20256 78.2971 27077.30 26744.90 204.02
20257 78.3008 27553.90 27360.60 203.64
20258 78.3046 27539.30 27693.20 205.24
20259 78.3084 26942.10 27682.80 202.95
20260 78.3121 25925.30 27340.90 198.06
20261 78.3159 24770.90 26687.00 192.72
20262 78.3196 24344.60 25816.80 191.17
20263 78.3234 22698.00 24762.90 183.26
20264 78.3271 21937.80 23652.30 179.89
20265 78.3309 20990.80 22494.20 174.37
20266 78.3347 19893.10 21369.40 169.39
20267 78.3384 19168.10 20350.50 164.91
20268 78.3422 18922.10 19407.60 165.28
20269 78.3459 18020.10 18615.00 159.69
20270 78.3497 17918.90 17945.80 159.61
20271 78.3534 17549.20 17445.10 158.33
20272 78.3572 17477.40 17095.20 155.73
20273 78.3611 17735.60 16917.80 159.50
20274 78.3648 17909.90 16915.50 160.87
20275 78.3686 17967.50 17092.10 159.38
20276 78.3723 18558.00 17442.00 160.86
20277 78.3761 18854.20 17986.20 164.18
20278 78.3799 19759.50 18723.20 169.80
20279 78.3836 20608.10 19622.10 173.63
20280 78.3874 21744.40 20737.40 178.43
20281 78.3911 23192.20 22003.10 184.17
20282 78.3949 24817.30 23488.60 193.40
20283 78.3986 26263.80 25097.80 199.14
20284 78.4024 28450.60 26907.00 209.97
20285 78.4062 30638.30 28837.40 218.49
20286 78.4099 32851.30 30797.90 227.91
20287 78.4137 35354.40 32836.10 238.97
20288 78.4174 37862.90 34789.90 248.91
20289 78.4212 38766.10 36701.00 249.66
20290 78.4249 40808.70 38430.50 262.25
20291 78.4286 41933.00 40049.60 263.82
20292 78.4324 42476.90 41523.00 267.18
20293 78.4361 43886.20 42850.60 268.33
20294 78.4399 44465.80 44138.30 275.42
20295 78.4436 46622.00 45345.30 281.32
20296 78.4474 47193.50 46532.80 286.32
20297 78.4511 48836.10 47610.00 290.58
20298 78.4549 49955.50 48573.60 296.46
20299 78.4587 51177.20 49320.90 296.94
20300 78.4624 52880.60 49768.80 310.97
20301 78.4662 53438.00 49888.40 308.83
20302 78.4699 52885.10 49639.90 302.32
20303 78.4737 52943.70 48991.70 305.15
20304 78.4775 51566.00 47942.00 301.76
20305 78.4812 50583.10 46534.70 296.99
20306 78.4850 48724.10 44716.00 291.45
20307 78.4887 46371.60 42617.80 282.52
20308 78.4926 43249.10 40200.30 270.35
20309 78.4962 39665.10 37670.30 256.55
20310 78.5001 36857.90 34992.60 245.54
20311 78.5039 32992.60 32321.70 229.32
20312 78.5076 30277.80 29796.50 217.35
20313 78.5114 27382.20 27337.20 205.18
20314 78.5151 24997.80 25115.60 194.18
20315 78.5189 23040.50 23021.80 184.14
20316 78.5226 21372.90 21181.60 176.81
20317 78.5264 19632.80 19496.20 169.04
20318 78.5302 18264.20 18006.60 161.58
20319 78.5339 16897.60 16739.30 154.84
20320 78.5377 16035.60 15605.30 149.78
20321 78.5414 14890.70 14654.20 144.39
20322 78.5452 14237.80 13812.70 139.04
20323 78.5490 13512.70 13095.10 135.45
20324 78.5527 12988.70 12497.40 132.85
20325 78.5564 12404.90 11973.50 128.81
20326 78.5602 11992.30 11536.50 125.14
20327 78.5639 11514.60 11151.60 127.29
20328 78.5676 11181.40 10827.80 122.75
20329 78.5714 10862.40 10539.40 119.42
20330 78.5752 10515.40 10287.50 117.27
20331 78.5789 10133.40 10071.20 115.51
20332 78.5827 10033.60 9874.00 114.55
20333 78.5864 9951.80 9701.94 112.53
20334 78.5902 9521.78 9542.79 111.28
20335 78.5940 9416.82 9398.31 110.52
20336 78.5977 9441.70 9270.23 110.86
20337 78.6015 9220.60 9149.28 109.31
20338 78.6052 8944.65 9041.07 107.07
20339 78.6090 8906.81 8938.08 106.64
20340 78.6127 8836.66 8845.32 106.53
20341 78.6165 8702.34 8756.54 105.14
20342 78.6204 8745.20 8674.02 105.66
20343 78.6240 8565.58 8598.91 104.78
20344 78.6279 8601.90 8526.84 104.96
20345 78.6316 8333.92 8461.00 103.11
20346 78.6354 8511.08 8397.63 104.34
20347 78.6392 8459.57 8338.01 104.27
20348 78.6429 8372.62 8283.52 103.83
20349 78.6467 8047.01 8230.66 101.06
20350 78.6504 8037.59 8182.14 101.43
20351 78.6542 8167.64 8135.12 102.19
20352 78.6579 8105.86 8091.79 101.60
20353 78.6617 8087.29 8049.72 100.29
20354 78.6655 8147.10 8009.81 104.20
20355 78.6692 7995.88 7973.05 101.03
20356 78.6730 7909.16 7937.12 99.83
20357 78.6767 7866.49 7903.96 99.16
20358 78.6805 7981.74 7871.48 100.73
20359 78.6842 7907.04 7841.46 99.81
20360 78.6880 7959.49 7812.02 100.76
20361 78.6917 7745.32 7784.01 98.82
20362 78.6954 7936.39 7757.96 100.70
20363 78.6992 8011.30 7732.44 100.25
20364 78.7029 7849.70 7708.67 99.68
20365 78.7067 7743.20 7685.35 98.95
20366 78.7105 7869.19 7663.05 99.67
20367 78.7142 7835.98 7642.24 99.43
20368 78.7180 7772.78 7621.78 99.64
20369 78.7217 7687.73 7602.66 98.20
20370 78.7255 7680.77 7583.84 98.44
20371 78.7293 7652.91 7565.76 98.08
20372 78.7330 7736.05 7548.89 99.50
20373 78.7368 7615.92 7532.20 98.03
20374 78.7405 7752.97 7516.61 99.25
20375 78.7443 7649.83 7501.17 98.90
20376 78.7480 7736.64 7486.74 99.16
20377 78.7518 7528.25 7472.44 97.99
20378 78.7557 7492.24 7458.69 96.76
20379 78.7594 7442.53 7445.77 94.87
20380 78.7632 7642.53 7432.99 98.55
20381 78.7669 7640.00 7420.98 99.59
20382 78.7707 7431.93 7409.08 97.15
20383 78.7745 7634.12 7397.58 97.90
20384 78.7782 7462.31 7386.77 96.81
20385 78.7820 7651.24 7376.06 98.27
20386 78.7857 7415.65 7365.96 96.68
20387 78.7895 7620.64 7355.95 98.42
20388 78.7932 7568.22 7346.51 97.84
20389 78.7970 7340.78 7337.13 96.14
20390 78.8008 7499.43 7328.05 97.38
20391 78.8045 7349.13 7319.49 95.67
20392 78.8083 7418.83 7310.98 96.88
20393 78.8120 7349.44 7302.94 95.63
20394 78.8158 7561.40 7294.95 97.76
20395 78.8195 7445.86 7287.21 97.00
20396 78.8232 7512.75 7279.89 97.52
20397 78.8270 7365.21 7272.61 96.13
20398 78.8307 7331.53 7265.72 96.33
20399 78.8345 7446.53 7258.86 96.53
20400 78.8383 7483.83 7252.20 96.99
20401 78.8420 7473.49 7245.89 96.75
20402 78.8458 7291.70 7239.61 95.79
20403 78.8495 7379.71 7233.66 96.66
20404 78.8533 7362.61 7227.73 96.43
20405 78.8570 7160.04 7222.11 94.54
20406 78.8608 7327.50 7216.50 94.49
20407 78.8646 7413.18 7211.04 98.84
20408 78.8683 7409.74 7205.88 96.97
20409 78.8721 7401.85 7200.71 96.24
20410 78.8758 7284.12 7195.83 95.28
20411 78.8796 7385.72 7190.93 96.31
20412 78.8835 7251.00 7186.18 95.34
20413 78.8872 7225.88 7181.66 94.89
20414 78.8910 7418.31 7177.16 96.12
20415 78.8947 7455.32 7172.87 97.05
20416 78.8985 7360.22 7168.59 95.47
20417 78.9023 7371.12 7164.42 96.30
20418 78.9060 7226.37 7160.46 95.10
20419 78.9098 7334.21 7156.50 96.18
20420 78.9135 7298.30 7152.74 95.74
20421 78.9173 7307.49 7148.97 95.92
20422 78.9210 7422.13 7145.40 97.01
20423 78.9248 7425.19 7141.82 96.70
20424 78.9286 7364.33 7138.33 94.91
20425 78.9323 7365.17 7135.01 96.07
20426 78.9361 7266.76 7131.69 94.63
20427 78.9398 7144.57 7128.54 94.39
20428 78.9436 7117.45 7125.38 95.44
20429 78.9473 7317.20 7122.29 96.09
20430 78.9510 7306.88 7119.36 96.17
20431 78.9548 7206.63 7116.42 95.50
20432 78.9585 7148.55 7113.63 93.44
20433 78.9623 7286.28 7110.83 96.41
20434 78.9661 7335.20 7108.10 98.07
20435 78.9698 7234.51 7105.50 95.33
20436 78.9736 7275.74 7102.90 94.41
20437 78.9773 7377.11 7100.42 96.85
20438 78.9811 7239.43 7097.94 95.51
20439 78.9848 7302.71 7095.57 96.14
20440 78.9886 7278.13 7093.21 96.12
20441 78.9924 7225.99 7090.89 95.33
20442 78.9961 7289.90 7088.70 96.09
20443 78.9999 7293.93 7086.49 95.87
20444 79.0036 7263.48 7084.40 95.95
20445 79.0074 7067.51 7082.30 93.98
20446 79.0113 7225.63 7080.25 95.47
20447 79.0150 7184.25 7078.30 94.73
20448 79.0188 7317.07 7076.35 96.31
20449 79.0225 7267.45 7074.50 95.51
20450 79.0263 7239.01 7072.64 96.01
20451 79.0301 7150.83 7070.82 94.50
20452 79.0338 7289.69 7069.10 96.01
20453 79.0376 7203.74 7067.38 95.19
20454 79.0413 7082.96 7065.75 94.25
20455 79.0451 7346.67 7064.11 96.45
20456 79.0488 7252.52 7062.56 96.48
20457 79.0526 7184.63 7061.01 95.42
20458 79.0564 7250.64 7059.50 95.26
20459 79.0601 7101.58 7058.08 93.08
20460 79.0639 7107.56 7056.65 96.57
20461 79.0676 7126.93 7055.31 95.59
20462 79.0714 7164.92 7053.97 95.12
20463 79.0751 7134.83 7052.68 94.72
20464 79.0788 7235.63 7051.46 95.17
20465 79.0826 7119.64 7050.26 93.78
20466 79.0863 7110.91 7049.14 94.53
20467 79.0901 7196.49 7048.03 95.33
20468 79.0939 7220.65 7046.99 95.59
20469 79.0976 7123.97 7046.02 94.92
20470 79.1014 7183.02 7045.09 94.37
20471 79.1051 7196.50 7044.26 94.20
20472 79.1089 7234.91 7043.48 95.84
20473 79.1127 7216.80 7042.80 95.11
20474 79.1164 7188.06 7042.23 95.47
20475 79.1202 7169.65 7041.76 95.87
20476 79.1239 7100.53 7041.43 94.51
20477 79.1277 7270.57 7041.23 95.38
20478 79.1314 7149.59 7041.20 95.11
20479 79.1352 7112.94 7041.33 94.64
20480 79.1391 7139.62 7041.67 94.58
20481 79.1428 6896.72 7042.18 93.62
20482 79.1466 7161.28 7042.93 94.34
20483 79.1503 7137.39 7043.86 94.89
20484 79.1541 7017.13 7045.02 94.07
20485 79.1579 7126.43 7046.40 94.14
20486 79.1616 7051.11 7047.90 93.49
20487 79.1654 7217.69 7049.60 97.22
20488 79.1691 7075.11 7051.33 94.48
20489 79.1729 7137.75 7053.14 94.36
20490 79.1767 7112.93 7054.86 94.16
20491 79.1804 7094.03 7056.37 94.45
20492 79.1842 7082.14 7057.62 94.04
20493 79.1879 7130.01 7058.45 94.55
20494 79.1917 7290.30 7058.87 95.86
20495 79.1954 7130.95 7058.86 94.72
20496 79.1992 6989.60 7051.46 93.72
20497 79.2029 7120.97 7050.93 94.91
20498 79.2066 7103.46 7050.35 94.36
20499 79.2104 7119.83 7049.85 94.62
20500 79.2141 7155.81 7049.58 95.08
20501 79.2179 7094.42 7049.64 94.52
20502 79.2217 7095.70 7050.14 94.56
20503 79.2254 7074.61 7051.08 94.06
20504 79.2292 7141.59 7052.53 94.54
20505 79.2329 7046.08 7054.40 94.25
20506 79.2367 7219.36 7056.76 95.04
20507 79.2405 7075.71 7059.45 94.20
20508 79.2442 7179.09 7062.27 95.43
20509 79.2480 7191.27 7065.18 95.69
20510 79.2517 7127.52 7067.83 95.15
20511 79.2555 7032.17 7070.09 93.92
20512 79.2594 7229.01 7071.63 94.21
20513 79.2630 7219.31 7072.24 95.46
20514 79.2669 7130.05 7071.84 96.21
20515 79.2706 7003.90 7070.47 93.80
20516 79.2744 7128.20 7068.19 94.01
20517 79.2782 7000.44 7065.26 93.15
20518 79.2819 7084.65 7048.22 93.35
20519 79.2857 7028.36 7044.90 93.98
20520 79.2894 7172.25 7041.80 94.76
20521 79.2932 7231.14 7038.93 95.61
20522 79.2969 6926.55 7036.60 93.10
20523 79.3007 6961.39 7034.81 93.53
20524 79.3045 7006.73 7033.73 93.79
20525 79.3082 7050.44 7033.44 94.01
20526 79.3120 7085.71 7034.00 94.69
20527 79.3157 7041.98 7035.40 94.19
20528 79.3195 7088.89 7037.77 94.54
20529 79.3232 7108.36 7041.10 94.81
20530 79.3270 7083.52 7045.28 94.43
20531 79.3307 7070.67 7050.52 94.45
20532 79.3344 7063.60 7056.51 94.05
20533 79.3382 7103.97 7063.52 94.28
20534 79.3420 7196.60 7071.30 95.40
20535 79.3457 7169.46 7079.44 94.84
20536 79.3495 7117.01 7088.17 94.80
20537 79.3532 7317.02 7096.69 96.22
20538 79.3570 7117.48 7105.13 94.23
20539 79.3608 7109.21 7112.78 93.30
20540 79.3645 7180.52 7119.10 96.97
20541 79.3683 7275.63 7124.10 96.36
20542 79.3720 7177.85 7127.36 94.62
20543 79.3758 7091.68 7129.02 94.41
20544 79.3796 7122.95 7129.08 94.51
20545 79.3833 7248.41 7127.71 96.05
20546 79.3872 7130.32 7124.95 94.41
20547 79.3908 7118.08 7120.98 94.75
20548 79.3947 7305.76 7115.63 96.37
20549 79.3985 7030.36 7109.03 94.42
20550 79.4022 7242.78 7101.52 95.52
20551 79.4060 7070.01 7079.83 94.42
20552 79.4097 7236.62 7071.01 95.77
20553 79.4135 7008.90 7061.62 94.11
20554 79.4172 7082.62 7052.56 93.56
20555 79.4210 7190.18 7043.52 94.72
20556 79.4248 7136.19 7034.98 95.11
20557 79.4285 7035.33 7027.25 94.47
20558 79.4323 7147.57 7019.99 94.97
20559 79.4360 7140.38 7013.60 94.79
20560 79.4398 6943.75 7007.75 93.36
20561 79.4436 6972.19 6987.54 93.33
20562 79.4473 7056.82 6983.25 94.42
20563 79.4510 7030.20 6979.44 94.18
20564 79.4548 7024.08 6976.25 94.29
20565 79.4585 6990.57 6973.45 93.50
20566 79.4623 7038.02 6971.08 94.64
20567 79.4660 7057.74 6954.11 95.90
20568 79.4698 7063.91 6952.54 94.94
20569 79.4735 6876.87 6951.28 92.70
20570 79.4773 6866.24 6950.21 93.13
20571 79.4811 7040.70 6949.33 93.81
20572 79.4848 7128.70 6948.62 95.23
20573 79.4886 6882.05 6948.03 92.97
20574 79.4923 7012.61 6947.56 93.82
20575 79.4961 7139.07 6947.17 94.79
20576 79.4999 6778.60 6946.85 92.24
20577 79.5036 6977.62 6946.61 94.34
20578 79.5074 7009.14 6946.41 94.49
20579 79.5111 6944.73 6946.26 94.00
20580 79.5150 7001.61 6946.15 94.54
20581 79.5188 6912.25 6946.07 93.47
20582 79.5225 6993.73 6946.02 93.94
20583 79.5263 6988.54 6946.00 93.82
20584 79.5300 7131.21 6946.00 94.98
20585 79.5338 7047.50 6946.03 94.45
20586 79.5375 6963.78 6946.07 93.07
20587 79.5413 6841.40 6946.13 93.02
20588 79.5451 6986.80 6946.21 93.88
20589 79.5488 7015.25 6946.30 94.72
20590 79.5526 7125.74 6946.41 95.08
20591 79.5563 6916.60 6946.53 93.07
20592 79.5601 7075.23 6946.66 93.33
20593 79.5639 6921.27 6946.81 95.41
20594 79.5676 6945.26 6946.96 94.36
20595 79.5714 7089.14 6947.12 94.56
20596 79.5751 6891.49 6947.29 92.25
20597 79.5788 6851.87 6947.46 92.70
20598 79.5826 7042.42 6947.65 94.48
20599 79.5863 6974.16 6947.84 94.05
20600 79.5901 7004.43 6948.04 94.09
20601 79.5938 6951.65 6948.24 93.54
20602 79.5976 7020.65 6948.45 93.76
20603 79.6014 7022.32 6948.67 94.18
20604 79.6051 6888.75 6948.88 93.57
20605 79.6089 6967.28 6949.11 93.46
20606 79.6126 6835.97 6949.34 92.10
20607 79.6164 6995.44 6949.57 93.81
20608 79.6202 6911.01 6949.81 93.30
20609 79.6239 6915.15 6950.04 92.95
20610 79.6277 6833.66 6950.29 92.45
20611 79.6314 6994.41 6950.53 93.42
20612 79.6352 6933.76 6950.78 92.99
20613 79.6389 6917.83 6951.03 92.79
20614 79.6428 6976.73 6951.29 92.26
20615 79.6466 6880.90 6951.55 92.25
20616 79.6503 6913.07 6951.80 93.37
20617 79.6541 6770.37 6952.06 91.70
20618 79.6578 6959.60 6952.32 93.23
20619 79.6616 6933.30 6952.59 91.93
20620 79.6654 7097.56 6952.86 96.20
20621 79.6691 6817.99 6961.08 92.55
20622 79.6729 6852.17 6961.42 92.59
20623 79.6766 6896.09 6961.74 92.17
20624 79.6804 6859.94 6962.08 91.70
20625 79.6842 7016.17 6962.42 92.96
20626 79.6879 6780.23 6962.75 91.53
20627 79.6917 6822.21 6963.09 91.45
20628 79.6954 7037.79 6963.43 92.25
20629 79.6992 6818.31 6963.77 91.97
20630 79.7029 6801.24 6964.12 91.94
20631 79.7066 6896.06 6964.46 92.68
20632 79.7104 6943.58 6964.81 93.01
20633 79.7141 6838.39 6965.15 91.41
20634 79.7179 7031.64 6965.51 93.89
20635 79.7217 6880.28 6965.86 92.21
20636 79.7254 6870.88 6966.21 92.36
20637 79.7292 6960.70 6966.56 93.08
20638 79.7329 6794.19 6966.91 91.46
20639 79.7367 6874.67 6967.27 91.58
20640 79.7405 6809.70 6967.63 91.14
20641 79.7442 6894.06 6967.99 92.67
20642 79.7480 6851.19 6968.35 91.37
20643 79.7517 6890.84 6968.70 92.58
20644 79.7555 6840.15 6969.07 91.88
20645 79.7592 6837.69 6969.43 91.29
20646 79.7630 6891.60 6969.79 92.45
20647 79.7669 6965.49 6970.16 94.25
20648 79.7706 6851.46 6970.52 92.54
20649 79.7744 6993.16 6970.89 92.97
20650 79.7781 6795.33 6971.25 91.38
20651 79.7819 6813.88 6971.62 91.73
20652 79.7857 6820.01 6971.99 90.89
20653 79.7894 6838.94 6972.36 91.72
20654 79.7932 6875.45 6972.73 92.28
20655 79.7969 6848.69 6973.10 92.11
20656 79.8007 6860.56 6973.47 91.84
20657 79.8045 6853.31 6973.85 92.15
20658 79.8082 6835.63 6974.21 92.01
20659 79.8120 6794.07 6974.59 91.70
20660 79.8157 6860.36 6974.96 91.70
20661 79.8195 6844.81 6975.34 92.26
20662 79.8232 6776.92 6975.72 91.42
20663 79.8270 6899.18 6976.09 92.79
20664 79.8307 6874.89 6976.47 92.13
20665 79.8344 6902.28 6976.84 92.85
20666 79.8382 6816.22 6977.23 91.22
20667 79.8420 6870.09 6977.61 92.43
20668 79.8457 6823.02 6977.98 92.61
20669 79.8495 6873.35 6978.37 91.94
20670 79.8532 6975.82 6978.74 93.40
20671 79.8570 6877.38 6979.13 91.77
20672 79.8607 6814.08 6979.50 90.67
20673 79.8645 7101.77 6979.89 94.78
20674 79.8683 6957.12 6980.28 94.24
20675 79.8720 6948.82 6980.66 92.88
20676 79.8758 6717.39 6981.05 90.82
20677 79.8795 6834.11 6981.43 91.55
20678 79.8833 6841.70 6981.82 91.89
20679 79.8872 6844.52 6982.21 92.51
20680 79.8908 6948.63 6982.59 91.94
20681 79.8947 6824.17 6982.98 91.60
20682 79.8984 6757.28 6990.66 91.56
20683 79.9022 6827.78 6991.11 91.85
20684 79.9060 6853.36 6991.56 92.64
20685 79.9097 6726.11 6992.00 91.54
20686 79.9135 7095.25 6992.45 93.37
20687 79.9172 6943.02 6992.89 93.05
20688 79.9210 6814.53 6993.35 92.50
20689 79.9248 6912.72 6993.81 92.90
20690 79.9285 6954.63 7001.47 93.16
20691 79.9323 6808.44 7001.98 91.99
20692 79.9360 6790.34 7002.49 92.31
20693 79.9398 6948.70 7003.00 93.27
20694 79.9435 6817.45 7003.51 92.30
20695 79.9473 6918.62 7004.03 92.43
20696 79.9510 6912.10 7004.56 93.87
20697 79.9548 7037.12 7005.07 93.76
20698 79.9585 6928.65 7005.60 92.85
20699 79.9622 6722.71 7006.12 91.31
20700 79.9660 6864.88 7006.65 94.15
20701 79.9698 6903.33 7007.19 92.98
20702 79.9735 6822.67 7007.72 92.38
20703 79.9773 6768.80 7008.26 91.76
20704 79.9810 6885.23 7008.79 92.29
20705 79.9848 6891.77 7009.34 92.01
20706 79.9886 6793.51 7009.89 91.21
20707 79.9923 6836.77 7010.43 92.51
20708 79.9961 6854.11 7010.98 91.68
20709 79.9998 6728.58 7011.53 91.61
20710 80.0036 7067.29 7012.09 94.34
20711 80.0074 6719.69 7012.66 91.05
20712 80.0111 6585.01 7013.21 89.90
20713 80.0150 6777.07 7013.78 91.78
20714 80.0186 6862.48 7014.34 92.19
20715 80.0225 6941.42 7014.92 93.32
20716 80.0263 7077.12 7015.50 93.96
20717 80.0300 6780.44 7016.08 91.01
20718 80.0338 6884.40 7016.67 94.96
20719 80.0375 6885.83 7017.24 92.28
20720 80.0413 6899.40 7017.84 92.02
20721 80.0450 6811.71 7018.43 91.94
20722 80.0488 6680.87 7019.04 90.48
20723 80.0526 6708.84 7019.65 91.60
20724 80.0563 6918.48 7020.24 93.28
20725 80.0601 6761.52 7020.86 91.05
20726 80.0638 6827.45 7021.47 93.19
20727 80.0676 6976.10 7022.10 95.15
20728 80.0714 6872.98 7022.73 92.47
20729 80.0751 6908.38 7023.35 92.78
20730 80.0788 6801.97 7024.00 91.79
20731 80.0826 6848.85 7024.63 92.95
20732 80.0863 6852.66 7025.28 93.26
20733 80.0901 6901.62 7025.94 92.33
20734 80.0938 6725.05 7026.59 91.66
20735 80.0976 6865.69 7027.26 92.88
20736 80.1013 6753.31 7027.92 91.73
20737 80.1051 6774.02 7028.61 92.25
20738 80.1089 6902.18 7029.30 93.42
20739 80.1126 6714.00 7029.98 92.05
20740 80.1164 6849.27 7030.68 93.35
20741 80.1201 6850.50 7031.37 93.03
20742 80.1239 6797.80 7032.09 92.46
20743 80.1276 6749.18 7032.80 91.87
20744 80.1314 6962.79 7033.53 93.73
20745 80.1352 6936.45 7034.27 93.79
20746 80.1389 6882.58 7035.00 92.70
20747 80.1428 6870.93 7035.76 92.53
20748 80.1464 6826.92 7036.51 92.36
20749 80.1503 6915.33 7037.28 93.69
20750 80.1541 6749.63 7038.07 92.53
20751 80.1578 6798.84 7038.84 92.29
20752 80.1616 6893.85 7039.65 91.78
20753 80.1653 6844.11 7040.44 94.22
20754 80.1691 6738.37 7041.26 92.59
20755 80.1729 6838.09 7042.10 91.97
20756 80.1766 6793.41 7042.92 91.27
20757 80.1804 6695.04 7043.78 91.97
20758 80.1841 6962.47 7044.60 93.75
20759 80.1879 6888.97 7045.48 92.75
20760 80.1916 6769.79 7046.36 92.17
20761 80.1954 6704.87 7047.26 91.65
20762 80.1992 6686.49 7048.19 91.77
20763 80.2029 6837.00 7049.10 91.41
20764 80.2066 6850.66 7050.05 92.66
20765 80.2104 6807.53 7050.99 92.64
20766 80.2141 6826.00 7051.97 92.13
20767 80.2179 6732.35 7052.96 92.25
20768 80.2216 6800.88 7053.95 91.64
20769 80.2254 6940.07 7054.98 93.43
20770 80.2291 6740.72 7056.00 92.10
20771 80.2329 6830.80 7057.06 92.71
20772 80.2367 6799.98 7058.14 92.47
20773 80.2404 6787.23 7059.22 91.77
20774 80.2442 6740.57 7060.34 92.15
20775 80.2479 6534.79 7061.46 89.95
20776 80.2517 6668.16 7062.62 91.30
20777 80.2555 6711.80 7063.77 91.31
20778 80.2592 6789.32 7064.95 91.94
20779 80.2630 6697.76 7066.18 90.11
20780 80.2667 6802.49 7067.41 94.11
20781 80.2706 6695.96 7068.70 91.52
20782 80.2742 6736.77 7069.98 91.15
20783 80.2781 6911.82 7071.32 92.21
20784 80.2819 6888.01 7072.69 91.64
20785 80.2856 6906.36 7074.06 92.72
20786 80.2894 6848.92 7075.49 92.65
20787 80.2931 6762.28 7076.92 91.64
20788 80.2969 6918.75 7078.42 93.08
20789 80.3007 6864.99 7079.95 92.70
20790 80.3044 6736.47 7081.49 91.15
20791 80.3082 6745.57 7083.10 92.01
20792 80.3119 6872.78 7084.70 92.84
20793 80.3157 6850.97 7086.39 92.74
20794 80.3194 6789.26 7088.07 91.98
20795 80.3232 6827.52 7089.85 92.42
20796 80.3270 6694.68 7091.68 91.40
20797 80.3307 6818.44 7093.50 91.05
20798 80.3344 6813.41 7095.42 92.55
20799 80.3382 6897.65 7097.35 93.24
20800 80.3419 6965.98 7099.38 93.48
20801 80.3457 6797.13 7101.46 92.07
20802 80.3494 6898.92 7103.56 93.29
20803 80.3532 6854.43 7105.76 92.79
20804 80.3569 6899.88 7107.98 92.98
20805 80.3607 6737.77 7110.25 90.58
20806 80.3645 7016.78 7112.66 95.19
20807 80.3682 6898.92 7115.09 94.05
20808 80.3720 6779.80 7117.66 91.68
20809 80.3757 6779.71 7120.24 91.82
20810 80.3795 6877.32 7122.98 92.26
20811 80.3833 6920.82 7125.81 93.00
20812 80.3870 6922.22 7128.66 93.44
20813 80.3908 6854.93 7131.62 92.64
20814 80.3945 6778.27 7134.67 91.71
20815 80.3984 6948.42 7137.90 93.13
20816 80.4020 6926.12 7141.17 93.17
20817 80.4059 6791.38 7144.64 92.36
20818 80.4097 6733.30 7148.24 91.90
20819 80.4134 6790.90 7151.88 92.32
20820 80.4172 6953.73 7155.76 93.88
20821 80.4209 6826.20 7159.68 92.49
20822 80.4247 6999.66 7163.87 93.77
20823 80.4284 6758.92 7168.10 92.45
20824 80.4322 6889.82 7172.63 93.08
20825 80.4360 6870.85 7177.35 92.36
20826 80.4397 6848.76 7182.13 92.53
20827 80.4435 6944.33 7187.26 94.19
20828 80.4472 7049.12 7192.46 92.91
20829 80.4510 6914.73 7198.04 93.44
20830 80.4548 6933.72 7203.87 93.65
20831 80.4585 6869.74 7209.81 92.60
20832 80.4622 6979.11 7216.19 92.66
20833 80.4660 6902.72 7222.70 94.52
20834 80.4697 7023.64 7229.70 94.56
20835 80.4735 7129.39 7237.05 94.71
20836 80.4772 6968.03 7244.57 93.43
20837 80.4810 6977.04 7252.68 91.92
20838 80.4847 7066.11 7261.00 94.25
20839 80.4885 7070.02 7269.98 94.08
20840 80.4922 6926.61 7279.20 93.30
20841 80.4960 6904.00 7289.19 92.44
20842 80.4998 7045.94 7299.76 94.22
20843 80.5035 7109.61 7310.61 94.73
20844 80.5073 7016.81 7322.45 93.72
20845 80.5110 7092.68 7334.62 94.38
20846 80.5148 7123.39 7347.93 94.83
20847 80.5186 7187.87 7362.05 95.71
20848 80.5223 7173.82 7376.70 95.09
20849 80.5262 7193.02 7392.70 95.21
20850 80.5298 7252.96 7409.35 94.66
20851 80.5337 7111.55 7427.60 94.58
20852 80.5375 7184.44 7447.16 94.25
20853 80.5412 7151.77 7467.62 93.95
20854 80.5450 7215.84 7490.22 96.25
20855 80.5487 7485.62 7513.89 97.10
20856 80.5525 7495.98 7540.24 97.60
20857 80.5562 7466.11 7568.06 96.89
20858 80.5600 7421.47 7599.14 96.97
20859 80.5638 7577.64 7633.28 97.64
20860 80.5675 7679.47 7669.78 100.45
20861 80.5713 7788.42 7711.42 99.25
20862 80.5750 7854.60 7756.57 98.97
20863 80.5788 7894.01 7808.86 99.96
20864 80.5825 8158.10 7866.48 102.12
20865 80.5863 8153.95 7934.35 101.17
20866 80.5900 8258.37 8012.63 102.24
20867 80.5938 8263.80 8101.27 102.28
20868 80.5975 8506.03 8207.53 103.62
20869 80.6012 8662.05 8329.10 105.85
20870 80.6050 8819.09 8475.82 106.42
20871 80.6088 9045.85 8648.92 108.25
20872 80.6125 9030.89 8847.26 107.96
20873 80.6163 9410.11 9085.68 110.46
20874 80.6200 9632.35 9356.62 112.05
20875 80.6238 10105.70 9678.54 115.27
20876 80.6275 10353.20 10039.10 115.68
20877 80.6313 10477.30 10460.20 117.63
20878 80.6351 10890.20 10936.20 119.79
20879 80.6388 11262.70 11450.90 121.55
20880 80.6426 12005.90 12033.50 126.26
20881 80.6463 12550.30 12646.50 130.45
20882 80.6501 13055.00 13318.70 132.35
20883 80.6540 13672.20 14019.30 136.99
20884 80.6577 14438.20 14714.00 140.68
20885 80.6615 15136.60 15415.00 142.32
20886 80.6652 15771.70 16057.60 147.45
20887 80.6690 16102.90 16638.30 152.39
20888 80.6727 16072.10 17089.30 149.91
20889 80.6765 16161.60 17396.50 149.35
20890 80.6803 15873.00 17518.30 147.18
20891 80.6840 15788.70 17447.00 147.83
20892 80.6878 15211.40 17187.20 145.02
20893 80.6915 14618.70 16776.20 141.12
20894 80.6953 14196.10 16229.00 139.95
20895 80.6990 13378.30 15611.70 134.28
20896 80.7028 12744.40 14930.00 130.48
20897 80.7066 12294.90 14230.20 128.00
20898 80.7103 11877.30 13558.70 125.74
20899 80.7141 11403.50 12894.20 122.59
20900 80.7178 11012.90 12287.10 119.40
20901 80.7215 10379.40 11709.90 116.53
20902 80.7253 10088.60 11186.70 114.45
20903 80.7290 9712.23 10729.80 112.15
20904 80.7328 9477.66 10315.10 110.55
20905 80.7365 9236.74 9961.99 109.03
20906 80.7403 9179.72 9649.09 108.38
20907 80.7440 9080.45 9388.51 108.85
20908 80.7478 8699.15 9162.48 105.65
20909 80.7516 8569.00 8973.69 105.31
20910 80.7553 8490.98 8821.11 102.96
20911 80.7591 8311.42 8692.56 103.07
20912 80.7628 8362.26 8590.69 100.83
20913 80.7666 8039.09 8506.70 103.25
20914 80.7704 8152.55 8440.26 102.51
20915 80.7741 8306.78 8390.15 102.80
20916 80.7779 8093.23 8351.25 99.87
20917 80.7816 7961.76 8324.13 100.34
20918 80.7855 8071.83 8305.87 100.69
20919 80.7891 7973.74 8296.55 100.56
20920 80.7930 7974.34 8294.95 100.18
20921 80.7968 8194.22 8301.03 102.28
20922 80.8005 8034.12 8314.22 100.93
20923 80.8042 7950.04 8335.29 100.63
20924 80.8080 8101.23 8363.53 102.10
20925 80.8118 8211.31 8401.10 102.64
20926 80.8155 8134.61 8446.87 101.87
20927 80.8193 8278.64 8504.50 102.72
20928 80.8231 8422.59 8574.58 104.11
20929 80.8268 8392.66 8656.89 103.21
20930 80.8306 8683.36 8758.20 105.82
20931 80.8343 8733.09 8876.35 104.71
20932 80.8381 9017.17 9021.07 107.83
20933 80.8418 9225.23 9189.11 108.63
20934 80.8456 9193.12 9394.29 109.87
20935 80.8493 9576.91 9637.31 110.37
20936 80.8531 9712.84 9916.50 112.93
20937 80.8568 10420.30 10252.30 116.22
20938 80.8605 10575.40 10633.70 117.30
20939 80.8643 10956.30 11086.30 120.50
20940 80.8680 11498.80 11593.90 124.51
20941 80.8718 12025.60 12185.10 126.46
20942 80.8756 12719.50 12852.40 130.58
20943 80.8793 13229.90 13577.70 133.41
20944 80.8831 14024.80 14397.50 138.87
20945 80.8868 15086.30 15266.30 144.71
20946 80.8906 16182.10 16219.80 149.41
20947 80.8944 17288.40 17221.10 156.43
20948 80.8981 18513.40 18221.70 163.16
20949 80.9019 19860.90 19243.80 169.48
20950 80.9056 20973.40 20201.30 175.50
20951 80.9094 22079.20 21104.90 180.35
20952 80.9131 22908.40 21873.90 183.72
20953 80.9169 23556.10 22519.40 187.26
20954 80.9208 24051.00 23003.80 189.63
20955 80.9245 24174.00 23314.60 190.50
20956 80.9283 24800.60 23471.70 191.28
20957 80.9320 24584.80 23471.00 191.16
20958 80.9358 24479.10 23313.30 189.49
20959 80.9395 24275.50 23003.80 190.51
20960 80.9433 23624.80 22523.10 188.37
20961 80.9470 22860.80 21902.30 184.58
20962 80.9508 22024.70 21118.40 180.65
20963 80.9546 20298.30 20216.90 170.69
20964 80.9583 19113.90 19257.90 165.08
20965 80.9621 17993.60 18230.30 158.68
20966 80.9658 16760.90 17220.70 153.24
20967 80.9696 15481.70 16206.70 146.00
20968 80.9734 14609.30 15236.40 141.26
20969 80.9771 13864.10 14352.70 138.98
20970 80.9809 12995.80 13513.00 134.13
20971 80.9846 12214.60 12770.40 128.01
20972 80.9883 11524.00 12082.10 123.75
20973 80.9921 11451.20 11486.30 123.09
20974 80.9958 10289.20 10944.60 116.03
20975 80.9996 10517.00 10471.50 117.30
20976 81.0033 9993.07 10070.20 114.15
20977 81.0071 9422.28 9713.93 111.31
20978 81.0108 9110.42 9416.21 109.07
20979 81.0146 8875.84 9152.47 107.21
20980 81.0183 9028.79 8931.95 108.27
20981 81.0221 8723.80 8737.87 105.95
20982 81.0259 8412.59 8571.41 102.80
20983 81.0296 8078.87 8431.51 100.62
20984 81.0334 8237.32 8307.16 102.05
20985 81.0371 7946.81 8201.51 100.89
20986 81.0409 7960.74 8106.39 100.57
20987 81.0446 7736.91 8024.42 99.47
20988 81.0484 7697.53 7949.51 99.06
20989 81.0523 7561.48 7882.24 98.56
20990 81.0559 7577.35 7823.18 97.92
20991 81.0598 7600.14 7767.86 98.31
20992 81.0635 7492.32 7719.09 96.16
20993 81.0673 7450.98 7672.53 97.64
20994 81.0710 7351.53 7630.75 96.80
20995 81.0748 7190.39 7590.86 95.19
20996 81.0786 7530.47 7553.78 98.10
20997 81.0823 7264.66 7520.12 96.10
20998 81.0861 6987.02 7487.80 93.88
20999 81.0898 7190.63 7458.28 95.82
21000 81.0936 7188.89 7429.81 94.86
21001 81.0973 7083.98 7405.07 94.62
21002 81.1011 7097.71 7379.82 94.47
21003 81.1048 7163.20 7356.57 94.97
21004 81.1086 7043.61 7334.00 94.25
21005 81.1124 6898.58 7312.64 93.89
21006 81.1161 6896.55 7292.88 93.03
21007 81.1199 7015.24 7274.40 94.13
21008 81.1236 6911.03 7256.54 93.63
21009 81.1273 7067.75 7239.59 94.34
21010 81.1311 6839.11 7223.37 92.79
21011 81.1348 7016.73 7207.47 94.33
21012 81.1386 6911.84 7192.26 92.97
21013 81.1423 6930.31 7178.11 93.44
21014 81.1461 6886.68 7164.15 93.48
21015 81.1498 6819.33 7151.14 92.00
21016 81.1536 6956.24 7138.27 93.99
21017 81.1573 6814.87 7126.25 93.00
21018 81.1611 6783.98 7114.33 91.86
21019 81.1649 6755.60 7102.87 91.41
21020 81.1686 6901.58 7092.10 95.69
21021 81.1724 6872.55 7081.42 93.16
21022 81.1761 6733.97 7071.37 92.20
21023 81.1799 6667.69 7061.38 91.40
21024 81.1836 6940.20 7051.96 92.51
21025 81.1874 6767.80 7042.58 92.74
21026 81.1913 6867.51 7033.50 93.15
21027 81.1949 6723.28 7024.90 92.02
21028 81.1988 6842.82 7016.32 92.19
21029 81.2025 6796.94 7008.19 92.86
21030 81.2063 6785.45 7000.06 93.02
21031 81.2100 6733.40 6992.35 92.13
21032 81.2138 6693.25 6984.63 91.88
21033 81.2175 6625.47 6977.30 90.97
21034 81.2213 6699.79 6969.92 92.07
21035 81.2251 6660.92 6962.74 91.52
21036 81.2288 6636.87 6955.89 91.17
21037 81.2326 6783.37 6949.02 91.35
21038 81.2363 6586.28 6942.46 91.00
21039 81.2401 6735.48 6935.86 92.14
21040 81.2438 6764.12 6929.55 92.51
21041 81.2476 6835.27 6923.20 93.40
21042 81.2513 6828.56 6917.13 92.71
21043 81.2551 6607.20 6911.00 91.14
21044 81.2589 6506.10 6904.98 90.37
21045 81.2626 6710.75 6899.21 89.45
21046 81.2663 6649.24 6893.38 92.36
21047 81.2701 6697.96 6887.79 93.18
21048 81.2738 6718.18 6882.13 91.89
21049 81.2775 6707.27 6876.70 91.27
21050 81.2813 6732.06 6871.20 91.94
21051 81.2851 6607.20 6865.76 91.47
21052 81.2888 6700.69 6860.55 91.57
21053 81.2926 6726.18 6855.25 91.81
21054 81.2963 6522.74 6850.16 90.38
21055 81.3001 6629.82 6844.98 91.44
21056 81.3038 6621.64 6840.00 90.80
21057 81.3076 6602.03 6834.93 91.06
21058 81.3114 6515.61 6829.92 90.23
21059 81.3151 6657.83 6825.08 91.55
21060 81.3189 6667.82 6820.16 91.74
21061 81.3226 6414.20 6815.41 89.69
21062 81.3264 6615.20 6810.57 91.53
21063 81.3301 6749.20 6805.90 92.22
21064 81.3339 6611.86 6801.14 91.08
21065 81.3376 6611.07 6796.54 91.44
21066 81.3415 6681.26 6791.84 91.74
21067 81.3453 6750.98 6787.18 92.95
21068 81.3490 6580.20 6782.67 90.77
21069 81.3528 6669.73 6778.06 91.48
21070 81.3565 6666.13 6773.61 91.94
21071 81.3603 6599.96 6769.05 91.12
21072 81.3640 6364.33 6764.64 87.84
21073 81.3678 6566.25 6760.13 92.64
21074 81.3715 6747.91 6755.76 92.75
21075 81.3753 6641.71 6751.29 90.14
21076 81.3791 6613.97 6746.84 91.21
21077 81.3828 6516.67 6742.53 90.31
21078 81.3866 6677.73 6738.12 91.85
21079 81.3903 6469.83 6733.83 90.19
21080 81.3941 6737.71 6729.45 92.41
21081 81.3978 6607.21 6725.19 90.88
21082 81.4016 6697.70 6720.83 91.52
21083 81.4053 6504.63 6716.60 90.30
21084 81.4090 6454.21 6712.26 89.51
21085 81.4128 6589.51 6707.94 91.01
21086 81.4165 6699.28 6703.73 91.61
21087 81.4203 6538.57 6699.42 90.98
21088 81.4240 6631.49 6695.23 91.69
21089 81.4278 6575.78 6690.94 91.24
21090 81.4315 6496.20 6686.76 90.17
21091 81.4353 6763.47 6682.48 92.67
21092 81.4390 6613.34 6678.31 90.40
21093 81.4428 6375.17 6674.04 89.56
21094 81.4466 6583.83 6669.78 91.35
21095 81.4503 6512.49 6665.62 90.38
21096 81.4541 6564.05 6661.36 90.09
21097 81.4578 6740.74 6657.21 92.25
21098 81.4616 6645.74 6652.96 90.44
21099 81.4653 6578.51 6648.81 91.49
21100 81.4691 6479.10 6644.56 90.39
21101 81.4728 6628.45 6640.42 91.64
21102 81.4766 6658.99 6636.16 91.04
21103 81.4805 6608.32 6631.91 91.02
21104 81.4842 6474.26 6627.77 90.63
21105 81.4880 6664.33 6623.52 91.79
21106 81.4917 6610.60 6619.38 91.28
21107 81.4955 6500.30 6615.12 90.97
21108 81.4992 6532.04 6610.98 90.90
21109 81.5030 6480.26 6606.72 90.12
21110 81.5067 6581.30 6602.58 91.13
21111 81.5105 6483.28 6598.32 90.72
21112 81.5142 6555.13 6594.17 91.13
21113 81.5180 6441.98 6589.91 89.58
21114 81.5218 6545.63 6585.65 91.19
21115 81.5255 6465.34 6581.49 90.55
21116 81.5293 6438.52 6577.23 89.69
21117 81.5330 6377.12 6573.07 88.74
21118 81.5368 6566.41 6568.80 90.28
21119 81.5405 6417.38 6564.64 88.76
21120 81.5443 6478.50 6560.37 89.91
21121 81.5480 6475.84 6556.21 89.57
21122 81.5518 6440.17 6551.94 89.31
21123 81.5555 6468.27 6547.66 89.89
21124 81.5592 6334.53 6543.50 88.59
21125 81.5630 6363.76 6539.22 87.73
21126 81.5667 6780.11 6535.06 93.64
21127 81.5705 6632.51 6530.79 92.02
21128 81.5742 6566.28 6526.62 90.24
21129 81.5780 6711.73 6522.35 91.31
21130 81.5817 6475.77 6518.20 89.88
21131 81.5855 6579.72 6513.93 90.76
21132 81.5893 6609.83 6509.66 90.72
21133 81.5930 6515.42 6505.52 90.36
21134 81.5968 6453.48 6501.26 89.67
21135 81.6005 6457.23 6497.13 89.42
21136 81.6043 6477.90 6492.89 90.04
21137 81.6080 6590.88 6488.78 90.41
21138 81.6118 6535.30 6484.56 90.09
21139 81.6155 6605.43 6480.47 90.75
21140 81.6193 6370.63 6476.30 88.55
21141 81.6230 6714.74 6472.25 91.23
21142 81.6268 6526.91 6468.12 89.27
21143 81.6307 6501.28 6464.02 89.48
21144 81.6344 6513.08 6460.07 90.30
21145 81.6382 6389.28 6456.06 89.03
21146 81.6419 6541.36 6452.20 90.02
21147 81.6457 6541.60 6448.30 90.50
21148 81.6494 6690.45 6444.56 90.41
21149 81.6532 6518.84 6440.80 90.38
21150 81.6569 6570.42 6437.22 90.62
21151 81.6607 6569.60 6433.62 90.45
21152 81.6644 6404.98 6430.22 88.18
21153 81.6682 6720.86 6426.82 92.13
21154 81.6719 6429.08 6423.61 90.13
21155 81.6757 6567.76 6420.41 90.36
21156 81.6795 6551.43 6417.30 89.72
21157 81.6832 6473.05 6414.36 89.11
21158 81.6870 6532.06 6411.40 90.23
21159 81.6907 6378.93 6408.56 88.85
21160 81.6945 6509.27 6405.66 89.84
21161 81.6982 6534.33 6394.90 89.15
21162 81.7020 6471.05 6391.94 89.62
21163 81.7057 6442.73 6388.92 89.26
21164 81.7094 6525.12 6385.66 90.01
21165 81.7132 6459.36 6382.29 89.20
21166 81.7169 6568.90 6378.63 89.70
21167 81.7207 6508.44 6374.80 89.58
21168 81.7244 6490.52 6370.95 89.55
21169 81.7282 6523.16 6366.93 89.02
21170 81.7319 6453.74 6363.01 89.24
21171 81.7357 6685.17 6359.06 90.82
21172 81.7394 6384.13 6355.31 88.44
21173 81.7432 6519.27 6351.61 89.76
21174 81.7469 6705.49 6348.19 91.59
21175 81.7507 6586.68 6344.90 90.32
21176 81.7544 6671.78 6341.94 91.21
21177 81.7582 6550.93 6339.17 89.49
21178 81.7620 6613.37 6336.70 90.05
21179 81.7657 6473.74 6334.59 89.11
21180 81.7695 6477.23 6332.79 90.62
21181 81.7732 6510.97 6331.39 89.19
21182 81.7770 6486.72 6330.38 89.23
21183 81.7807 6506.03 6329.81 89.85
21184 81.7846 6458.94 6329.76 89.59
21185 81.7883 6504.98 6330.27 89.24
21186 81.7921 6637.55 6331.47 91.00
21187 81.7958 6689.91 6333.38 91.23
21188 81.7996 6761.01 6336.30 91.62
21189 81.8034 6665.62 6340.32 91.06
21190 81.8070 6842.44 6345.52 92.24
21191 81.8109 6873.75 6352.47 92.87
21192 81.8146 6789.91 6361.10 92.13
21193 81.8184 6868.76 6372.24 92.31
21194 81.8221 6689.56 6385.77 91.32
21195 81.8259 6879.22 6402.86 93.09
21196 81.8296 6883.81 6423.20 92.84
21197 81.8334 6952.46 6448.42 92.80
21198 81.8371 6968.49 6477.86 93.17
21199 81.8409 6997.34 6513.63 92.73
21200 81.8446 7065.39 6554.52 94.05
21201 81.8484 7047.27 6603.14 94.18
21202 81.8521 7264.14 6657.47 96.06
21203 81.8559 7368.88 6720.57 96.65
21204 81.8596 7453.31 6791.35 97.27
21205 81.8633 7460.48 6867.11 96.50
21206 81.8671 7520.89 6951.83 97.63
21207 81.8708 7527.13 7039.67 99.00
21208 81.8746 7751.97 7134.30 99.61
21209 81.8783 8010.32 7228.10 100.82
21210 81.8821 8059.19 7323.61 100.70
21211 81.8858 7999.24 7411.51 101.00
21212 81.8896 8078.73 7492.35 101.64
21213 81.8933 8150.57 7556.54 102.44
21214 81.8971 8389.78 7603.12 103.43
21215 81.9008 8194.83 7625.95 102.38
21216 81.9046 7972.51 7624.91 100.17
21217 81.9083 8173.70 7600.99 102.10
21218 81.9121 8016.70 7556.11 101.52
21219 81.9159 7899.81 7495.74 100.26
21220 81.9196 7877.56 7427.32 99.42
21221 81.9234 7797.72 7352.67 99.56
21222 81.9271 7750.03 7280.05 99.55
21223 81.9309 7607.29 7209.48 98.44
21224 81.9346 7686.98 7139.98 99.09
21225 81.9385 7577.38 7085.05 97.80
21226 81.9421 7514.58 7041.42 96.53
21227 81.9460 7658.48 7007.60 97.83
21228 81.9497 7516.35 6985.60 96.42
21229 81.9535 7479.98 6974.08 96.81
21230 81.9572 7611.38 6973.04 98.51
21231 81.9610 7619.95 6981.37 96.68
21232 81.9647 7514.29 6990.05 97.11
21233 81.9685 7742.86 7012.56 100.85
21234 81.9722 7560.60 7038.43 97.68
21235 81.9760 7624.32 7067.10 96.94
21236 81.9798 7663.44 7096.23 95.09
21237 81.9835 7541.30 7124.09 95.71
21238 81.9873 7964.44 7152.59 102.09
21239 81.9910 7759.75 7181.27 99.79
21240 81.9948 7966.36 7213.96 99.51
21241 81.9985 7681.17 7251.12 95.58
21242 82.0023 7948.43 7297.38 95.01
21243 82.0060 8013.70 7351.92 92.68
loop_
_refln_index_h
_refln_index_k
_refln_index_l
_refln_F_squared_calc
_refln_F_squared_meas
_refln_F_squared_sigma
_refln_observed_status
_refln_d_spacing
0 0 2 3018.93 2886.75 60.79 o 4.038618
1 1 0 2886.93 2734.86 57.51 o 4.026465
1 1 2 38154.17 37190.43 700.52 o 2.851428
2 0 0 39173.36 37452.18 706.17 o 2.847141
2 1 1 132.56 122.59 2.64 o 2.428713
2 0 2 1173.52 1487.00 28.23 o 2.327012
0 0 4 60158.50 58468.17 1118.84 o 2.019309
2 2 0 58596.52 58850.59 1124.71 o 2.013232
2 1 3 79.65 67.78 1.83 o 1.850104
1 1 4 1344.31 1347.16 29.02 o 1.805034
2 2 2 1225.03 1307.38 28.08 o 1.801773
3 1 0 1526.62 1599.51 34.14 o 1.800690
2 0 4 25877.41 26075.38 486.44 o 1.647100
3 1 2 26080.30 27643.46 515.70 o 1.644621
3 2 1 43.29 28.48 1.52 o 1.549960
2 2 4 36593.00 36944.05 698.92 o 1.425714
4 0 0 35817.76 36993.64 699.77 o 1.423570
2 1 5 35.33 26.10 1.53 o 1.364124
3 2 3 29.70 27.59 0.73 o 1.362247
4 1 1 129.26 124.32 3.17 o 1.361310
0 0 6 908.59 791.96 19.49 o 1.346206
3 1 4 965.45 1010.54 21.87 o 1.343951
4 0 2 716.75 770.61 16.87 o 1.342603
3 3 0 687.20 728.47 16.10 o 1.342155
1 1 6 18945.81 18046.86 334.13 o 1.276737
3 3 2 18093.60 18500.31 341.50 o 1.273663
4 2 0 19938.76 20409.73 378.37 o 1.273280
4 1 3 92.79 89.85 3.17 o 1.228833
2 0 6 46.88 57.61 7.99 o 1.217021
4 2 2 16.61 48.40 9.34 o 1.214357
4 0 4 25384.38 25910.07 486.33 o 1.163506
3 2 5 15.88 16.63 2.00 o 1.129300
4 3 1 58.17 65.31 3.37 o 1.127702
2 2 6 615.02 530.36 12.64 o 1.119071
3 3 4 532.42 484.74 11.22 o 1.117774
5 1 0 589.12 528.88 12.36 o 1.116740
3 1 6 15156.27 15192.63 279.43 o 1.078203
4 2 4 15534.28 16308.79 300.17 o 1.077043
5 1 2 14584.97 15366.74 282.04 o 1.076349
2 1 7 14.48 1.74 1.88 < 1.051028
4 1 5 53.07 21.58 2.02 o 1.049739
4 3 3 44.66 18.97 1.71 o 1.048883
5 2 1 8.35 3.68 0.39 o 1.048456
0 0 8 19851.32 18216.51 344.09 o 1.009655
4 4 0 18706.57 18945.18 354.46 o 1.006616
5 2 3 6.57 1.72 2.42 < 0.984219
1 1 8 529.34 534.26 13.37 o 0.979335
4 0 6 467.35 441.53 10.20 o 0.978118
5 1 4 488.58 488.56 10.89 o 0.977252
4 4 2 400.47 406.12 9.12 o 0.976734
5 3 0 698.86 715.91 15.84 o 0.976561
2 0 8 12148.44 12291.35 225.28 o 0.951592
3 3 6 11660.01 11985.91 219.01 o 0.950476
5 3 2 12736.18 13528.11 248.03 o 0.949205
6 0 0 12854.12 13661.94 250.63 o 0.949047
3 2 7 7.70 14.00 2.34 o 0.931703
4 3 5 28.24 40.14 2.80 o 0.930805
6 1 1 65.09 93.57 5.18 o 0.929910
4 2 6 11.22 25.63 5.20 o 0.925052
6 0 2 25.03 53.08 10.82 o 0.923881
2 2 8 15354.38 13959.83 259.48 o 0.902517
4 4 4 14762.03 14806.91 274.22 o 0.900886
6 2 0 14547.46 14479.45 267.98 o 0.900345
4 1 7 27.40 41.17 4.41 o 0.885496
5 2 5 4.32 5.16 0.31 o 0.884725
6 1 3 53.21 62.67 3.73 o 0.884212
5 4 1 15.83 18.58 1.12 o 0.883956
3 1 8 491.51 523.00 12.41 o 0.880665
5 3 4 585.59 654.21 14.63 o 0.879150
6 2 2 333.58 372.24 8.48 o 0.878772
5 1 6 9767.03 9948.41 180.90 o 0.859502
6 0 4 10508.67 10576.15 193.14 o 0.858915
2 1 9 6.19 6.90 6.62 < 0.846443
5 4 3 13.13 10.20 1.35 o 0.844427
6 3 1 37.15 28.87 3.84 o 0.844204
4 0 8 12193.49 11426.73 211.39 o 0.823550
6 2 4 11756.27 11598.12 213.64 o 0.822311
4 3 7 16.04 8.09 1.53 o 0.810556
6 1 5 36.99 20.28 2.59 o 0.809965
6 3 3 31.16 17.12 2.26 o 0.809571
0 0 10 428.71 328.77 18.09 o 0.807724
3 3 8 361.63 334.32 10.05 o 0.806846
4 4 6 335.75 293.03 8.41 o 0.806165
5 5 0 286.85 228.70 6.73 o 0.805293
7 1 0 455.76 363.37 10.54 o 0.805293
1 1 10 8265.48 7893.42 143.38 o 0.791946
4 2 8 8496.06 8586.69 155.72 o 0.791119
5 3 6 8644.61 8836.14 160.28 o 0.790477
5 5 2 7650.54 7707.20 138.84 o 0.789746
7 1 2 8408.54 8470.83 153.46 o 0.789746
6 4 0 8825.82 8854.91 160.88 o 0.789655
3 2 9 3.70 1.55 2.84 < 0.780283
5 2 7 2.54 1.45 1.39 < 0.779580
5 4 5 9.32 5.89 4.94 < 0.779053
7 2 1 1.29 0.75 0.76 < 0.778528
2 0 10 32.03 21.60 8.26 o 0.777058
6 0 6 63.26 52.08 4.66 o 0.775671
6 4 2 76.29 63.19 4.63 o 0.774980
4 1 9 13.73 22.17 5.71 o 0.752534
6 3 5 22.49 37.62 4.95 o 0.751431
7 2 3 1.10 1.89 0.22 o 0.751116
2 2 10 369.04 355.80 9.69 o 0.749640
5 1 8 354.54 362.26 8.54 o 0.748938
6 2 6 295.48 286.33 6.54 o 0.748394
5 5 4 272.90 258.47 5.97 o 0.748006
7 1 4 410.96 389.23 8.88 o 0.748006
7 3 0 291.04 268.12 6.29 o 0.747696
3 1 10 7005.95 6166.34 111.73 o 0.736976
6 4 4 7355.10 7230.82 130.88 o 0.735423
7 3 2 6520.45 6396.82 114.94 o 0.735202
6 1 7 22.92 49.22 12.50 o 0.726979
6 5 1 13.26 35.32 13.68 < 0.726126
4 4 8 8067.50 7744.65 142.95 o 0.712857
8 0 0 7714.82 7633.22 143.16 o 0.711785
2 1 11 2.77 1.70 1.07 < 0.705549
4 3 9 8.58 4.72 2.19 < 0.704899
5 4 7 5.89 4.14 0.97 o 0.704380
7 2 5 0.81 0.71 0.09 o 0.703992
6 5 3 11.46 10.35 1.13 o 0.703733
8 1 1 28.48 26.70 2.68 o 0.703604
7 4 1 2.99 2.80 0.28 o 0.703604
4 0 10 323.93 305.25 8.40 o 0.702519
5 3 8 410.66 377.79 9.64 o 0.701941
7 3 4 275.10 238.78 6.41 o 0.701173
8 0 2 239.27 208.30 5.81 o 0.700981
3 3 10 5688.50 5567.87 100.44 o 0.692064
6 0 8 6086.98 6163.85 111.01 o 0.691512
5 5 6 5448.09 5523.46 98.72 o 0.691083
7 1 6 5918.57 6000.45 107.83 o 0.691083
8 2 0 6290.26 6221.18 112.49 o 0.690533
5 2 9 1.39 0.30 0.42 < 0.684240
6 3 7 14.48 3.44 2.85 < 0.683765
8 1 3 24.73 9.72 4.26 < 0.683174
7 4 3 2.60 1.02 0.45 < 0.683174
4 2 10 74.44 47.16 5.02 o 0.682062
6 4 6 101.01 80.41 3.91 o 0.681123
8 2 2 118.62 93.47 4.59 o 0.680655
0 0 12 7007.58 6122.12 120.91 o 0.673103
6 2 8 6643.33 6474.87 117.91 o 0.671975
8 0 4 6439.38 6283.62 114.34 o 0.671302
6 6 0 6444.09 6429.13 117.35 o 0.671077
3 2 11 1.77 1.92 0.72 < 0.665843
6 5 5 8.66 12.68 0.72 o 0.664534
8 3 1 18.15 23.46 0.98 o 0.664208
1 1 12 317.96 414.86 17.85 o 0.663890
6 6 2 232.20 311.31 9.34 o 0.662001
7 5 0 429.06 575.30 17.00 o 0.661947
2 0 12 4936.69 5118.25 92.18 o 0.655046
5 1 10 4866.41 4795.95 85.96 o 0.654474
7 3 6 4671.92 4965.78 88.37 o 0.653644
8 2 4 5293.24 5601.46 100.50 o 0.653386
7 5 2 5290.44 5593.77 100.39 o 0.653231
4 1 11 6.72 8.62 1.27 o 0.648349
6 1 9 13.07 15.11 2.35 o 0.647845
7 2 7 0.54 0.59 0.08 o 0.647442
8 1 5 18.82 20.71 3.05 o 0.647141
7 4 5 1.98 2.17 0.32 o 0.647141
8 3 3 15.86 18.14 2.74 o 0.646940
2 2 12 5794.66 4925.11 91.76 o 0.638369
6 6 4 5405.84 5519.42 100.45 o 0.636831
8 4 0 5346.35 5452.42 99.17 o 0.636640
5 4 9 3.41 6.15 0.93 o 0.631698
3 1 12 305.80 434.85 11.60 o 0.630494
4 4 10 260.77 362.39 9.86 o 0.629983
