#------------------------------------------------------------------------------
#$Date: 2017-05-25 04:58:13 +0300 (Thu, 25 May 2017) $
#$Revision: 196959 $
#$URL: file:///home/coder/svn-repositories/cod/cif/7/04/31/7043103.cif $
#------------------------------------------------------------------------------
#
# This file is available in the Crystallography Open Database (COD),
# http://www.crystallography.net/
#
# All data on this site have been placed in the public domain by the
# contributors.
#
data_7043103
loop_
_publ_author_name
'Whittle, Thomas A.'
'Brant, William R.'
'Hester, James R.'
'Gu, Qinfen'
'Schmid, Siegbert'
_publ_section_title
;
 Tailoring phase transition temperatures in perovskites via A-site vacancy
 generation
;
_journal_name_full               'Dalton Trans.'
_journal_paper_doi               10.1039/C7DT00352H
_journal_year                    2017
_chemical_formula_sum            'Nb0.4 O3 Sr0.8 Ti0.24 Zr0.36'
_chemical_formula_weight         199.6
_chemical_name_systematic        ' ?'
_space_group_IT_number           140
_symmetry_cell_setting           tetragonal
_symmetry_Int_Tables_number      140
_symmetry_space_group_name_Hall  '-I 4 2c'
_symmetry_space_group_name_H-M   'I 4/m c m'
_cell_angle_alpha                90
_cell_angle_beta                 90
_cell_angle_gamma                90
_cell_formula_units_Z            4
_cell_length_a                   5.6682(3)
_cell_length_b                   5.6682(3)
_cell_length_c                   8.0170(8)
_cell_measurement_temperature    293
_cell_volume                     257.57(3)
_diffrn_ambient_temperature      293
_diffrn_radiation_probe          neutron
_diffrn_radiation_wavelength     1.622
_exptl_absorpt_coefficient_mu    0.004
_exptl_crystal_density_diffrn    5.1467
_exptl_crystal_F_000             362
_pd_instr_location               ' ?'
_pd_meas_2theta_range_max        163.949
_pd_meas_2theta_range_min        2.750
_pd_meas_number_of_points        3226
_pd_proc_2theta_range_max        162.305
_pd_proc_2theta_range_min        8
_pd_proc_ls_background_function  '18 Legendre polynoms'
_pd_proc_ls_pref_orient_corr     none
_pd_proc_ls_profile_function     Pseudo-Voigt
_pd_proc_ls_prof_R_factor        0.0548
_pd_proc_ls_prof_wR_expected     0.0205
_pd_proc_ls_prof_wR_factor       0.0722
_refine_ls_goodness_of_fit_all   3.52
_refine_ls_number_constraints    1
_refine_ls_number_parameters     31
_refine_ls_number_restraints     0
_refine_ls_R_factor_all          0.0576
_refine_ls_R_factor_gt           0.0576
_refine_ls_shift/su_max          0.0349
_refine_ls_shift/su_mean         0.0042
_refine_ls_weighting_scheme      sigma
_refine_ls_wR_factor_all         0.1100
_refine_ls_wR_factor_gt          0.1100
_cod_data_source_file            c7dt00352h8.cif
_cod_data_source_block           I
_cod_original_cell_volume        257.58(3)
_cod_original_sg_symbol_Hall     '-I 4;-2c'
_cod_database_code               7043103
loop_
_space_group_symop_id
_space_group_symop_operation_xyz
1 x,y,z
2 -x,-y,z
3 -y,x,z
4 y,-x,z
5 -x,y,-z+1/2
6 x,-y,-z+1/2
7 y,x,-z+1/2
8 -y,-x,-z+1/2
9 -x,-y,-z
10 x,y,-z
11 y,-x,-z
12 -y,x,-z
13 x,-y,z+1/2
14 -x,y,z+1/2
15 -y,-x,z+1/2
16 y,x,z+1/2
17 x+1/2,y+1/2,z+1/2
18 -x+1/2,-y+1/2,z+1/2
19 -y+1/2,x+1/2,z+1/2
20 y+1/2,-x+1/2,z+1/2
21 -x+1/2,y+1/2,-z
22 x+1/2,-y+1/2,-z
23 y+1/2,x+1/2,-z
24 -y+1/2,-x+1/2,-z
25 -x+1/2,-y+1/2,-z+1/2
26 x+1/2,y+1/2,-z+1/2
27 y+1/2,-x+1/2,-z+1/2
28 -y+1/2,x+1/2,-z+1/2
29 x+1/2,-y+1/2,z
30 -x+1/2,y+1/2,z
31 -y+1/2,-x+1/2,z
32 y+1/2,x+1/2,z
loop_
_atom_site_label
_atom_site_type_symbol
_atom_site_fract_x
_atom_site_fract_y
_atom_site_fract_z
_atom_site_adp_type
_atom_site_U_iso_or_equiv
_atom_site_site_symmetry_multiplicity
_atom_site_occupancy
_atom_site_calc_flag
Sr Sr 0 0.5 0.25 Uiso 0.0154(3) 4 0.8 d
Ti Ti 0 0 0 Uiso 0.0100(4) 4 0.24 d
Zr Zr 0 0 0 Uiso 0.0100(4) 4 0.36 d
Nb Nb 0 0 0 Uiso 0.0100(4) 4 0.4 d
O1 O 0 0 0.25 Uiso 0.0172(7) 4 1 d
O2 O 0.2667(2) 0.7667(2) 0 Uiso 0.0288(5) 8 1 d
loop_
_atom_type_symbol
_atom_type_scat_length_neutron
_atom_type_scat_source
Sr 7.020 International_Tables_Vol_C
Ti -3.438 International_Tables_Vol_C
Zr 7.160 International_Tables_Vol_C
Nb 7.054 International_Tables_Vol_C
O 5.803 International_Tables_Vol_C
loop_
_geom_angle_atom_site_label_1
_geom_angle_atom_site_label_2
_geom_angle_atom_site_label_3
_geom_angle_site_symmetry_1
_geom_angle_site_symmetry_3
_geom_angle
O1 Sr O1 . 1_565 180.0(5)
O1 Sr O1 . 25_455 90
O1 Sr O1 . 25_555 90
O1 Sr O2 . . 121.05(2)
O1 Sr O2 . 17_445 61.16(2)
O1 Sr O2 . 2_565 58.95(2)
O1 Sr O2 . 18_565 118.84(2)
O1 Sr O2 . 3_655 61.16(2)
O1 Sr O2 . 19_555 121.05(2)
O1 Sr O2 . 4_465 118.84(2)
O1 Sr O2 . 20_455 58.95(2)
O1 Sr O1 1_565 25_455 90
O1 Sr O1 1_565 25_555 90
O1 Sr O2 1_565 . 58.95(2)
O1 Sr O2 1_565 17_445 118.84(2)
O1 Sr O2 1_565 2_565 121.05(2)
O1 Sr O2 1_565 18_565 61.16(2)
O1 Sr O2 1_565 3_655 118.84(2)
O1 Sr O2 1_565 19_555 58.95(2)
O1 Sr O2 1_565 4_465 61.16(2)
O1 Sr O2 1_565 20_455 121.05(2)
O1 Sr O1 25_455 25_555 180.0(5)
O1 Sr O2 25_455 . 121.05(2)
O1 Sr O2 25_455 17_445 61.16(2)
O1 Sr O2 25_455 2_565 58.95(2)
O1 Sr O2 25_455 18_565 118.84(2)
O1 Sr O2 25_455 3_655 118.84(2)
O1 Sr O2 25_455 19_555 58.95(2)
O1 Sr O2 25_455 4_465 61.16(2)
O1 Sr O2 25_455 20_455 121.05(2)
O1 Sr O2 25_555 . 58.95(2)
O1 Sr O2 25_555 17_445 118.84(2)
O1 Sr O2 25_555 2_565 121.05(2)
O1 Sr O2 25_555 18_565 61.16(2)
O1 Sr O2 25_555 3_655 61.16(2)
O1 Sr O2 25_555 19_555 121.05(2)
O1 Sr O2 25_555 4_465 118.84(2)
O1 Sr O2 25_555 20_455 58.95(2)
O2 Sr O2 . 17_445 176.17(2)
O2 Sr O2 . 2_565 93.69(2)
O2 Sr O2 . 18_565 90.13(2)
O2 Sr O2 . 3_655 60.00(3)
O2 Sr O2 . 19_555 117.89(3)
O2 Sr O2 . 4_465 60.00(3)
O2 Sr O2 . 20_455 117.89(3)
O2 Sr O2 17_445 2_565 90.13(2)
O2 Sr O2 17_445 18_565 86.04(3)
O2 Sr O2 17_445 3_655 122.31(3)
O2 Sr O2 17_445 19_555 60.00(3)
O2 Sr O2 17_445 4_465 122.31(3)
O2 Sr O2 17_445 20_455 60.00(3)
O2 Sr O2 2_565 18_565 176.17(2)
O2 Sr O2 2_565 3_655 60.00(3)
O2 Sr O2 2_565 19_555 117.89(3)
O2 Sr O2 2_565 4_465 60.00(3)
O2 Sr O2 2_565 20_455 117.89(3)
O2 Sr O2 18_565 3_655 122.31(3)
O2 Sr O2 18_565 19_555 60.00(3)
O2 Sr O2 18_565 4_465 122.31(3)
O2 Sr O2 18_565 20_455 60.00(3)
O2 Sr O2 3_655 19_555 176.17(2)
O2 Sr O2 3_655 4_465 86.04(3)
O2 Sr O2 3_655 20_455 90.13(2)
O2 Sr O2 19_555 4_465 90.13(2)
O2 Sr O2 19_555 20_455 93.69(2)
O2 Sr O2 4_465 20_455 176.17(2)
O1 Ti O1 . 9_555 180.0(5)
O1 Ti O2 . 1_545 90
O1 Ti O2 . 2_565 90
O1 Ti O2 . 3_655 90
O1 Ti O2 . 4_455 90
O1 Ti O2 9_555 1_545 90
O1 Ti O2 9_555 2_565 90
O1 Ti O2 9_555 3_655 90
O1 Ti O2 9_555 4_455 90
O2 Ti O2 1_545 2_565 180.0(5)
O2 Ti O2 1_545 3_655 90.00(5)
O2 Ti O2 1_545 4_455 90.00(5)
O2 Ti O2 2_565 3_655 90.00(5)
O2 Ti O2 2_565 4_455 90.00(5)
O2 Ti O2 3_655 4_455 180.0(5)
O1 Zr O1 . 9_555 180.0(5)
O1 Zr O2 . 1_545 90
O1 Zr O2 . 2_565 90
O1 Zr O2 . 3_655 90
O1 Zr O2 . 4_455 90
O1 Zr O2 9_555 1_545 90
O1 Zr O2 9_555 2_565 90
O1 Zr O2 9_555 3_655 90
O1 Zr O2 9_555 4_455 90
O2 Zr O2 1_545 2_565 180.0(5)
O2 Zr O2 1_545 3_655 90.00(5)
O2 Zr O2 1_545 4_455 90.00(5)
O2 Zr O2 2_565 3_655 90.00(5)
O2 Zr O2 2_565 4_455 90.00(5)
O2 Zr O2 3_655 4_455 180.0(5)
O1 Nb O1 . 9_555 180.0(5)
O1 Nb O2 . 1_545 90
O1 Nb O2 . 2_565 90
O1 Nb O2 . 3_655 90
O1 Nb O2 . 4_455 90
O1 Nb O2 9_555 1_545 90
O1 Nb O2 9_555 2_565 90
O1 Nb O2 9_555 3_655 90
O1 Nb O2 9_555 4_455 90
O2 Nb O2 1_545 2_565 180.0(5)
O2 Nb O2 1_545 3_655 90.00(5)
O2 Nb O2 1_545 4_455 90.00(5)
O2 Nb O2 2_565 3_655 90.00(5)
O2 Nb O2 2_565 4_455 90.00(5)
O2 Nb O2 3_655 4_455 180.0(5)
loop_
_geom_bond_atom_site_label_1
_geom_bond_atom_site_label_2
_geom_bond_site_symmetry_2
_geom_bond_distance
Sr O1 . 2.8341(3)
Sr O1 1_565 2.8341(3)
Sr O1 25_455 2.8341(3)
Sr O1 25_555 2.8341(3)
Sr O2 . 2.9304(9)
Sr O2 17_445 2.7413(9)
Sr O2 2_565 2.9304(9)
Sr O2 18_565 2.7413(9)
Sr O2 3_655 2.7413(9)
Sr O2 19_555 2.9304(9)
Sr O2 4_465 2.7413(9)
Sr O2 20_455 2.9304(9)
Ti O1 . 2.0043(4)
Ti O1 9_555 2.0043(4)
Ti O2 1_545 2.0085(12)
Ti O2 2_565 2.0085(12)
Ti O2 3_655 2.0085(12)
Ti O2 4_455 2.0085(12)
Zr O1 . 2.0043(4)
Zr O1 9_555 2.0043(4)
Zr O2 1_545 2.0085(12)
Zr O2 2_565 2.0085(12)
Zr O2 3_655 2.0085(12)
Zr O2 4_455 2.0085(12)
Nb O1 . 2.0043(4)
Nb O1 9_555 2.0043(4)
Nb O2 1_545 2.0085(12)
Nb O2 2_565 2.0085(12)
Nb O2 3_655 2.0085(12)
Nb O2 4_455 2.0085(12)
loop_
_pd_proc_point_id
_pd_proc_2theta_corrected
_pd_proc_intensity_net
_pd_calc_intensity_net
_pd_proc_ls_weight
1 7.8085 711.47 617.85 20.37
2 7.8585 692.01 626.16 20.06
3 7.9085 668.24 634.02 19.81
4 7.9586 685.13 641.47 19.88
5 8.0085 693.55 648.47 20.06
6 8.0585 751.78 655.09 20.84
7 8.1086 706.53 661.33 20.17
8 8.1585 711.89 667.17 20.31
9 8.2085 681.18 672.67 19.88
10 8.2585 709.93 677.83 20.25
11 8.3085 681.96 682.64 19.84
12 8.3586 681.26 687.14 19.81
13 8.4085 696.38 691.32 20.10
14 8.4585 744.22 695.20 20.85
15 8.5086 708.82 698.81 20.21
16 8.5585 711.67 702.12 20.29
17 8.6085 673.03 705.18 19.66
18 8.6585 672.16 707.97 19.68
19 8.7085 743.33 710.53 20.79
20 8.7586 706.73 712.85 20.20
21 8.8085 712.39 714.94 20.34
22 8.8585 686.91 716.81 19.81
23 8.9085 652.18 718.48 19.29
24 8.9585 677.55 719.95 19.64
25 9.0085 705.78 721.23 20.23
26 9.0585 669.41 722.33 19.58
27 9.1085 712.56 723.26 20.28
28 9.1585 685.67 724.02 19.96
29 9.2085 709.00 724.62 20.09
30 9.2585 669.67 725.07 19.59
31 9.3085 691.66 725.38 19.88
32 9.3585 675.62 725.56 19.57
33 9.4085 679.11 725.60 19.69
34 9.4585 659.72 725.53 19.40
35 9.5085 662.75 725.34 19.39
36 9.5585 685.13 725.03 19.80
37 9.6085 681.97 724.63 19.73
38 9.6585 679.02 724.13 19.74
39 9.7085 653.57 723.54 19.33
40 9.7586 702.20 722.86 20.07
41 9.8085 681.01 722.10 19.70
42 9.8585 701.58 721.27 19.97
43 9.9085 702.31 720.36 19.98
44 9.9585 713.86 719.40 20.25
45 10.0085 685.83 718.37 19.77
46 10.0585 682.22 717.28 21.62
47 10.1085 706.54 716.15 21.91
48 10.1585 682.54 714.97 21.51
49 10.2085 647.69 713.74 21.02
50 10.2585 648.88 712.47 21.12
51 10.3085 702.52 711.17 22.05
52 10.3585 666.49 709.84 21.33
53 10.4085 655.83 708.49 21.30
54 10.4585 697.40 707.10 21.81
55 10.5085 700.67 705.70 21.79
56 10.5585 738.25 704.28 22.38
57 10.6085 680.29 702.84 21.48
58 10.6585 693.44 701.40 21.64
59 10.7085 702.33 699.94 21.89
60 10.7585 713.57 698.48 22.01
61 10.8085 680.94 697.01 21.49
62 10.8585 656.45 695.55 20.94
63 10.9085 701.29 694.08 21.67
64 10.9585 674.43 692.62 21.40
65 11.0086 646.56 691.16 20.81
66 11.0585 673.25 689.72 21.36
67 11.1085 701.89 688.29 21.70
68 11.1585 708.47 686.86 22.01
69 11.2085 704.11 685.46 21.87
70 11.2585 699.70 684.06 21.80
71 11.3085 700.98 682.69 21.73
72 11.3585 690.46 681.33 21.43
73 11.4085 689.58 679.99 21.53
74 11.4585 668.29 678.68 20.96
75 11.5085 700.67 677.39 21.83
76 11.5584 669.32 676.13 21.38
77 11.6085 676.20 674.89 21.29
78 11.6585 630.59 673.68 20.74
79 11.7085 700.76 672.49 21.47
80 11.7585 669.05 671.34 21.13
81 11.8085 667.94 670.21 21.11
82 11.8585 714.44 669.12 21.81
83 11.9085 680.98 668.06 21.45
84 11.9585 710.71 667.03 21.83
85 12.0085 670.72 666.03 21.15
86 12.0585 660.65 665.07 20.94
87 12.1085 692.17 664.14 21.54
88 12.1585 699.44 663.25 21.54
89 12.2085 673.19 662.39 21.20
90 12.2586 652.99 661.57 20.79
91 12.3085 677.02 660.78 21.24
92 12.3585 695.49 660.04 21.59
93 12.4085 715.86 659.32 21.78
94 12.4585 648.64 658.65 20.81
95 12.5085 645.72 658.01 20.72
96 12.5585 690.23 657.41 19.87
97 12.6085 680.98 656.85 19.64
98 12.6585 680.33 656.32 19.68
99 12.7085 659.53 655.83 19.29
100 12.7585 688.54 655.38 19.96
101 12.8084 696.23 654.97 19.95
102 12.8585 701.63 654.59 20.02
103 12.9085 688.52 654.25 19.92
104 12.9585 687.73 653.95 19.74
105 13.0085 711.92 653.69 20.13
106 13.0585 668.28 653.46 19.43
107 13.1085 694.22 653.27 19.82
108 13.1585 703.68 653.11 20.03
109 13.2085 675.46 652.99 19.60
110 13.2585 693.58 652.91 19.77
111 13.3085 659.72 652.86 19.33
112 13.3585 668.75 652.85 19.46
113 13.4085 687.68 652.87 19.79
114 13.4585 665.82 652.93 19.46
115 13.5086 680.03 653.02 19.60
116 13.5585 658.72 653.14 19.28
117 13.6085 704.44 653.30 20.00
118 13.6585 667.73 653.49 19.44
119 13.7085 716.27 653.96 20.20
120 13.7585 695.98 654.21 19.86
121 13.8085 677.89 654.50 19.85
122 13.8585 706.63 654.81 20.14
123 13.9085 670.32 655.16 19.62
124 13.9585 699.70 655.53 20.01
125 14.0084 669.49 655.94 19.67
126 14.0584 726.67 656.37 20.54
127 14.1085 706.05 656.83 20.20
128 14.1585 691.31 657.32 20.14
129 14.2085 695.05 657.83 19.91
130 14.2585 724.95 658.37 20.46
131 14.3085 689.58 658.94 19.84
132 14.3585 705.16 659.53 20.12
133 14.4085 686.29 660.14 19.79
134 14.4585 701.54 660.78 20.10
135 14.5085 675.19 661.44 19.69
136 14.5585 664.82 662.12 19.44
137 14.6085 703.63 662.82 20.09
138 14.6585 695.76 663.54 20.00
139 14.7085 689.54 664.29 19.99
140 14.7585 702.87 665.05 20.05
141 14.8085 692.76 665.83 19.94
142 14.8585 676.31 666.63 19.68
143 14.9085 699.99 667.45 20.00
144 14.9585 701.22 668.28 20.09
145 15.0085 688.42 669.13 19.86
146 15.0585 693.18 669.99 20.02
147 15.1085 661.74 670.87 19.42
148 15.1585 659.23 671.76 19.48
149 15.2084 704.15 672.67 20.11
150 15.2584 683.42 673.59 19.90
151 15.3084 703.08 674.52 20.14
152 15.3585 697.54 675.46 20.09
153 15.4085 693.45 676.41 20.10
154 15.4585 721.81 677.38 20.40
155 15.5085 685.67 678.35 19.89
156 15.5585 654.79 679.33 19.34
157 15.6085 648.54 680.32 19.24
158 15.6585 702.15 681.31 20.04
159 15.7085 683.55 682.31 19.81
160 15.7585 704.79 683.32 20.08
161 15.8085 716.89 684.34 20.31
162 15.8585 691.25 685.35 19.94
163 15.9085 654.67 686.38 19.40
164 15.9585 684.52 687.40 19.85
165 16.0086 713.08 688.43 20.23
166 16.0585 676.91 689.46 19.64
167 16.1085 676.14 690.50 19.63
168 16.1585 685.84 691.53 19.83
169 16.2085 707.19 692.57 20.13
170 16.2585 725.22 693.60 20.35
171 16.3085 696.86 694.63 20.40
172 16.3585 674.61 695.67 19.98
173 16.4085 709.10 696.70 20.61
174 16.4584 663.73 697.73 19.82
175 16.5084 643.72 698.75 19.65
176 16.5584 688.66 699.78 20.29
177 16.6085 700.83 700.80 20.49
178 16.6585 695.51 701.81 20.58
179 16.7085 707.86 702.82 20.49
180 16.7585 670.18 703.83 19.90
181 16.8085 686.83 704.83 20.17
182 16.8585 681.15 705.82 20.09
183 16.9085 712.37 706.81 20.61
184 16.9585 664.75 707.79 19.89
185 17.0085 697.12 708.76 20.31
186 17.0585 698.56 709.72 20.37
187 17.1085 697.04 710.68 20.40
188 17.1585 677.99 711.62 20.11
189 17.2085 713.29 712.56 20.57
190 17.2585 656.16 713.49 19.70
191 17.3085 688.92 714.40 20.26
192 17.3585 648.24 715.31 19.57
193 17.4085 711.56 716.20 20.63
194 17.4585 714.45 717.09 20.61
195 17.5085 685.91 717.96 20.20
196 17.5585 689.30 718.82 20.42
197 17.6084 711.58 719.66 20.72
198 17.6584 690.69 720.50 20.31
199 17.7084 693.65 721.32 20.28
200 17.7584 700.78 722.13 20.65
201 17.8084 685.70 722.92 20.35
202 17.8585 650.85 723.71 19.79
203 17.9085 708.80 724.47 20.79
204 17.9585 691.41 725.23 20.33
205 18.0085 681.07 725.97 20.16
206 18.0585 672.03 726.69 19.95
207 18.1085 720.58 727.40 20.72
208 18.1585 705.94 728.09 20.53
209 18.2085 671.47 728.76 20.04
210 18.2585 690.47 729.42 20.26
211 18.3085 723.56 730.07 20.77
212 18.3585 717.52 730.70 20.74
213 18.4085 694.72 731.31 20.35
214 18.4585 698.77 731.91 20.48
215 18.5085 707.51 732.49 20.55
216 18.5585 679.07 733.05 20.06
217 18.6085 701.11 733.59 20.42
218 18.6585 682.57 734.12 20.19
219 18.7085 690.45 734.63 20.29
220 18.7585 687.01 735.13 20.23
221 18.8085 721.39 735.60 20.87
222 18.8584 746.28 736.06 21.18
223 18.9084 720.00 736.50 20.84
224 18.9584 741.49 736.93 21.13
225 19.0084 675.39 737.34 20.28
226 19.0584 681.73 737.72 20.26
227 19.1085 700.06 738.10 20.58
228 19.1585 696.74 738.45 20.61
229 19.2085 716.68 738.79 20.72
230 19.2585 751.67 739.11 21.37
231 19.3085 739.57 739.41 21.06
232 19.3585 723.00 739.70 20.81
233 19.4085 721.02 739.97 20.79
234 19.4585 717.25 740.22 20.78
235 19.5085 690.70 740.45 20.29
236 19.5585 721.50 740.67 20.79
237 19.6085 737.81 740.87 21.10
238 19.6585 738.68 741.06 21.17
239 19.7085 739.03 741.23 21.12
240 19.7585 706.68 741.38 20.63
241 19.8085 704.83 741.52 20.51
242 19.8585 705.32 741.65 20.53
243 19.9085 728.56 741.76 20.98
244 19.9585 729.49 741.85 20.93
245 20.0085 737.94 741.94 21.01
246 20.0585 704.77 742.01 21.26
247 20.1084 715.31 742.08 21.40
248 20.1584 734.10 742.14 21.74
249 20.2084 703.29 742.20 21.10
250 20.2584 723.14 742.26 21.59
251 20.3084 758.55 742.34 22.07
252 20.3585 746.96 742.45 21.95
253 20.4085 750.05 742.60 22.16
254 20.4585 758.26 742.83 22.02
255 20.5084 721.22 743.17 21.49
256 20.5584 722.42 743.65 21.46
257 20.6085 735.18 744.32 21.64
258 20.6585 744.19 745.24 21.92
259 20.7084 748.90 746.47 21.96
260 20.7585 735.28 748.06 21.65
261 20.8085 771.52 750.08 22.26
262 20.8585 735.58 752.58 21.66
263 20.9085 730.88 755.61 21.66
264 20.9585 732.97 759.21 21.65
265 21.0085 747.30 763.39 21.84
266 21.0585 757.73 768.16 22.07
267 21.1085 732.37 773.51 21.62
268 21.1585 756.57 779.44 22.02
269 21.2085 793.08 785.92 22.55
270 21.2585 722.45 792.92 21.44
271 21.3084 756.90 800.42 22.06
272 21.3584 763.67 808.42 22.15
273 21.4084 783.03 816.90 22.27
274 21.4584 803.95 825.85 22.62
275 21.5084 772.57 835.28 22.30
276 21.5584 781.63 845.20 22.34
277 21.6084 771.23 855.63 22.28
278 21.6584 760.67 866.61 22.23
279 21.7085 835.49 878.18 23.23
280 21.7584 831.12 890.34 23.17
281 21.8084 893.44 903.19 23.97
282 21.8585 905.86 916.81 24.17
283 21.9085 927.21 931.22 24.54
284 21.9584 931.26 946.49 24.57
285 22.0085 931.51 962.83 24.47
286 22.0585 955.76 980.24 24.88
287 22.1085 951.24 998.91 24.81
288 22.1584 1016.64 1018.96 25.81
289 22.2085 1061.69 1040.72 26.42
290 22.2585 1060.55 1064.34 26.32
291 22.3085 1093.30 1090.16 26.74
292 22.3585 1094.79 1118.60 26.80
293 22.4085 1183.36 1150.16 27.91
294 22.4584 1209.42 1185.35 28.23
295 22.5085 1219.72 1225.14 28.28
296 22.5584 1270.43 1270.01 28.41
297 22.6084 1337.97 1321.07 29.04
298 22.6584 1383.39 1379.05 29.73
299 22.7084 1504.14 1444.57 30.96
300 22.7584 1477.16 1517.85 30.50
301 22.8084 1597.86 1598.49 31.66
302 22.8584 1753.44 1685.22 33.22
303 22.9084 1770.07 1775.63 33.57
304 22.9585 1839.51 1866.32 34.21
305 23.0084 1924.92 1951.99 35.14
306 23.0584 2073.84 2027.44 36.52
307 23.1085 2150.23 2086.35 37.20
308 23.1585 2117.14 2122.36 36.95
309 23.2084 2134.73 2130.39 37.03
310 23.2584 2018.70 2106.93 35.92
311 23.3085 1979.71 2050.78 35.57
312 23.3585 1901.10 1964.17 34.77
313 23.4084 1775.10 1852.31 33.62
314 23.4585 1726.78 1721.81 33.23
315 23.5085 1552.44 1581.86 31.32
316 23.5585 1429.12 1440.52 29.95
317 23.6085 1266.24 1305.04 28.06
318 23.6585 1174.33 1181.01 27.02
319 23.7084 1142.02 1072.34 26.70
320 23.7585 1016.41 980.25 25.00
321 23.8084 889.37 905.63 24.28
322 23.8584 839.21 846.88 23.46
323 23.9084 773.38 802.43 22.58
324 23.9584 758.82 769.42 22.21
325 24.0084 720.33 745.65 21.82
326 24.0584 683.13 728.86 21.12
327 24.1084 712.89 717.12 21.63
328 24.1584 723.23 708.92 21.93
329 24.2085 715.68 703.08 21.54
330 24.2584 716.27 698.81 21.57
331 24.3084 721.07 695.52 21.62
332 24.3585 695.63 692.85 21.22
333 24.4084 712.42 690.57 21.58
334 24.4584 709.51 688.54 21.46
335 24.5084 687.43 686.68 21.10
336 24.5585 740.79 684.92 21.92
337 24.6085 693.03 683.25 21.19
338 24.6584 674.06 681.64 20.93
339 24.7085 734.28 680.09 21.81
340 24.7585 715.43 678.58 21.54
341 24.8085 717.96 677.11 21.56
342 24.8584 697.01 675.68 21.26
343 24.9084 710.69 674.28 21.52
344 24.9584 707.92 672.91 21.47
345 25.0085 723.22 671.56 21.59
346 25.0584 731.96 670.24 21.41
347 25.1084 688.45 668.95 20.68
348 25.1584 646.15 667.67 20.01
349 25.2084 768.69 666.41 22.02
350 25.2584 686.81 665.16 20.77
351 25.3084 707.57 663.94 21.17
352 25.3584 664.74 662.72 20.48
353 25.4084 693.33 661.53 21.13
354 25.4585 688.42 660.34 20.72
355 25.5084 676.03 659.18 20.55
356 25.5584 688.11 658.02 20.65
357 25.6084 710.53 656.88 21.06
358 25.6584 725.86 655.75 21.38
359 25.7084 673.83 654.63 20.54
360 25.7584 690.50 653.52 20.77
361 25.8085 688.20 652.42 20.76
362 25.8584 680.63 651.34 20.63
363 25.9084 660.65 650.26 20.34
364 25.9584 686.48 649.20 20.76
365 26.0085 646.57 648.14 19.95
366 26.0585 694.82 647.10 20.88
367 26.1084 642.12 646.07 19.88
368 26.1584 697.30 645.04 20.82
369 26.2084 664.92 644.03 20.33
370 26.2585 686.22 643.03 20.69
371 26.3084 706.42 642.04 27.92
372 26.3492 661.21 641.23 18.87
373 26.3992 664.93 640.26 18.91
374 26.4492 675.74 639.30 19.00
375 26.4992 675.36 638.34 19.12
376 26.5492 656.52 637.40 18.77
377 26.5992 646.89 636.47 18.71
378 26.6492 663.36 635.55 18.96
379 26.6992 701.17 634.64 19.42
380 26.7492 707.53 633.74 19.47
381 26.7992 658.13 632.85 18.74
382 26.8492 671.31 631.97 18.92
383 26.8993 683.78 631.10 19.14
384 26.9492 699.67 630.25 19.39
385 26.9993 674.09 629.40 19.02
386 27.0492 716.54 628.57 19.63
387 27.0993 640.68 627.74 18.46
388 27.1493 649.27 626.93 18.61
389 27.1992 661.19 626.13 18.86
390 27.2493 648.30 625.34 18.66
391 27.2993 667.04 624.57 18.88
392 27.3493 683.04 623.80 19.17
393 27.3992 678.33 623.05 19.05
394 27.4492 674.33 622.31 18.99
395 27.4993 677.49 621.58 19.06
396 27.5492 677.57 620.86 20.37
397 27.5992 622.98 620.16 19.36
398 27.6492 634.48 619.47 19.45
399 27.6992 653.05 618.79 19.94
400 27.7492 625.40 618.12 19.44
401 27.7992 623.33 617.47 19.57
402 27.8492 616.42 616.82 19.32
403 27.8992 634.21 616.20 19.72
404 27.9492 634.30 615.58 19.66
405 27.9993 635.59 614.97 19.61
406 28.0492 617.18 614.39 19.21
407 28.0992 630.40 613.81 19.40
408 28.1492 638.13 613.25 19.58
409 28.1992 676.64 612.70 20.15
410 28.2492 663.45 612.16 19.89
411 28.2992 656.74 611.64 19.88
412 28.3493 676.45 611.13 20.29
413 28.3992 600.73 610.63 18.95
414 28.4492 652.97 610.15 19.82
415 28.4992 633.83 609.69 19.52
416 28.5493 643.49 609.23 19.69
417 28.5992 609.99 608.79 19.12
418 28.6493 648.94 608.37 19.77
419 28.6992 638.67 607.96 19.68
420 28.7492 625.97 607.56 19.35
421 28.8023 645.42 607.16 16.13
422 28.8584 668.68 606.75 20.75
423 28.9084 657.12 606.40 20.60
424 28.9584 649.84 606.06 20.47
425 29.0084 651.60 605.74 20.70
426 29.0584 630.84 605.44 20.27
427 29.1084 625.85 605.15 20.24
428 29.1584 626.70 604.88 20.32
429 29.2084 640.01 604.62 20.39
430 29.2584 642.18 604.37 20.35
431 29.3084 657.77 604.14 20.62
432 29.3584 625.80 603.93 20.12
433 29.4084 631.59 603.73 20.22
434 29.4584 603.36 603.55 19.71
435 29.5084 626.73 603.39 20.15
436 29.5584 618.45 603.24 19.91
437 29.6084 613.28 603.11 19.90
438 29.6584 645.53 602.99 20.48
439 29.7084 623.83 602.89 20.10
440 29.7585 623.24 602.81 20.07
441 29.8084 628.04 602.75 20.14
442 29.8584 619.97 602.70 20.01
443 29.9084 642.36 602.67 20.35
444 29.9584 606.09 602.66 19.77
445 30.0084 666.53 602.72 20.78
446 30.0584 623.46 602.75 18.77
447 30.1084 642.21 602.79 18.98
448 30.1584 631.23 602.85 18.79
449 30.2084 619.84 602.93 18.62
450 30.2584 646.11 603.03 19.17
451 30.3083 651.64 603.16 19.24
452 30.3584 661.94 603.30 19.45
453 30.4084 620.84 603.46 18.84
454 30.4584 640.58 603.65 19.03
455 30.5084 612.48 603.85 18.58
456 30.5584 650.23 604.08 19.12
457 30.6084 619.69 604.34 18.68
458 30.6584 613.01 604.62 18.58
459 30.7084 633.32 604.93 18.87
460 30.7584 625.74 605.26 18.75
461 30.8084 592.18 605.63 18.17
462 30.8584 615.62 606.03 18.59
463 30.9084 616.46 606.47 18.67
464 30.9584 610.32 606.96 18.54
465 31.0085 657.58 607.51 19.24
466 31.0584 594.02 608.13 18.22
467 31.1084 609.59 608.86 18.47
468 31.1584 609.72 609.72 18.43
469 31.2084 607.91 610.77 18.48
470 31.2584 596.77 612.08 18.27
471 31.3078 625.01 613.71 18.33
472 31.3578 599.66 615.81 17.83
473 31.4078 607.35 618.50 17.94
474 31.4578 634.31 621.92 18.36
475 31.5078 591.35 626.26 17.75
476 31.5578 601.53 631.69 17.93
477 31.6078 590.36 638.38 17.73
478 31.6578 605.09 646.51 18.08
479 31.7078 615.41 656.22 18.04
480 31.7578 669.29 667.66 18.99
481 31.8078 622.95 680.91 18.16
482 31.8578 656.35 696.06 18.67
483 31.9078 645.27 714.85 18.51
484 31.9578 677.37 733.99 19.12
485 32.0078 735.94 755.19 19.89
486 32.0578 749.62 778.56 20.18
487 32.1078 757.14 804.24 20.31
488 32.1578 755.58 832.40 20.28
489 32.2078 793.46 863.35 20.89
490 32.2579 855.34 897.52 21.70
491 32.3078 921.88 935.22 22.58
492 32.3578 932.95 977.33 22.72
493 32.4078 954.02 1024.60 22.97
494 32.4578 998.91 1078.04 23.60
495 32.5078 1070.40 1138.77 24.41
496 32.5526 1108.59 1200.34 25.18
497 32.6026 1220.98 1278.06 26.34
498 32.6526 1252.06 1366.00 26.71
499 32.7025 1360.66 1464.14 27.85
500 32.7525 1451.99 1572.12 28.63
501 32.8025 1559.47 1687.68 29.58
502 32.8526 1736.41 1807.40 31.21
503 32.9026 1792.78 1925.48 31.85
504 32.9526 1995.60 2035.30 33.73
505 33.0026 2040.48 2128.93 34.27
506 33.0526 2019.17 2197.82 33.98
507 33.1026 2078.64 2234.69 34.50
508 33.1526 2030.28 2233.40 34.08
509 33.2026 2059.69 2190.90 34.37
510 33.2526 1941.09 2108.09 33.24
511 33.3026 1859.56 1990.08 32.52
512 33.3526 1683.68 1845.58 30.86
513 33.4026 1558.05 1685.26 29.70
514 33.4526 1442.81 1520.07 28.52
515 33.5027 1254.55 1359.47 26.47
516 33.5526 1146.14 1212.09 25.22
517 33.6026 1010.91 1082.23 23.58
518 33.6526 941.16 972.93 22.75
519 33.7026 825.63 884.63 21.16
520 33.7526 750.77 816.07 20.11
521 33.7972 713.04 769.62 19.63
522 33.8472 655.13 731.31 18.65
523 33.8972 635.47 704.55 18.51
524 33.9472 591.40 686.47 17.64
525 33.9972 602.32 674.65 17.96
526 34.0472 612.03 667.13 18.05
527 34.0972 589.74 662.48 17.71
528 34.1472 634.68 659.68 18.53
529 34.1972 620.83 658.05 18.06
530 34.2472 616.98 657.14 18.11
531 34.2972 623.75 656.68 18.21
532 34.3472 644.44 656.52 18.58
533 34.3972 637.18 656.55 18.37
534 34.4472 642.00 656.72 18.58
535 34.4972 621.19 656.99 18.06
536 34.5472 615.28 657.35 18.03
537 34.5972 594.61 657.77 17.75
538 34.6472 631.18 658.26 18.38
539 34.6972 566.04 658.80 17.32
540 34.7473 619.50 659.40 18.11
541 34.7972 609.00 660.03 17.97
542 34.8472 640.87 660.70 18.41
543 34.8972 615.48 661.41 18.04
544 34.9472 571.57 662.16 17.38
545 34.9972 599.67 662.93 17.78
546 35.0524 640.23 663.82 18.35
547 35.1024 651.33 664.65 18.42
548 35.1524 661.03 665.51 18.67
549 35.2024 631.73 666.39 18.15
550 35.2524 638.94 667.28 18.41
551 35.3024 638.09 668.20 18.32
552 35.3524 629.72 669.14 18.22
553 35.4024 599.44 670.10 17.86
554 35.4524 643.60 671.07 18.33
555 35.5024 626.51 672.06 18.11
556 35.5524 636.05 673.06 18.24
557 35.6025 649.18 674.08 18.50
558 35.6525 669.16 675.12 18.79
559 35.7024 663.11 676.16 18.68
560 35.7524 679.72 677.22 18.80
561 35.8024 646.33 678.29 18.35
562 35.8525 682.20 679.38 18.92
563 35.9024 709.27 680.48 19.40
564 35.9524 686.22 681.59 19.08
565 36.0025 677.53 682.71 18.94
566 36.0525 668.27 683.84 18.69
567 36.1024 670.11 684.98 18.69
568 36.1524 645.76 686.14 18.33
569 36.2024 696.69 687.30 19.17
570 36.2525 723.57 688.48 19.54
571 36.3084 727.94 689.81 19.34
572 36.3583 715.95 691.01 19.03
573 36.4084 741.15 692.23 19.38
574 36.4583 715.56 693.45 19.08
575 36.5083 686.48 694.68 18.64
576 36.5583 733.05 695.93 19.28
577 36.6084 719.05 697.19 19.05
578 36.6584 707.77 698.46 19.04
579 36.7084 757.32 699.74 19.51
580 36.7584 720.44 701.04 19.13
581 36.8083 733.14 702.34 19.19
582 36.8584 768.97 703.67 19.71
583 36.9084 759.41 705.01 19.59
584 36.9584 744.20 706.36 19.44
585 37.0084 736.48 707.73 19.24
586 37.0584 751.05 709.11 19.47
587 37.1084 742.14 710.52 19.39
588 37.1584 723.27 711.94 19.13
589 37.2084 705.36 713.39 18.87
590 37.2584 694.45 714.86 18.70
591 37.3084 711.42 716.37 18.92
592 37.3584 686.94 717.92 18.57
593 37.4084 746.28 719.53 19.43
594 37.4584 703.01 721.21 18.84
595 37.5084 728.01 722.98 19.13
596 37.5583 745.91 724.88 19.95
597 37.6083 764.34 726.95 20.16
598 37.6583 780.39 729.24 20.40
599 37.7083 754.89 731.82 19.99
600 37.7583 768.36 734.75 20.22
601 37.8083 734.56 738.11 19.66
602 37.8584 804.04 741.99 20.72
603 37.9084 752.65 746.47 20.17
604 37.9584 751.30 751.62 19.88
605 38.0084 745.35 757.53 19.90
606 38.0583 757.34 764.27 20.03
607 38.1084 824.43 771.93 21.03
608 38.1584 768.34 780.57 20.20
609 38.2084 760.04 790.28 20.15
610 38.2584 792.41 801.19 20.47
611 38.3084 835.58 813.43 21.15
612 38.3584 811.78 827.20 20.79
613 38.4084 879.24 842.76 21.80
614 38.4584 880.38 860.38 21.83
615 38.5084 881.57 880.39 21.75
616 38.5584 911.24 903.11 22.10
617 38.6084 974.28 928.81 22.91
618 38.6584 992.21 957.61 23.23
619 38.7084 943.05 989.38 22.61
620 38.7584 1042.97 1023.65 23.76
621 38.8083 1067.35 1061.73 24.34
622 38.8583 1098.03 1097.81 24.59
623 38.9083 1147.48 1132.25 25.27
624 38.9583 1192.19 1162.83 25.66
625 39.0083 1173.60 1187.22 25.35
626 39.0583 1201.15 1203.23 25.61
627 39.1084 1175.78 1209.12 25.32
628 39.1584 1184.05 1204.00 25.54
629 39.2084 1164.68 1188.19 25.17
630 39.2584 1131.01 1163.31 24.98
631 39.3083 1109.63 1132.18 24.67
632 39.3584 1079.09 1098.15 24.39
633 39.4084 1089.11 1065.20 24.47
634 39.4583 1059.06 1037.04 24.11
635 39.5084 1001.74 1016.92 23.35
636 39.5584 947.38 1008.00 22.66
637 39.6084 971.37 1012.81 23.02
638 39.6584 954.51 1033.66 22.87
639 39.7084 983.40 1072.56 23.25
640 39.7584 1068.40 1131.41 24.30
641 39.8084 1157.26 1212.07 25.31
642 39.8584 1214.47 1316.39 26.01
643 39.9084 1287.03 1446.27 26.88
644 39.9584 1444.96 1603.71 28.60
645 40.0084 1654.36 1791.04 30.67
646 40.0583 1913.05 2010.53 32.12
647 40.1083 2226.70 2266.54 34.66
648 40.1583 2481.70 2563.24 36.67
649 40.2083 2803.66 2906.44 39.00
650 40.2583 3215.26 3303.22 41.42
651 40.3083 3758.19 3762.00 44.97
652 40.3583 4178.78 4291.54 47.43
653 40.4084 4735.18 4901.19 50.60
654 40.4584 5568.93 5593.62 55.34
655 40.5083 6462.27 6368.22 60.00
656 40.5583 7468.76 7219.35 64.51
657 40.6084 8626.05 8127.58 69.71
658 40.6584 9893.57 9056.16 75.08
659 40.7083 10898.70 9958.29 79.08
660 40.7584 11605.20 10781.00 81.74
661 40.8084 12075.00 11453.80 83.67
662 40.8584 12246.50 11913.30 84.14
663 40.9084 12097.50 12102.70 83.63
664 40.9584 11867.10 11984.00 82.75
665 41.0084 11273.40 11547.30 80.35
666 41.0584 10548.60 10816.90 77.41
667 41.1084 9606.77 9849.60 73.53
668 41.1584 8362.71 8724.30 68.25
669 41.2083 7102.86 7529.99 62.42
670 41.2584 5954.27 6339.91 56.81
671 41.3167 5075.15 5053.61 53.54
672 41.3666 4214.67 4088.45 48.46
673 41.4166 3444.93 3272.73 43.64
674 41.4666 2708.86 2613.93 38.38
675 41.5166 2015.30 2103.13 32.68
676 41.5666 1523.14 1722.23 28.28
677 41.6167 1205.92 1447.87 25.21
678 41.6667 1107.00 1257.44 24.34
679 41.7167 993.41 1128.73 22.85
680 41.7667 992.97 1043.68 23.02
681 41.8167 973.59 988.24 22.76
682 41.8667 954.70 952.13 22.55
683 41.9167 935.40 928.26 22.31
684 41.9667 989.96 911.97 22.98
685 42.0167 927.61 900.32 22.11
686 42.0667 915.45 891.53 21.98
687 42.1167 952.66 884.56 22.50
688 42.1667 919.45 878.80 22.17
689 42.2167 933.89 873.91 22.31
690 42.2667 964.33 869.68 22.57
691 42.3167 933.71 865.99 22.20
692 42.3667 957.80 862.73 22.55
693 42.4167 958.60 859.86 22.65
694 42.4667 961.09 857.31 22.67
695 42.5167 923.46 855.06 22.15
696 42.5691 943.31 852.97 23.40
697 42.6191 880.60 851.21 22.48
698 42.6691 895.06 849.43 22.67
699 42.7191 896.14 848.06 22.64
700 42.7691 906.88 846.85 22.78
701 42.8190 877.67 845.78 22.23
702 42.8691 907.14 844.85 22.71
703 42.9191 886.99 844.04 22.52
704 42.9691 907.18 843.33 22.63
705 43.0191 905.42 842.73 22.70
706 43.0691 882.72 842.22 22.33
707 43.1191 890.18 841.78 22.45
708 43.1691 862.90 841.43 22.08
709 43.2191 859.57 841.14 22.08
710 43.2691 839.82 840.92 21.70
711 43.3191 863.47 840.76 22.06
712 43.3691 803.50 840.66 21.27
713 43.4191 829.34 840.61 21.66
714 43.4691 840.73 840.60 21.81
715 43.5192 836.30 840.64 21.76
716 43.5691 820.06 840.77 21.43
717 43.6191 837.34 840.89 21.76
718 43.6691 833.34 841.05 21.65
719 43.7191 835.81 841.25 21.72
720 43.7691 886.48 841.49 22.37
721 43.8108 853.07 841.71 21.93
722 43.8607 878.69 842.01 22.16
723 43.9108 868.64 842.34 22.10
724 43.9607 840.14 842.69 21.59
725 44.0107 904.90 843.08 22.55
726 44.0607 918.57 843.50 22.61
727 44.1108 913.14 843.95 22.54
728 44.1608 941.70 844.43 23.13
729 44.2108 980.00 844.94 23.41
730 44.2608 957.76 845.48 23.25
731 44.3107 1014.45 846.05 23.95
732 44.3608 1002.20 846.65 23.79
733 44.4108 958.44 847.28 23.26
734 44.4608 1015.52 847.94 23.96
735 44.5108 1003.77 848.64 23.72
736 44.5608 974.98 849.37 23.44
737 44.6108 873.78 850.13 22.11
738 44.6608 931.50 850.94 22.94
739 44.7108 938.21 851.78 23.06
740 44.7608 927.82 852.67 22.82
741 44.8108 905.57 853.60 22.46
742 44.8608 896.91 854.58 22.37
743 44.9108 872.02 855.61 22.09
744 44.9608 910.30 856.69 22.66
745 45.0108 918.48 857.83 22.62
746 45.0518 910.07 859.03 22.95
747 45.1017 839.00 860.28 21.88
748 45.1517 844.39 861.61 21.94
749 45.2017 866.25 863.01 22.17
750 45.2517 842.52 864.50 21.92
751 45.3017 925.16 866.07 22.92
752 45.3518 851.86 867.75 21.96
753 45.4018 868.76 869.53 22.33
754 45.4518 893.90 871.43 22.53
755 45.5018 900.15 873.45 22.75
756 45.5518 884.88 875.62 22.35
757 45.6018 861.23 877.95 22.10
758 45.6518 855.76 880.45 22.13
759 45.7018 889.30 883.14 22.51
760 45.7518 897.92 886.04 22.52
761 45.8018 903.81 889.19 22.72
762 45.8518 932.71 892.61 22.99
763 45.9018 911.47 896.35 22.93
764 45.9518 909.11 900.47 22.92
765 46.0018 883.90 905.04 22.49
766 46.0518 908.62 910.19 22.73
767 46.1018 958.40 916.09 23.44
768 46.1518 883.42 923.03 22.43
769 46.2018 952.40 931.46 23.36
770 46.2518 977.48 942.02 23.68
771 46.2952 991.26 953.67 34.71
772 46.3387 966.89 968.59 24.26
773 46.3886 1016.17 991.30 24.83
774 46.4387 942.27 1022.48 23.73
775 46.4886 1003.76 1065.06 24.71
776 46.5387 1053.35 1123.43 25.29
777 46.5887 1123.51 1202.25 26.17
778 46.6387 1214.78 1307.46 27.52
779 46.6887 1333.74 1445.83 29.01
780 46.7387 1491.81 1624.98 30.98
781 46.7887 1742.68 1853.38 33.68
782 46.8387 2010.52 2140.40 36.46
783 46.8887 2343.23 2496.45 39.57
784 46.9387 2754.51 2933.07 43.10
785 46.9887 3253.42 3462.91 46.96
786 47.0387 3849.27 4099.70 51.21
787 47.0887 4485.57 4857.05 55.34
788 47.1387 5353.70 5746.64 60.53
789 47.1887 6329.11 6775.41 65.96
790 47.2387 7419.93 7940.88 71.30
791 47.2887 9066.34 9226.93 78.85
792 47.3387 10377.90 10599.50 84.30
793 47.3887 12153.70 12003.40 91.54
794 47.4387 14107.50 13362.40 99.26
795 47.4887 14896.70 14583.00 102.04
796 47.5452 15849.50 15667.50 99.92
797 47.5952 16203.10 16256.30 101.13
798 47.6452 16123.60 16413.80 100.76
799 47.6952 15637.10 16097.00 99.17
800 47.7452 14787.60 15312.40 96.06
801 47.7952 13526.30 14121.50 90.50
802 47.8452 12074.60 12630.40 85.43
803 47.8952 10464.20 10968.10 79.09
804 47.9452 8769.37 9262.98 71.73
805 47.9953 7218.06 7623.46 65.23
806 48.0452 5897.81 6142.21 58.85
807 48.0952 4771.95 4862.49 52.63
808 48.1452 3761.94 3809.87 46.73
809 48.1953 2892.71 2979.80 40.88
810 48.2452 2129.84 2355.62 34.81
811 48.2953 1638.04 1900.57 30.36
812 48.3453 1372.32 1582.49 27.67
813 48.3952 1236.16 1366.83 26.13
814 48.4452 1206.88 1223.58 25.78
815 48.4953 1105.25 1130.10 24.57
816 48.5453 1147.07 1069.46 25.05
817 48.5952 1068.48 1029.54 24.02
818 48.6453 1120.24 1002.21 24.71
819 48.6953 1070.19 982.70 24.17
820 48.7452 1015.05 967.92 23.49
821 48.7996 1059.02 955.14 19.81
822 48.8583 1052.60 943.83 23.69
823 48.9083 1044.16 935.59 23.59
824 48.9583 1021.09 928.32 23.24
825 49.0083 1003.46 921.82 23.00
826 49.0583 993.27 915.97 22.77
827 49.1083 958.28 910.68 22.40
828 49.1583 927.09 905.87 22.08
829 49.2083 951.46 901.49 22.17
830 49.2583 972.61 897.48 22.74
831 49.3083 952.14 893.81 22.40
832 49.3583 924.65 890.43 22.01
833 49.4083 931.99 887.32 22.14
834 49.4583 925.50 884.44 22.04
835 49.5083 881.19 881.78 21.38
836 49.5583 863.45 879.31 21.26
837 49.6083 913.88 877.02 21.93
838 49.6583 890.47 874.88 21.63
839 49.7083 871.08 872.88 21.38
840 49.7584 820.85 871.02 20.62
841 49.8083 898.06 869.27 21.60
842 49.8583 902.58 867.64 21.72
843 49.9083 869.68 866.10 21.33
844 49.9583 845.27 864.65 21.04
845 50.0083 828.41 863.29 20.74
846 50.0583 922.92 862.01 23.09
847 50.1083 936.15 860.80 23.10
848 50.1583 890.11 859.66 22.56
849 50.2083 874.39 857.04 22.26
850 50.2583 901.03 856.04 22.60
851 50.3083 901.47 855.09 22.65
852 50.3583 906.70 854.19 22.60
853 50.4083 876.13 853.34 22.46
854 50.4583 866.56 852.54 22.01
855 50.5083 835.01 851.78 21.77
856 50.5583 873.90 851.06 22.15
857 50.6083 893.32 850.39 22.47
858 50.6583 889.40 849.75 22.44
859 50.7083 909.35 849.16 22.73
860 50.7583 899.15 848.60 22.53
861 50.8083 872.01 848.09 22.19
862 50.8583 850.14 847.88 21.85
863 50.9083 893.60 847.47 22.56
864 50.9583 849.61 847.12 21.94
865 51.0084 906.49 846.84 22.71
866 51.0583 884.50 846.67 22.33
867 51.1083 911.07 846.64 22.76
868 51.1583 902.69 846.80 22.59
869 51.2083 921.70 847.23 22.89
870 51.2583 934.38 848.02 23.04
871 51.3083 991.74 849.28 34.01
872 51.3508 1019.67 850.83 24.52
873 51.4008 1008.84 853.37 24.36
874 51.4508 1044.82 856.89 24.70
875 51.5008 1031.42 861.61 24.58
876 51.5508 1080.76 867.79 25.02
877 51.6008 1084.75 875.73 25.16
878 51.6508 1067.22 885.71 25.07
879 51.7009 1109.64 898.05 25.48
880 51.7508 1172.92 912.89 26.33
881 51.8008 1123.95 930.42 25.80
882 51.8508 1098.53 950.55 25.46
883 51.9009 1132.31 972.96 25.79
884 51.9508 1118.44 996.81 25.65
885 52.0009 1086.40 1021.20 25.26
886 52.0508 1165.71 1044.50 26.23
887 52.1009 1111.55 1065.15 25.49
888 52.1509 1118.38 1081.16 25.67
889 52.2009 1106.73 1090.88 25.61
890 52.2509 1104.57 1092.98 25.53
891 52.3009 1051.07 1086.87 24.81
892 52.3509 1100.23 1072.90 25.38
893 52.4008 1047.61 1052.46 24.78
894 52.4508 1054.21 1027.55 24.86
895 52.5009 976.83 1000.55 23.83
896 52.5433 985.86 977.85 34.07
897 52.5921 992.54 953.64 24.23
898 52.6421 948.86 932.51 23.52
899 52.6921 942.15 916.32 23.53
900 52.7421 920.85 905.94 23.11
901 52.7921 925.94 902.00 23.21
902 52.8420 934.93 904.99 23.25
903 52.8921 927.55 915.52 23.15
904 52.9421 925.48 934.31 23.36
905 52.9921 1002.01 962.40 24.08
906 53.0421 1008.36 1001.11 24.33
907 53.0921 1067.21 1051.99 24.97
908 53.1421 1135.18 1116.75 25.79
909 53.1921 1219.08 1196.95 26.85
910 53.2421 1252.64 1293.74 27.21
911 53.2921 1399.28 1407.40 28.81
912 53.3421 1545.86 1536.79 30.42
913 53.3921 1656.66 1678.88 31.51
914 53.4421 1898.65 1828.26 33.94
915 53.4921 2098.40 1977.11 35.75
916 53.5422 2304.27 2115.77 37.48
917 53.5921 2321.39 2232.15 37.62
918 53.6421 2413.05 2315.59 38.35
919 53.6921 2405.68 2355.89 38.36
920 53.7421 2452.89 2346.48 38.66
921 53.7985 2305.83 2274.72 29.90
922 53.8510 2215.07 2156.03 35.39
923 53.9011 2087.98 2007.94 34.24
924 53.9510 1923.53 1840.75 32.88
925 54.0010 1715.28 1667.55 30.83
926 54.0510 1516.80 1500.77 28.78
927 54.1010 1342.44 1349.55 26.87
928 54.1511 1280.50 1219.36 26.26
929 54.2011 1126.91 1113.05 24.62
930 54.2511 1028.93 1029.96 23.46
931 54.3010 963.17 967.87 22.75
932 54.3511 941.52 923.01 22.50
933 54.4011 860.80 891.96 21.54
934 54.4511 839.92 871.05 21.15
935 54.5010 875.16 857.31 21.66
936 54.5511 794.11 848.32 20.50
937 54.6011 818.35 842.45 20.90
938 54.6511 799.72 838.50 20.60
939 54.7011 824.80 835.73 20.95
940 54.7511 799.38 833.67 20.66
941 54.8011 828.23 832.05 21.01
942 54.8511 792.40 830.70 20.51
943 54.9011 757.97 829.53 19.97
944 54.9511 799.29 828.49 20.67
945 55.0010 766.53 827.59 20.14
946 55.0535 734.80 826.70 15.94
947 55.1098 739.21 825.84 19.01
948 55.1598 765.28 825.14 19.41
949 55.2098 774.33 824.49 19.44
950 55.2598 743.41 823.88 19.05
951 55.3097 716.35 823.32 18.66
952 55.3598 712.48 822.80 18.62
953 55.4098 715.16 822.31 18.71
954 55.4598 743.13 821.85 18.93
955 55.5098 810.55 821.41 19.93
956 55.5598 739.71 821.01 18.92
957 55.6098 757.46 820.62 19.25
958 55.6598 702.72 820.26 18.41
959 55.7098 750.12 819.91 19.11
960 55.7598 720.71 819.59 18.67
961 55.8098 745.84 819.28 19.03
962 55.8598 779.00 818.98 19.50
963 55.9098 746.02 818.71 19.09
964 55.9598 739.39 818.44 18.96
965 56.0098 698.12 818.19 18.38
966 56.0598 725.18 817.95 18.73
967 56.1098 754.10 817.72 19.14
968 56.1598 725.73 817.51 18.76
969 56.2098 752.81 817.30 19.18
970 56.2598 717.07 817.11 18.61
971 56.3172 753.04 816.90 19.71
972 56.3672 696.48 816.73 18.75
973 56.4172 764.37 816.57 19.77
974 56.4672 734.06 816.42 19.29
975 56.5172 741.99 816.28 19.47
976 56.5672 749.90 816.15 19.45
977 56.6172 722.22 816.03 19.15
978 56.6673 725.28 815.91 19.26
979 56.7173 742.81 813.69 19.35
980 56.7672 742.41 813.63 19.44
981 56.8172 720.60 813.57 19.08
982 56.8673 746.15 813.53 19.40
983 56.9173 738.23 813.50 19.41
984 56.9672 733.75 813.47 19.33
985 57.0173 747.98 813.47 19.39
986 57.0673 726.70 813.47 19.14
987 57.1173 740.34 813.49 19.34
988 57.1673 741.41 813.53 19.44
989 57.2173 749.17 813.58 19.56
990 57.2673 721.12 813.64 19.09
991 57.3173 694.79 813.73 18.70
992 57.3673 733.71 813.84 19.27
993 57.4173 740.30 813.96 19.37
994 57.4672 750.39 814.11 19.51
995 57.5173 740.08 814.29 19.35
996 57.5777 761.72 814.54 19.92
997 57.6277 722.88 814.78 19.15
998 57.6777 754.91 815.06 19.70
999 57.7277 758.41 815.38 19.65
1000 57.7777 745.78 815.75 19.62
1001 57.8277 777.23 816.16 19.96
1002 57.8778 762.62 816.64 19.77
1003 57.9277 745.15 817.17 19.63
1004 57.9778 768.80 817.80 19.74
1005 58.0277 769.78 818.52 19.90
1006 58.0777 749.78 819.37 19.51
1007 58.1278 763.21 820.40 19.72
1008 58.1778 779.24 821.69 19.89
1009 58.2277 752.72 823.35 19.63
1010 58.2778 780.64 825.60 19.96
1011 58.3278 757.02 828.74 19.65
1012 58.3778 748.03 833.21 19.46
1013 58.4278 789.84 839.70 20.17
1014 58.4778 808.82 849.15 20.46
1015 58.5278 787.30 862.85 20.14
1016 58.5778 875.26 882.50 21.29
1017 58.6278 857.05 910.25 20.96
1018 58.6778 881.09 948.69 21.36
1019 58.7277 944.31 1000.70 22.24
1020 58.7778 1025.18 1069.82 23.13
1021 58.8187 1191.87 1140.91 28.08
1022 58.8687 1313.19 1247.92 29.45
1023 58.9187 1446.23 1378.23 31.00
1024 58.9687 1584.55 1531.24 32.08
1025 59.0187 1825.49 1703.73 34.69
1026 59.0687 2165.10 1889.22 37.59
1027 59.1188 2434.38 2078.11 40.09
1028 59.1688 2628.86 2256.61 41.72
1029 59.2188 2841.38 2410.13 43.43
1030 59.2687 2943.88 2523.08 44.50
1031 59.3187 2906.12 2582.47 44.10
1032 59.3688 2890.16 2578.96 43.74
1033 59.4188 2846.05 2510.59 43.81
1034 59.4687 2818.95 2384.13 43.47
1035 59.5188 2498.87 2212.39 40.87
1036 59.5688 2301.53 2014.03 39.26
1037 59.6188 2027.46 1806.91 36.76
1038 59.6688 1739.31 1606.69 34.13
1039 59.7188 1503.21 1425.20 31.83
1040 59.7688 1324.99 1269.71 29.65
1041 59.8188 1186.04 1143.18 27.71
1042 59.8688 1059.78 1045.08 26.29
1043 59.9188 969.93 972.38 24.97
1044 59.9687 859.23 920.77 23.22
1045 60.0188 818.51 885.29 22.73
1046 60.0582 849.30 865.98 23.22
1047 60.1082 824.36 849.27 22.67
1048 60.1582 805.75 838.53 22.58
1049 60.2082 830.56 831.62 22.94
1050 60.2582 755.97 827.07 21.94
1051 60.3082 728.05 823.94 21.46
1052 60.3582 776.09 821.67 22.29
1053 60.4082 736.79 819.91 21.73
1054 60.4583 764.90 818.47 21.91
1055 60.5082 770.01 817.26 22.09
1056 60.5582 780.25 816.20 22.20
1057 60.6083 818.49 815.27 22.92
1058 60.6583 767.86 814.44 21.86
1059 60.7082 796.99 813.69 22.34
1060 60.7583 777.63 813.02 22.12
1061 60.8083 800.79 812.41 22.49
1062 60.8583 774.88 811.86 22.09
1063 60.9082 759.38 811.36 21.83
1064 60.9583 769.28 810.90 22.06
1065 61.0083 731.37 810.48 21.20
1066 61.0583 714.54 810.09 21.13
1067 61.1083 756.41 809.74 21.78
1068 61.1583 790.70 809.38 22.23
1069 61.2082 797.28 809.08 22.41
1070 61.2583 778.91 808.80 22.14
1071 61.3082 807.03 808.55 22.67
1072 61.3582 830.58 808.31 23.01
1073 61.4082 826.99 808.10 22.94
1074 61.4582 791.05 807.90 22.25
1075 61.5082 796.69 807.72 22.47
1076 61.5582 810.91 807.55 22.68
1077 61.6082 819.14 810.04 22.75
1078 61.6582 816.18 809.93 22.79
1079 61.7083 857.15 809.84 23.32
1080 61.7582 844.33 809.76 23.14
1081 61.8082 831.94 809.69 22.81
1082 61.8583 826.36 809.63 22.81
1083 61.9083 834.29 809.59 23.08
1084 61.9582 887.30 809.56 23.79
1085 62.0083 879.24 809.54 23.60
1086 62.0583 894.82 809.54 23.90
1087 62.1083 860.91 809.56 23.34
1088 62.1582 849.07 809.59 23.35
1089 62.2082 809.69 809.65 22.61
1090 62.2583 816.26 809.74 22.69
1091 62.3083 802.96 809.87 22.40
1092 62.3582 818.43 810.06 22.79
1093 62.4082 776.71 810.35 22.18
1094 62.4582 823.23 810.78 22.91
1095 62.5083 830.04 811.45 22.99
1096 62.5582 782.12 812.44 23.23
1097 62.6082 773.50 813.73 22.98
1098 62.6582 823.06 815.94 23.90
1099 62.7082 835.56 819.12 24.04
1100 62.7582 794.93 823.60 23.47
1101 62.8082 841.48 829.72 24.17
1102 62.8582 839.57 837.85 24.14
1103 62.9082 846.17 848.25 24.41
1104 62.9582 844.84 861.07 24.17
1105 63.0082 795.62 876.22 23.39
1106 63.0582 861.64 893.29 24.46
1107 63.1082 897.34 911.50 24.87
1108 63.1582 881.41 929.71 24.69
1109 63.2082 956.10 946.50 25.84
1110 63.2582 934.51 960.26 25.46
1111 63.3083 944.54 969.49 25.64
1112 63.3582 935.84 972.91 25.51
1113 63.4082 972.74 969.97 26.06
1114 63.4582 899.59 960.85 24.96
1115 63.5083 926.73 946.57 25.26
1116 63.5583 953.51 928.85 25.65
1117 63.6082 897.01 909.52 24.86
1118 63.6582 904.78 890.20 25.02
1119 63.7082 869.65 872.27 24.47
1120 63.7583 877.12 856.59 24.73
1121 63.8082 879.82 843.70 24.02
1122 63.8582 866.74 833.58 23.71
1123 63.9082 869.73 826.01 23.78
1124 63.9582 826.30 820.62 23.08
1125 64.0082 808.78 816.93 22.92
1126 64.0582 878.10 814.50 23.86
1127 64.1082 772.41 812.96 22.33
1128 64.1582 861.50 812.00 23.82
1129 64.2082 872.86 811.42 23.64
1130 64.2582 870.43 811.06 23.81
1131 64.3082 847.44 810.85 23.33
1132 64.3582 881.57 810.72 23.88
1133 64.4082 861.93 810.64 23.70
1134 64.4582 882.54 810.60 23.96
1135 64.5082 840.67 810.58 23.15
1136 64.5582 874.61 810.58 23.74
1137 64.6082 849.24 810.60 23.39
1138 64.6582 879.54 810.63 23.89
1139 64.7082 866.64 810.67 23.73
1140 64.7583 887.05 810.72 24.00
1141 64.8082 859.42 810.78 23.48
1142 64.8582 849.41 810.85 23.46
1143 64.9082 869.09 810.93 23.73
1144 64.9582 828.57 811.03 23.08
1145 65.0169 853.35 811.14 18.78
1146 65.0712 860.95 811.26 23.33
1147 65.1212 845.90 811.38 22.94
1148 65.1712 816.00 811.51 22.56
1149 65.2212 868.39 811.64 23.35
1150 65.2712 818.36 811.78 22.70
1151 65.3212 811.07 811.93 22.52
1152 65.3712 848.79 812.09 23.19
1153 65.4213 799.90 812.28 22.51
1154 65.4713 839.45 812.56 22.89
1155 65.5212 794.27 812.75 22.14
1156 65.5712 803.14 812.94 22.31
1157 65.6213 832.91 813.15 22.80
1158 65.6713 815.26 813.36 22.56
1159 65.7212 808.12 813.59 22.39
1160 65.7713 818.94 813.82 22.52
1161 65.8213 834.95 814.07 22.82
1162 65.8713 765.64 814.32 21.82
1163 65.9213 829.94 814.59 22.84
1164 65.9712 823.79 814.87 22.69
1165 66.0213 874.87 815.17 23.36
1166 66.0713 828.44 815.48 22.74
1167 66.1213 855.05 815.80 23.04
1168 66.1713 843.76 816.14 23.01
1169 66.2212 883.66 816.49 23.58
1170 66.2713 835.10 816.86 22.88
1171 66.3212 857.45 817.25 22.60
1172 66.3712 864.30 817.65 22.73
1173 66.4212 873.66 818.08 22.68
1174 66.4712 873.73 818.53 22.85
1175 66.5212 855.56 819.00 22.57
1176 66.5712 834.12 819.49 22.28
1177 66.6212 822.61 820.01 22.16
1178 66.6712 842.89 820.55 22.37
1179 66.7212 847.66 821.31 22.43
1180 66.7712 855.41 821.92 22.55
1181 66.8212 855.07 822.56 22.45
1182 66.8713 830.71 823.23 22.08
1183 66.9212 832.32 823.94 22.15
1184 66.9712 878.05 824.69 22.87
1185 67.0212 823.07 825.48 22.12
1186 67.0713 899.84 826.32 23.10
1187 67.1213 860.56 827.21 22.55
1188 67.1712 895.12 828.15 23.16
1189 67.2213 829.97 829.15 22.28
1190 67.2713 877.21 830.20 22.78
1191 67.3213 848.08 831.33 22.32
1192 67.3712 840.14 832.53 22.33
1193 67.4212 858.35 833.80 22.53
1194 67.4713 824.01 835.17 21.98
1195 67.5082 892.51 836.23 33.22
1196 67.5617 900.98 837.87 24.22
1197 67.6117 881.04 839.51 23.83
1198 67.6617 883.75 841.28 23.95
1199 67.7117 870.67 843.17 23.61
1200 67.7617 889.91 845.21 23.96
1201 67.8117 834.65 847.41 23.18
1202 67.8618 892.22 849.78 23.89
1203 67.9117 900.57 852.34 24.26
1204 67.9618 926.87 855.12 24.39
1205 68.0117 910.07 857.88 24.26
1206 68.0617 953.38 861.16 24.82
1207 68.1118 891.83 864.75 23.89
1208 68.1618 932.90 868.67 24.59
1209 68.2117 859.39 872.96 23.53
1210 68.2618 951.77 877.68 24.73
1211 68.3118 945.35 882.89 24.65
1212 68.3618 978.50 888.64 25.12
1213 68.4117 938.21 895.01 24.64
1214 68.4618 918.71 902.14 24.44
1215 68.5118 933.13 910.11 24.62
1216 68.5618 926.34 919.11 24.37
1217 68.6118 988.45 929.37 25.19
1218 68.6618 932.85 941.29 24.53
1219 68.7117 1000.87 955.43 25.55
1220 68.7618 1013.35 972.97 25.65
1221 68.8273 1087.19 1004.15 27.18
1222 68.8772 1109.57 1038.59 27.36
1223 68.9273 1173.52 1089.05 28.29
1224 68.9772 1239.63 1164.94 29.14
1225 69.0272 1370.39 1281.66 30.75
1226 69.0772 1549.67 1460.89 32.82
1227 69.1273 1812.44 1733.16 35.78
1228 69.1773 2253.39 2135.36 40.61
1229 69.2273 2899.82 2712.55 46.79
1230 69.2773 3751.02 3511.48 54.30
1231 69.3273 5027.48 4572.89 64.10
1232 69.3773 6421.99 5921.38 73.76
1233 69.4273 8472.87 7551.78 86.34
1234 69.4773 10745.50 9417.16 99.30
1235 69.5273 13373.90 11423.40 113.29
1236 69.5773 16259.60 13426.50 129.02
1237 69.6273 18252.70 15246.30 139.73
1238 69.6773 19360.70 16685.90 145.89
1239 69.7273 19855.80 17562.80 148.52
1240 69.7773 19830.80 17746.90 148.25
1241 69.8273 19464.70 17198.00 145.80
1242 69.8773 18585.20 15985.30 140.96
1243 69.9273 16852.40 14271.50 131.72
1244 69.9773 14675.60 12266.40 119.80
1245 70.0273 11979.50 10177.70 104.88
1246 70.0582 9274.54 8923.65 107.54
1247 70.0987 8263.05 7387.19 79.76
1248 70.1487 6696.04 5724.58 70.05
1249 70.1987 5203.91 4364.52 60.45
1250 70.2487 4032.90 3310.75 52.16
1251 70.2987 3066.89 2533.75 44.28
1252 70.3487 2354.15 1986.83 38.21
1253 70.3987 1769.04 1617.23 32.67
1254 70.4487 1435.61 1375.88 29.18
1255 70.4988 1331.78 1221.79 28.09
1256 70.5487 1190.57 1124.84 26.62
1257 70.5987 1161.28 1062.80 25.98
1258 70.6487 1084.26 1021.83 25.26
1259 70.6987 1072.85 993.28 25.03
1260 70.7487 1043.38 972.07 24.64
1261 70.7987 989.47 955.33 23.97
1262 70.8487 1043.44 941.50 24.72
1263 70.8987 943.69 929.69 23.44
1264 70.9487 998.72 919.40 24.30
1265 70.9987 974.73 910.34 23.96
1266 71.0488 919.42 902.27 23.13
1267 71.0987 918.43 895.09 23.17
1268 71.1487 907.46 888.63 22.85
1269 71.1987 887.75 882.82 22.72
1270 71.2487 862.84 877.57 22.35
1271 71.2968 855.99 872.99 18.85
1272 71.3506 854.33 868.34 23.06
1273 71.4006 787.33 864.43 22.06
1274 71.4505 825.99 860.87 22.51
1275 71.5005 832.65 857.61 22.70
1276 71.5505 822.49 854.63 22.39
1277 71.6006 815.50 851.90 22.35
1278 71.6506 876.44 849.40 23.52
1279 71.7006 818.82 847.33 22.43
1280 71.7506 816.68 845.23 22.50
1281 71.8006 878.10 843.31 23.38
1282 71.8506 859.81 841.55 23.08
1283 71.9006 849.62 839.91 22.97
1284 71.9506 841.92 838.44 22.69
1285 72.0006 826.41 837.11 22.46
1286 72.0506 842.50 835.90 22.66
1287 72.1006 844.64 834.81 22.69
1288 72.1506 847.92 833.85 22.90
1289 72.2006 815.33 833.00 22.40
1290 72.2506 835.89 832.27 22.52
1291 72.3006 820.33 831.66 22.46
1292 72.3506 805.16 831.18 22.21
1293 72.4006 802.32 830.84 22.22
1294 72.4506 802.32 830.65 22.14
1295 72.5006 825.26 830.67 22.33
1296 72.5506 859.18 830.96 23.23
1297 72.6006 845.74 831.67 22.98
1298 72.6506 830.79 833.02 22.85
1299 72.7005 851.03 835.41 23.04
1300 72.7505 845.41 839.48 23.11
1301 72.8005 897.79 846.23 23.61
1302 72.8506 932.16 857.05 24.21
1303 72.9006 928.83 873.76 24.29
1304 72.9506 983.22 898.64 24.70
1305 73.0006 1040.94 934.14 25.61
1306 73.0506 1060.25 982.53 25.78
1307 73.1006 1090.40 1045.28 26.20
1308 73.1506 1168.35 1122.47 27.22
1309 73.2006 1257.48 1211.99 28.19
1310 73.2506 1285.84 1309.15 28.66
1311 73.3006 1390.10 1406.69 29.94
1312 73.3506 1420.80 1495.26 29.95
1313 73.4006 1469.29 1564.60 30.67
1314 73.4506 1438.68 1605.32 30.37
1315 73.5006 1495.30 1611.00 31.08
1316 73.5506 1475.89 1580.34 30.58
1317 73.6006 1464.05 1517.88 30.60
1318 73.6506 1387.65 1432.63 29.83
1319 73.7006 1361.52 1335.42 29.37
1320 73.7506 1297.23 1236.59 28.70
1321 73.8082 1274.00 1131.42 26.09
1322 73.8582 1194.68 1054.03 25.18
1323 73.9082 1156.86 992.66 24.79
1324 73.9581 1087.03 948.27 23.91
1325 74.0081 1062.29 920.39 23.59
1326 74.0581 1062.55 908.54 23.51
1327 74.1082 1036.32 912.61 23.24
1328 74.1582 1012.42 933.35 23.09
1329 74.2082 1099.63 972.38 23.91
1330 74.2582 1089.76 1031.79 23.96
1331 74.3082 1132.73 1113.37 24.48
1332 74.3582 1249.38 1217.38 25.78
1333 74.4082 1311.67 1341.48 26.43
1334 74.4582 1498.20 1479.77 28.28
1335 74.5082 1662.20 1622.41 29.80
1336 74.5582 1707.28 1756.28 30.22
1337 74.6082 1796.42 1866.14 31.03
1338 74.6582 1876.18 1937.28 31.85
1339 74.7082 1844.33 1958.54 31.58
1340 74.7582 1805.42 1925.85 31.15
1341 74.8082 1829.41 1843.92 31.35
1342 74.8582 1747.46 1724.94 30.58
1343 74.9082 1549.15 1584.58 28.74
1344 74.9582 1445.01 1438.42 27.77
1345 75.0082 1256.85 1299.34 25.78
1346 75.0581 1160.96 1176.55 24.81
1347 75.1081 1052.00 1074.46 23.45
1348 75.1582 1026.18 994.41 23.19
1349 75.2081 916.15 935.23 21.84
1350 75.2581 908.49 893.31 21.77
1351 75.3081 833.02 864.94 20.73
1352 75.3582 837.89 846.38 20.78
1353 75.4082 795.13 834.65 20.41
1354 75.4582 788.15 827.19 20.08
1355 75.5082 783.83 822.42 20.14
1356 75.5581 813.32 819.25 20.44
1357 75.6082 806.31 817.01 20.34
1358 75.6582 844.90 815.33 20.85
1359 75.7081 825.21 813.99 20.60
1360 75.7582 828.12 812.87 20.63
1361 75.8082 885.64 811.90 21.51
1362 75.8582 874.00 811.06 21.23
1363 75.9082 899.44 810.32 21.69
1364 75.9582 874.50 809.66 21.30
1365 76.0082 852.42 809.07 20.98
1366 76.0582 923.21 808.54 21.94
1367 76.1082 916.23 808.07 21.82
1368 76.1582 881.82 807.64 21.42
1369 76.2082 914.60 807.25 21.90
1370 76.2647 900.50 806.86 18.02
1371 76.3179 903.06 806.54 22.13
1372 76.3679 905.33 806.27 22.18
1373 76.4179 865.55 806.02 21.66
1374 76.4679 827.56 805.80 21.00
1375 76.5179 810.49 805.60 20.76
1376 76.5679 793.30 805.43 20.48
1377 76.6179 849.40 806.94 21.30
1378 76.6679 786.33 806.83 20.52
1379 76.7180 789.77 806.74 20.48
1380 76.7679 786.72 806.66 20.41
1381 76.8179 767.44 806.60 20.12
1382 76.8679 761.24 806.56 20.12
1383 76.9179 741.06 806.53 19.84
1384 76.9679 753.13 806.52 19.93
1385 77.0179 774.44 806.52 20.23
1386 77.0679 761.92 806.54 20.13
1387 77.1179 717.90 806.57 19.51
1388 77.1679 774.25 806.62 20.31
1389 77.2179 779.62 806.68 20.36
1390 77.2680 771.64 806.76 20.19
1391 77.3179 762.23 806.86 20.04
1392 77.3679 755.54 806.97 19.99
1393 77.4179 711.38 807.09 19.41
1394 77.4679 769.99 807.23 20.25
1395 77.5180 790.68 807.39 20.52
1396 77.5651 762.55 807.56 19.65
1397 77.6150 740.22 807.76 19.44
1398 77.6651 773.75 807.97 19.80
1399 77.7150 781.07 808.21 20.02
1400 77.7650 785.84 808.47 19.99
1401 77.8151 788.15 808.76 20.01
1402 77.8651 777.44 809.08 19.91
1403 77.9151 781.64 809.42 19.88
1404 77.9651 796.51 809.80 20.03
1405 78.0151 755.19 810.22 19.55
1406 78.0651 810.19 808.13 20.27
1407 78.1151 752.19 808.66 19.44
1408 78.1651 816.68 809.24 20.32
1409 78.2151 757.90 809.89 19.57
1410 78.2651 785.34 810.59 19.93
1411 78.3151 779.12 811.38 19.82
1412 78.3651 787.05 812.25 20.01
1413 78.4151 776.60 813.22 19.91
1414 78.4651 765.64 814.32 19.68
1415 78.5151 784.68 815.57 19.89
1416 78.5651 746.26 817.04 19.36
1417 78.6151 760.69 818.82 19.61
1418 78.6651 756.65 821.09 19.50
1419 78.7151 786.13 824.18 19.89
1420 78.7524 768.96 827.34 26.62
1421 78.8053 792.62 833.93 19.23
1422 78.8553 766.19 843.84 18.80
1423 78.9053 789.12 859.57 19.12
1424 78.9553 769.57 884.26 18.83
1425 79.0053 777.78 921.94 18.92
1426 79.0553 848.59 977.30 19.72
1427 79.1053 900.42 1054.95 20.41
1428 79.1553 961.79 1158.44 21.16
1429 79.2053 1014.57 1288.69 21.67
1430 79.2553 1198.72 1442.66 23.85
1431 79.3053 1284.13 1612.34 24.62
1432 79.3553 1396.62 1784.35 25.72
1433 79.4053 1485.74 1940.93 26.64
1434 79.4553 1593.83 2061.99 27.61
1435 79.5053 1617.94 2129.07 27.79
1436 79.5553 1590.68 2130.42 27.56
1437 79.6053 1529.78 2065.53 26.94
1438 79.6553 1472.06 1945.57 26.45
1439 79.7053 1432.99 1789.21 26.16
1440 79.7554 1314.27 1616.60 24.93
1441 79.8053 1216.73 1446.79 23.94
1442 79.8553 1056.06 1292.34 22.15
1443 79.9053 1039.52 1161.77 22.08
1444 79.9553 965.82 1058.23 21.18
1445 80.0139 904.95 969.87 17.08
1446 80.0696 879.25 913.69 20.86
1447 80.1196 846.66 880.84 20.45
1448 80.1695 836.08 859.84 20.30
1449 80.2195 820.42 846.74 20.09
1450 80.2695 806.66 838.72 19.92
1451 80.3196 825.57 833.78 20.07
1452 80.3696 795.67 830.65 19.78
1453 80.4196 787.94 828.58 19.60
1454 80.4696 792.85 827.13 19.70
1455 80.5196 793.14 826.07 19.70
1456 80.5696 792.96 825.25 19.62
1457 80.6196 790.72 824.63 19.80
1458 80.6696 790.55 824.15 19.72
1459 80.7196 811.52 823.78 19.92
1460 80.7696 782.82 823.53 19.51
1461 80.8196 838.20 823.36 20.34
1462 80.8696 798.54 823.28 19.88
1463 80.9196 770.68 823.26 19.49
1464 80.9696 786.64 823.31 19.60
1465 81.0196 845.92 823.42 20.50
1466 81.0696 773.42 823.59 19.47
1467 81.1196 793.33 823.81 19.64
1468 81.1696 786.71 824.09 19.71
1469 81.2196 815.73 824.41 20.02
1470 81.2746 805.19 824.81 16.23
1471 81.3328 781.46 825.30 19.64
1472 81.3828 800.86 825.77 20.06
1473 81.4328 884.89 826.29 21.06
1474 81.4828 831.02 826.85 20.34
1475 81.5328 844.89 828.95 20.48
1476 81.5829 853.05 829.63 20.62
1477 81.6328 866.67 830.32 20.89
1478 81.6829 833.76 831.03 20.32
1479 81.7329 840.99 831.87 20.56
1480 81.7828 889.71 832.78 21.07
1481 81.8329 844.29 833.75 20.51
1482 81.8829 847.83 834.80 20.57
1483 81.9328 847.84 835.92 20.63
1484 81.9829 880.97 837.13 20.91
1485 82.0329 878.33 838.44 21.03
1486 82.0829 869.20 839.85 20.77
1487 82.1329 907.69 841.39 21.39
1488 82.1829 860.29 843.09 20.80
1489 82.2329 909.52 845.00 21.38
1490 82.2829 873.12 847.21 20.88
1491 82.3329 873.76 849.87 20.84
1492 82.3829 912.29 853.27 21.44
1493 82.4328 866.10 857.86 20.80
1494 82.4829 883.54 864.38 21.01
1495 82.5455 949.90 876.84 21.09
1496 82.5955 967.48 891.96 21.19
1497 82.6455 977.72 913.43 21.37
1498 82.6954 1016.04 942.78 21.74
1499 82.7454 1053.15 981.23 22.06
1500 82.7954 1055.80 1028.85 22.03
1501 82.8455 1114.30 1084.20 22.67
1502 82.8955 1164.87 1144.23 23.30
1503 82.9455 1158.32 1203.85 23.16
1504 82.9955 1186.81 1256.61 23.59
1505 83.0455 1235.32 1295.55 24.10
1506 83.0955 1204.43 1314.85 23.79
1507 83.1455 1210.71 1311.90 23.86
1508 83.1955 1182.41 1288.52 23.55
1509 83.2455 1188.55 1250.26 23.57
1510 83.2955 1189.66 1204.38 23.61
1511 83.3455 1133.13 1158.00 23.03
1512 83.3955 1120.58 1117.31 22.93
1513 83.4455 1167.05 1087.30 23.40
1514 83.4955 1138.91 1072.30 23.09
1515 83.5455 1114.05 1077.11 22.78
1516 83.5955 1148.58 1108.78 23.16
1517 83.6455 1248.85 1178.70 24.25
1518 83.6955 1276.51 1304.81 24.55
1519 83.7455 1405.19 1512.71 25.75
1520 83.8113 1742.27 1966.90 29.21
1521 83.8612 2241.56 2494.30 33.38
1522 83.9113 2943.83 3215.94 38.41
1523 83.9612 3810.75 4138.04 43.63
1524 84.0112 5054.08 5246.75 50.13
1525 84.0612 6413.32 6483.04 56.60
1526 84.1113 7731.05 7749.60 62.63
1527 84.1613 8710.25 8903.17 66.69
1528 84.2113 9356.81 9788.36 69.72
1529 84.2613 9800.81 10256.80 71.69
1530 84.3113 9849.33 10218.20 71.63
1531 84.3613 9583.96 9680.05 70.52
1532 84.4113 8891.34 8743.98 67.80
1533 84.4612 7627.39 7565.30 62.32
1534 84.5113 6442.54 6294.16 56.90
1535 84.5613 5147.88 5070.74 50.52
1536 84.6113 4030.05 3986.20 44.45
1537 84.6613 3311.06 3092.13 40.18
1538 84.7113 2663.69 2401.27 35.89
1539 84.7613 2178.47 1898.25 32.36
1540 84.8113 1744.35 1551.22 28.82
1541 84.8613 1477.16 1322.63 26.54
1542 84.9113 1263.38 1177.63 24.63
1543 84.9613 1098.58 1087.76 22.88
1544 85.0113 1120.13 1032.24 23.18
1545 85.0622 1107.76 996.66 24.08
1546 85.1122 1048.50 973.54 23.29
1547 85.1622 983.64 957.22 22.53
1548 85.2121 978.48 944.78 22.44
1549 85.2621 949.98 934.78 22.07
1550 85.3121 1002.57 926.45 22.60
1551 85.3622 1004.02 919.35 22.69
1552 85.4122 942.72 913.24 22.01
1553 85.4622 964.24 907.92 22.16
1554 85.5122 931.07 903.28 21.91
1555 85.5622 927.33 899.20 21.74
1556 85.6122 920.90 895.63 21.68
1557 85.6622 922.68 892.48 21.72
1558 85.7122 933.78 889.71 21.87
1559 85.7622 920.85 887.28 21.60
1560 85.8122 943.09 885.13 22.03
1561 85.8622 893.14 883.24 21.29
1562 85.9122 914.61 881.59 21.64
1563 85.9622 946.57 880.14 22.02
1564 86.0122 882.14 878.89 21.13
1565 86.0622 919.17 877.80 21.63
1566 86.1122 908.30 876.87 21.50
1567 86.1622 905.42 876.08 21.53
1568 86.2122 917.91 875.42 21.77
1569 86.2679 913.72 874.83 18.39
1570 86.3187 959.62 874.41 23.78
1571 86.3687 946.20 874.13 23.53
1572 86.4187 952.40 874.02 23.66
1573 86.4687 924.61 873.91 23.21
1574 86.5187 937.69 873.90 23.41
1575 86.5687 948.80 873.98 23.47
1576 86.6187 940.52 874.14 23.47
1577 86.6688 955.45 874.39 23.62
1578 86.7188 928.09 874.73 23.31
1579 86.7687 979.55 875.15 24.05
1580 86.8187 964.17 875.66 23.81
1581 86.8687 963.27 876.26 23.93
1582 86.9188 993.44 876.94 24.25
1583 86.9687 988.24 877.72 23.99
1584 87.0188 1008.12 878.60 24.31
1585 87.0688 927.03 879.58 23.15
1586 87.1187 959.28 880.67 23.68
1587 87.1688 953.69 881.88 23.71
1588 87.2188 924.31 883.22 23.21
1589 87.2688 924.87 884.69 23.21
1590 87.3188 962.35 886.31 23.64
1591 87.3688 917.88 888.09 23.03
1592 87.4188 931.67 890.05 23.41
1593 87.4687 907.55 891.99 23.03
1594 87.5188 936.28 894.38 23.57
1595 87.5475 873.95 895.86 27.41
1596 87.5884 883.56 898.12 21.90
1597 87.6384 913.04 901.16 22.34
1598 87.6884 919.93 904.54 22.14
1599 87.7384 896.62 908.31 21.94
1600 87.7884 901.41 912.52 22.08
1601 87.8384 947.68 917.25 22.55
1602 87.8884 921.53 922.58 22.38
1603 87.9384 943.16 928.64 22.52
1604 87.9884 963.17 935.56 22.88
1605 88.0384 941.12 943.59 22.52
1606 88.0884 936.04 953.10 22.46
1607 88.1384 961.91 964.78 22.77
1608 88.1884 1008.72 979.89 23.37
1609 88.2384 995.95 1000.87 23.06
1610 88.2884 1039.87 1032.13 23.76
1611 88.3384 1110.29 1081.38 24.43
1612 88.3884 1154.85 1161.17 25.25
1613 88.4384 1283.41 1290.41 26.61
1614 88.4885 1365.22 1495.57 27.44
1615 88.5384 1626.60 1806.93 29.99
1616 88.5884 1967.38 2259.31 33.08
1617 88.6384 2566.85 2879.51 37.95
1618 88.6884 3321.76 3677.67 43.38
1619 88.7385 4330.47 4638.12 49.89
1620 88.8028 6199.68 6014.01 56.54
1621 88.8527 6945.63 7069.40 60.17
1622 88.9028 7562.41 7971.65 63.01
1623 88.9527 7869.06 8568.78 64.39
1624 89.0027 7767.50 8748.27 63.50
1625 89.0527 7600.91 8469.66 62.75
1626 89.1028 7043.52 7791.03 60.04
1627 89.1528 6132.75 6843.06 55.52
1628 89.2028 5261.07 5770.50 51.28
1629 89.2528 4251.10 4702.92 45.89
1630 89.3028 3504.00 3736.54 41.31
1631 89.3528 2740.99 2927.99 36.23
1632 89.4028 2268.98 2297.48 32.83
1633 89.4528 1867.58 1835.80 29.60
1634 89.5028 1629.67 1516.68 27.61
1635 89.5528 1366.16 1306.89 25.22
1636 89.6028 1221.10 1174.31 23.82
1637 89.6528 1132.59 1092.62 23.02
1638 89.7028 1070.51 1042.44 22.43
1639 89.7528 1037.43 1010.87 21.97
1640 89.8028 1053.11 989.95 22.14
1641 89.8528 1018.56 975.08 21.68
1642 89.9028 1041.65 963.77 22.02
1643 89.9528 1006.24 954.66 21.60
1644 90.0028 1017.95 947.07 21.72
1645 90.0581 1009.00 939.96 22.76
1646 90.1081 1021.75 934.45 22.85
1647 90.1581 1037.70 929.64 23.07
1648 90.2080 980.90 925.44 22.30
1649 90.2581 966.31 921.72 22.05
1650 90.3080 940.11 918.46 21.72
1651 90.3581 982.65 915.56 22.18
1652 90.4081 956.72 912.99 22.04
1653 90.4581 896.81 910.71 21.13
1654 90.5081 952.88 908.68 21.99
1655 90.5581 939.65 906.88 21.75
1656 90.6081 969.98 905.27 22.12
1657 90.6581 973.66 903.84 22.23
1658 90.7081 933.51 902.56 21.68
1659 90.7581 956.59 901.42 21.94
1660 90.8081 936.90 900.41 21.76
1661 90.8581 941.23 899.52 21.78
1662 90.9081 951.47 898.66 21.96
1663 90.9581 959.81 897.98 22.11
1664 91.0081 931.94 897.38 21.72
1665 91.0581 981.37 896.86 22.22
1666 91.1081 975.87 896.43 22.19
1667 91.1581 911.14 896.07 21.42
1668 91.2081 911.28 895.78 21.41
1669 91.2581 949.49 895.57 21.84
1670 91.3142 951.10 895.96 22.19
1671 91.3642 941.37 895.90 21.98
1672 91.4142 957.57 895.91 22.29
1673 91.4642 1000.01 895.99 22.63
1674 91.5142 962.14 896.15 22.22
1675 91.5642 986.69 896.39 22.46
1676 91.6142 987.37 896.74 22.44
1677 91.6642 964.05 897.22 22.32
1678 91.7143 1007.55 897.87 22.61
1679 91.7642 988.24 898.80 22.55
1680 91.8142 1062.04 900.19 23.37
1681 91.8642 1056.50 902.38 23.37
1682 91.9142 1026.79 905.93 23.04
1683 91.9642 1032.31 911.73 23.10
1684 92.0142 1075.89 919.42 23.54
1685 92.0643 1083.96 933.96 23.66
1686 92.1142 1116.73 955.41 24.02
1687 92.1642 1117.19 985.53 24.14
1688 92.2142 1164.27 1025.15 24.64
1689 92.2643 1230.09 1073.94 25.24
1690 92.3143 1254.58 1129.25 25.57
1691 92.3642 1228.41 1186.48 25.21
1692 92.4142 1314.78 1239.25 26.18
1693 92.4642 1358.52 1279.52 26.64
1694 92.5143 1405.84 1299.81 27.13
1695 92.5642 1385.26 1295.70 26.50
1696 92.6142 1380.66 1268.29 26.39
1697 92.6642 1376.75 1223.41 26.42
1698 92.7142 1362.38 1169.02 26.20
1699 92.7642 1274.03 1112.69 25.19
1700 92.8142 1251.68 1060.41 24.91
1701 92.8642 1201.71 1015.99 24.41
1702 92.9142 1189.71 981.21 24.37
1703 92.9643 1152.61 956.11 23.89
1704 93.0142 1084.56 939.87 23.31
1705 93.0642 1104.04 931.16 23.45
1706 93.1142 1071.44 929.16 23.13
1707 93.1642 1080.82 933.71 23.24
1708 93.2142 1056.41 945.60 22.94
1709 93.2642 1039.84 966.37 22.66
1710 93.3143 1029.82 998.03 22.65
1711 93.3642 1042.54 1041.97 22.76
1712 93.4142 1016.86 1098.74 22.52
1713 93.4642 1100.28 1166.51 23.49
1714 93.5143 1064.72 1240.94 23.10
1715 93.5643 1072.48 1314.29 23.10
1716 93.6142 1101.05 1376.81 23.44
1717 93.6642 1100.72 1418.08 23.44
1718 93.7142 1161.27 1429.36 24.13
1719 93.7643 1104.23 1408.01 23.45
1720 93.8080 1128.98 1366.29 23.98
1721 93.8580 1072.77 1300.69 23.29
1722 93.9080 1060.16 1226.26 23.13
1723 93.9580 998.01 1152.43 22.41
1724 94.0080 965.53 1086.04 22.00
1725 94.0580 961.03 1031.05 21.86
1726 94.1081 977.79 988.59 22.07
1727 94.1581 936.46 958.02 21.72
1728 94.2081 974.61 937.21 21.94
1729 94.2581 913.85 923.76 21.41
1730 94.3080 916.16 915.40 21.35
1731 94.3581 913.40 910.29 21.31
1732 94.4081 908.10 907.20 21.29
1733 94.4580 924.28 905.26 21.47
1734 94.5081 882.94 903.98 20.89
1735 94.5581 877.14 903.08 20.91
1736 94.6081 893.76 902.40 21.03
1737 94.6581 916.79 901.86 21.46
1738 94.7081 901.09 901.44 21.29
1739 94.7581 929.86 901.09 21.59
1740 94.8081 861.87 900.81 20.64
1741 94.8581 863.85 900.58 20.69
1742 94.9081 861.40 900.39 20.70
1743 94.9581 872.63 900.25 20.93
1744 95.0081 874.75 900.14 20.85
1745 95.0523 924.26 900.23 21.85
1746 95.1023 934.63 900.17 21.88
1747 95.1523 884.32 900.14 21.31
1748 95.2023 891.37 900.13 21.29
1749 95.2523 886.65 900.14 21.24
1750 95.3023 884.24 900.17 21.11
1751 95.3524 915.94 900.21 21.53
1752 95.4024 921.29 900.26 21.74
1753 95.4524 871.93 900.34 20.92
1754 95.5024 904.95 900.42 21.53
1755 95.5523 880.93 900.51 21.15
1756 95.6024 917.69 900.62 21.56
1757 95.6524 890.88 900.74 21.22
1758 95.7024 907.14 900.87 21.50
1759 95.7524 875.61 901.01 21.01
1760 95.8024 925.30 901.16 21.69
1761 95.8524 923.29 901.33 21.64
1762 95.9024 908.44 901.50 21.56
1763 95.9524 845.00 901.69 20.69
1764 96.0024 905.25 901.89 21.52
1765 96.0524 835.01 902.11 20.48
1766 96.1024 823.97 902.33 20.33
1767 96.1524 873.02 902.58 21.09
1768 96.2024 869.91 902.83 21.03
1769 96.2524 874.95 903.11 21.04
1770 96.2872 868.72 903.31 20.52
1771 96.3372 920.74 903.62 21.00
1772 96.3872 899.15 903.94 20.85
1773 96.4372 917.42 904.29 21.04
1774 96.4872 894.69 904.67 20.71
1775 96.5372 912.22 903.62 20.84
1776 96.5872 865.62 904.07 20.32
1777 96.6372 879.56 904.55 20.57
1778 96.6873 867.51 905.08 20.30
1779 96.7372 878.67 905.64 20.58
1780 96.7872 892.90 906.25 20.65
1781 96.8373 883.06 906.92 20.54
1782 96.8872 877.29 907.64 20.46
1783 96.9372 914.27 908.43 20.92
1784 96.9872 871.82 909.29 20.41
1785 97.0373 885.00 910.25 20.59
1786 97.0873 903.09 911.30 20.77
1787 97.1372 880.43 912.47 20.63
1788 97.1872 910.74 913.76 20.99
1789 97.2373 870.53 915.22 20.44
1790 97.2873 914.23 916.85 20.92
1791 97.3372 899.96 918.69 20.73
1792 97.3872 916.81 920.79 20.99
1793 97.4372 861.82 923.18 20.29
1794 97.4873 888.40 925.96 20.64
1795 97.5278 941.79 928.55 29.65
1796 97.5741 916.14 932.01 20.52
1797 97.6241 933.66 936.60 20.70
1798 97.6741 955.04 942.60 20.96
1799 97.7241 960.44 951.03 20.96
1800 97.7741 956.43 963.75 20.81
1801 97.8241 1021.05 984.06 21.58
1802 97.8741 1019.46 1017.27 21.64
1803 97.9242 1053.13 1071.43 21.98
1804 97.9741 1100.44 1156.66 22.56
1805 98.0241 1249.10 1285.58 24.15
1806 98.0741 1422.36 1469.68 25.81
1807 98.1242 1652.11 1716.65 27.90
1808 98.1741 1981.05 2023.08 30.68
1809 98.2242 2438.43 2376.74 34.17
1810 98.2742 2816.96 2745.41 36.94
1811 98.3242 3119.25 3085.11 38.93
1812 98.3742 3266.18 3341.57 39.93
1813 98.4242 3355.40 3463.70 40.56
1814 98.4742 3288.87 3424.04 40.18
1815 98.5242 3075.12 3232.61 38.68
1816 98.5742 2703.22 2930.72 36.10
1817 98.6241 2394.29 2573.04 33.88
1818 98.6741 2080.43 2208.27 31.48
1819 98.7242 1801.61 1874.32 29.16
1820 98.7704 1590.19 1614.30 38.53
1821 98.8171 1486.43 1405.57 27.27
1822 98.8670 1240.26 1240.61 24.75
1823 98.9171 1169.87 1126.49 24.02
1824 98.9670 1084.99 1052.18 23.11
1825 99.0170 1034.54 1005.37 22.37
1826 99.0670 918.03 976.61 21.02
1827 99.1171 918.25 958.85 20.99
1828 99.1671 913.64 947.57 21.04
1829 99.2171 917.13 939.93 20.96
1830 99.2671 899.49 934.36 20.92
1831 99.3171 943.76 930.03 21.42
1832 99.3671 891.96 926.49 20.78
1833 99.4171 872.81 923.49 20.60
1834 99.4671 888.18 920.92 20.78
1835 99.5171 903.99 918.67 20.92
1836 99.5671 920.28 916.71 21.10
1837 99.6171 850.99 914.97 20.29
1838 99.6671 846.40 913.43 20.30
1839 99.7171 911.07 912.05 21.07
1840 99.7671 887.37 910.82 20.80
1841 99.8171 885.60 909.72 20.67
1842 99.8671 912.99 908.73 21.01
1843 99.9171 880.83 907.75 20.61
1844 99.9671 889.08 906.94 20.82
1845 100.0171 871.01 906.21 20.57
1846 100.0608 902.90 905.63 22.23
1847 100.1108 862.69 905.02 21.52
1848 100.1608 925.12 904.47 22.51
1849 100.2108 903.66 903.97 22.14
1850 100.2608 863.76 903.52 21.58
1851 100.3108 852.21 903.12 21.42
1852 100.3609 906.78 902.76 22.12
1853 100.4108 902.54 902.45 22.17
1854 100.4609 944.72 902.18 22.48
1855 100.5108 940.28 901.95 22.64
1856 100.5608 919.39 901.76 22.21
1857 100.6109 913.93 901.61 22.22
1858 100.6609 948.62 901.51 22.70
1859 100.7108 906.62 901.46 22.19
1860 100.7609 939.84 901.45 22.53
1861 100.8109 945.21 901.51 22.61
1862 100.8609 910.81 901.62 22.13
1863 100.9108 919.58 901.80 22.32
1864 100.9609 889.16 902.06 21.90
1865 101.0109 926.48 902.40 22.38
1866 101.0609 952.58 902.77 22.72
1867 101.1109 956.18 903.37 22.78
1868 101.1609 951.34 904.14 22.69
1869 101.2108 981.22 905.15 23.10
1870 101.2609 940.58 906.54 22.51
1871 101.3063 960.30 908.34 22.38
1872 101.3563 1051.33 911.78 23.44
1873 101.4064 1018.38 917.45 23.10
1874 101.4563 1043.62 925.58 23.22
1875 101.5063 1074.34 939.04 23.50
1876 101.5563 1091.20 960.69 23.62
1877 101.6064 1101.27 994.04 23.78
1878 101.6564 1155.05 1042.37 24.46
1879 101.7064 1155.40 1108.13 24.30
1880 101.7564 1210.52 1191.26 25.14
1881 101.8063 1281.62 1288.01 25.81
1882 101.8564 1335.08 1390.89 26.47
1883 101.9064 1308.85 1486.84 26.22
1884 101.9563 1343.98 1560.42 26.52
1885 102.0064 1353.68 1597.15 26.53
1886 102.0564 1372.26 1588.56 26.76
1887 102.1064 1366.42 1537.28 26.69
1888 102.1564 1340.11 1454.63 26.48
1889 102.2064 1270.23 1355.59 25.75
1890 102.2564 1183.46 1254.38 24.80
1891 102.3064 1172.71 1161.78 24.65
1892 102.3564 1130.97 1084.24 24.16
1893 102.4064 1102.59 1024.08 23.94
1894 102.4564 1066.62 980.41 23.43
1895 102.5064 1054.23 950.52 23.31
1896 102.5516 1007.72 932.54 23.54
1897 102.6016 984.59 919.68 23.14
1898 102.6516 1021.58 911.67 23.64
1899 102.7016 937.18 906.64 22.49
1900 102.7516 931.78 903.34 22.47
1901 102.8016 938.58 901.02 22.49
1902 102.8517 918.06 899.27 22.33
1903 102.9017 937.81 897.87 22.66
1904 102.9517 898.65 896.70 21.92
1905 103.0017 864.18 895.68 21.59
1906 103.0516 865.91 894.79 21.54
1907 103.1017 917.19 893.99 22.27
1908 103.1517 890.36 893.27 21.88
1909 103.2016 878.55 892.62 21.89
1910 103.2517 877.44 892.03 21.70
1911 103.3017 883.77 891.49 21.73
1912 103.3517 839.37 890.99 21.17
1913 103.4017 863.46 890.53 21.54
1914 103.4517 858.39 890.10 21.48
1915 103.5017 904.79 889.70 22.18
1916 103.5517 851.36 889.32 21.41
1917 103.6017 859.94 888.97 21.49
1918 103.6517 874.93 888.64 21.61
1919 103.7016 931.56 888.33 22.62
1920 103.7517 862.86 888.03 21.52
1921 103.8033 855.74 887.74 22.71
1922 103.8533 874.74 887.48 22.83
1923 103.9033 883.52 887.23 23.00
1924 103.9533 866.90 886.99 22.70
1925 104.0033 880.68 886.76 22.95
1926 104.0533 856.85 886.54 22.61
1927 104.1033 855.93 886.33 22.55
1928 104.1533 847.72 886.13 22.52
1929 104.2033 877.08 885.94 22.75
1930 104.2533 897.63 885.77 23.18
1931 104.3033 923.47 885.59 23.45
1932 104.3533 868.11 885.43 22.68
1933 104.4033 858.45 885.28 22.57
1934 104.4533 857.93 885.13 22.56
1935 104.5033 881.21 885.00 22.80
1936 104.5533 870.66 884.87 22.71
1937 104.6033 896.28 884.75 23.02
1938 104.6533 880.16 884.64 22.92
1939 104.7033 929.76 884.53 23.60
1940 104.7534 894.95 884.44 23.13
1941 104.8033 879.78 884.35 22.85
1942 104.8533 876.34 884.28 22.73
1943 104.9033 902.02 884.21 23.12
1944 104.9533 860.30 884.16 22.61
1945 105.0101 884.14 884.10 18.49
1946 105.0658 882.27 884.07 22.27
1947 105.1158 907.62 884.05 22.61
1948 105.1658 918.59 884.04 22.75
1949 105.2158 873.12 884.04 22.11
1950 105.2658 876.01 884.06 22.21
1951 105.3158 817.36 884.11 21.33
1952 105.3658 860.70 884.15 22.01
1953 105.4158 848.66 884.22 21.89
1954 105.4659 869.98 884.30 22.05
1955 105.5158 858.42 884.39 21.91
1956 105.5658 851.51 883.95 21.75
1957 105.6158 860.25 884.10 21.98
1958 105.6659 819.65 884.27 21.36
1959 105.7158 874.66 884.46 22.07
1960 105.7659 873.62 884.67 22.04
1961 105.8159 838.79 884.92 21.63
1962 105.8658 892.18 885.19 22.37
1963 105.9158 854.29 885.50 21.93
1964 105.9658 851.26 885.84 21.81
1965 106.0159 866.18 886.22 22.01
1966 106.0659 849.36 886.65 21.71
1967 106.1159 848.48 887.12 21.70
1968 106.1658 864.69 887.64 22.05
1969 106.2158 799.51 888.22 21.08
1970 106.2659 820.34 888.86 21.36
1971 106.3218 865.98 889.65 21.38
1972 106.3718 861.71 890.45 21.33
1973 106.4218 874.66 891.33 21.41
1974 106.4718 872.18 892.31 21.45
1975 106.5218 890.13 893.40 21.60
1976 106.5718 873.31 894.60 21.43
1977 106.6218 871.42 896.29 21.41
1978 106.6718 848.92 897.80 21.09
1979 106.7218 900.14 899.49 21.74
1980 106.7718 841.29 901.39 20.92
1981 106.8218 900.98 903.52 21.78
1982 106.8718 890.65 905.92 21.58
1983 106.9218 898.70 908.64 21.82
1984 106.9718 901.02 911.73 21.74
1985 107.0218 890.31 915.25 21.60
1986 107.0718 862.75 919.29 21.24
1987 107.1218 894.14 923.95 21.67
1988 107.1718 883.37 929.36 21.58
1989 107.2219 931.31 935.73 22.17
1990 107.2718 907.88 943.31 21.83
1991 107.3218 903.58 952.66 21.75
1992 107.3718 941.49 964.75 22.29
1993 107.4218 967.92 981.43 22.59
1994 107.4719 1005.51 1006.33 23.06
1995 107.5346 1088.75 1059.15 23.81
1996 107.5846 1104.07 1132.13 23.97
1997 107.6346 1169.55 1250.70 24.74
1998 107.6846 1285.94 1436.90 26.00
1999 107.7345 1574.95 1714.12 28.80
2000 107.7845 2024.39 2103.02 32.68
2001 107.8346 2553.77 2611.42 36.91
2002 107.8846 3464.42 3221.64 43.39
2003 107.9346 4003.33 3889.18 46.80
2004 107.9846 4966.21 4536.78 52.83
2005 108.0346 5463.38 5060.74 55.84
2006 108.0846 5707.93 5356.75 57.22
2007 108.1346 5530.61 5362.73 56.29
2008 108.1846 5084.97 5087.10 53.76
2009 108.2346 4581.88 4596.88 50.70
2010 108.2846 3933.70 3985.20 46.66
2011 108.3346 3362.72 3343.17 43.06
2012 108.3846 2857.73 2743.33 39.48
2013 108.4346 2518.88 2231.89 36.99
2014 108.4846 2166.25 1827.83 34.21
2015 108.5346 1779.27 1529.00 30.83
2016 108.5846 1519.95 1320.17 28.35
2017 108.6346 1433.05 1180.78 27.45
2018 108.6846 1256.68 1090.90 25.65
2019 108.7346 1214.39 1033.96 25.24
2020 108.7877 1089.37 996.02 19.74
2021 108.8465 1003.60 969.75 23.36
2022 108.8965 987.05 954.77 23.26
2023 108.9465 978.37 943.68 23.08
2024 108.9965 956.41 934.84 22.64
2025 109.0465 890.48 927.74 21.79
2026 109.0966 951.68 921.76 22.56
2027 109.1466 939.77 916.64 22.57
2028 109.1966 956.26 912.21 22.63
2029 109.2465 892.74 908.34 21.92
2030 109.2965 921.60 904.92 22.20
2031 109.3466 927.77 901.90 22.34
2032 109.3966 922.19 899.22 22.19
2033 109.4466 944.27 896.83 22.62
2034 109.4966 909.68 894.69 22.04
2035 109.5466 902.53 892.77 22.03
2036 109.5966 900.57 891.03 21.95
2037 109.6466 880.89 889.46 21.77
2038 109.6966 893.53 888.04 21.97
2039 109.7466 885.95 886.75 21.89
2040 109.7966 905.01 885.57 22.01
2041 109.8466 899.66 884.50 21.97
2042 109.8966 877.86 883.52 21.67
2043 109.9466 882.51 882.63 21.78
2044 109.9966 875.59 881.81 21.67
2045 110.0418 920.23 881.13 22.72
2046 110.0918 872.32 880.43 22.02
2047 110.1418 870.68 879.80 22.06
2048 110.1918 849.08 879.22 21.60
2049 110.2418 905.51 878.68 22.44
2050 110.2918 879.67 878.20 22.00
2051 110.3418 867.33 877.76 21.87
2052 110.3918 856.85 877.35 21.93
2053 110.4418 861.68 876.99 21.73
2054 110.4918 851.60 876.66 21.71
2055 110.5418 866.22 876.36 21.84
2056 110.5918 883.97 876.10 22.14
2057 110.6418 862.43 875.87 21.79
2058 110.6918 858.60 875.67 21.76
2059 110.7418 871.26 875.51 21.84
2060 110.7918 845.41 875.37 21.61
2061 110.8418 866.95 875.27 21.87
2062 110.8918 879.71 875.20 22.14
2063 110.9418 863.23 875.16 21.87
2064 110.9919 839.96 875.16 21.46
2065 111.0418 832.24 875.19 21.36
2066 111.0918 882.88 875.28 22.12
2067 111.1418 859.40 875.42 21.74
2068 111.1918 899.46 875.64 22.39
2069 111.2418 885.14 875.98 22.10
2070 111.2897 886.49 876.50 31.44
2071 111.3323 883.83 877.21 22.25
2072 111.3822 884.47 878.49 22.30
2073 111.4322 917.64 880.50 22.61
2074 111.4822 864.87 883.50 21.88
2075 111.5322 837.24 887.76 21.50
2076 111.5822 864.92 893.40 21.84
2077 111.6323 892.55 900.34 22.29
2078 111.6823 878.64 908.11 22.03
2079 111.7323 891.13 915.90 22.22
2080 111.7823 901.48 922.57 22.41
2081 111.8323 933.85 926.87 22.77
2082 111.8823 986.36 928.04 23.43
2083 111.9322 907.01 926.14 22.50
2084 111.9823 900.76 921.88 22.33
2085 112.0323 925.89 916.98 22.68
2086 112.0823 917.98 911.08 22.55
2087 112.1323 916.21 905.70 22.53
2088 112.1823 932.82 901.37 22.85
2089 112.2323 941.66 898.40 22.96
2090 112.2823 908.97 896.85 22.42
2091 112.3323 907.42 896.69 22.37
2092 112.3823 913.67 897.90 22.49
2093 112.4323 893.09 900.61 22.28
2094 112.4823 944.52 905.32 22.92
2095 112.5248 924.59 911.68 32.19
2096 112.5788 868.20 924.94 21.84
2097 112.6288 925.46 945.71 22.49
2098 112.6788 990.38 979.48 23.38
2099 112.7288 959.26 1032.28 22.85
2100 112.7788 1057.43 1110.24 24.11
2101 112.8288 1150.84 1217.86 25.08
2102 112.8788 1300.16 1355.43 26.71
2103 112.9288 1438.45 1516.48 28.27
2104 112.9789 1656.88 1686.48 30.36
2105 113.0288 1753.94 1840.80 31.44
2106 113.0788 1870.71 1951.92 32.49
2107 113.1289 1929.99 1996.18 33.05
2108 113.1789 1865.10 1966.62 32.45
2109 113.2288 1713.43 1874.60 31.03
2110 113.2789 1575.03 1740.47 29.70
2111 113.3289 1442.27 1587.69 28.42
2112 113.3789 1382.33 1435.77 27.76
2113 113.4289 1232.83 1298.81 26.26
2114 113.4788 1168.33 1184.75 25.53
2115 113.5289 1131.35 1095.25 25.04
2116 113.5789 1035.27 1029.19 23.82
2117 113.6289 979.56 982.52 23.19
2118 113.6789 943.02 950.75 22.72
2119 113.7288 970.31 929.71 23.09
2120 113.7832 882.36 914.97 17.87
2121 113.8373 913.33 905.71 22.18
2122 113.8873 878.54 900.09 21.70
2123 113.9373 894.40 896.19 21.96
2124 113.9873 898.14 893.35 21.96
2125 114.0373 894.37 891.17 21.89
2126 114.0873 868.49 889.45 21.53
2127 114.1373 869.34 888.03 21.53
2128 114.1873 837.70 886.86 21.17
2129 114.2373 883.62 885.87 21.70
2130 114.2873 890.71 885.03 21.88
2131 114.3373 829.42 884.32 20.93
2132 114.3873 825.07 883.72 20.95
2133 114.4374 883.35 883.21 21.72
2134 114.4873 832.18 882.78 21.00
2135 114.5373 851.34 882.42 21.24
2136 114.5874 891.71 882.12 21.85
2137 114.6373 846.09 881.88 21.26
2138 114.6873 845.18 881.68 21.28
2139 114.7373 863.66 881.53 21.46
2140 114.7874 838.72 880.18 21.12
2141 114.8373 849.33 880.12 21.19
2142 114.8873 841.26 880.08 21.11
2143 114.9373 862.52 880.08 21.48
2144 114.9873 835.28 880.10 21.11
2145 115.0453 851.67 880.15 17.30
2146 115.1014 839.27 880.23 20.94
2147 115.1514 820.98 880.33 20.84
2148 115.2014 887.13 880.44 21.61
2149 115.2514 831.65 880.57 20.94
2150 115.3014 836.94 880.72 20.91
2151 115.3515 823.42 880.88 20.75
2152 115.4014 863.39 881.06 21.44
2153 115.4515 884.16 881.25 21.44
2154 115.5014 868.43 881.46 21.41
2155 115.5514 862.07 881.69 21.17
2156 115.6015 878.77 881.93 21.47
2157 115.6515 867.46 882.18 21.31
2158 115.7014 824.80 882.45 20.78
2159 115.7515 852.29 882.73 21.08
2160 115.8015 842.74 883.03 21.04
2161 115.8515 858.89 883.35 21.20
2162 115.9015 875.83 883.68 21.46
2163 115.9515 848.52 884.02 21.04
2164 116.0015 882.31 884.39 21.53
2165 116.0515 849.64 884.77 21.05
2166 116.1015 837.94 885.17 20.94
2167 116.1515 891.06 885.59 21.67
2168 116.2014 877.35 886.03 21.52
2169 116.2515 854.64 886.77 21.06
2170 116.3022 849.99 887.27 20.95
2171 116.3522 833.89 887.79 20.68
2172 116.4022 831.54 888.33 20.67
2173 116.4522 851.55 888.91 20.83
2174 116.5022 830.13 889.52 20.65
2175 116.5522 840.30 890.17 20.71
2176 116.6023 873.72 890.86 21.10
2177 116.6522 896.99 891.59 21.55
2178 116.7023 867.53 892.38 20.97
2179 116.7522 845.30 893.22 20.80
2180 116.8022 939.19 894.12 21.94
2181 116.8523 912.85 895.09 21.69
2182 116.9023 850.24 896.14 20.77
2183 116.9522 889.60 897.28 21.32
2184 117.0023 818.16 898.52 20.37
2185 117.0523 865.77 899.88 21.05
2186 117.1023 878.56 901.37 21.16
2187 117.1523 839.89 903.03 20.76
2188 117.2023 890.75 904.86 21.41
2189 117.2523 880.99 906.91 21.22
2190 117.3023 881.75 909.22 21.20
2191 117.3523 894.55 911.83 21.41
2192 117.4023 905.36 914.81 21.54
2193 117.4523 911.54 918.23 21.65
2194 117.5023 869.63 922.22 21.06
2195 117.5400 890.31 925.71 21.45
2196 117.5900 921.19 931.19 21.77
2197 117.6400 965.67 938.10 22.33
2198 117.6900 960.21 949.36 22.19
2199 117.7399 974.89 962.82 22.38
2200 117.7899 978.96 983.70 22.37
2201 117.8400 1023.22 1017.49 22.88
2202 117.8900 1058.58 1072.20 23.42
2203 117.9400 1213.66 1158.47 25.06
2204 117.9900 1352.21 1287.89 26.63
2205 118.0400 1661.96 1469.73 29.56
2206 118.0900 2112.77 1706.47 33.58
2207 118.1400 2685.39 1988.54 38.02
2208 118.1900 3250.49 2290.68 41.96
2209 118.2400 3792.19 2570.39 45.45
2210 118.2900 4033.37 2774.73 47.03
2211 118.3400 4102.25 2860.85 47.37
2212 118.3900 3935.06 2817.67 46.46
2213 118.4400 3556.82 2666.62 44.09
2214 118.4900 3168.39 2445.19 41.45
2215 118.5400 2746.32 2192.28 38.50
2216 118.5900 2345.57 1939.97 35.47
2217 118.6400 2061.83 1710.38 33.22
2218 118.6900 1885.81 1515.04 31.77
2219 118.7400 1621.84 1357.24 29.37
2220 118.7883 1541.77 1238.65 31.53
2221 118.8383 1374.59 1146.22 29.54
2222 118.8882 1247.97 1079.11 28.11
2223 118.9382 1133.82 1031.47 26.82
2224 118.9882 1082.40 998.38 25.80
2225 119.0382 1047.75 975.75 25.55
2226 119.0883 965.26 960.34 24.45
2227 119.1383 978.78 949.79 24.68
2228 119.1883 928.45 942.41 23.83
2229 119.2383 958.94 937.07 24.45
2230 119.2882 914.97 933.04 23.77
2231 119.3383 921.80 929.87 23.83
2232 119.3883 894.51 927.32 23.50
2233 119.4383 924.89 925.22 23.88
2234 119.4883 901.99 923.47 23.43
2235 119.5383 935.21 921.99 23.93
2236 119.5883 912.69 920.40 23.64
2237 119.6383 928.89 919.36 23.82
2238 119.6883 882.47 918.49 23.33
2239 119.7383 894.50 917.77 23.44
2240 119.7883 872.48 917.17 22.93
2241 119.8383 877.60 916.68 23.10
2242 119.8883 913.51 916.29 23.66
2243 119.9383 858.58 915.98 23.09
2244 119.9883 849.32 915.76 22.83
2245 120.0405 920.13 915.59 23.62
2246 120.0905 871.02 915.50 22.57
2247 120.1405 912.93 915.47 23.18
2248 120.1905 880.90 915.48 22.72
2249 120.2405 931.78 915.55 23.67
2250 120.2904 897.05 915.67 23.01
2251 120.3405 836.29 915.83 22.14
2252 120.3905 868.06 916.03 22.69
2253 120.4405 840.14 916.27 22.05
2254 120.4905 899.39 916.55 23.10
2255 120.5405 908.52 916.88 23.17
2256 120.5905 904.13 917.24 22.95
2257 120.6405 920.08 917.64 23.26
2258 120.6905 917.03 918.07 23.34
2259 120.7405 910.87 918.55 23.12
2260 120.7905 876.42 919.07 22.74
2261 120.8405 898.33 919.64 22.91
2262 120.8905 915.90 920.25 23.23
2263 120.9405 936.73 920.91 23.59
2264 120.9906 959.69 921.63 23.83
2265 121.0405 927.23 922.40 23.33
2266 121.0905 877.87 923.23 22.55
2267 121.1405 968.01 924.14 23.81
2268 121.1905 975.28 925.12 24.09
2269 121.2405 943.93 926.19 23.38
2270 121.2943 970.45 927.45 21.98
2271 121.3443 934.00 928.74 21.39
2272 121.3943 954.78 930.16 21.74
2273 121.4443 964.48 931.73 21.82
2274 121.4943 963.85 933.48 21.72
2275 121.5443 986.38 935.44 21.91
2276 121.5943 1022.12 937.65 22.34
2277 121.6443 975.08 940.20 21.94
2278 121.6943 1024.97 943.18 22.36
2279 121.7443 1025.62 946.81 22.49
2280 121.7943 1039.25 951.48 22.65
2281 121.8443 1072.12 957.93 23.11
2282 121.8943 1083.76 967.49 23.12
2283 121.9443 1084.77 982.34 23.21
2284 121.9943 1124.70 1005.70 23.52
2285 122.0443 1203.17 1041.63 24.47
2286 122.0943 1223.53 1094.29 24.63
2287 122.1443 1293.74 1166.61 25.43
2288 122.1943 1330.82 1258.52 25.86
2289 122.2444 1387.39 1365.14 26.32
2290 122.2944 1480.79 1474.70 27.16
2291 122.3443 1491.63 1569.55 27.25
2292 122.3943 1557.75 1630.78 27.94
2293 122.4443 1497.75 1646.71 27.34
2294 122.4944 1540.59 1619.13 27.77
2295 122.5490 1538.23 1552.97 28.32
2296 122.5989 1524.58 1474.77 28.08
2297 122.6490 1497.99 1392.20 27.87
2298 122.6989 1436.69 1314.88 27.26
2299 122.7489 1374.80 1247.67 26.48
2300 122.7989 1322.88 1192.70 25.91
2301 122.8490 1300.47 1149.92 25.66
2302 122.8990 1233.55 1118.44 25.07
2303 122.9490 1227.77 1096.84 24.98
2304 122.9990 1245.17 1083.99 25.31
2305 123.0489 1232.04 1079.06 25.10
2306 123.0990 1223.69 1081.68 25.06
2307 123.1490 1176.22 1092.28 24.54
2308 123.1990 1184.66 1112.84 24.62
2309 123.2490 1193.03 1148.07 24.68
2310 123.2990 1285.46 1207.13 25.69
2311 123.3490 1287.37 1305.44 25.65
2312 123.3990 1350.15 1465.49 26.37
2313 123.4490 1594.07 1715.30 28.80
2314 123.4990 1897.57 2082.69 31.39
2315 123.5490 2538.97 2587.78 36.46
2316 123.5990 3365.75 3225.19 42.15
2317 123.6490 4196.56 3947.37 47.31
2318 123.6990 5002.91 4672.86 51.84
2319 123.7490 5603.60 5274.42 55.05
2320 123.7920 5861.86 5593.34 54.97
2321 123.8420 5959.81 5672.28 55.42
2322 123.8920 5450.24 5457.65 52.91
2323 123.9420 4930.63 5029.68 50.10
2324 123.9920 4172.70 4484.53 45.54
2325 124.0419 3628.96 3907.80 42.47
2326 124.0920 3115.58 3357.03 39.25
2327 124.1420 2752.32 2870.14 36.90
2328 124.1920 2382.21 2459.20 34.40
2329 124.2420 2141.99 2122.60 32.71
2330 124.2920 1895.01 1851.88 30.66
2331 124.3420 1683.92 1637.16 28.88
2332 124.3920 1556.05 1469.04 27.72
2333 124.4420 1403.92 1339.89 26.29
2334 124.4920 1246.26 1242.83 24.66
2335 124.5420 1201.19 1171.53 24.21
2336 124.5920 1109.21 1119.48 23.20
2337 124.6420 1093.77 1082.97 23.04
2338 124.6920 1078.81 1057.02 22.91
2339 124.7421 993.23 1038.31 21.87
2340 124.7920 1023.41 1024.53 22.25
2341 124.8420 978.96 1013.96 21.64
2342 124.8920 996.87 1005.56 21.91
2343 124.9420 1020.97 998.67 22.19
2344 124.9920 1006.08 992.88 22.04
2345 125.0286 1003.59 989.18 22.98
2346 125.0786 951.87 984.74 22.29
2347 125.1286 985.76 980.89 22.70
2348 125.1786 986.02 977.53 22.69
2349 125.2286 938.77 974.59 22.03
2350 125.2786 941.06 972.01 21.98
2351 125.3286 952.80 969.73 22.18
2352 125.3786 1014.28 967.73 22.95
2353 125.4286 921.69 965.97 21.74
2354 125.4786 990.24 964.41 22.81
2355 125.5286 960.80 963.04 22.28
2356 125.5786 929.71 961.83 21.92
2357 125.6286 931.52 960.77 21.99
2358 125.6786 934.11 959.85 22.08
2359 125.7286 962.53 959.05 22.27
2360 125.7786 914.05 958.36 21.77
2361 125.8286 951.15 957.77 22.20
2362 125.8786 980.46 957.27 22.64
2363 125.9286 928.04 956.86 22.00
2364 125.9787 910.82 956.53 21.67
2365 126.0286 915.99 956.28 21.72
2366 126.0786 934.39 956.10 21.97
2367 126.1286 929.30 955.99 21.94
2368 126.1786 946.80 955.95 22.13
2369 126.2286 951.55 955.96 22.18
2370 126.2737 934.84 956.03 21.47
2371 126.3237 894.97 956.16 21.00
2372 126.3737 975.97 956.35 21.99
2373 126.4237 911.74 956.59 21.07
2374 126.4737 958.42 956.90 21.67
2375 126.5237 946.54 957.26 21.49
2376 126.5737 923.27 957.68 21.22
2377 126.6237 955.77 958.16 21.76
2378 126.6738 953.60 958.69 21.50
2379 126.7237 947.56 959.29 21.58
2380 126.7737 926.87 959.95 21.23
2381 126.8238 942.04 960.67 21.55
2382 126.8738 924.23 961.46 21.21
2383 126.9237 946.59 962.32 21.57
2384 126.9738 913.64 963.25 20.99
2385 127.0238 946.50 964.26 21.55
2386 127.0738 921.65 965.35 21.13
2387 127.1237 907.43 966.53 21.06
2388 127.1737 945.56 967.79 21.44
2389 127.2238 917.32 969.16 21.15
2390 127.2738 958.54 970.63 21.65
2391 127.3237 933.83 972.21 21.29
2392 127.3738 954.89 973.92 21.59
2393 127.4237 974.02 975.74 21.99
2394 127.4738 894.35 977.72 20.92
2395 127.5239 1006.74 979.85 28.95
2396 127.5640 957.31 981.68 20.66
2397 127.6140 928.77 984.11 20.33
2398 127.6640 941.89 986.74 20.44
2399 127.7140 900.78 989.59 19.86
2400 127.7640 972.83 992.67 20.66
2401 127.8140 946.62 996.02 20.33
2402 127.8640 961.13 999.64 20.59
2403 127.9140 962.60 1003.59 20.58
2404 127.9640 926.95 1007.89 20.26
2405 128.0140 970.85 1012.59 20.76
2406 128.0640 984.92 1017.73 20.90
2407 128.1141 963.33 1023.39 20.66
2408 128.1640 985.87 1029.97 20.98
2409 128.2140 1012.94 1036.82 21.17
2410 128.2640 976.98 1044.39 20.83
2411 128.3141 987.11 1052.81 20.95
2412 128.3640 994.15 1062.14 21.04
2413 128.4140 998.14 1072.59 21.06
2414 128.4641 997.78 1084.34 21.08
2415 128.5141 1008.50 1097.44 21.16
2416 128.5641 1023.19 1112.20 21.32
2417 128.6140 998.43 1129.16 21.07
2418 128.6640 1044.02 1148.60 21.58
2419 128.7141 1079.03 1171.01 21.90
2420 128.7541 1020.00 1191.42 31.11
2421 128.8163 1143.01 1228.62 23.72
2422 128.8663 1168.71 1264.61 23.93
2423 128.9163 1213.12 1307.81 24.49
2424 128.9662 1272.29 1360.91 25.02
2425 129.0162 1301.98 1429.33 25.18
2426 129.0662 1441.01 1522.67 26.49
2427 129.1163 1545.13 1659.35 27.54
2428 129.1663 1749.65 1870.50 29.44
2429 129.2163 2016.04 2206.20 31.79
2430 129.2663 2422.30 2736.38 35.14
2431 129.3163 3240.39 3545.18 40.94
2432 129.3663 4560.96 4710.69 49.27
2433 129.4163 6309.47 6276.60 58.82
2434 129.4663 8703.81 8211.47 70.47
2435 129.5163 10823.70 10372.30 79.89
2436 129.5663 12944.30 12474.40 88.98
2437 129.6163 14371.40 14121.30 94.70
2438 129.6663 15098.70 14964.00 97.71
2439 129.7163 14916.90 14896.00 96.97
2440 129.7663 13988.20 14065.60 93.12
2441 129.8163 12613.10 12740.90 87.42
2442 129.8663 11154.50 11188.20 81.36
2443 129.9163 9502.09 9617.00 74.30
2444 129.9663 7855.76 8166.73 66.89
2445 130.0163 6834.49 6900.76 62.14
2446 130.0718 5565.32 5725.69 55.46
2447 130.1218 4907.38 4854.41 51.89
2448 130.1718 4266.15 4131.14 48.35
2449 130.2218 3578.58 3527.35 43.89
2450 130.2718 3115.12 3022.01 40.44
2451 130.3218 2624.57 2599.89 36.97
2452 130.3718 2202.39 2251.30 33.63
2453 130.4218 1991.81 1968.96 31.91
2454 130.4718 1726.23 1745.89 29.61
2455 130.5218 1595.39 1574.54 28.49
2456 130.5718 1384.46 1445.95 26.32
2457 130.6218 1316.32 1351.04 25.65
2458 130.6718 1239.09 1281.35 24.81
2459 130.7218 1184.51 1229.73 24.24
2460 130.7718 1115.60 1190.73 23.43
2461 130.8218 1093.52 1160.34 23.23
2462 130.8719 1098.27 1135.81 23.24
2463 130.9218 1104.83 1115.50 23.35
2464 130.9718 1032.29 1098.17 22.58
2465 131.0219 1040.61 1083.12 22.60
2466 131.0718 1060.65 1069.96 22.82
2467 131.1218 1013.85 1058.29 22.25
2468 131.1718 1016.00 1047.90 22.30
2469 131.2218 981.67 1038.59 21.91
2470 131.2778 994.95 1029.27 17.94
2471 131.3275 953.14 1021.84 21.39
2472 131.3775 937.95 1015.06 21.17
2473 131.4275 948.77 1008.89 21.33
2474 131.4775 966.75 1003.25 21.49
2475 131.5275 931.99 998.09 21.03
2476 131.5775 932.00 993.35 20.99
2477 131.6275 938.76 988.99 21.10
2478 131.6775 925.10 984.96 20.97
2479 131.7275 924.96 981.24 20.92
2480 131.7775 961.75 977.79 21.44
2481 131.8275 930.07 974.59 21.03
2482 131.8775 938.13 971.61 21.14
2483 131.9275 938.98 968.84 21.12
2484 131.9775 927.08 966.25 20.89
2485 132.0275 926.97 963.84 20.97
2486 132.0775 938.45 961.58 21.12
2487 132.1275 913.65 959.46 20.86
2488 132.1775 917.30 957.48 20.90
2489 132.2275 899.43 955.63 20.68
2490 132.2776 926.67 953.89 21.01
2491 132.3275 902.66 952.26 20.69
2492 132.3775 933.79 950.73 21.03
2493 132.4275 969.97 949.30 21.58
2494 132.4775 935.87 947.96 21.13
2495 132.5276 929.55 946.70 21.03
2496 132.5489 936.27 946.19 30.25
2497 132.5943 920.92 945.16 21.06
2498 132.6443 903.00 944.10 20.88
2499 132.6943 899.46 943.11 20.80
2500 132.7443 883.26 942.21 20.50
2501 132.7943 951.41 941.38 21.24
2502 132.8443 953.45 940.63 21.33
2503 132.8943 917.27 939.95 21.01
2504 132.9444 962.63 939.35 21.36
2505 132.9943 923.23 938.84 21.12
2506 133.0443 943.26 938.41 21.20
2507 133.0944 971.54 938.07 21.65
2508 133.1444 945.52 937.83 21.34
2509 133.1943 936.81 937.69 21.22
2510 133.2444 967.14 937.67 21.48
2511 133.2944 954.41 937.78 21.51
2512 133.3444 957.03 938.04 21.39
2513 133.3943 976.66 938.46 21.74
2514 133.4443 986.27 939.07 21.84
2515 133.4944 997.83 939.90 21.95
2516 133.5444 998.45 941.01 21.91
2517 133.5944 1004.24 942.44 21.97
2518 133.6443 1043.38 944.29 22.50
2519 133.6943 1005.54 946.71 22.01
2520 133.7444 1018.44 949.96 22.15
2521 133.8065 1088.42 955.92 23.04
2522 133.8565 1103.75 963.39 23.00
2523 133.9065 1112.59 975.03 23.19
2524 133.9565 1071.83 993.37 22.64
2525 134.0065 1142.28 1021.89 23.27
2526 134.0565 1144.09 1064.57 23.29
2527 134.1066 1171.50 1125.13 23.61
2528 134.1566 1236.17 1205.14 24.35
2529 134.2066 1206.26 1303.02 24.05
2530 134.2566 1272.29 1411.60 24.80
2531 134.3065 1287.45 1516.82 24.91
2532 134.3566 1336.97 1600.01 25.44
2533 134.4066 1393.69 1643.86 25.98
2534 134.4566 1421.01 1643.55 26.25
2535 134.5066 1373.10 1606.20 25.82
2536 134.5566 1372.91 1544.44 25.81
2537 134.6066 1348.56 1470.92 25.51
2538 134.6566 1364.61 1395.60 25.74
2539 134.7066 1343.59 1325.16 25.59
2540 134.7566 1337.94 1262.98 25.51
2541 134.8066 1279.45 1209.95 24.85
2542 134.8566 1212.18 1165.52 24.21
2543 134.9066 1235.68 1128.35 24.52
2544 134.9566 1231.31 1097.13 24.43
2545 135.0066 1246.81 1070.69 24.52
2546 135.0565 1193.79 1048.24 23.24
2547 135.1065 1164.86 1029.13 22.86
2548 135.1564 1146.74 1013.12 22.67
2549 135.2064 1102.68 999.97 22.16
2550 135.2564 1105.23 989.70 22.05
2551 135.3064 1100.63 982.34 21.95
2552 135.3565 1078.16 978.01 21.77
2553 135.4065 1095.77 977.00 22.03
2554 135.4565 1051.47 979.88 21.46
2555 135.5065 1086.52 987.84 22.00
2556 135.5565 1105.73 1003.10 22.19
2557 135.6065 1111.95 1029.16 22.24
2558 135.6565 1218.02 1070.88 23.35
2559 135.7065 1256.91 1126.57 23.73
2560 135.7565 1360.48 1216.30 24.70
2561 135.8065 1575.78 1335.42 26.64
2562 135.8565 1725.50 1481.82 27.90
2563 135.9065 1837.48 1646.52 28.94
2564 135.9565 2003.33 1808.95 30.15
2565 136.0065 2086.38 1941.93 30.80
2566 136.0565 2086.25 2019.31 30.76
2567 136.1065 2076.96 2030.47 30.66
2568 136.1565 2109.94 1983.42 31.04
2569 136.2065 2043.19 1895.95 30.46
2570 136.2565 1912.80 1786.92 29.44
2571 136.2991 1856.27 1688.88 28.47
2572 136.3491 1680.99 1577.72 27.00
2573 136.3991 1591.54 1477.01 26.33
2574 136.4491 1469.12 1389.50 25.19
2575 136.4991 1378.49 1315.02 24.24
2576 136.5491 1279.63 1252.08 23.27
2577 136.5991 1245.54 1198.60 22.98
2578 136.6491 1214.14 1152.73 22.79
2579 136.6991 1228.69 1112.93 22.90
2580 136.7491 1123.15 1078.05 21.95
2581 136.7991 1088.21 1047.36 21.59
2582 136.8491 1046.93 1020.37 21.13
2583 136.8991 1011.72 996.77 20.82
2584 136.9491 986.44 976.41 20.50
2585 136.9991 992.60 959.14 20.53
2586 137.0491 963.74 944.85 20.29
2587 137.0991 963.30 933.32 20.26
2588 137.1491 975.80 924.21 20.43
2589 137.1991 923.94 917.14 19.90
2590 137.2492 916.10 911.66 19.72
2591 137.2991 914.21 907.42 19.70
2592 137.3491 891.18 904.07 19.43
2593 137.3991 906.49 901.36 19.61
2594 137.4491 869.99 899.10 19.15
2595 137.5068 875.73 896.90 15.62
2596 137.5608 930.57 895.11 19.83
2597 137.6108 902.19 893.63 19.47
2598 137.6608 912.04 892.29 19.59
2599 137.7108 895.14 891.06 19.34
2600 137.7608 881.28 889.92 19.12
2601 137.8108 912.08 888.87 19.43
2602 137.8608 878.62 887.88 19.10
2603 137.9108 863.76 886.96 18.96
2604 137.9608 872.08 886.09 19.05
2605 138.0108 889.16 885.27 19.30
2606 138.0608 909.17 884.49 19.49
2607 138.1108 875.82 883.75 19.17
2608 138.1608 869.84 883.04 19.01
2609 138.2108 883.19 882.37 19.19
2610 138.2608 898.82 881.72 19.34
2611 138.3108 870.52 881.10 19.06
2612 138.3608 875.49 880.50 19.14
2613 138.4108 876.31 879.92 19.18
2614 138.4608 907.22 879.36 19.49
2615 138.5109 885.70 878.82 19.23
2616 138.5608 881.34 878.29 19.15
2617 138.6108 915.61 877.78 19.53
2618 138.6608 871.83 877.28 19.06
2619 138.7108 880.47 876.80 19.18
2620 138.7582 933.33 876.35 16.55
2621 138.8124 888.85 875.85 19.81
2622 138.8624 871.43 875.40 19.54
2623 138.9124 863.30 874.96 19.46
2624 138.9624 884.25 874.53 19.65
2625 139.0124 855.67 874.11 19.27
2626 139.0624 850.37 873.69 19.25
2627 139.1124 868.25 873.29 19.52
2628 139.1625 878.24 872.89 19.60
2629 139.2124 859.26 872.50 19.45
2630 139.2624 902.70 872.11 19.93
2631 139.3125 913.90 871.73 20.08
2632 139.3625 892.77 871.36 19.83
2633 139.4124 848.99 871.00 19.31
2634 139.4624 898.63 870.64 19.83
2635 139.5125 898.58 870.29 19.89
2636 139.5625 851.99 869.94 19.34
2637 139.6124 873.11 869.60 19.64
2638 139.6625 906.50 869.26 20.02
2639 139.7125 866.34 868.93 19.52
2640 139.7625 861.70 868.61 19.38
2641 139.8125 920.33 868.29 20.12
2642 139.8625 885.89 867.97 19.66
2643 139.9124 884.09 867.67 19.76
2644 139.9625 910.08 867.36 20.02
2645 140.0028 873.06 867.12 28.83
2646 140.0490 844.06 866.85 23.01
2647 140.0990 911.87 866.57 24.18
2648 140.1490 827.68 866.29 22.99
2649 140.1990 870.20 866.01 23.42
2650 140.2490 909.00 868.94 23.89
2651 140.2990 864.32 868.70 23.37
2652 140.3491 883.05 868.45 23.96
2653 140.3990 901.55 868.22 23.72
2654 140.4490 907.45 868.00 24.01
2655 140.4990 879.48 867.78 23.68
2656 140.5491 921.83 867.47 24.40
2657 140.5991 894.23 866.94 23.87
2658 140.6490 883.92 866.76 23.67
2659 140.6991 855.75 866.59 23.37
2660 140.7491 860.05 866.42 23.53
2661 140.7991 877.64 866.27 23.85
2662 140.8491 852.31 866.13 23.11
2663 140.8990 886.79 866.00 23.84
2664 140.9491 871.19 865.88 23.81
2665 140.9991 869.10 865.78 23.53
2666 141.0491 872.83 865.70 23.69
2667 141.0990 925.16 865.63 24.33
2668 141.1490 896.12 865.58 23.86
2669 141.1991 875.63 865.54 23.94
2670 141.2452 967.11 865.53 39.93
2671 141.2897 932.73 865.54 24.47
2672 141.3397 879.01 865.58 23.57
2673 141.3897 880.34 865.64 23.76
2674 141.4397 862.47 865.73 23.15
2675 141.4897 878.18 865.85 23.92
2676 141.5397 892.96 866.01 23.78
2677 141.5897 855.90 866.21 23.69
2678 141.6397 820.82 866.45 22.64
2679 141.6898 839.94 866.75 23.28
2680 141.7397 895.80 867.10 23.75
2681 141.7897 860.16 867.51 23.16
2682 141.8398 880.23 867.99 23.78
2683 141.8898 827.90 868.56 22.67
2684 141.9397 877.39 869.21 23.63
2685 141.9898 928.87 869.97 24.41
2686 142.0398 863.53 870.84 23.31
2687 142.0898 885.52 871.85 23.60
2688 142.1397 904.08 873.01 23.77
2689 142.1898 917.63 874.36 24.44
2690 142.2398 860.71 875.92 23.05
2691 142.2898 879.84 877.73 23.67
2692 142.3397 894.88 879.15 24.00
2693 142.3898 880.05 881.65 23.56
2694 142.4397 886.68 884.61 23.79
2695 142.4898 928.22 888.21 24.33
2696 142.5396 904.51 892.64 20.16
2697 142.5895 927.67 898.36 20.36
2698 142.6396 896.51 906.06 20.05
2699 142.6895 908.17 916.74 20.13
2700 142.7395 923.17 932.10 20.21
2701 142.7895 959.15 954.37 20.60
2702 142.8396 977.57 986.57 20.80
2703 142.8896 1044.00 1031.95 21.57
2704 142.9396 1130.40 1093.91 22.43
2705 142.9896 1181.16 1175.04 23.05
2706 143.0396 1300.71 1276.07 24.14
2707 143.0896 1371.71 1395.05 24.82
2708 143.1396 1406.21 1525.93 25.18
2709 143.1896 1519.55 1657.53 26.20
2710 143.2396 1531.58 1774.06 26.26
2711 143.2896 1602.24 1858.54 26.95
2712 143.3396 1616.91 1899.83 27.00
2713 143.3896 1637.26 1896.74 27.25
2714 143.4396 1608.34 1856.40 26.99
2715 143.4896 1528.51 1789.64 26.25
2716 143.5396 1582.31 1707.50 26.76
2717 143.5896 1504.42 1619.30 26.09
2718 143.6396 1470.14 1532.17 25.85
2719 143.6896 1339.51 1450.72 24.58
2720 143.7396 1321.45 1377.35 24.41
2721 143.7933 1246.65 1308.41 23.16
2722 143.8433 1184.17 1252.94 22.51
2723 143.8933 1122.59 1204.85 21.90
2724 143.9432 1116.59 1163.05 21.82
2725 143.9933 1055.36 1126.22 21.09
2726 144.0432 1035.08 1093.70 20.86
2727 144.0933 1014.61 1064.49 20.66
2728 144.1433 993.81 1038.22 20.50
2729 144.1933 1011.12 1014.40 20.59
2730 144.2433 960.03 992.73 20.24
2731 144.2933 923.54 972.98 19.79
2732 144.3433 941.16 955.01 19.99
2733 144.3933 886.38 938.72 19.32
2734 144.4433 885.99 924.09 19.31
2735 144.4933 867.85 911.08 19.04
2736 144.5433 894.64 899.67 19.42
2737 144.5933 863.44 889.85 19.00
2738 144.6433 873.42 881.55 19.21
2739 144.6933 865.61 874.67 19.13
2740 144.7433 892.25 869.04 19.33
2741 144.7933 859.61 864.48 19.02
2742 144.8433 885.87 860.79 19.24
2743 144.8933 859.62 857.81 19.02
2744 144.9433 856.66 855.36 18.98
2745 144.9933 860.42 853.32 18.96
2746 145.0554 854.86 851.20 19.16
2747 145.1054 842.56 849.74 18.90
2748 145.1554 844.21 848.44 18.96
2749 145.2054 848.88 847.27 18.97
2750 145.2554 797.32 846.19 18.27
2751 145.3054 838.69 845.20 18.70
2752 145.3554 805.46 844.28 18.31
2753 145.4054 833.02 843.41 18.82
2754 145.4554 828.87 842.60 18.63
2755 145.5054 854.90 841.84 19.06
2756 145.5554 820.89 841.12 18.64
2757 145.6054 817.87 840.44 18.62
2758 145.6554 863.48 839.79 19.18
2759 145.7054 859.40 839.17 19.11
2760 145.7554 817.73 838.57 18.52
2761 145.8054 830.86 838.01 18.72
2762 145.8554 832.72 837.46 18.73
2763 145.9054 884.86 836.94 19.39
2764 145.9554 827.18 836.43 18.76
2765 146.0055 816.71 835.95 18.59
2766 146.0554 821.30 835.48 18.58
2767 146.1054 852.38 835.03 18.94
2768 146.1554 857.06 834.59 19.03
2769 146.2054 825.45 834.17 18.73
2770 146.2554 857.06 833.76 19.00
2771 146.2873 809.08 833.50 24.88
2772 146.3282 820.07 833.18 18.27
2773 146.3783 848.14 832.80 18.60
2774 146.4282 811.48 832.43 18.24
2775 146.4782 820.88 832.07 18.27
2776 146.5282 835.95 831.72 18.39
2777 146.5782 818.13 831.38 18.17
2778 146.6283 793.08 831.05 17.86
2779 146.6783 864.77 830.72 18.78
2780 146.7283 848.04 830.41 18.47
2781 146.7783 818.73 830.11 18.26
2782 146.8283 806.46 829.81 18.01
2783 146.8783 836.61 829.53 18.45
2784 146.9283 824.85 829.25 18.30
2785 146.9783 823.67 828.98 18.30
2786 147.0283 800.31 828.72 17.97
2787 147.0783 842.59 828.47 18.52
2788 147.1283 831.71 828.23 18.31
2789 147.1783 843.19 828.00 18.59
2790 147.2283 816.59 827.78 18.22
2791 147.2783 833.08 827.56 18.44
2792 147.3283 835.25 827.36 18.36
2793 147.3783 775.05 827.17 17.68
2794 147.4283 825.17 826.99 18.33
2795 147.4783 840.92 826.82 18.46
2796 147.5283 829.16 826.66 18.32
2797 147.5506 800.96 826.59 25.02
2798 147.5939 820.67 826.47 17.77
2799 147.6439 838.08 826.35 18.01
2800 147.6939 791.40 826.23 17.44
2801 147.7439 819.46 826.14 17.74
2802 147.7939 787.35 826.06 17.32
2803 147.8440 822.51 826.00 17.68
2804 147.8940 833.85 825.96 17.90
2805 147.9440 836.26 825.94 17.83
2806 147.9940 783.80 825.95 17.37
2807 148.0440 855.21 825.98 18.16
2808 148.0940 797.99 826.04 17.52
2809 148.1440 838.49 826.14 17.96
2810 148.1940 837.65 826.27 17.98
2811 148.2440 851.86 826.43 18.07
2812 148.2940 854.53 826.65 18.15
2813 148.3440 845.71 826.91 18.01
2814 148.3940 885.52 827.23 18.52
2815 148.4440 860.99 827.62 18.27
2816 148.4940 886.44 828.09 18.47
2817 148.5440 839.24 828.65 17.97
2818 148.5940 883.36 829.32 18.40
2819 148.6440 877.06 830.12 18.36
2820 148.6940 838.66 831.12 17.99
2821 148.7440 875.32 832.36 18.35
2822 148.7938 896.65 833.94 19.04
2823 148.8438 868.30 836.01 18.69
2824 148.8938 871.53 838.77 18.74
2825 148.9438 883.57 842.50 18.91
2826 148.9938 886.50 847.58 18.80
2827 149.0438 868.64 854.48 18.55
2828 149.0938 895.17 863.74 18.85
2829 149.1438 927.31 875.99 19.35
2830 149.1939 950.00 891.90 19.47
2831 149.2438 999.60 911.86 20.08
2832 149.2938 972.73 936.38 19.75
2833 149.3439 979.56 965.52 19.88
2834 149.3939 995.97 998.83 20.07
2835 149.4438 998.52 1035.39 20.10
2836 149.4938 975.87 1073.83 19.80
2837 149.5439 1067.79 1111.89 20.79
2838 149.5939 1047.07 1146.54 20.59
2839 149.6438 1024.95 1174.78 20.38
2840 149.6938 1028.06 1194.23 20.38
2841 149.7439 1042.97 1203.54 20.52
2842 149.7939 1087.86 1202.82 20.98
2843 149.8439 1089.93 1193.34 20.99
2844 149.8939 1072.99 1176.92 20.89
2845 149.9438 1039.37 1155.62 20.55
2846 149.9939 1101.64 1131.18 21.14
2847 150.0303 1006.47 1112.45 19.79
2848 150.0803 1048.35 1086.49 20.13
2849 150.1303 1028.60 1061.21 20.02
2850 150.1802 1015.97 1037.39 19.81
2851 150.2303 1021.66 1015.32 19.76
2852 150.2802 1005.78 995.36 19.57
2853 150.3303 1007.57 977.35 19.62
2854 150.3803 968.96 961.27 19.30
2855 150.4303 987.87 946.91 19.42
2856 150.4803 962.36 934.04 19.31
2857 150.5303 941.67 922.46 19.12
2858 150.5803 967.22 911.97 19.37
2859 150.6303 929.40 902.20 18.90
2860 150.6803 909.44 893.00 18.70
2861 150.7303 930.17 884.96 18.95
2862 150.7803 905.51 877.52 18.66
2863 150.8303 897.13 870.61 18.61
2864 150.8803 913.65 864.19 18.76
2865 150.9303 883.76 858.21 18.53
2866 150.9803 871.33 852.64 18.34
2867 151.0303 853.14 847.46 18.09
2868 151.0803 881.81 842.66 18.44
2869 151.1303 869.67 838.22 18.31
2870 151.1803 831.35 834.14 17.89
2871 151.2303 884.56 830.42 18.40
2872 151.2831 858.31 826.89 17.92
2873 151.3331 884.41 823.90 18.14
2874 151.3831 829.65 821.26 17.60
2875 151.4331 811.48 818.95 17.35
2876 151.4831 837.13 816.94 17.54
2877 151.5331 828.24 815.21 17.46
2878 151.5831 796.09 813.73 17.04
2879 151.6331 830.63 812.46 17.55
2880 151.6831 823.19 811.36 17.43
2881 151.7331 805.06 810.42 17.35
2882 151.7831 823.06 809.59 17.44
2883 151.8331 834.98 808.86 17.65
2884 151.8831 809.09 808.21 17.32
2885 151.9331 783.16 807.61 17.03
2886 151.9831 841.51 807.07 17.65
2887 152.0331 800.79 806.55 17.24
2888 152.0831 783.48 806.08 16.99
2889 152.1331 803.35 805.62 17.26
2890 152.1831 810.81 805.18 17.40
2891 152.2332 786.90 804.76 17.07
2892 152.2831 799.55 804.36 17.20
2893 152.3331 800.94 803.97 17.15
2894 152.3831 808.90 803.58 17.27
2895 152.4331 797.03 803.21 17.18
2896 152.4831 801.07 802.84 17.27
2897 152.5372 802.56 802.46 17.70
2898 152.5872 819.17 802.10 17.89
2899 152.6372 805.67 801.76 17.73
2900 152.6872 809.10 801.42 17.71
2901 152.7372 778.09 801.08 17.37
2902 152.7872 833.27 800.74 17.89
2903 152.8372 802.12 800.41 17.61
2904 152.8872 825.38 800.08 17.94
2905 152.9373 783.71 799.76 17.35
2906 152.9872 796.12 799.43 17.62
2907 153.0372 818.40 799.11 17.81
2908 153.0873 808.06 798.78 17.77
2909 153.1373 822.72 798.46 17.88
2910 153.1872 818.44 798.14 17.85
2911 153.2373 814.56 797.81 17.74
2912 153.2873 844.07 797.48 18.12
2913 153.3373 828.29 797.16 17.94
2914 153.3872 828.29 796.83 17.95
2915 153.4373 856.08 796.50 18.35
2916 153.4873 810.05 796.17 17.75
2917 153.5373 865.79 795.84 18.34
2918 153.5873 857.46 795.51 18.21
2919 153.6372 837.16 795.17 18.09
2920 153.6872 831.88 794.83 18.02
2921 153.7373 798.24 794.49 17.60
2922 153.7843 850.84 794.16 18.32
2923 153.8343 798.70 793.82 17.65
2924 153.8843 849.58 793.47 18.26
2925 153.9342 870.18 793.11 18.46
2926 153.9842 832.42 792.75 17.96
2927 154.0342 849.04 792.39 18.09
2928 154.0843 828.38 792.02 17.89
2929 154.1343 800.98 791.65 17.66
2930 154.1843 802.40 791.27 17.60
2931 154.2343 836.28 790.89 18.08
2932 154.2843 828.04 790.51 17.96
2933 154.3343 837.23 790.11 18.03
2934 154.3843 848.23 789.72 18.22
2935 154.4343 816.14 789.32 17.85
2936 154.4843 801.77 788.91 17.66
2937 154.5343 814.26 788.50 17.90
2938 154.5843 823.76 788.08 17.84
2939 154.6343 832.26 787.66 18.03
2940 154.6843 794.03 787.22 17.55
2941 154.7344 800.15 786.79 17.66
2942 154.7843 811.11 786.34 17.74
2943 154.8343 826.52 785.89 17.99
2944 154.8843 823.48 785.44 17.95
2945 154.9343 808.93 784.97 17.73
2946 154.9843 769.39 784.50 17.24
2947 155.0395 804.14 783.97 17.49
2948 155.0895 776.50 783.49 17.14
2949 155.1395 784.22 782.99 17.25
2950 155.1895 795.25 782.49 17.30
2951 155.2395 788.86 781.98 17.17
2952 155.2895 762.24 781.47 16.82
2953 155.3395 758.45 780.94 16.77
2954 155.3895 750.73 780.41 16.83
2955 155.4396 743.91 779.87 16.62
2956 155.4895 749.01 779.32 16.81
2957 155.5395 762.04 778.76 16.91
2958 155.5895 725.19 778.19 16.44
2959 155.6396 756.60 777.62 16.84
2960 155.6895 765.31 777.03 16.99
2961 155.7395 741.97 776.44 16.68
2962 155.7896 768.63 775.84 17.02
2963 155.8396 724.21 775.22 16.45
2964 155.8895 765.95 774.60 17.05
2965 155.9395 754.15 773.97 16.86
2966 155.9896 762.84 773.33 16.96
2967 156.0396 739.54 772.68 16.60
2968 156.0895 795.98 772.03 17.27
2969 156.1396 737.51 771.36 16.68
2970 156.1895 760.27 770.68 16.99
2971 156.2396 731.01 769.99 16.56
2972 156.2913 727.74 769.27 16.39
2973 156.3412 731.37 768.57 16.38
2974 156.3912 751.56 767.85 16.62
2975 156.4412 733.87 767.12 16.39
2976 156.4912 749.29 766.38 16.56
2977 156.5412 725.77 765.63 16.24
2978 156.5913 720.74 764.88 16.19
2979 156.6413 688.54 764.11 15.88
2980 156.6913 736.00 763.33 16.32
2981 156.7413 738.92 762.54 16.51
2982 156.7913 701.74 761.74 15.97
2983 156.8413 740.15 760.94 16.52
2984 156.8913 757.25 760.12 16.70
2985 156.9413 714.93 759.29 16.18
2986 156.9913 731.95 758.45 16.28
2987 157.0413 733.17 757.61 16.40
2988 157.0913 774.78 756.75 16.90
2989 157.1413 713.46 755.88 16.17
2990 157.1913 724.20 755.01 16.32
2991 157.2413 712.77 754.12 16.16
2992 157.2913 740.48 753.23 16.42
2993 157.3413 731.60 752.32 16.34
2994 157.3913 746.70 751.41 16.54
2995 157.4413 740.64 750.49 16.45
2996 157.4913 727.17 749.56 16.35
2997 157.5322 738.92 748.79 17.39
2998 157.5822 724.71 747.84 17.18
2999 157.6322 750.85 746.89 17.59
3000 157.6822 736.57 745.92 17.32
3001 157.7322 738.20 744.96 17.43
3002 157.7822 703.36 743.98 16.81
3003 157.8323 724.76 742.99 17.15
3004 157.8822 723.66 742.00 17.15
3005 157.9323 720.64 741.00 17.00
3006 157.9822 719.15 740.00 17.12
3007 158.0322 705.98 738.99 17.04
3008 158.0823 727.80 737.97 17.22
3009 158.1323 722.12 736.95 17.16
3010 158.1822 726.45 735.93 17.20
3011 158.2323 759.72 734.90 17.62
3012 158.2823 769.84 733.87 17.77
3013 158.3323 744.25 732.83 17.48
3014 158.3823 728.84 731.79 17.28
3015 158.4323 702.46 730.75 16.96
3016 158.4823 730.99 729.71 17.35
3017 158.5323 715.63 728.67 17.02
3018 158.5823 737.13 727.63 17.33
3019 158.6323 726.11 726.58 17.26
3020 158.6822 748.43 725.54 17.51
3021 158.7323 740.79 724.50 17.37
3022 158.7824 746.68 723.47 17.72
3023 158.8324 750.75 722.43 17.73
3024 158.8824 710.31 721.40 17.26
3025 158.9324 767.36 720.38 17.92
3026 158.9824 688.53 719.36 16.92
3027 159.0324 714.60 718.33 17.22
3028 159.0824 734.43 717.11 17.45
3029 159.1324 756.30 716.12 17.87
3030 159.1824 724.58 715.15 17.24
3031 159.2324 718.78 714.18 17.34
3032 159.2824 719.35 713.22 17.29
3033 159.3324 739.61 712.28 17.51
3034 159.3824 697.95 711.36 16.99
3035 159.4324 712.37 710.45 17.17
3036 159.4824 769.93 709.56 17.87
3037 159.5324 691.14 708.69 16.88
3038 159.5824 729.36 707.84 17.36
3039 159.6324 725.38 707.01 17.44
3040 159.6824 705.88 706.21 17.11
3041 159.7325 743.83 705.43 17.60
3042 159.7825 714.50 704.69 17.21
3043 159.8324 729.93 703.97 17.42
3044 159.8824 732.80 703.28 17.44
3045 159.9324 740.23 702.63 17.57
3046 159.9824 714.16 702.02 17.19
3047 160.0545 727.99 701.20 16.77
3048 160.1045 728.25 700.68 16.69
3049 160.1545 705.47 700.21 16.49
3050 160.2045 706.49 699.79 16.45
3051 160.2545 688.45 699.41 16.16
3052 160.3045 700.24 699.09 16.25
3053 160.3545 712.24 698.83 16.43
3054 160.4045 701.80 698.62 16.41
3055 160.4545 683.79 698.47 16.05
3056 160.5045 709.19 698.39 16.54
3057 160.5545 718.55 698.38 16.55
3058 160.6045 730.19 698.44 16.73
3059 160.6545 687.07 698.58 16.22
3060 160.7045 703.99 698.79 16.43
3061 160.7545 710.90 699.09 16.46
3062 160.8045 714.60 699.48 16.52
3063 160.8545 720.57 699.97 16.61
3064 160.9045 717.54 700.54 16.62
3065 160.9545 728.11 701.23 16.77
3066 161.0046 739.31 702.02 16.84
3067 161.0545 723.43 702.92 16.61
3068 161.1045 722.89 703.95 16.65
3069 161.1545 701.67 705.10 16.36
3070 161.2045 694.49 706.38 16.29
3071 161.2545 736.59 707.80 16.78
3072 161.3130 715.45 709.64 16.66
3073 161.3630 685.61 711.39 16.18
3074 161.4130 712.02 713.29 16.58
3075 161.4630 720.88 715.37 16.65
3076 161.5130 721.77 717.62 16.56
3077 161.5630 699.86 720.07 16.28
3078 161.6130 697.12 722.72 16.29
3079 161.6631 702.29 725.58 16.45
3080 161.7131 716.13 728.66 16.47
3081 161.7630 722.95 731.98 16.70
3082 161.8130 723.17 735.56 16.61
3083 161.8631 722.82 739.41 16.60
3084 161.9131 734.10 743.55 16.78
3085 161.9630 761.93 748.00 17.16
3086 162.0131 741.14 752.81 16.76
3087 162.0631 730.74 757.98 16.70
3088 162.1131 725.26 763.56 16.60
loop_
_pd_proc_info_excluded_regions
'from 2.748 to 7.970'
'from 162.317 to 164.113'
loop_
_refln_index_h
_refln_index_k
_refln_index_l
_refln_F_squared_calc
_refln_F_squared_meas
_refln_F_squared_sigma
_refln_observed_status
_refln_d_spacing
0 0 2 328.11 323.49 7.10 o 4.008512
1 1 0 333.57 328.87 7.22 o 4.008041
1 1 2 280.70 250.24 5.43 o 2.834279
2 0 0 377.51 336.54 7.31 o 2.834113
2 1 1 76.27 72.74 2.09 o 2.416965
2 0 2 4382.11 4414.56 89.07 o 2.314134
0 0 4 9971.86 9692.65 195.35 o 2.004256
2 2 0 9624.62 9355.14 188.55 o 2.004020
2 1 3 66.19 75.06 3.28 o 1.839118
1 1 4 296.75 311.93 6.94 o 1.792619
2 2 2 171.42 180.15 4.00 o 1.792493
3 1 0 357.86 376.09 8.36 o 1.792450
2 0 4 431.46 518.66 11.44 o 1.636404
3 1 2 317.46 381.63 8.42 o 1.636308
3 2 1 52.51 44.00 3.55 o 1.542702
2 2 4 7907.61 9199.33 186.16 o 1.417140
4 0 0 7639.18 8887.05 179.84 o 1.417056
2 1 5 49.86 47.05 1.28 o 1.355079
3 2 3 45.57 43.07 1.17 o 1.355006
4 1 1 190.76 180.31 4.89 o 1.354970
0 0 6 144.25 138.92 3.30 o 1.336171
3 1 4 314.06 302.47 7.19 o 1.336083
4 0 2 82.34 79.30 1.89 o 1.336031
3 3 0 179.12 172.51 4.10 o 1.336014
1 1 6 243.95 145.52 3.59 o 1.267588
3 3 2 165.08 98.47 2.43 o 1.267469
4 2 0 597.79 356.59 8.79 o 1.267454
4 1 3 165.57 151.25 4.59 o 1.222471
2 0 6 2641.47 2588.26 52.51 o 1.208586
4 2 2 2373.46 2325.65 47.18 o 1.208483
4 0 4 6302.35 5732.50 116.91 o 1.157067
3 2 5 34.33 45.90 1.59 o 1.122541
4 3 1 131.33 175.61 6.09 o 1.122479
2 2 6 71.12 34.09 1.53 o 1.111721
3 3 4 165.16 79.17 3.56 o 1.111671
5 1 0 199.51 95.63 4.30 o 1.111631
3 1 6 265.22 253.07 5.43 o 1.071275
4 2 4 606.72 578.92 12.42 o 1.071230
5 1 2 192.68 183.99 3.95 o 1.071203
2 1 7 32.60 25.17 0.77 o 1.043707
4 1 5 124.72 96.22 2.96 o 1.043657
4 3 3 113.99 87.94 2.71 o 1.043624
5 2 1 24.67 19.04 0.59 o 1.043607
0 0 8 5549.31 5773.63 120.00 o 1.002128
4 4 0 4914.78 5119.42 106.38 o 1.002010
5 2 3 21.41 17.73 3.71 o 0.979336
1 1 8 209.91 186.18 4.70 o 0.972200
4 0 6 31.27 27.74 0.70 o 0.972153
5 1 4 180.39 159.96 4.04 o 0.972120
4 4 2 12.77 11.32 0.29 o 0.972099
5 3 0 350.31 310.63 7.84 o 0.972093
2 0 8 505.33 780.66 17.00 o 0.944803
3 3 6 154.09 238.04 5.18 o 0.944760
5 3 2 345.28 534.88 11.65 o 0.944710
6 0 0 710.40 1100.48 23.96 o 0.944704
3 2 7 22.44 22.51 0.62 o 0.925688
4 3 5 85.87 86.11 2.37 o 0.925654
6 1 1 196.08 196.64 5.42 o 0.925619
4 2 6 1433.08 1431.39 29.57 o 0.919559
6 0 2 1284.48 1282.96 26.50 o 0.919513
2 2 8 4454.48 4457.62 90.07 o 0.896309
4 4 4 4086.87 4093.32 82.71 o 0.896246
6 2 0 3960.61 3966.86 80.16 o 0.896225
4 1 7 81.54 63.08 1.78 o 0.879940
5 2 5 16.13 12.50 0.35 o 0.879910
6 1 3 170.18 131.87 3.71 o 0.879891
5 4 1 61.71 47.82 1.35 o 0.879881
3 1 8 214.49 248.41 5.70 o 0.874705
5 3 4 301.23 348.86 8.00 o 0.874646
6 2 2 2.58 2.99 0.07 o 0.874631
5 1 6 170.75 137.02 3.23 o 0.854558
6 0 4 681.91 547.20 12.90 o 0.854535
2 1 9 18.50 14.30 0.44 o 0.840402
5 4 3 53.56 41.40 1.28 o 0.840323
6 3 1 135.00 104.35 3.23 o 0.840315
