#------------------------------------------------------------------------------
#$Date: 2017-05-25 05:00:10 +0300 (Thu, 25 May 2017) $
#$Revision: 196967 $
#$URL: file:///home/coder/svn-repositories/cod/cif/7/04/31/7043111.cif $
#------------------------------------------------------------------------------
#
# This file is available in the Crystallography Open Database (COD),
# http://www.crystallography.net/
#
# All data on this site have been placed in the public domain by the
# contributors.
#
data_7043111
loop_
_publ_author_name
'Whittle, Thomas A.'
'Brant, William R.'
'Hester, James R.'
'Gu, Qinfen'
'Schmid, Siegbert'
_publ_section_title
;
 Tailoring phase transition temperatures in perovskites via A-site vacancy
 generation
;
_journal_name_full               'Dalton Trans.'
_journal_paper_doi               10.1039/C7DT00352H
_journal_year                    2017
_chemical_formula_sum            'Nb0.4 O3 Sr0.8 Ti0.24 Zr0.36'
_chemical_formula_weight         199.6
_chemical_name_systematic        ' ?'
_space_group_IT_number           140
_symmetry_cell_setting           tetragonal
_symmetry_Int_Tables_number      140
_symmetry_space_group_name_Hall  '-I 4 2c'
_symmetry_space_group_name_H-M   'I 4/m c m'
_cell_angle_alpha                90
_cell_angle_beta                 90
_cell_angle_gamma                90
_cell_formula_units_Z            4
_cell_length_a                   5.664962(9)
_cell_length_b                   5.664962(9)
_cell_length_c                   8.01659(2)
_cell_measurement_temperature    293
_cell_volume                     257.2668(9)
_diffrn_ambient_temperature      293
_diffrn_radiation_probe          x-ray
_diffrn_radiation_wavelength     0.82647
_exptl_absorpt_coefficient_mu    9.467
_exptl_crystal_density_diffrn    5.1529
_exptl_crystal_F_000             95
_pd_instr_location               ' ?'
_pd_meas_2theta_range_max        82.007
_pd_meas_2theta_range_min        2.186
_pd_meas_number_of_points        21239
_pd_proc_2theta_range_max        82.007
_pd_proc_2theta_range_min        4.426
_pd_proc_ls_background_function  '20 Legendre polynoms'
_pd_proc_ls_pref_orient_corr     none
_pd_proc_ls_profile_function     Pseudo-Voigt
_pd_proc_ls_prof_R_factor        0.0312
_pd_proc_ls_prof_wR_expected     0.0089
_pd_proc_ls_prof_wR_factor       0.0418
_refine_ls_goodness_of_fit_all   4.72
_refine_ls_number_constraints    0
_refine_ls_number_parameters     35
_refine_ls_number_restraints     0
_refine_ls_R_factor_all          0.0202
_refine_ls_R_factor_gt           0.0199
_refine_ls_shift/su_max          0.0312
_refine_ls_shift/su_mean         0.0051
_refine_ls_weighting_scheme      sigma
_refine_ls_wR_factor_all         0.0417
_refine_ls_wR_factor_gt          0.0417
_cod_data_source_file            c7dt00352h9.cif
_cod_data_source_block           I
_cod_depositor_comments
;
The following automatic conversions were performed:

'_diffrn_radiation_probe' value 'X-ray' changed to 'x-ray' according
to
/home/data/users/saulius/crontab/automatic-downloads/rss-feeds/RSC/lib/dictionaries/cif_core.dic
dictionary named 'cif_core.dic' version 2.4.2 from 2011-04-26.

Automatic conversion script
Id: cif_fix_values 4973 2017-02-22 13:04:09Z antanas 
;
_cod_original_cell_volume        257.2669(9)
_cod_original_sg_symbol_Hall     '-I 4;-2c'
_cod_database_code               7043111
loop_
_space_group_symop_id
_space_group_symop_operation_xyz
1 x,y,z
2 -x,-y,z
3 -y,x,z
4 y,-x,z
5 -x,y,-z+1/2
6 x,-y,-z+1/2
7 y,x,-z+1/2
8 -y,-x,-z+1/2
9 -x,-y,-z
10 x,y,-z
11 y,-x,-z
12 -y,x,-z
13 x,-y,z+1/2
14 -x,y,z+1/2
15 -y,-x,z+1/2
16 y,x,z+1/2
17 x+1/2,y+1/2,z+1/2
18 -x+1/2,-y+1/2,z+1/2
19 -y+1/2,x+1/2,z+1/2
20 y+1/2,-x+1/2,z+1/2
21 -x+1/2,y+1/2,-z
22 x+1/2,-y+1/2,-z
23 y+1/2,x+1/2,-z
24 -y+1/2,-x+1/2,-z
25 -x+1/2,-y+1/2,-z+1/2
26 x+1/2,y+1/2,-z+1/2
27 y+1/2,-x+1/2,-z+1/2
28 -y+1/2,x+1/2,-z+1/2
29 x+1/2,-y+1/2,z
30 -x+1/2,y+1/2,z
31 -y+1/2,-x+1/2,z
32 y+1/2,x+1/2,z
loop_
_atom_site_label
_atom_site_type_symbol
_atom_site_fract_x
_atom_site_fract_y
_atom_site_fract_z
_atom_site_adp_type
_atom_site_U_iso_or_equiv
_atom_site_site_symmetry_multiplicity
_atom_site_occupancy
_atom_site_calc_flag
Sr Sr 0 0.5 0.25 Uiso 0.00997(5) 4 0.8 d
Ti Ti 0 0 0 Uiso 0.00673(4) 4 0.24 d
Zr Zr 0 0 0 Uiso 0.00673(4) 4 0.36 d
Nb Nb 0 0 0 Uiso 0.00673(4) 4 0.4 d
O1 O 0 0 0.25 Uiso 0.0265(18) 4 1 d
O2 O 0.2626(3) 0.7626(3) 0 Uiso 0.0181(8) 8 1 d
loop_
_atom_type_symbol
_atom_type_scat_dispersion_real
_atom_type_scat_dispersion_imag
_atom_type_scat_source
Nb -1.2547 0.8343 'International Tables Vol C tables 4.2.6.8 and 6.1.1.1'
O 0.0160 0.0088 'International Tables Vol C tables 4.2.6.8 and 6.1.1.1'
Sr -2.2366 0.6060 'International Tables Vol C tables 4.2.6.8 and 6.1.1.1'
Ti 0.3254 0.5997 'International Tables Vol C tables 4.2.6.8 and 6.1.1.1'
Zr -1.4554 0.7527 'International Tables Vol C tables 4.2.6.8 and 6.1.1.1'
loop_
_geom_angle_atom_site_label_1
_geom_angle_atom_site_label_2
_geom_angle_atom_site_label_3
_geom_angle_site_symmetry_1
_geom_angle_site_symmetry_3
_geom_angle
Ti O2 Ti 1_565 21_555 174.23(8)
loop_
_geom_bond_atom_site_label_1
_geom_bond_atom_site_label_2
_geom_bond_site_symmetry_2
_geom_bond_distance
O2 Ti 1_565 2.0054(15)
O2 Ti 21_555 2.0054(15)
loop_
_pd_proc_point_id
_pd_proc_2theta_corrected
_pd_proc_intensity_net
_pd_calc_intensity_net
_pd_proc_ls_weight
1 4.4256 48667.50 47675.20 291.12
2 4.4293 47707.60 47684.40 287.54
3 4.4331 49063.10 47693.60 293.16
4 4.4369 48152.40 47702.60 288.60
5 4.4406 48879.30 47711.60 292.06
6 4.4444 47663.10 47720.50 286.95
7 4.4481 48736.60 47729.40 291.27
8 4.4519 47853.30 47738.10 289.77
9 4.4557 48739.40 47746.80 292.39
10 4.4594 47838.70 47755.50 287.65
11 4.4632 48932.70 47764.00 291.89
12 4.4669 47652.20 47772.50 287.68
13 4.4707 48529.90 47780.90 291.70
14 4.4745 47740.70 47789.20 285.99
15 4.4782 48880.20 47797.50 292.32
16 4.4820 47916.80 47805.70 288.18
17 4.4858 48288.90 47813.80 289.98
18 4.4895 48482.10 47821.80 290.22
19 4.4933 48819.40 47829.80 291.97
20 4.4970 47993.50 47837.70 290.23
21 4.5008 48750.30 47845.50 289.12
22 4.5045 47851.80 47853.30 287.97
23 4.5083 48830.80 47860.90 292.26
24 4.5121 47831.40 47868.50 288.84
25 4.5158 48680.30 47876.10 290.96
26 4.5196 48156.30 47883.60 290.07
27 4.5233 48779.80 47890.90 291.05
28 4.5271 48362.50 47898.30 289.41
29 4.5309 48701.70 47905.50 291.45
30 4.5346 47951.00 47912.70 288.37
31 4.5384 48561.60 47919.80 288.52
32 4.5422 48213.00 47926.90 287.95
33 4.5459 48388.50 47933.90 291.14
34 4.5497 47736.10 47940.80 286.83
35 4.5534 48385.10 47947.60 288.98
36 4.5572 47764.80 47954.40 288.16
37 4.5610 48511.80 47961.10 292.60
38 4.5647 48004.80 47967.70 289.50
39 4.5685 48596.80 47974.20 291.32
40 4.5722 47941.40 47980.70 290.45
41 4.5760 48611.40 47987.10 291.20
42 4.5798 47201.00 47993.50 285.60
43 4.5835 48378.70 47999.80 291.30
44 4.5873 48146.10 48006.00 292.15
45 4.5911 48566.10 48012.20 292.00
46 4.5948 47485.70 48018.20 287.10
47 4.5986 48389.40 48024.30 288.83
48 4.6023 48230.10 48030.20 287.24
49 4.6061 49127.90 48036.10 293.76
50 4.6098 48062.80 48041.90 289.37
51 4.6136 48291.50 48047.60 290.18
52 4.6174 47922.20 48053.30 288.43
53 4.6211 48478.90 48058.90 289.55
54 4.6249 47829.70 48064.50 287.45
55 4.6287 48447.90 48070.00 290.90
56 4.6324 48178.60 48075.40 288.23
57 4.6362 48827.50 48080.70 290.74
58 4.6399 47956.50 48086.00 287.53
59 4.6437 48432.30 48091.20 289.77
60 4.6475 47681.50 48096.40 288.10
61 4.6512 48649.80 48101.40 290.54
62 4.6550 47969.20 48106.50 288.12
63 4.6587 48780.20 48111.40 290.80
64 4.6625 48299.40 48116.30 290.20
65 4.6663 48799.90 48121.10 292.14
66 4.6700 48038.00 48125.90 287.53
67 4.6738 48679.30 48130.60 291.25
68 4.6775 48040.00 48135.20 286.98
69 4.6813 48661.80 48139.80 290.64
70 4.6851 47826.20 48144.30 288.00
71 4.6888 48471.90 48148.70 290.62
72 4.6926 47945.00 48153.10 288.78
73 4.6963 48551.80 48157.40 290.53
74 4.7001 47509.20 48161.70 287.23
75 4.7039 48409.70 48165.90 287.80
76 4.7076 47866.60 48170.00 284.75
77 4.7114 48549.50 48174.10 290.45
78 4.7151 47946.60 48178.10 283.92
79 4.7189 48588.90 48182.00 291.30
80 4.7227 47696.50 48185.90 286.16
81 4.7302 47816.90 48193.50 288.39
82 4.7377 48160.50 48200.80 289.09
83 4.7415 48813.80 48204.30 292.11
84 4.7452 47438.20 48207.90 285.85
85 4.7490 48908.90 48211.30 292.52
86 4.7527 48171.90 48214.70 288.03
87 4.7565 48506.50 48218.00 290.74
88 4.7603 47815.20 48221.30 288.36
89 4.7640 48658.30 48224.50 291.10
90 4.7678 47830.20 48227.60 287.57
91 4.7716 48598.40 48230.70 290.95
92 4.7753 48152.80 48233.70 289.59
93 4.7791 48320.20 48236.70 290.18
94 4.7828 47532.60 48239.60 286.14
95 4.7866 48301.10 48242.50 289.40
96 4.7904 47448.10 48245.20 285.36
97 4.7941 48722.00 48248.00 291.75
98 4.7979 47449.60 48250.60 286.30
99 4.8016 48426.30 48253.30 292.03
100 4.8054 47805.00 48255.80 287.93
101 4.8092 48463.70 48258.30 291.19
102 4.8129 47587.90 48260.70 286.38
103 4.8167 48392.90 48263.10 289.56
104 4.8204 47973.10 48265.40 289.28
105 4.8242 48453.70 48267.70 290.60
106 4.8280 47586.60 48269.90 287.56
107 4.8317 48451.90 48272.10 292.14
108 4.8355 47791.20 48274.20 288.29
109 4.8392 48444.80 48276.20 289.73
110 4.8430 48083.70 48278.20 289.10
111 4.8468 48234.60 48280.10 289.28
112 4.8505 47504.70 48282.00 287.05
113 4.8543 48608.50 48283.80 290.87
114 4.8580 47627.70 48285.50 288.46
115 4.8618 48796.60 48287.20 291.55
116 4.8656 48085.30 48288.90 290.61
117 4.8693 48491.60 48290.50 290.22
118 4.8731 47927.80 48292.00 288.43
119 4.8769 48487.70 48293.50 289.30
120 4.8806 47774.30 48294.90 288.98
121 4.8844 48339.20 48296.20 288.51
122 4.8881 47504.70 48297.60 286.73
123 4.8919 48515.70 48298.80 291.83
124 4.8956 47727.60 48300.00 288.83
125 4.8994 48567.70 48301.20 290.71
126 4.9032 47811.40 48302.30 288.67
127 4.9069 48743.90 48303.30 290.67
128 4.9107 47115.90 48304.30 285.58
129 4.9145 48460.10 48305.20 288.83
130 4.9182 47893.80 48306.10 288.88
131 4.9220 48276.90 48306.90 289.54
132 4.9257 47863.30 48307.70 288.73
133 4.9295 48777.30 48308.40 293.39
134 4.9333 48080.20 48309.10 289.47
135 4.9370 48107.70 48309.70 289.65
136 4.9408 47615.00 48310.30 287.40
137 4.9445 48625.00 48310.80 292.22
138 4.9483 47634.10 48311.30 287.66
139 4.9521 48518.40 48311.70 290.64
140 4.9558 47678.20 48312.00 288.20
141 4.9596 48371.00 48312.30 291.56
142 4.9633 47594.50 48312.60 286.49
143 4.9671 48397.20 48312.80 289.58
144 4.9709 47922.40 48312.90 288.88
145 4.9746 48902.60 48313.00 292.43
146 4.9784 47806.40 48313.10 286.66
147 4.9821 48323.00 48313.10 290.75
148 4.9859 47502.00 48313.00 287.84
149 4.9897 48590.40 48312.90 292.05
150 4.9934 47479.70 48312.80 287.13
151 4.9972 48711.50 48312.60 291.54
152 5.0009 47629.40 48312.30 287.89
153 5.0047 48817.50 48312.00 294.25
154 5.0085 47716.30 48311.70 288.65
155 5.0122 48763.60 48311.30 293.15
156 5.0160 48081.70 48310.80 289.73
157 5.0198 48611.50 48310.30 292.47
158 5.0235 47574.30 48309.80 288.55
159 5.0273 48313.20 48309.20 291.21
160 5.0310 47448.30 48308.60 287.95
161 5.0348 48435.80 48307.90 291.19
162 5.0385 47929.30 48307.10 290.08
163 5.0423 48800.20 48306.30 293.49
164 5.0461 47748.20 48305.50 289.70
165 5.0498 48744.20 48304.60 292.04
166 5.0536 48357.60 48303.70 290.98
167 5.0574 48445.30 48302.70 290.21
168 5.0611 47416.00 48301.70 287.98
169 5.0649 48832.40 48300.60 292.96
170 5.0686 47914.00 48299.50 290.26
171 5.0724 48804.40 48298.30 294.45
172 5.0761 48379.60 48297.10 291.71
173 5.0799 48881.80 48295.90 293.53
174 5.0837 48001.30 48294.60 290.22
175 5.0874 48679.40 48293.20 289.72
176 5.0912 47785.60 48291.80 290.20
177 5.0950 48608.70 48290.40 293.04
178 5.0987 47835.70 48288.90 291.90
179 5.1025 48316.50 48287.40 290.39
180 5.1062 47764.70 48285.80 287.93
181 5.1100 48544.00 48284.20 292.09
182 5.1138 47859.80 48282.50 287.77
183 5.1175 48630.40 48280.80 292.80
184 5.1213 47515.80 48279.10 288.51
185 5.1250 48255.00 48277.30 292.14
186 5.1288 48207.70 48275.40 290.97
187 5.1326 48885.60 48273.60 292.02
188 5.1363 47854.40 48271.60 287.60
189 5.1401 48714.10 48269.60 292.40
190 5.1438 47602.60 48267.60 289.61
191 5.1476 48559.80 48265.60 292.22
192 5.1514 47309.40 48263.50 286.49
193 5.1551 48564.60 48261.30 291.67
194 5.1589 47712.00 48259.10 290.43
195 5.1626 48287.30 48256.90 291.69
196 5.1664 47868.70 48254.60 287.79
197 5.1702 48617.30 48252.30 293.09
198 5.1739 47577.80 48250.00 288.88
199 5.1777 48791.30 48247.60 293.19
200 5.1814 47632.90 48245.10 288.11
201 5.1852 48212.30 48242.60 291.77
202 5.1890 47240.60 48240.10 285.71
203 5.1927 48367.80 48237.60 293.18
204 5.1965 47688.40 48234.90 287.78
205 5.2002 48598.70 48232.30 290.87
206 5.2040 47654.10 48229.60 286.82
207 5.2078 48478.00 48226.90 292.43
208 5.2115 47524.80 48224.10 286.97
209 5.2153 48404.10 48221.30 291.61
210 5.2190 47652.10 48218.50 287.86
211 5.2228 48277.50 48215.60 291.46
212 5.2266 47157.10 48212.60 287.38
213 5.2303 48307.50 48209.70 287.82
214 5.2341 47149.00 48206.70 283.82
215 5.2378 48619.10 48203.60 292.76
216 5.2416 47708.50 48200.50 289.37
217 5.2454 48339.90 48197.40 289.71
218 5.2491 47361.60 48194.20 287.67
219 5.2529 48133.50 48191.00 291.28
220 5.2566 47410.40 48187.80 287.29
221 5.2604 48607.80 48184.50 291.82
222 5.2642 47427.20 48181.20 287.38
223 5.2679 48577.70 48177.80 291.72
224 5.2717 47367.90 48174.40 287.47
225 5.2754 48059.50 48171.00 289.57
226 5.2792 47894.50 48167.50 290.46
227 5.2830 48087.80 48164.00 286.35
228 5.2867 47936.90 48160.50 289.24
229 5.2905 48203.00 48156.90 291.27
230 5.2942 47613.90 48153.20 289.10
231 5.2980 48364.00 48149.60 288.64
232 5.3018 47389.70 48145.90 286.17
233 5.3055 48403.80 48142.20 291.73
234 5.3093 47229.20 48138.40 285.76
235 5.3130 48091.40 48134.60 289.18
236 5.3168 47293.30 48130.70 287.28
237 5.3206 48538.60 48126.90 288.75
238 5.3243 47824.60 48123.00 287.16
239 5.3281 48021.90 48119.00 289.35
240 5.3318 46802.80 48115.00 285.33
241 5.3356 48090.80 48111.00 290.60
242 5.3394 47061.70 48106.90 286.57
243 5.3431 47629.50 48102.90 287.35
244 5.3469 47787.70 48098.70 288.92
245 5.3506 48577.20 48094.60 292.72
246 5.3544 47583.70 48090.40 288.16
247 5.3582 48271.00 48086.20 289.85
248 5.3619 47617.50 48081.90 289.31
249 5.3657 47862.80 48077.60 290.25
250 5.3694 47434.20 48073.30 288.72
251 5.3732 48048.40 48068.90 291.26
252 5.3770 47201.50 48064.50 287.17
253 5.3807 48735.20 48060.10 290.92
254 5.3845 47736.30 48055.60 287.05
255 5.3882 48238.10 48051.10 293.04
256 5.3920 47236.00 48046.60 288.13
257 5.3958 48054.80 48042.00 289.76
258 5.3995 47516.20 48037.40 286.62
259 5.4033 48032.90 48032.80 287.90
260 5.4070 47712.40 48028.10 289.38
261 5.4108 48276.60 48023.40 291.91
262 5.4146 47250.40 48018.70 286.45
263 5.4183 47980.30 48013.90 290.50
264 5.4221 47094.70 48009.10 283.77
265 5.4258 47935.30 48004.30 285.63
266 5.4296 47050.70 47999.50 286.20
267 5.4334 48301.70 47994.60 289.88
268 5.4371 47186.80 47989.70 288.71
269 5.4409 47915.90 47984.70 288.99
270 5.4446 47018.50 47979.70 285.05
271 5.4484 48540.60 47974.70 292.35
272 5.4522 47560.20 47969.70 288.78
273 5.4559 48024.00 47964.60 290.23
274 5.4597 47114.20 47959.50 286.60
275 5.4634 48345.90 47954.40 292.14
276 5.4672 47416.00 47949.20 287.80
277 5.4710 48320.60 47944.00 289.64
278 5.4747 47743.90 47938.80 290.08
279 5.4785 47913.90 47933.50 290.06
280 5.4822 47426.40 47928.30 286.98
281 5.4860 48126.80 47922.90 291.95
282 5.4898 47749.20 47917.60 289.37
283 5.4935 48451.70 47912.20 290.45
284 5.4973 47301.50 47906.80 288.54
285 5.5010 48286.90 47901.40 288.93
286 5.5048 47440.90 47896.00 288.57
287 5.5086 48141.60 47890.50 291.86
288 5.5123 47088.80 47885.00 285.32
289 5.5161 47995.90 47879.40 291.25
290 5.5198 47387.50 47873.80 289.57
291 5.5236 47894.30 47868.20 289.60
292 5.5273 46813.00 47862.60 285.11
293 5.5311 48003.40 47857.00 291.11
294 5.5349 47432.90 47851.30 286.11
295 5.5386 48464.30 47845.60 290.35
296 5.5424 47512.30 47839.80 288.55
297 5.5462 47902.50 47834.10 290.39
298 5.5499 47149.00 47828.30 288.00
299 5.5537 48295.10 47822.50 291.34
300 5.5574 47446.90 47816.60 288.68
301 5.5612 48305.10 47810.80 289.48
302 5.5649 47143.70 47804.90 286.44
303 5.5687 48216.50 47798.90 289.86
304 5.5725 47489.40 47793.00 288.11
305 5.5762 48489.20 47787.00 291.32
306 5.5800 47568.20 47781.00 287.10
307 5.5837 47948.90 47775.00 288.64
308 5.5875 47319.00 47768.90 286.86
309 5.5913 48052.10 47762.90 289.14
310 5.5950 47605.40 47756.80 287.80
311 5.5988 48009.70 47750.60 287.48
312 5.6025 47300.40 47744.50 286.16
313 5.6063 47953.10 47738.30 289.12
314 5.6101 47865.90 47732.10 289.96
315 5.6138 48123.40 47725.90 289.25
316 5.6176 46867.00 47719.60 284.38
317 5.6213 48324.90 47713.30 289.10
318 5.6251 47079.30 47707.00 285.48
319 5.6289 47775.30 47700.70 288.19
320 5.6326 46806.30 47694.40 285.29
321 5.6364 48277.10 47688.00 289.85
322 5.6401 47642.20 47681.60 287.33
323 5.6439 47946.00 47675.20 288.50
324 5.6476 46985.50 47668.70 283.50
325 5.6514 47688.00 47662.30 288.05
326 5.6552 46703.10 47655.80 283.02
327 5.6589 47207.20 47649.30 285.55
328 5.6627 47026.00 47642.70 284.38
329 5.6665 47226.10 47636.20 286.60
330 5.6702 47009.30 47629.60 285.41
331 5.6740 48057.80 47623.00 287.57
332 5.6777 46951.10 47616.40 285.07
333 5.6815 47589.50 47609.70 286.74
334 5.6852 46742.60 47603.00 285.10
335 5.6890 47954.70 47596.30 288.64
336 5.6928 46920.30 47589.60 284.00
337 5.6965 47610.20 47582.90 284.77
338 5.7003 46860.00 47576.10 283.04
339 5.7040 47217.40 47569.40 283.76
340 5.7078 46825.10 47562.60 285.24
341 5.7116 47348.40 47555.70 285.62
342 5.7153 46703.50 47548.90 283.96
343 5.7191 47607.70 47542.00 287.13
344 5.7228 46504.50 47535.10 283.18
345 5.7266 47710.50 47528.20 283.58
346 5.7304 46774.50 47521.30 285.22
347 5.7341 47650.10 47514.40 286.40
348 5.7379 46587.60 47507.40 283.22
349 5.7416 47375.10 47500.40 283.77
350 5.7454 47101.20 47493.40 282.56
351 5.7491 47369.20 47486.40 286.02
352 5.7529 46485.00 47479.30 282.35
353 5.7567 47474.20 47472.30 287.52
354 5.7604 46721.00 47465.20 285.03
355 5.7642 47166.80 47458.10 285.27
356 5.7680 46605.80 47451.00 284.84
357 5.7717 47897.20 47443.80 287.83
358 5.7755 46946.50 47436.60 282.30
359 5.7792 47499.50 47429.50 287.08
360 5.7830 46555.80 47422.30 284.60
361 5.7867 47274.40 47415.10 286.40
362 5.7905 46504.70 47407.80 283.17
363 5.7943 47504.60 47400.60 284.84
364 5.7980 46356.40 47393.30 282.41
365 5.8018 46982.60 47386.00 283.82
366 5.8055 46668.90 47378.70 284.62
367 5.8093 47283.70 47371.40 285.46
368 5.8131 46185.20 47364.00 282.16
369 5.8168 47511.30 47356.60 286.24
370 5.8206 46609.10 47349.30 284.00
371 5.8243 47030.80 47341.90 282.40
372 5.8281 46217.20 47334.50 280.13
373 5.8319 47563.50 47327.00 287.93
374 5.8356 46298.50 47319.60 282.69
375 5.8394 47087.10 47312.10 286.43
376 5.8431 46410.90 47304.60 283.59
377 5.8469 47479.80 47297.10 286.92
378 5.8506 45918.30 47289.60 280.06
379 5.8544 47213.00 47282.10 285.06
380 5.8582 47126.70 47274.50 283.39
381 5.8619 47505.70 47267.00 287.69
382 5.8657 46641.20 47259.40 279.78
383 5.8694 47581.20 47251.80 286.15
384 5.8732 46818.50 47244.20 285.07
385 5.8770 47153.70 47236.50 285.33
386 5.8807 46946.10 47228.90 285.42
387 5.8845 47335.70 47221.20 286.17
388 5.8882 46814.50 47213.60 284.14
389 5.8920 46790.80 47205.90 284.85
390 5.8958 46589.40 47198.20 285.52
391 5.8995 47408.10 47190.40 284.77
392 5.9033 46348.50 47182.70 283.83
393 5.9070 47223.70 47174.90 286.12
394 5.9108 46477.30 47167.20 284.33
395 5.9145 47371.60 47159.40 287.77
396 5.9183 46645.90 47151.60 283.44
397 5.9221 47409.30 47143.80 287.46
398 5.9258 46689.10 47136.00 284.68
399 5.9296 47330.80 47128.10 287.24
400 5.9333 46489.10 47120.30 284.74
401 5.9371 47287.90 47112.40 287.32
402 5.9408 46706.90 47104.50 285.81
403 5.9446 47834.40 47096.60 290.82
404 5.9484 46556.70 47088.70 283.48
405 5.9521 47518.90 47080.80 287.76
406 5.9559 46366.70 47072.90 283.64
407 5.9596 47511.40 47065.00 286.40
408 5.9634 46676.10 47057.00 286.05
409 5.9672 47769.40 47049.00 289.43
410 5.9709 46981.20 47041.00 285.78
411 5.9747 47320.90 47033.00 287.35
412 5.9784 46739.10 47025.00 285.66
413 5.9822 47295.30 47017.00 287.87
414 5.9859 46841.50 47009.00 286.93
415 5.9897 47243.20 47000.90 285.13
416 5.9935 46778.60 46992.80 285.09
417 5.9972 47285.10 46984.80 287.11
418 6.0010 46739.90 46976.70 286.06
419 6.0047 47500.30 46968.60 288.11
420 6.0085 46484.20 46960.50 285.92
421 6.0123 46961.30 46952.40 288.25
422 6.0160 46717.60 46944.20 286.59
423 6.0198 47230.10 46936.10 287.33
424 6.0235 46415.60 46927.90 283.07
425 6.0273 47868.10 46919.80 289.86
426 6.0311 46651.30 46911.60 285.96
427 6.0348 47093.70 46903.40 286.87
428 6.0386 46437.90 46895.20 281.65
429 6.0423 47738.30 46887.00 283.76
430 6.0461 46708.50 46878.80 283.92
431 6.0498 47230.00 46870.60 286.51
432 6.0536 46526.30 46862.30 283.18
433 6.0574 47639.50 46854.10 288.83
434 6.0611 46402.00 46845.80 282.16
435 6.0649 47351.70 46837.50 286.77
436 6.0686 46722.10 46829.20 284.91
437 6.0724 47063.10 46820.90 286.13
438 6.0761 46302.50 46812.60 282.62
439 6.0799 47631.70 46804.30 290.02
440 6.0837 46483.60 46796.00 282.74
441 6.0874 47464.40 46787.70 286.21
442 6.0912 46201.00 46779.30 283.59
443 6.0949 47382.80 46771.00 287.51
444 6.0987 46085.00 46762.60 281.14
445 6.1025 47193.40 46754.20 287.47
446 6.1062 46107.30 46745.90 283.64
447 6.1100 47356.50 46737.50 286.44
448 6.1137 46429.60 46729.10 284.66
449 6.1175 47873.00 46720.70 289.55
450 6.1213 46866.40 46712.30 286.78
451 6.1250 47774.70 46703.90 288.45
452 6.1288 46900.00 46695.40 285.70
453 6.1325 47348.00 46687.00 285.11
454 6.1363 46540.80 46678.50 284.13
455 6.1400 46854.40 46670.10 284.94
456 6.1438 46246.30 46661.60 282.97
457 6.1476 47274.10 46653.10 286.16
458 6.1513 46313.00 46644.70 283.04
459 6.1551 47259.10 46636.20 286.66
460 6.1588 46329.90 46627.70 284.29
461 6.1626 47268.00 46619.20 283.65
462 6.1663 46481.20 46610.70 284.93
463 6.1701 46974.80 46602.10 285.19
464 6.1739 46268.20 46593.60 282.15
465 6.1776 46924.30 46585.10 285.10
466 6.1814 46304.40 46576.60 284.81
467 6.1851 47254.30 46568.00 287.14
468 6.1889 46161.80 46559.40 282.28
469 6.1926 46601.70 46550.90 284.43
470 6.1964 46297.50 46542.30 282.06
471 6.2002 47050.30 46533.80 284.47
472 6.2039 46368.90 46525.20 281.39
473 6.2077 46482.50 46516.60 284.90
474 6.2114 46461.10 46508.00 284.80
475 6.2152 46572.00 46499.40 282.85
476 6.2189 46456.30 46490.80 284.17
477 6.2227 47268.10 46482.20 286.27
478 6.2265 45886.00 46473.60 281.54
479 6.2302 46858.90 46464.90 285.57
480 6.2340 46303.10 46456.30 283.61
481 6.2377 46901.60 46447.70 284.66
482 6.2415 45977.70 46439.00 281.48
483 6.2453 46766.90 46430.40 282.62
484 6.2490 46313.30 46421.70 284.20
485 6.2528 47283.70 46413.10 286.69
486 6.2565 46076.80 46404.40 282.15
487 6.2603 46900.40 46395.70 284.80
488 6.2640 46206.50 46387.10 282.96
489 6.2678 46781.40 46378.40 284.47
490 6.2716 46552.70 46369.70 283.80
491 6.2753 46531.80 46361.00 282.39
492 6.2791 46191.30 46352.30 282.45
493 6.2828 46581.70 46343.60 283.90
494 6.2866 45905.90 46334.90 281.36
495 6.2903 46487.90 46326.20 283.60
496 6.2941 45734.80 46317.50 280.05
497 6.2979 46674.60 46308.80 283.71
498 6.3016 45844.70 46300.10 280.65
499 6.3054 46925.10 46291.40 283.91
500 6.3091 45478.80 46282.60 279.96
501 6.3129 46830.60 46273.90 283.62
502 6.3166 45889.80 46265.20 282.01
503 6.3204 46392.60 46256.40 281.04
504 6.3242 45419.20 46247.70 280.19
505 6.3279 46570.30 46238.90 283.16
506 6.3317 45424.70 46230.20 278.25
507 6.3354 46545.20 46221.40 281.83
508 6.3392 45459.00 46212.70 278.90
509 6.3429 46460.80 46203.90 282.32
510 6.3467 45818.80 46195.10 280.52
511 6.3505 45904.20 46186.40 280.69
512 6.3542 45828.40 46177.60 281.61
513 6.3580 46243.70 46168.80 283.52
514 6.3617 45318.10 46160.10 278.64
515 6.3655 46567.00 46151.30 283.12
516 6.3692 45455.60 46142.50 278.25
517 6.3730 46284.20 46133.70 283.36
518 6.3767 45745.20 46124.90 279.60
519 6.3805 46258.90 46116.20 282.59
520 6.3843 45505.40 46107.40 279.74
521 6.3880 46460.50 46098.60 283.12
522 6.3918 45668.40 46089.80 279.90
523 6.3955 46660.40 46081.00 285.24
524 6.3993 45595.10 46072.20 280.44
525 6.4030 46339.50 46063.40 283.46
526 6.4068 45227.30 46054.60 278.13
527 6.4106 46722.60 46045.80 280.06
528 6.4143 45273.10 46037.00 278.92
529 6.4181 46310.90 46028.10 284.02
530 6.4218 45834.60 46019.30 281.86
531 6.4256 46677.10 46010.50 283.68
532 6.4293 45393.20 46001.70 279.53
533 6.4331 46133.70 45992.90 282.59
534 6.4369 45105.80 45984.10 278.46
535 6.4406 46209.80 45975.30 281.58
536 6.4444 45531.40 45966.40 280.15
537 6.4481 46491.80 45957.60 284.45
538 6.4519 45339.10 45948.80 279.63
539 6.4556 46104.60 45940.00 282.54
540 6.4594 45394.20 45931.10 279.83
541 6.4632 46589.70 45922.30 285.28
542 6.4669 45661.70 45913.50 281.12
543 6.4707 46253.60 45904.70 282.98
544 6.4744 45392.00 45895.80 280.04
545 6.4782 46303.00 45887.00 283.51
546 6.4819 45150.00 45878.20 278.48
547 6.4857 46200.10 45869.40 282.25
548 6.4894 45438.90 45860.50 279.74
549 6.4932 46422.80 45851.70 283.46
550 6.4970 45555.70 45842.90 280.18
551 6.5007 46095.20 45834.10 281.65
552 6.5045 45322.80 45825.20 280.54
553 6.5082 45685.60 45816.40 279.81
554 6.5120 45629.10 45807.60 281.52
555 6.5157 46530.40 45798.70 283.01
556 6.5195 45636.20 45789.90 281.18
557 6.5233 45969.50 45781.10 281.31
558 6.5270 45339.30 45772.20 279.62
559 6.5308 46439.80 45763.40 282.16
560 6.5345 45642.80 45754.60 280.30
561 6.5383 46342.30 45745.80 283.33
562 6.5420 45623.70 45737.00 280.64
563 6.5458 46474.40 45728.10 283.97
564 6.5496 45345.90 45719.30 278.48
565 6.5533 46243.10 45710.50 283.85
566 6.5571 45589.40 45701.70 279.46
567 6.5608 45927.80 45692.90 281.13
568 6.5646 45252.20 45684.00 278.72
569 6.5683 46193.90 45675.20 282.85
570 6.5721 45191.90 45666.40 278.82
571 6.5759 46085.60 45657.60 283.05
572 6.5796 45311.90 45648.80 279.22
573 6.5834 46180.60 45639.90 282.34
574 6.5871 45320.80 45631.10 279.06
575 6.5909 46099.20 45622.30 282.79
576 6.5946 45301.30 45613.50 279.43
577 6.5984 46625.20 45604.70 283.25
578 6.6021 45680.90 45595.90 280.55
579 6.6059 46297.40 45587.10 283.40
580 6.6097 45868.20 45578.30 281.89
581 6.6134 45959.20 45569.50 280.28
582 6.6172 45500.50 45560.70 280.73
583 6.6209 46045.40 45551.90 281.53
584 6.6247 45098.70 45543.10 277.48
585 6.6284 45941.60 45534.30 281.54
586 6.6322 45490.20 45525.50 279.98
587 6.6359 46257.90 45516.80 282.82
588 6.6397 45121.70 45508.00 278.03
589 6.6434 45703.00 45499.20 279.10
590 6.6472 45153.40 45490.40 279.25
591 6.6510 45470.20 45481.60 279.14
592 6.6547 44967.60 45472.90 276.86
593 6.6585 46066.80 45464.10 283.34
594 6.6660 45627.50 45446.50 279.39
595 6.6697 45378.30 45437.80 278.57
596 6.6735 45632.50 45429.00 278.92
597 6.6773 44833.80 45420.30 277.57
598 6.6810 45812.10 45411.50 280.58
599 6.6848 45223.10 45402.70 278.54
600 6.6885 45501.60 45394.00 279.68
601 6.6923 44800.00 45385.30 275.90
602 6.6960 45698.00 45376.50 280.22
603 6.6998 44515.80 45367.80 274.69
604 6.7035 45921.10 45359.10 280.61
605 6.7073 45155.20 45350.30 277.97
606 6.7111 45280.50 45341.60 277.45
607 6.7148 44682.60 45332.90 276.55
608 6.7186 45796.20 45324.10 280.94
609 6.7223 45108.10 45315.40 277.97
610 6.7261 45693.70 45306.70 278.13
611 6.7298 45154.90 45298.00 278.83
612 6.7336 45746.90 45289.30 279.95
613 6.7373 44522.60 45280.60 275.56
614 6.7411 45927.00 45271.90 280.70
615 6.7449 44870.00 45263.20 277.66
616 6.7486 45539.90 45254.50 279.93
617 6.7524 44495.20 45245.80 273.94
618 6.7561 45052.80 45237.10 277.19
619 6.7599 44810.60 45228.40 276.19
620 6.7636 45384.50 45219.80 279.32
621 6.7674 44691.70 45211.10 277.12
622 6.7711 45311.60 45202.40 279.33
623 6.7749 44449.40 45193.80 275.80
624 6.7786 45571.60 45185.10 275.73
625 6.7824 44219.50 45176.50 275.29
626 6.7862 45348.70 45167.80 279.12
627 6.7899 44551.30 45159.20 273.17
628 6.7937 45411.20 45150.50 278.07
629 6.7974 44417.20 45141.90 273.44
630 6.8012 45132.00 45133.30 277.42
631 6.8049 44867.90 45124.60 278.57
632 6.8087 46211.60 45116.00 282.44
633 6.8124 44509.70 45107.40 276.09
634 6.8162 45506.40 45098.80 280.56
635 6.8200 44803.30 45090.20 278.44
636 6.8237 45509.10 45081.60 279.92
637 6.8275 44392.10 45073.00 274.66
638 6.8312 45284.30 45064.40 279.05
639 6.8350 44774.70 45055.80 273.90
640 6.8387 45807.70 45047.30 281.75
641 6.8425 44527.70 45038.70 276.78
642 6.8462 45348.00 45030.10 275.04
643 6.8500 44582.60 45021.60 275.84
644 6.8538 45571.60 45013.00 279.92
645 6.8575 44769.90 45004.40 277.17
646 6.8613 45492.10 44995.90 277.51
647 6.8650 44676.70 44987.40 278.14
648 6.8688 45515.10 44978.80 280.61
649 6.8725 44464.80 44970.30 276.93
650 6.8763 45285.40 44961.80 280.39
651 6.8800 45081.30 44953.20 277.79
652 6.8838 45715.40 44944.70 280.36
653 6.8875 44803.30 44936.20 277.74
654 6.8913 45453.20 44927.70 278.79
655 6.8951 44622.10 44919.20 275.18
656 6.8988 45287.80 44910.70 277.72
657 6.9026 44892.80 44902.20 278.39
658 6.9063 45798.20 44893.80 278.23
659 6.9101 44560.20 44885.30 276.79
660 6.9138 45297.70 44876.80 280.27
661 6.9176 44429.90 44868.40 277.46
662 6.9213 45436.90 44859.90 280.35
663 6.9251 44857.10 44851.50 277.17
664 6.9288 45458.00 44843.00 279.00
665 6.9326 44662.60 44834.60 278.76
666 6.9363 45540.90 44826.20 281.62
667 6.9439 45165.10 44809.30 279.86
668 6.9514 45516.30 44792.50 280.58
669 6.9551 44657.00 44784.10 277.70
670 6.9589 45156.00 44775.80 278.62
671 6.9626 44833.90 44767.40 277.27
672 6.9664 45345.20 44759.00 277.90
673 6.9701 43717.00 44750.60 272.97
674 6.9720 44772.90 44746.40 277.31
675 6.9758 44175.50 44738.00 275.38
676 6.9796 45258.80 44729.60 279.52
677 6.9833 44931.80 44721.30 278.28
678 6.9871 45314.30 44712.90 279.17
679 6.9908 44589.60 44704.60 278.20
680 6.9946 45258.00 44696.30 278.67
681 6.9983 44755.20 44688.00 278.65
682 7.0021 45280.90 44679.70 278.76
683 7.0058 44787.40 44671.30 278.42
684 7.0096 45349.10 44663.00 279.43
685 7.0134 44704.70 44654.70 277.67
686 7.0171 45689.90 44646.50 279.81
687 7.0209 44585.10 44638.20 276.74
688 7.0246 44977.20 44629.90 278.61
689 7.0284 44406.60 44621.60 276.46
690 7.0321 45472.50 44613.40 280.65
691 7.0359 44681.30 44605.10 276.43
692 7.0397 45300.80 44596.90 280.74
693 7.0434 44577.30 44588.70 276.09
694 7.0472 45677.50 44580.40 280.66
695 7.0509 44407.10 44572.20 275.97
696 7.0547 45703.90 44564.00 281.47
697 7.0584 44718.70 44555.80 277.49
698 7.0622 45202.10 44547.60 280.16
699 7.0659 44632.60 44539.40 277.11
700 7.0697 45393.40 44531.20 279.83
701 7.0735 44495.60 44523.00 276.39
702 7.0772 45876.80 44514.90 282.42
703 7.0810 44310.00 44506.70 276.11
704 7.0847 45564.70 44498.60 279.73
705 7.0885 44438.80 44490.40 276.29
706 7.0922 45319.20 44482.30 280.16
707 7.0960 44434.20 44474.10 276.88
708 7.0998 45507.30 44466.00 279.05
709 7.1035 44375.60 44457.90 276.90
710 7.1073 45623.80 44449.80 280.42
711 7.1110 44581.60 44441.70 275.98
712 7.1148 45083.00 44433.60 278.75
713 7.1185 44519.30 44425.60 276.75
714 7.1223 45315.30 44417.50 279.72
715 7.1260 44071.30 44409.40 274.49
716 7.1298 45258.00 44401.40 277.90
717 7.1336 44226.10 44393.30 276.17
718 7.1373 45178.50 44385.30 278.51
719 7.1411 44272.30 44377.20 274.68
720 7.1448 44897.30 44369.20 279.35
721 7.1523 45446.90 44353.20 279.18
722 7.1561 44201.60 44345.20 274.56
723 7.1598 44780.50 44337.20 276.17
724 7.1636 44128.00 44329.20 275.33
725 7.1674 44710.20 44321.20 276.86
726 7.1711 44196.30 44313.30 275.09
727 7.1749 45170.30 44305.30 278.90
728 7.1786 44214.00 44297.40 274.14
729 7.1824 44770.00 44289.40 277.17
730 7.1861 44075.10 44281.50 273.48
731 7.1899 44838.20 44273.60 276.98
732 7.1936 43703.90 44265.70 272.89
733 7.1974 44665.30 44257.80 275.59
734 7.2012 44087.80 44249.90 274.74
735 7.2049 44605.60 44242.00 276.88
736 7.2086 45134.80 44234.20 277.74
737 7.2124 44874.40 44226.30 278.42
738 7.2161 44242.80 44218.50 275.27
739 7.2199 44914.40 44210.60 279.29
740 7.2236 44188.00 44202.80 273.95
741 7.2274 45110.70 44195.00 279.66
742 7.2312 44513.00 44187.10 277.00
743 7.2349 45043.20 44179.30 278.79
744 7.2387 44434.40 44171.50 277.38
745 7.2424 44937.20 44163.70 277.32
746 7.2462 44266.20 44155.90 273.96
747 7.2499 44970.00 44148.20 278.34
748 7.2537 44032.00 44140.40 275.59
749 7.2574 45062.60 44132.60 278.31
750 7.2612 44135.90 44124.90 275.82
751 7.2649 45341.80 44117.10 280.90
752 7.2687 43921.30 44109.40 274.36
753 7.2724 44403.50 44101.70 276.40
754 7.2762 44033.30 44094.00 275.68
755 7.2800 44510.60 44086.30 275.06
756 7.2837 44042.40 44078.60 273.59
757 7.2875 45049.80 44070.90 279.29
758 7.2912 43692.20 44063.20 273.94
759 7.2950 45196.00 44055.50 277.02
760 7.2987 43968.10 44047.90 275.90
761 7.3025 44572.00 44040.20 277.06
762 7.3062 43982.40 44032.60 273.87
763 7.3100 44920.70 44024.90 277.57
764 7.3137 44004.40 44017.30 275.18
765 7.3175 44768.00 44009.70 276.52
766 7.3213 43982.80 44002.10 272.96
767 7.3250 44767.80 43994.50 278.08
768 7.3288 43846.60 43986.90 274.75
769 7.3325 45084.40 43979.30 278.95
770 7.3363 43959.30 43971.80 274.31
771 7.3400 45497.00 43964.20 280.52
772 7.3438 43670.40 43956.70 273.82
773 7.3475 44899.80 43949.10 279.12
774 7.3513 44657.30 43941.60 279.32
775 7.3551 44668.90 43934.10 277.70
776 7.3588 44126.10 43926.60 276.47
777 7.3626 44651.30 43919.10 277.95
778 7.3663 43752.40 43911.60 270.31
779 7.3701 45026.80 43904.10 278.55
780 7.3738 43646.70 43896.60 272.07
781 7.3776 44635.70 43889.10 278.12
782 7.3813 43707.40 43881.70 273.48
783 7.3851 44504.20 43874.20 277.00
784 7.3889 43900.60 43866.80 273.09
785 7.3926 44333.20 43859.40 275.24
786 7.3964 43683.20 43852.00 272.92
787 7.4001 44712.70 43844.60 277.61
788 7.4039 43181.00 43837.20 271.23
789 7.4076 44218.40 43829.80 275.81
790 7.4114 43513.50 43822.40 273.90
791 7.4151 44379.50 43815.00 276.01
792 7.4189 43827.80 43807.70 274.02
793 7.4226 44061.10 43800.30 272.53
794 7.4264 43401.40 43793.00 273.20
795 7.4302 44229.40 43785.70 273.43
796 7.4339 44126.50 43778.30 274.26
797 7.4377 44500.40 43771.00 276.71
798 7.4414 43922.10 43763.70 274.28
799 7.4452 44868.90 43756.40 278.20
800 7.4489 43398.80 43749.20 272.50
801 7.4527 44058.70 43741.90 274.23
802 7.4564 43518.50 43734.60 273.62
803 7.4602 44650.00 43727.40 272.44
804 7.4640 43274.90 43720.20 272.27
805 7.4677 44261.70 43712.90 274.08
806 7.4715 43574.00 43705.70 274.05
807 7.4752 44733.20 43698.50 276.47
808 7.4790 43851.70 43691.30 272.02
809 7.4827 44859.20 43684.10 278.85
810 7.4865 43961.20 43676.90 273.71
811 7.4902 44549.10 43669.80 278.24
812 7.4940 43774.60 43662.60 273.98
813 7.4977 44757.30 43655.40 278.49
814 7.5015 44343.40 43648.30 275.46
815 7.5053 44395.70 43641.20 277.16
816 7.5090 43461.30 43634.10 273.65
817 7.5128 44207.20 43626.90 274.90
818 7.5165 44127.50 43619.80 275.02
819 7.5203 45072.80 43612.70 279.76
820 7.5240 44097.50 43605.70 276.52
821 7.5278 44073.40 43598.60 275.85
822 7.5316 44460.00 43591.50 278.02
823 7.5353 44507.90 43584.50 276.82
824 7.5391 43593.40 43577.40 274.08
825 7.5428 44676.80 43570.40 277.94
826 7.5466 43915.20 43563.40 274.83
827 7.5503 44371.70 43556.40 277.01
828 7.5541 43740.50 43549.40 273.52
829 7.5578 44497.00 43542.40 277.18
830 7.5616 43225.00 43535.40 272.28
831 7.5654 44927.70 43528.50 279.28
832 7.5691 44254.60 43521.50 276.01
833 7.5729 44839.40 43514.60 279.32
834 7.5766 43804.00 43507.60 276.42
835 7.5804 44621.00 43500.70 278.83
836 7.5841 43676.00 43493.80 274.03
837 7.5879 44278.70 43486.90 277.76
838 7.5917 43398.60 43480.00 272.56
839 7.5954 44392.40 43473.10 276.40
840 7.5992 43535.80 43466.20 274.18
841 7.6029 44356.80 43459.30 276.99
842 7.6067 43521.00 43452.50 274.45
843 7.6104 44296.50 43445.60 276.71
844 7.6142 43215.90 43438.80 273.39
845 7.6179 44391.80 43432.00 275.98
846 7.6217 43427.00 43425.10 273.76
847 7.6255 44085.20 43418.30 276.31
848 7.6292 43173.70 43411.50 271.36
849 7.6330 44000.60 43404.80 275.33
850 7.6367 44048.50 43398.00 274.53
851 7.6405 44246.70 43391.20 277.06
852 7.6442 43566.40 43384.50 272.37
853 7.6480 44137.10 43377.70 276.07
854 7.6518 43287.00 43371.00 272.84
855 7.6555 44356.20 43364.20 278.19
856 7.6593 43322.00 43357.50 271.49
857 7.6630 44057.40 43350.80 273.74
858 7.6668 43030.00 43344.10 272.08
859 7.6705 43742.90 43337.50 274.56
860 7.6743 43653.00 43330.80 272.66
861 7.6780 43857.40 43324.10 274.47
862 7.6818 43261.50 43317.50 270.90
863 7.6856 43849.30 43310.80 272.43
864 7.6893 43430.90 43304.20 271.17
865 7.6931 44129.80 43297.60 274.63
866 7.6968 43435.10 43291.00 271.70
867 7.7006 43356.70 43284.40 270.47
868 7.7043 43140.00 43277.80 271.64
869 7.7081 43697.90 43271.20 271.37
870 7.7119 42946.80 43264.60 268.64
871 7.7156 43678.00 43258.10 272.90
872 7.7194 43355.00 43251.50 269.72
873 7.7231 44079.60 43245.00 273.15
874 7.7269 42735.60 43238.40 268.17
875 7.7306 43929.30 43231.90 272.35
876 7.7344 43129.90 43225.40 270.69
877 7.7382 43566.70 43218.90 271.18
878 7.7419 42820.10 43212.40 267.68
879 7.7457 44060.40 43206.00 274.37
880 7.7494 42946.10 43199.50 268.36
881 7.7532 43613.30 43193.00 272.40
882 7.7569 42547.10 43186.60 266.73
883 7.7607 43480.00 43180.10 271.13
884 7.7645 42989.20 43173.70 270.02
885 7.7682 43723.80 43167.30 271.72
886 7.7720 42700.50 43160.90 268.42
887 7.7757 43721.10 43154.50 272.78
888 7.7795 43256.40 43148.10 270.57
889 7.7832 43330.40 43141.70 271.31
890 7.7870 42885.20 43135.40 268.89
891 7.7908 43551.40 43129.00 271.63
892 7.7945 43116.20 43122.70 270.33
893 7.7983 43481.10 43116.30 271.29
894 7.8020 42847.30 43110.00 269.83
895 7.8058 43454.20 43103.70 271.40
896 7.8095 43013.30 43097.40 269.85
897 7.8133 43504.20 43091.10 270.48
898 7.8170 42762.20 43084.80 269.18
899 7.8208 43714.20 43078.60 270.57
900 7.8246 43013.00 43072.30 270.92
901 7.8283 43731.80 43066.00 274.23
902 7.8321 43196.50 43059.80 271.15
903 7.8358 43652.70 43053.60 272.38
904 7.8396 43121.40 43047.30 271.14
905 7.8433 44027.80 43041.10 274.75
906 7.8471 42826.70 43034.90 269.81
907 7.8509 43543.60 43028.70 272.62
908 7.8546 42929.90 43022.60 269.77
909 7.8584 43130.50 43016.40 269.81
910 7.8621 42617.40 43010.20 269.81
911 7.8659 43575.60 43004.10 272.98
912 7.8696 43200.50 42998.00 270.75
913 7.8734 43457.70 42991.80 273.24
914 7.8772 43061.90 42985.70 270.46
915 7.8809 43818.90 42979.60 273.48
916 7.8847 43061.40 42973.50 270.61
917 7.8884 43647.00 42967.40 272.85
918 7.8922 42567.50 42961.30 268.69
919 7.8959 43442.50 42955.20 272.17
920 7.8997 43107.70 42949.20 271.64
921 7.9035 43586.90 42943.10 273.15
922 7.9072 42737.00 42937.10 270.03
923 7.9110 43746.40 42931.10 274.09
924 7.9147 42992.30 42925.10 269.28
925 7.9185 44018.80 42919.10 276.40
926 7.9222 42964.00 42913.00 271.51
927 7.9260 43768.50 42907.10 272.02
928 7.9298 42847.90 42901.10 269.74
929 7.9335 43995.70 42895.10 273.99
930 7.9373 43119.60 42889.20 271.29
931 7.9410 43534.50 42883.20 272.56
932 7.9448 43173.50 42877.30 272.97
933 7.9486 43615.50 42871.30 274.61
934 7.9523 42976.30 42865.40 270.48
935 7.9561 43735.40 42859.50 274.95
936 7.9598 43254.00 42853.60 271.43
937 7.9636 42912.00 42847.70 268.67
938 7.9673 42851.80 42841.90 271.21
939 7.9711 43280.10 42836.00 271.91
940 7.9749 42950.50 42830.10 271.37
941 7.9786 43326.80 42824.30 270.70
942 7.9824 43233.50 42818.40 271.08
943 7.9861 43460.40 42812.60 272.29
944 7.9899 42711.30 42806.80 270.36
945 7.9936 43663.20 42801.00 273.52
946 7.9974 42656.80 42795.20 270.35
947 8.0012 43613.40 42789.40 273.23
948 8.0049 42880.90 42783.60 269.38
949 8.0087 43361.60 42777.90 273.16
950 8.0124 43052.70 42772.10 271.68
951 8.0162 43781.50 42766.40 274.08
952 8.0199 43134.00 42760.60 270.95
953 8.0237 43463.70 42754.90 272.50
954 8.0275 42773.40 42749.20 271.04
955 8.0312 43268.90 42743.50 269.91
956 8.0350 42653.70 42737.80 270.29
957 8.0387 43287.80 42732.10 272.17
958 8.0425 42827.40 42726.40 269.07
959 8.0463 43535.70 42720.70 271.86
960 8.0500 43019.40 42715.10 271.31
961 8.0538 43294.30 42709.40 272.73
962 8.0575 42672.30 42703.80 269.89
963 8.0613 43737.20 42698.10 274.22
964 8.0650 42803.80 42692.50 271.36
965 8.0688 43298.70 42686.90 268.67
966 8.0726 42788.70 42681.30 270.50
967 8.0763 43288.00 42675.70 273.09
968 8.0801 42440.20 42670.10 268.41
969 8.0838 43626.30 42664.60 274.38
970 8.0876 42536.50 42659.00 270.24
971 8.0913 43347.50 42653.40 271.70
972 8.0951 42496.60 42647.90 269.83
973 8.0989 43225.40 42642.40 272.25
974 8.1026 42850.80 42636.80 271.04
975 8.1064 43172.10 42631.30 272.64
976 8.1101 42838.00 42625.80 272.05
977 8.1139 42738.30 42620.30 270.48
978 8.1177 42641.90 42614.80 270.40
979 8.1214 42974.10 42609.40 269.01
980 8.1252 42430.20 42603.90 267.94
981 8.1289 43374.80 42598.40 273.38
982 8.1327 42421.70 42593.00 268.34
983 8.1364 43144.20 42587.50 274.00
984 8.1402 42342.30 42582.10 268.38
985 8.1440 43289.90 42576.70 273.42
986 8.1477 42761.00 42571.30 273.42
987 8.1515 43365.80 42565.90 269.21
988 8.1552 42965.50 42560.50 268.19
989 8.1590 43346.40 42555.10 270.02
990 8.1628 42178.80 42549.70 265.28
991 8.1665 43238.40 42544.40 269.18
992 8.1703 42963.50 42539.00 267.64
993 8.1740 43498.60 42533.70 267.92
994 8.1778 42500.10 42528.30 265.48
995 8.1816 43504.90 42523.00 270.84
996 8.1853 42881.30 42517.70 267.52
997 8.1891 43339.30 42512.40 267.68
998 8.1928 42497.70 42507.10 264.92
999 8.1966 43337.10 42501.80 269.91
1000 8.2003 42272.50 42496.50 262.93
1001 8.2041 43439.80 42491.20 267.44
1002 8.2079 42760.40 42486.00 267.61
1003 8.2116 43816.90 42480.70 270.85
1004 8.2154 42123.90 42475.50 264.44
1005 8.2191 43233.10 42470.30 268.65
1006 8.2229 42335.60 42465.00 264.17
1007 8.2267 43182.70 42459.80 267.30
1008 8.2304 42344.60 42454.60 264.50
1009 8.2342 42953.20 42449.40 268.22
1010 8.2379 42589.50 42444.20 266.81
1011 8.2417 43148.90 42439.00 268.86
1012 8.2454 42340.00 42433.90 264.93
1013 8.2492 43254.70 42428.70 268.90
1014 8.2530 42162.50 42423.60 262.57
1015 8.2567 43091.40 42418.40 266.91
1016 8.2605 42504.60 42413.30 265.69
1017 8.2642 42959.90 42408.20 268.59
1018 8.2680 42464.30 42403.00 265.92
1019 8.2718 43044.30 42397.90 268.30
1020 8.2755 42305.90 42392.80 264.62
1021 8.2793 42773.60 42387.70 266.82
1022 8.2830 42071.50 42382.60 264.42
1023 8.2868 43089.20 42377.60 268.32
1024 8.2905 42546.90 42372.50 266.03
1025 8.2943 42498.60 42367.50 266.86
1026 8.2981 42401.70 42362.40 265.84
1027 8.3018 43354.30 42357.40 267.78
1028 8.3056 42090.40 42352.40 262.40
1029 8.3093 43031.80 42347.30 269.26
1030 8.3131 42066.20 42342.30 264.33
1031 8.3169 43204.80 42337.30 268.64
1032 8.3206 42359.20 42332.30 266.22
1033 8.3244 42632.30 42327.30 266.59
1034 8.3281 41817.60 42322.40 263.52
1035 8.3319 42826.70 42317.40 267.02
1036 8.3357 42285.10 42312.40 264.46
1037 8.3394 42622.60 42307.50 267.08
1038 8.3432 42076.00 42302.50 263.20
1039 8.3469 42721.60 42297.60 267.01
1040 8.3507 42309.30 42292.70 263.58
1041 8.3544 42624.90 42287.80 265.27
1042 8.3582 42444.80 42282.90 263.50
1043 8.3620 42995.80 42278.00 266.29
1044 8.3657 41979.00 42273.10 262.93
1045 8.3695 42471.30 42268.20 265.67
1046 8.3732 41950.10 42263.30 264.18
1047 8.3770 42805.40 42258.40 268.88
1048 8.3808 41821.40 42253.60 263.84
1049 8.3845 42609.30 42248.70 266.41
1050 8.3883 42223.20 42243.90 265.59
1051 8.3920 42593.80 42239.10 265.95
1052 8.3958 41862.70 42234.20 264.01
1053 8.3996 42573.60 42229.40 265.60
1054 8.4033 42025.90 42224.60 264.16
1055 8.4071 42417.50 42219.80 264.31
1056 8.4108 41934.60 42215.00 263.75
1057 8.4146 42798.70 42210.20 267.46
1058 8.4184 42384.90 42205.50 265.85
1059 8.4221 42581.80 42200.70 266.38
1060 8.4259 42054.90 42195.90 265.22
1061 8.4296 42448.80 42191.20 265.85
1062 8.4334 41931.50 42186.50 263.56
1063 8.4371 42698.00 42181.70 267.43
1064 8.4409 41701.90 42177.00 263.22
1065 8.4447 42755.40 42172.30 268.33
1066 8.4484 42043.70 42167.60 263.31
1067 8.4522 42697.30 42162.90 265.34
1068 8.4559 42230.00 42158.20 264.72
1069 8.4597 42910.40 42153.50 267.63
1070 8.4635 42036.70 42148.80 264.02
1071 8.4672 42313.30 42144.10 266.16
1072 8.4710 42007.90 42139.50 262.38
1073 8.4747 42716.20 42134.80 268.40
1074 8.4785 42049.60 42130.20 264.32
1075 8.4823 42226.80 42125.50 265.19
1076 8.4860 42362.70 42120.90 266.69
1077 8.4898 42294.20 42116.30 267.09
1078 8.4935 41752.10 42111.70 263.69
1079 8.4973 43127.90 42107.00 270.21
1080 8.5010 42231.00 42102.40 265.61
1081 8.5048 42646.00 42097.80 267.56
1082 8.5086 42093.00 42093.30 263.01
1083 8.5123 42383.50 42088.70 265.04
1084 8.5161 41453.00 42084.10 262.20
1085 8.5198 42273.70 42079.50 263.80
1086 8.5236 41661.20 42075.00 262.66
1087 8.5274 42623.10 42070.40 265.89
1088 8.5311 41752.30 42065.90 262.44
1089 8.5349 42129.10 42061.40 265.24
1090 8.5386 41809.10 42056.90 264.63
1091 8.5424 42413.50 42052.30 264.80
1092 8.5462 41285.60 42047.80 261.87
1093 8.5499 42358.40 42043.30 266.18
1094 8.5537 41937.20 42038.80 264.21
1095 8.5574 42353.10 42034.30 266.08
1096 8.5612 41860.90 42029.90 263.84
1097 8.5650 42279.10 42025.40 264.85
1098 8.5687 42187.30 42020.90 265.38
1099 8.5725 42197.00 42016.50 264.73
1100 8.5762 41501.30 42012.00 262.50
1101 8.5800 42170.20 42007.60 266.02
1102 8.5838 41909.60 42003.10 264.32
1103 8.5875 42501.60 41998.70 266.30
1104 8.5913 41845.90 41994.30 264.12
1105 8.5950 41798.30 41989.80 263.34
1106 8.5988 41754.80 41985.40 262.90
1107 8.6025 42094.80 41981.10 264.83
1108 8.6063 41473.60 41976.70 262.50
1109 8.6101 42315.00 41972.30 267.56
1110 8.6138 41319.90 41967.90 261.81
1111 8.6176 42340.10 41963.50 265.27
1112 8.6214 41702.80 41959.10 263.63
1113 8.6251 42093.10 41954.80 265.48
1114 8.6289 41923.90 41950.40 266.68
1115 8.6326 41950.40 41946.10 265.44
1116 8.6364 41725.30 41941.70 263.15
1117 8.6402 42710.50 41937.40 266.86
1118 8.6439 41520.50 41933.10 263.17
1119 8.6477 42216.20 41928.80 265.55
1120 8.6514 40972.10 41924.40 259.77
1121 8.6552 41842.80 41920.10 264.73
1122 8.6589 41583.90 41915.80 264.10
1123 8.6627 42418.90 41911.60 266.78
1124 8.6665 41496.80 41907.30 263.40
1125 8.6702 42428.10 41903.00 266.18
1126 8.6740 41491.50 41898.70 263.27
1127 8.6777 41963.50 41894.40 263.64
1128 8.6815 41364.60 41890.20 264.15
1129 8.6853 42221.40 41885.90 266.05
1130 8.6890 41744.40 41881.70 263.69
1131 8.6928 42112.30 41877.40 264.05
1132 8.6966 41576.20 41873.20 261.90
1133 8.7003 41898.00 41869.00 264.89
1134 8.7041 41363.30 41864.80 259.67
1135 8.7078 42111.80 41860.60 264.79
1136 8.7116 41352.50 41856.40 262.29
1137 8.7153 42373.90 41852.20 265.72
1138 8.7191 41216.30 41848.00 262.83
1139 8.7229 42283.60 41843.80 264.35
1140 8.7266 41448.40 41839.60 262.75
1141 8.7304 41742.10 41835.40 262.79
1142 8.7341 41015.10 41831.20 262.02
1143 8.7379 41988.80 41827.10 265.42
1144 8.7417 41460.90 41822.90 259.67
1145 8.7454 41797.80 41818.80 264.09
1146 8.7492 41374.60 41814.60 260.79
1147 8.7529 41701.20 41810.50 262.61
1148 8.7567 41373.80 41806.40 263.20
1149 8.7605 41700.40 41802.20 263.61
1150 8.7642 41382.00 41798.10 263.13
1151 8.7680 42177.80 41794.00 265.75
1152 8.7717 41190.40 41789.90 261.28
1153 8.7755 41955.30 41785.80 264.09
1154 8.7793 41663.70 41781.70 264.45
1155 8.7830 41734.50 41777.60 262.52
1156 8.7868 41176.20 41773.50 262.34
1157 8.7905 42047.90 41769.40 264.61
1158 8.7943 41154.90 41765.30 261.97
1159 8.7981 41646.90 41761.30 264.14
1160 8.8018 41131.30 41757.20 259.26
1161 8.8056 42394.50 41753.20 267.57
1162 8.8093 41253.40 41749.10 262.84
1163 8.8131 41808.50 41745.10 264.53
1164 8.8169 41383.70 41741.00 261.85
1165 8.8206 41811.70 41737.00 264.50
1166 8.8244 40661.70 41732.90 259.15
1167 8.8281 42011.50 41728.90 264.61
1168 8.8319 41388.50 41724.90 262.52
1169 8.8357 42006.50 41720.90 265.33
1170 8.8394 41260.60 41716.90 261.47
1171 8.8432 41882.90 41712.90 264.15
1172 8.8469 41167.40 41708.90 261.63
1173 8.8507 41439.10 41704.90 262.39
1174 8.8545 41306.90 41700.90 261.98
1175 8.8582 41682.40 41696.90 262.94
1176 8.8620 40974.90 41693.00 260.68
1177 8.8657 41650.80 41689.00 264.41
1178 8.8695 41337.50 41685.00 261.85
1179 8.8733 42116.70 41681.10 264.23
1180 8.8770 41873.70 41677.10 265.15
1181 8.8808 41840.00 41673.20 264.76
1182 8.8845 41359.00 41669.20 262.58
1183 8.8883 41536.80 41665.30 263.18
1184 8.8921 41130.10 41661.30 260.75
1185 8.8958 41866.70 41657.40 264.03
1186 8.8996 41642.30 41653.50 263.20
1187 8.9033 41678.60 41649.60 262.65
1188 8.9071 40900.70 41645.70 261.32
1189 8.9109 42051.70 41641.80 264.68
1190 8.9146 41387.50 41637.80 261.87
1191 8.9184 41864.20 41633.90 265.11
1192 8.9221 41077.90 41630.10 261.54
1193 8.9259 41733.10 41626.20 263.60
1194 8.9297 40913.80 41622.30 259.54
1195 8.9334 41531.30 41618.40 262.21
1196 8.9372 41053.90 41614.50 260.38
1197 8.9409 41597.30 41610.70 261.79
1198 8.9447 40986.70 41606.80 259.35
1199 8.9485 41720.10 41602.90 263.42
1200 8.9522 40777.70 41599.10 259.04
1201 8.9560 41890.30 41595.20 264.18
1202 8.9597 41353.70 41591.40 262.05
1203 8.9635 41783.50 41587.50 264.01
1204 8.9673 41117.90 41583.70 260.65
1205 8.9710 41953.70 41579.90 265.84
1206 8.9748 41435.10 41576.00 263.75
1207 8.9785 41998.00 41572.20 267.98
1208 8.9823 41140.10 41568.40 263.64
1209 8.9861 42053.30 41564.60 269.54
1210 8.9898 41402.10 41560.70 266.56
1211 8.9936 41351.00 41556.90 260.78
1212 8.9973 41348.50 41553.10 261.36
1213 9.0011 41546.40 41549.30 262.14
1214 9.0049 41010.80 41545.50 260.72
1215 9.0086 41681.70 41541.80 262.29
1216 9.0124 41188.70 41538.00 260.75
1217 9.0162 41450.70 41534.20 261.51
1218 9.0199 41027.10 41530.40 260.26
1219 9.0237 41401.60 41526.60 262.14
1220 9.0274 41035.40 41522.90 262.17
1221 9.0312 41527.90 41519.10 263.27
1222 9.0350 41246.40 41515.30 262.03
1223 9.0387 41415.60 41511.60 263.65
1224 9.0425 41302.90 41507.80 262.51
1225 9.0462 41662.50 41504.10 263.45
1226 9.0500 41083.90 41500.30 262.18
1227 9.0538 41779.40 41496.60 263.86
1228 9.0575 40910.80 41492.90 259.65
1229 9.0613 41488.30 41489.10 264.05
1230 9.0650 41185.10 41485.40 262.37
1231 9.0688 41739.80 41481.70 265.56
1232 9.0725 41085.10 41477.90 262.53
1233 9.0763 41932.90 41474.20 265.80
1234 9.0801 41124.20 41470.50 261.80
1235 9.0838 41825.00 41466.80 264.61
1236 9.0876 41260.00 41463.10 262.16
1237 9.0914 41876.00 41459.40 265.38
1238 9.0951 40979.40 41455.70 260.66
1239 9.0989 41315.60 41452.00 261.76
1240 9.1026 40995.70 41448.30 261.15
1241 9.1064 41756.80 41444.60 265.22
1242 9.1102 41556.20 41440.90 265.00
1243 9.1139 41523.50 41437.20 266.05
1244 9.1177 41147.50 41433.50 261.31
1245 9.1214 41738.30 41429.90 263.75
1246 9.1252 41018.00 41426.20 261.83
1247 9.1290 41733.60 41422.50 262.67
1248 9.1327 41023.30 41418.90 260.69
1249 9.1365 41874.50 41415.20 264.21
1250 9.1402 40777.90 41411.50 259.05
1251 9.1440 41655.10 41407.90 264.30
1252 9.1478 41143.60 41404.20 261.54
1253 9.1515 41542.00 41400.60 263.62
1254 9.1553 41151.70 41396.90 261.11
1255 9.1590 41741.30 41393.30 264.35
1256 9.1628 41265.00 41389.60 262.01
1257 9.1666 41514.50 41386.00 263.65
1258 9.1703 41192.40 41382.40 260.93
1259 9.1741 41682.20 41378.70 263.71
1260 9.1778 41002.30 41375.10 260.51
1261 9.1816 41815.30 41371.50 263.94
1262 9.1854 40883.10 41367.80 261.36
1263 9.1891 41150.30 41364.20 261.71
1264 9.1929 40788.80 41360.60 260.31
1265 9.1966 41580.40 41357.00 264.12
1266 9.2004 40967.40 41353.40 259.70
1267 9.2042 41361.30 41349.80 261.30
1268 9.2079 40578.00 41346.20 259.23
1269 9.2117 41131.10 41342.60 262.24
1270 9.2155 40874.80 41338.90 258.93
1271 9.2192 41253.70 41335.30 261.04
1272 9.2230 40416.10 41331.80 259.10
1273 9.2267 41632.20 41328.20 262.99
1274 9.2305 40867.90 41324.60 260.45
1275 9.2343 41123.00 41321.00 260.41
1276 9.2380 41059.70 41317.40 260.47
1277 9.2418 41368.20 41313.80 263.15
1278 9.2455 40427.30 41310.20 258.05
1279 9.2493 41451.70 41306.60 261.35
1280 9.2530 40547.10 41303.10 258.14
1281 9.2568 40973.70 41299.50 259.86
1282 9.2606 41124.60 41295.90 261.07
1283 9.2643 41136.70 41292.30 262.90
1284 9.2681 40843.00 41288.80 261.59
1285 9.2719 41471.20 41285.20 262.73
1286 9.2756 40605.70 41281.60 258.82
1287 9.2794 41411.30 41278.10 262.83
1288 9.2831 40604.40 41274.50 259.91
1289 9.2869 40904.50 41271.00 261.18
1290 9.2907 40715.10 41267.40 259.83
1291 9.2944 41046.50 41263.90 260.95
1292 9.2982 40594.60 41260.30 259.14
1293 9.3019 41387.20 41256.80 261.91
1294 9.3057 40459.50 41253.20 258.74
1295 9.3095 41424.30 41249.70 261.57
1296 9.3132 40650.80 41246.10 260.11
1297 9.3170 41430.60 41242.60 263.27
1298 9.3208 40946.80 41239.00 260.01
1299 9.3245 40881.50 41235.50 258.95
1300 9.3283 40399.80 41231.90 259.20
1301 9.3320 41171.50 41228.40 261.19
1302 9.3358 40265.30 41224.90 258.13
1303 9.3396 41345.60 41221.30 261.79
1304 9.3433 41190.90 41217.80 260.94
1305 9.3471 41434.90 41214.30 262.93
1306 9.3508 40795.70 41210.80 260.31
1307 9.3546 41064.20 41207.20 259.20
1308 9.3583 40833.90 41203.70 260.62
1309 9.3621 41104.30 41200.20 260.72
1310 9.3659 40529.60 41196.70 258.87
1311 9.3696 41372.90 41193.20 261.60
1312 9.3734 40144.30 41189.60 257.89
1313 9.3771 41273.40 41186.10 261.67
1314 9.3809 40523.60 41182.60 259.35
1315 9.3847 40945.70 41179.10 262.13
1316 9.3884 40792.70 41175.60 260.21
1317 9.3922 40778.90 41172.10 260.47
1318 9.3960 40297.30 41168.60 259.11
1319 9.3997 41365.70 41165.00 263.03
1320 9.4035 40348.00 41161.50 255.98
1321 9.4072 41479.20 41158.00 263.17
1322 9.4110 40529.30 41154.50 260.05
1323 9.4148 41177.50 41151.00 262.21
1324 9.4185 40351.50 41147.50 258.79
1325 9.4223 41616.40 41144.00 264.35
1326 9.4260 41081.80 41140.50 260.81
1327 9.4298 41221.60 41137.00 261.76
1328 9.4336 40639.50 41133.50 258.24
1329 9.4373 41078.20 41130.00 262.36
1330 9.4411 40078.60 41126.50 257.82
1331 9.4448 41042.20 41123.00 261.28
1332 9.4486 40148.20 41119.50 257.91
1333 9.4524 40843.60 41116.00 260.79
1334 9.4561 40905.30 41112.50 261.13
1335 9.4599 40628.50 41109.00 259.98
1336 9.4636 40526.20 41105.50 259.52
1337 9.4674 41030.60 41102.10 259.38
1338 9.4712 40571.80 41098.60 259.61
1339 9.4749 40698.70 41095.10 261.60
1340 9.4787 40536.10 41091.60 259.65
1341 9.4824 41118.50 41088.10 262.09
1342 9.4862 40513.40 41084.60 260.19
1343 9.4900 41295.60 41081.10 263.34
1344 9.4937 40601.90 41077.60 260.47
1345 9.4975 41185.50 41074.10 262.55
1346 9.5013 40322.30 41070.60 258.43
1347 9.5050 40911.60 41067.20 262.30
1348 9.5088 40442.90 41063.70 259.23
1349 9.5125 40881.30 41060.20 260.59
1350 9.5163 40374.80 41056.70 260.26
1351 9.5201 41125.40 41053.20 262.56
1352 9.5238 40436.60 41049.70 259.02
1353 9.5276 41162.80 41046.20 262.86
1354 9.5313 40478.60 41042.80 260.05
1355 9.5351 41279.70 41039.30 262.40
1356 9.5389 40524.80 41035.80 259.47
1357 9.5426 40768.00 41032.30 260.10
1358 9.5464 40562.40 41028.80 259.86
1359 9.5501 40865.10 41025.30 260.93
1360 9.5539 40232.90 41021.90 258.75
1361 9.5577 41156.70 41018.40 262.70
1362 9.5614 40537.90 41014.90 259.65
1363 9.5652 41152.70 41011.40 261.94
1364 9.5689 40542.90 41007.90 259.77
1365 9.5727 41081.30 41004.40 261.54
1366 9.5765 40325.80 41000.90 259.28
1367 9.5802 41196.90 40997.50 262.85
1368 9.5840 40555.00 40994.00 260.49
1369 9.5878 40886.40 40990.50 260.72
1370 9.5915 40451.70 40987.00 259.61
1371 9.5953 41066.90 40983.50 266.05
1372 9.5990 40447.70 40980.00 260.01
1373 9.6028 40622.90 40976.60 259.94
1374 9.6066 40358.50 40973.10 262.81
1375 9.6103 41041.00 40969.60 263.75
1376 9.6141 40100.30 40966.10 258.93
1377 9.6178 40560.90 40962.60 260.72
1378 9.6216 40000.30 40959.10 259.57
1379 9.6254 40529.00 40955.60 262.74
1380 9.6291 40226.20 40952.10 259.74
1381 9.6329 40643.40 40948.60 260.53
1382 9.6366 40168.50 40945.10 259.63
1383 9.6404 41006.00 40941.70 261.77
1384 9.6442 39946.70 40938.20 259.00
1385 9.6479 40801.10 40934.70 261.20
1386 9.6517 40279.80 40931.20 260.10
1387 9.6554 40670.60 40927.70 260.85
1388 9.6592 40154.20 40924.20 258.24
1389 9.6630 40812.90 40920.70 258.60
1390 9.6667 39677.00 40917.20 256.50
1391 9.6705 40556.80 40913.70 260.39
1392 9.6742 40366.50 40910.20 261.10
1393 9.6780 40648.40 40906.70 258.00
1394 9.6818 39912.80 40903.20 257.33
1395 9.6855 40485.90 40899.70 258.10
1396 9.6893 40163.90 40896.20 259.52
1397 9.6931 40385.40 40892.70 258.96
1398 9.6968 40067.80 40889.20 259.26
1399 9.7006 40879.20 40885.70 261.87
1400 9.7043 39993.50 40882.20 257.65
1401 9.7081 40261.40 40878.70 258.94
1402 9.7119 40208.30 40875.20 258.81
1403 9.7156 40465.50 40871.70 260.98
1404 9.7194 40061.90 40868.10 259.54
1405 9.7231 40455.50 40864.60 258.74
1406 9.7269 39758.40 40861.10 256.48
1407 9.7307 40466.00 40857.60 260.42
1408 9.7344 39878.80 40854.10 258.10
1409 9.7382 40685.90 40850.60 260.48
1410 9.7419 40083.90 40847.10 257.93
1411 9.7457 40396.20 40843.50 259.72
1412 9.7495 40037.60 40840.00 257.94
1413 9.7532 40721.10 40836.50 258.84
1414 9.7570 40103.80 40833.00 259.13
1415 9.7607 40748.20 40829.40 260.69
1416 9.7645 39886.80 40825.90 258.44
1417 9.7683 40542.80 40822.40 260.50
1418 9.7720 40296.80 40818.90 259.31
1419 9.7758 40316.40 40815.30 257.75
1420 9.7795 39803.00 40811.80 258.49
1421 9.7833 40459.20 40808.20 258.29
1422 9.7871 39826.50 40804.70 257.55
1423 9.7908 40420.00 40801.20 260.95
1424 9.7946 40082.20 40797.60 258.46
1425 9.7984 40616.70 40794.10 261.63
1426 9.8021 39830.30 40790.50 258.50
1427 9.8059 40735.00 40787.00 260.82
1428 9.8096 39723.30 40783.40 257.04
1429 9.8134 40358.60 40779.90 258.69
1430 9.8172 40065.00 40776.30 256.99
1431 9.8209 40329.70 40772.80 258.24
1432 9.8247 40058.10 40769.20 259.48
1433 9.8284 40223.30 40765.70 260.12
1434 9.8322 39886.60 40762.10 255.81
1435 9.8359 40642.40 40758.60 261.62
1436 9.8397 39836.40 40755.00 258.23
1437 9.8435 40283.40 40751.40 259.88
1438 9.8472 39710.70 40747.80 255.17
1439 9.8510 40405.30 40744.30 260.47
1440 9.8548 40114.40 40740.70 258.94
1441 9.8585 40240.40 40737.10 259.40
1442 9.8623 39547.40 40733.60 257.59
1443 9.8660 40629.30 40730.00 261.48
1444 9.8698 39571.70 40726.40 257.06
1445 9.8736 40663.90 40722.80 259.27
1446 9.8773 39848.20 40719.20 257.52
1447 9.8811 40447.70 40715.60 259.62
1448 9.8848 39784.30 40712.00 258.57
1449 9.8886 40342.50 40708.50 259.26
1450 9.8924 40128.30 40704.90 259.14
1451 9.8961 40104.80 40701.30 259.68
1452 9.8999 39699.70 40697.70 256.92
1453 9.9036 40361.20 40694.10 257.64
1454 9.9074 40003.20 40690.40 259.93
1455 9.9112 40507.30 40686.80 258.81
1456 9.9149 39896.70 40683.20 258.39
1457 9.9187 40775.70 40679.60 262.84
1458 9.9225 39766.10 40676.00 258.24
1459 9.9262 40847.20 40672.40 263.32
1460 9.9300 40043.40 40668.80 260.66
1461 9.9337 40351.30 40665.10 260.63
1462 9.9375 40261.50 40661.50 259.48
1463 9.9412 40508.50 40657.90 261.20
1464 9.9450 39960.70 40654.20 258.19
1465 9.9488 40851.40 40650.60 261.94
1466 9.9525 40072.90 40647.00 259.13
1467 9.9563 40480.50 40643.30 261.31
1468 9.9600 39950.60 40639.70 259.96
1469 9.9638 40236.40 40636.00 260.03
1470 9.9676 40009.90 40632.40 258.04
1471 9.9713 40716.60 40628.70 262.11
1472 9.9751 39833.40 40625.10 258.19
1473 9.9789 40606.50 40621.40 260.91
1474 9.9826 40142.80 40617.70 260.16
1475 9.9864 40510.10 40614.10 262.88
1476 9.9901 40164.90 40610.40 258.84
1477 9.9939 40821.50 40606.70 262.96
1478 9.9977 39851.80 40603.10 257.77
1479 10.0015 40682.00 40599.30 261.15
1480 10.0052 40285.30 40595.70 260.82
1481 10.0090 40470.00 40592.00 261.89
1482 10.0127 39770.10 40588.40 257.68
1483 10.0165 40570.30 40584.60 259.57
1484 10.0203 39818.50 40580.90 258.37
1485 10.0240 40287.80 40577.30 258.90
1486 10.0278 39883.30 40573.50 259.77
1487 10.0315 40587.70 40569.90 261.58
1488 10.0353 40039.40 40566.10 261.33
1489 10.0391 40405.40 40562.40 260.90
1490 10.0428 39827.30 40558.70 258.40
1491 10.0466 40225.60 40555.00 257.70
1492 10.0503 39827.60 40551.30 258.32
1493 10.0541 40097.80 40547.50 260.14
1494 10.0579 39906.20 40543.80 257.59
1495 10.0616 40584.90 40540.10 262.06
1496 10.0654 39865.60 40536.30 258.49
1497 10.0691 40217.10 40532.60 261.78
1498 10.0729 39871.50 40528.80 261.05
1499 10.0767 40405.80 40525.10 260.90
1500 10.0804 40035.00 40521.40 259.82
1501 10.0842 40704.70 40517.60 262.88
1502 10.0879 40005.80 40513.90 258.80
1503 10.0917 40730.80 40510.10 262.71
1504 10.0955 39826.10 40506.30 259.02
1505 10.0992 40797.00 40502.50 263.73
1506 10.1030 39540.50 40498.70 257.78
1507 10.1067 40829.40 40495.00 262.74
1508 10.1105 39718.50 40491.20 257.18
1509 10.1143 40342.30 40487.40 261.06
1510 10.1180 39919.50 40483.60 260.14
1511 10.1218 40589.60 40479.80 262.84
1512 10.1256 40022.00 40476.00 258.61
1513 10.1293 40235.80 40472.20 259.92
1514 10.1331 40242.30 40468.40 259.09
1515 10.1368 40528.20 40464.60 261.93
1516 10.1406 40238.00 40460.80 261.00
1517 10.1444 40691.40 40456.90 262.42
1518 10.1481 39822.70 40453.10 258.48
1519 10.1519 40243.80 40449.30 262.11
1520 10.1556 39695.10 40445.50 258.97
1521 10.1594 40660.40 40441.60 260.67
1522 10.1632 39526.60 40437.80 258.04
1523 10.1669 40118.20 40434.00 260.37
1524 10.1707 39449.80 40430.10 258.88
1525 10.1744 40296.70 40426.30 261.70
1526 10.1782 39438.90 40422.40 256.99
1527 10.1820 40256.40 40418.50 259.90
1528 10.1857 39684.00 40414.70 258.03
1529 10.1895 40327.50 40410.80 260.50
1530 10.1932 39421.60 40407.00 256.66
1531 10.1970 40295.90 40403.00 260.53
1532 10.2008 39794.60 40399.10 258.95
1533 10.2045 40202.40 40395.30 259.54
1534 10.2083 40068.60 40391.30 260.44
1535 10.2120 40529.50 40387.50 261.58
1536 10.2158 40229.90 40383.60 261.20
1537 10.2196 40584.60 40379.60 260.78
1538 10.2233 39850.10 40375.80 256.74
1539 10.2271 40493.80 40371.80 261.86
1540 10.2308 39593.70 40368.00 256.44
1541 10.2346 40275.50 40364.00 261.10
1542 10.2384 39748.70 40360.00 257.85
1543 10.2421 40425.80 40356.10 259.66
1544 10.2459 39772.60 40352.20 259.34
1545 10.2496 40145.50 40348.30 258.96
1546 10.2534 39696.50 40344.30 255.83
1547 10.2572 40034.50 40340.30 259.89
1548 10.2609 39687.90 40336.40 256.45
1549 10.2647 40146.40 40332.40 259.15
1550 10.2684 39513.30 40328.50 257.23
1551 10.2722 39976.00 40324.50 255.40
1552 10.2760 39230.20 40320.40 254.91
1553 10.2797 40145.60 40316.50 260.18
1554 10.2835 39443.90 40312.50 258.05
1555 10.2872 40071.60 40308.60 258.00
1556 10.2910 39438.30 40304.50 256.76
1557 10.2948 39901.90 40300.50 258.34
1558 10.2985 39489.90 40296.50 254.30
1559 10.3023 39723.50 40292.50 257.36
1560 10.3060 39469.20 40288.50 256.87
1561 10.3098 39735.00 40284.40 258.18
1562 10.3136 39279.40 40280.40 255.34
1563 10.3173 39963.30 40276.40 259.37
1564 10.3211 39444.70 40272.30 256.53
1565 10.3248 39746.50 40268.30 258.29
1566 10.3286 39211.50 40264.20 255.47
1567 10.3324 40153.40 40260.10 260.60
1568 10.3361 39447.00 40256.10 257.13
1569 10.3399 40111.30 40252.00 260.75
1570 10.3436 39306.10 40248.00 255.53
1571 10.3474 40323.30 40243.90 259.33
1572 10.3512 39402.90 40239.80 256.36
1573 10.3549 40164.50 40235.80 261.03
1574 10.3587 39233.80 40231.60 255.30
1575 10.3624 39939.40 40227.60 258.21
1576 10.3662 39358.50 40223.40 254.22
1577 10.3700 40040.10 40219.30 259.28
1578 10.3737 39261.70 40215.20 256.55
1579 10.3775 39880.20 40211.10 259.51
1580 10.3812 39491.70 40207.00 257.67
1581 10.3850 40127.90 40202.80 259.29
1582 10.3888 39102.70 40198.60 257.39
1583 10.3925 40194.40 40194.60 260.29
1584 10.3963 39264.90 40190.40 257.58
1585 10.4000 39927.90 40186.30 258.51
1586 10.4038 39054.70 40182.10 255.07
1587 10.4076 39352.90 40177.90 256.17
1588 10.4113 39006.10 40173.80 255.86
1589 10.4151 39532.70 40169.50 256.65
1590 10.4188 39488.30 40165.40 257.96
1591 10.4226 39811.80 40161.20 259.12
1592 10.4264 39512.00 40156.90 258.80
1593 10.4301 39658.70 40152.80 255.12
1594 10.4339 38988.30 40148.60 255.71
1595 10.4376 39306.50 40144.40 257.99
1596 10.4414 39236.40 40140.10 254.80
1597 10.4452 39792.80 40135.90 257.14
1598 10.4489 39717.40 40131.70 258.71
1599 10.4527 40022.30 40127.40 260.42
1600 10.4564 39483.80 40123.20 257.03
1601 10.4602 39941.70 40119.00 258.95
1602 10.4640 39420.20 40114.70 257.57
1603 10.4677 40082.90 40110.50 260.43
1604 10.4715 39395.50 40106.10 256.34
1605 10.4752 39973.30 40101.90 259.05
1606 10.4790 39345.30 40097.60 257.66
1607 10.4828 39702.10 40093.30 258.23
1608 10.4865 39394.50 40089.10 257.99
1609 10.4903 39998.60 40084.70 261.61
1610 10.4940 39010.80 40080.50 256.85
1611 10.4978 39902.50 40076.10 258.74
1612 10.5016 39624.30 40071.80 260.09
1613 10.5053 39865.30 40067.50 258.73
1614 10.5091 39601.00 40063.10 256.53
1615 10.5128 40204.40 40058.90 261.85
1616 10.5166 39372.40 40054.50 256.53
1617 10.5204 39901.90 40050.10 257.98
1618 10.5241 39502.00 40045.80 259.08
1619 10.5279 39587.80 40041.40 259.38
1620 10.5316 38930.60 40037.10 255.60
1621 10.5354 39432.80 40032.70 258.49
1622 10.5392 39303.80 40028.30 258.93
1623 10.5429 39470.90 40023.90 257.99
1624 10.5467 39486.80 40019.50 256.36
1625 10.5504 39849.60 40015.20 259.93
1626 10.5542 38830.40 40010.70 255.96
1627 10.5580 39858.10 40006.20 257.53
1628 10.5617 39378.60 40001.90 255.01
1629 10.5655 39561.20 39997.40 256.14
1630 10.5692 39374.30 39993.10 256.41
1631 10.5730 39811.50 39988.60 257.17
1632 10.5767 39580.60 39984.20 256.24
1633 10.5805 39699.00 39979.70 256.96
1634 10.5843 39582.40 39975.20 256.62
1635 10.5880 39990.90 39970.80 256.83
1636 10.5918 39400.00 39966.30 255.82
1637 10.5955 40013.50 39961.90 257.71
1638 10.5993 39550.20 39957.30 253.78
1639 10.6031 39676.20 39952.80 257.55
1640 10.6068 39206.50 39948.40 252.09
1641 10.6106 39768.80 39943.80 256.98
1642 10.6143 39716.70 39939.40 256.56
1643 10.6181 40073.70 39934.80 259.32
1644 10.6219 39085.60 39930.20 253.61
1645 10.6256 39582.70 39925.80 256.51
1646 10.6294 39502.70 39921.20 257.29
1647 10.6331 39916.30 39916.70 257.39
1648 10.6369 39057.50 39912.10 254.27
1649 10.6407 39799.40 39907.50 258.05
1650 10.6444 39154.00 39903.00 254.58
1651 10.6482 39896.10 39898.40 257.11
1652 10.6519 39071.40 39893.90 253.60
1653 10.6557 39437.20 39889.20 255.33
1654 10.6595 39474.80 39884.60 254.95
1655 10.6632 39303.40 39880.10 255.69
1656 10.6670 38985.20 39875.40 253.77
1657 10.6707 39799.50 39870.90 255.04
1658 10.6745 39275.50 39866.20 251.89
1659 10.6783 39434.40 39861.50 253.73
1660 10.6820 38883.80 39856.90 253.97
1661 10.6858 39753.70 39852.20 255.90
1662 10.6895 38989.30 39847.70 253.86
1663 10.6933 39181.20 39843.00 252.99
1664 10.6971 39385.20 39838.20 255.80
1665 10.7008 39621.70 39833.60 254.97
1666 10.7046 38884.10 39828.90 253.29
1667 10.7083 39853.80 39824.30 257.04
1668 10.7121 39278.90 39819.50 255.05
1669 10.7158 39574.50 39814.90 255.72
1670 10.7196 39270.80 39810.20 254.57
1671 10.7234 39458.40 39805.40 255.86
1672 10.7271 39056.20 39800.70 252.55
1673 10.7309 39444.40 39796.00 255.43
1674 10.7346 39168.10 39791.30 255.15
1675 10.7384 39404.10 39786.50 254.51
1676 10.7422 39161.90 39781.70 254.61
1677 10.7459 39537.90 39777.00 255.26
1678 10.7497 39053.30 39772.20 253.90
1679 10.7534 39612.10 39767.50 254.04
1680 10.7572 39250.90 39762.60 255.51
1681 10.7610 39572.90 39757.80 255.62
1682 10.7647 38731.60 39753.10 254.30
1683 10.7685 39419.70 39748.20 253.93
1684 10.7722 39070.70 39743.50 254.24
1685 10.7760 39515.30 39738.60 254.24
1686 10.7798 39241.80 39733.70 254.08
1687 10.7835 39389.00 39729.00 254.76
1688 10.7873 38892.70 39724.10 249.67
1689 10.7910 39326.10 39719.30 254.78
1690 10.7948 39009.90 39714.40 253.33
1691 10.7985 39613.90 39709.60 254.94
1692 10.8023 39047.80 39704.70 254.38
1693 10.8061 39340.00 39699.70 256.13
1694 10.8098 39170.40 39694.90 252.39
1695 10.8136 39795.70 39690.00 257.60
1696 10.8173 39253.40 39685.10 254.61
1697 10.8211 39613.40 39680.20 256.27
1698 10.8249 39113.90 39675.20 254.37
1699 10.8286 39316.50 39670.40 255.19
1700 10.8324 38917.90 39665.40 253.04
1701 10.8361 39304.80 39660.50 253.05
1702 10.8399 38696.20 39655.50 251.45
1703 10.8437 39346.30 39650.50 253.06
1704 10.8474 38568.30 39645.60 252.04
1705 10.8512 39819.10 39640.60 256.87
1706 10.8549 38700.50 39635.70 251.51
1707 10.8587 39770.50 39630.60 255.23
1708 10.8624 38902.30 39625.70 253.27
1709 10.8662 39425.80 39620.60 255.42
1710 10.8700 38735.50 39615.60 253.50
1711 10.8737 39826.40 39610.60 256.48
1712 10.8775 38920.20 39605.50 251.15
1713 10.8812 39369.90 39600.60 255.49
1714 10.8850 39103.60 39595.50 255.10
1715 10.8888 39476.70 39590.40 255.84
1716 10.8925 38517.20 39585.40 251.19
1717 10.8963 39724.70 39580.30 257.77
1718 10.9000 38995.30 39575.30 254.01
1719 10.9038 39284.00 39570.10 255.79
1720 10.9076 38902.00 39565.00 252.49
1721 10.9113 39832.20 39560.00 257.85
1722 10.9151 39125.00 39554.80 254.32
1723 10.9188 39414.70 39549.80 256.48
1724 10.9226 38915.40 39544.60 253.12
1725 10.9263 39431.90 39539.50 256.13
1726 10.9301 39383.60 39534.30 254.94
1727 10.9339 39687.20 39529.10 257.55
1728 10.9376 38557.40 39524.00 251.64
1729 10.9414 39267.80 39518.80 254.51
1730 10.9451 38868.40 39513.70 254.83
1731 10.9489 39206.90 39508.50 255.04
1732 10.9527 39034.30 39503.20 255.19
1733 10.9564 39246.20 39498.10 255.95
1734 10.9602 38618.70 39492.80 252.46
1735 10.9639 39457.10 39487.70 255.87
1736 10.9677 38936.90 39482.40 254.10
1737 10.9714 39666.70 39477.30 257.99
1738 10.9752 38816.90 39472.00 254.81
1739 10.9790 39341.60 39466.70 253.32
1740 10.9827 38394.10 39461.50 252.83
1741 10.9865 39359.50 39456.20 255.97
1742 10.9902 39000.10 39451.00 255.06
1743 10.9940 39644.10 39445.60 256.20
1744 10.9978 39014.80 39440.30 256.06
1745 11.0015 39695.90 39435.10 258.97
1746 11.0053 38904.40 39429.70 255.40
1747 11.0090 39457.00 39424.50 257.63
1748 11.0128 38966.80 39419.10 255.49
1749 11.0165 39148.90 39413.80 254.27
1750 11.0203 38962.80 39408.40 255.44
1751 11.0241 39846.10 39403.00 258.59
1752 11.0278 38633.90 39397.80 252.82
1753 11.0316 39450.70 39392.30 257.90
1754 11.0353 38993.90 39387.00 257.49
1755 11.0391 39400.10 39381.60 255.13
1756 11.0429 38803.20 39376.10 253.36
1757 11.0466 39522.40 39370.80 255.68
1758 11.0504 39076.50 39365.40 254.60
1759 11.0541 39603.50 39360.00 254.90
1760 11.0579 38809.90 39354.50 254.35
1761 11.0616 39412.80 39349.20 255.53
1762 11.0654 38547.60 39343.70 251.30
1763 11.0692 39843.80 39338.20 257.14
1764 11.0729 38783.40 39332.80 252.74
1765 11.0767 40118.30 39327.30 256.61
1766 11.0804 38992.20 39321.90 254.60
1767 11.0842 39296.70 39316.30 254.98
1768 11.0880 38734.70 39310.80 254.39
1769 11.0917 39441.90 39305.40 256.36
1770 11.0955 38888.50 39299.80 253.97
1771 11.0992 39243.00 39294.30 257.08
1772 11.1030 38727.00 39288.80 253.53
1773 11.1067 39500.90 39283.30 256.42
1774 11.1105 38841.80 39277.70 254.10
1775 11.1143 39341.90 39272.10 254.61
1776 11.1180 38980.50 39266.60 249.67
1777 11.1218 39357.00 39261.00 258.00
1778 11.1255 38992.40 39255.50 254.29
1779 11.1293 39762.80 39249.80 257.83
1780 11.1331 38834.70 39244.20 254.48
1781 11.1368 39491.50 39238.60 257.17
1782 11.1406 38869.10 39233.00 253.53
1783 11.1443 39372.40 39227.40 255.02
1784 11.1481 39076.30 39221.70 255.02
1785 11.1518 39434.70 39216.20 255.61
1786 11.1556 38827.10 39210.40 254.53
1787 11.1594 39330.80 39204.70 255.04
1788 11.1631 38809.00 39199.10 254.88
1789 11.1669 39271.30 39193.40 255.39
1790 11.1706 38985.40 39187.80 254.45
1791 11.1744 39382.00 39182.00 256.42
1792 11.1781 38541.50 39176.40 252.95
1793 11.1819 39110.90 39170.60 255.10
1794 11.1857 39161.60 39164.90 254.26
1795 11.1894 39621.60 39159.20 258.48
1796 11.1932 38885.10 39153.40 254.46
1797 11.1969 39397.00 39147.70 256.41
1798 11.2007 38819.60 39141.90 253.15
1799 11.2045 39574.00 39136.10 257.12
1800 11.2082 39072.60 39130.40 255.50
1801 11.2120 39492.70 39124.50 256.26
1802 11.2157 38886.70 39118.80 253.72
1803 11.2195 39631.00 39113.00 256.88
1804 11.2232 38574.90 39107.20 253.26
1805 11.2270 39086.90 39101.40 254.68
1806 11.2308 38751.10 39095.50 254.71
1807 11.2345 39170.20 39089.70 257.01
1808 11.2383 38273.40 39083.80 250.79
1809 11.2420 39611.10 39078.00 257.72
1810 11.2458 38753.90 39072.10 254.19
1811 11.2495 39035.10 39066.30 255.52
1812 11.2533 38369.40 39060.40 252.94
1813 11.2571 39191.90 39054.40 256.01
1814 11.2608 38388.10 39048.60 252.53
1815 11.2646 39001.20 39042.60 255.25
1816 11.2683 38521.00 39036.80 252.15
1817 11.2721 39022.00 39030.80 255.45
1818 11.2758 38761.80 39024.90 252.98
1819 11.2796 38919.20 39018.90 253.88
1820 11.2834 38102.30 39012.90 250.94
1821 11.2871 39257.00 39007.00 256.02
1822 11.2909 38441.00 39001.00 252.11
1823 11.2946 39048.10 38995.10 254.05
1824 11.2984 38475.50 38989.00 252.63
1825 11.3021 38761.60 38983.10 253.81
1826 11.3059 38120.50 38977.00 250.52
1827 11.3097 38789.70 38970.90 255.00
1828 11.3134 38533.50 38965.00 252.91
1829 11.3172 38891.00 38958.90 253.90
1830 11.3209 38458.70 38952.90 252.45
1831 11.3247 39055.50 38946.80 254.77
1832 11.3284 38321.10 38940.80 251.76
1833 11.3322 38888.40 38934.70 252.37
1834 11.3360 38510.20 38928.50 252.16
1835 11.3397 39068.60 38922.50 254.80
1836 11.3435 38297.00 38916.30 251.79
1837 11.3472 38607.70 38910.30 253.28
1838 11.3510 38057.60 38904.10 250.24
1839 11.3547 38977.60 38898.10 254.77
1840 11.3585 38889.90 38891.90 253.27
1841 11.3623 38800.30 38885.60 254.27
1842 11.3660 37971.60 38879.60 250.39
1843 11.3698 39241.60 38873.30 254.14
1844 11.3735 38202.70 38867.20 251.49
1845 11.3773 39090.70 38861.00 255.03
1846 11.3810 38611.20 38854.90 253.17
1847 11.3848 39071.30 38848.60 254.70
1848 11.3886 38269.80 38842.30 253.53
1849 11.3923 39423.10 38836.20 253.09
1850 11.3961 38766.80 38829.90 254.24
1851 11.3998 38804.60 38823.70 253.75
1852 11.4036 38481.10 38817.40 253.79
1853 11.4073 39024.10 38811.20 255.66
1854 11.4111 38245.60 38804.90 252.97
1855 11.4149 39242.40 38798.50 255.51
1856 11.4186 38412.30 38792.30 253.49
1857 11.4224 39094.10 38786.00 255.51
1858 11.4261 38479.20 38779.70 252.47
1859 11.4299 38717.70 38773.30 253.30
1860 11.4336 38042.40 38767.10 250.00
1861 11.4374 39305.40 38760.70 257.24
1862 11.4412 38450.90 38754.30 252.03
1863 11.4449 39116.60 38748.00 254.63
1864 11.4487 38467.90 38741.60 251.90
1865 11.4524 39239.00 38735.30 255.98
1866 11.4562 38554.70 38728.80 252.96
1867 11.4599 39057.10 38722.50 256.13
1868 11.4637 38412.40 38716.10 253.70
1869 11.4675 38988.60 38709.60 255.45
1870 11.4712 38421.30 38703.20 253.57
1871 11.4750 38952.10 38696.70 254.05
1872 11.4787 38114.10 38690.40 251.43
1873 11.4825 38856.10 38683.90 255.01
1874 11.4862 38153.60 38677.50 251.72
1875 11.4900 38940.40 38670.90 249.44
1876 11.4937 38337.90 38664.60 253.37
1877 11.4975 39299.00 38698.10 254.66
1878 11.5013 38638.30 38768.00 253.70
1879 11.5050 38908.90 38764.20 256.14
1880 11.5088 38506.60 38760.30 254.32
1881 11.5125 39211.70 38756.60 257.32
1882 11.5163 38120.90 38753.00 259.81
1883 11.5200 39219.70 38749.50 253.89
1884 11.5238 38476.50 38746.00 251.46
1885 11.5276 39063.50 38742.60 254.50
1886 11.5313 38540.50 38739.50 250.67
1887 11.5351 38801.20 38736.30 254.00
1888 11.5388 38554.60 38733.40 250.53
1889 11.5426 39349.90 38730.50 256.11
1890 11.5463 38312.70 38727.80 250.45
1891 11.5501 39169.50 38725.20 252.90
1892 11.5539 39185.10 38722.70 254.47
1893 11.5576 38959.80 38720.50 255.41
1894 11.5614 39095.70 38718.40 252.89
1895 11.5651 39096.20 38716.50 253.33
1896 11.5689 38749.60 38714.70 253.50
1897 11.5726 39245.50 38713.20 255.82
1898 11.5764 38857.60 38711.90 253.88
1899 11.5801 39197.80 38710.80 253.62
1900 11.5839 38345.60 38709.90 251.21
1901 11.5877 38976.30 38709.30 254.30
1902 11.5914 38831.60 38708.90 252.61
1903 11.5952 39461.30 38708.90 254.99
1904 11.5989 38871.10 38709.10 252.92
1905 11.6027 38920.80 38709.70 254.25
1906 11.6064 38406.40 38710.60 252.30
1907 11.6102 38988.00 38711.90 252.22
1908 11.6139 38503.00 38713.60 250.86
1909 11.6177 38901.50 38715.70 253.04
1910 11.6215 38451.40 38718.30 250.52
1911 11.6252 38663.90 38721.30 251.17
1912 11.6290 37871.10 38725.00 248.08
1913 11.6327 38735.10 38729.10 251.99
1914 11.6365 38283.90 38733.90 250.21
1915 11.6402 39070.20 38739.20 253.54
1916 11.6440 38363.30 38745.40 251.27
1917 11.6478 38933.10 38752.30 252.32
1918 11.6515 38319.50 38759.80 249.56
1919 11.6553 38489.20 38768.50 251.68
1920 11.6590 38232.50 38777.80 249.80
1921 11.6628 38407.90 38788.50 250.35
1922 11.6665 38160.30 38800.00 249.82
1923 11.6703 38501.00 38813.10 250.45
1924 11.6740 38009.20 38827.10 249.34
1925 11.6778 38893.10 38843.00 253.04
1926 11.6816 38312.50 38860.60 250.50
1927 11.6853 39110.80 38879.50 253.15
1928 11.6891 38474.00 38900.80 250.90
1929 11.6928 38892.30 38923.70 251.51
1930 11.6966 38407.40 38949.70 250.57
1931 11.7003 39133.40 38977.50 253.71
1932 11.7041 38017.60 39009.10 248.90
1933 11.7078 38939.50 39043.10 252.59
1934 11.7116 38161.50 39081.70 250.22
1935 11.7154 39536.60 39124.60 254.52
1936 11.7191 38369.70 39170.90 251.37
1937 11.7229 39017.20 39223.70 252.53
1938 11.7266 38445.90 39281.00 250.11
1939 11.7304 39755.80 39346.70 256.37
1940 11.7341 39006.40 39418.20 252.58
1941 11.7379 39642.50 39500.70 255.82
1942 11.7416 39109.10 39591.00 253.23
1943 11.7454 39455.90 39695.80 253.96
1944 11.7492 39189.10 39814.80 254.08
1945 11.7529 40346.70 39946.80 257.15
1946 11.7567 40013.40 40101.70 256.63
1947 11.7604 40689.90 40275.10 259.79
1948 11.7642 40427.50 40481.00 259.29
1949 11.7679 41086.10 40714.20 261.31
1950 11.7717 40953.10 40994.60 259.62
1951 11.7754 42133.60 41316.80 265.20
1952 11.7792 41793.50 41710.60 263.36
1953 11.7830 43798.10 42185.30 271.80
1954 11.7867 43542.80 42746.70 270.85
1955 11.7905 45631.50 43457.00 277.77
1956 11.7942 46605.40 44323.80 283.04
1957 11.7980 49800.90 45477.10 293.63
1958 11.8017 52605.70 47037.70 303.98
1959 11.8055 58667.20 49583.70 324.00
1960 11.8092 65559.80 54219.40 349.25
1961 11.8130 79009.30 64132.50 393.25
1962 11.8167 97049.30 84115.50 449.52
1963 11.8205 130680.00 123207.00 547.42
1964 11.8243 178551.00 188978.00 676.64
1965 11.8280 264680.00 280089.00 895.74
1966 11.8318 365880.00 389052.00 1128.53
1967 11.8355 482223.00 482120.00 1392.97
1968 11.8393 529022.00 530728.00 1485.15
1969 11.8430 508865.00 511250.00 1443.94
1970 11.8468 399703.00 426999.00 1205.97
1971 11.8505 278343.00 316851.00 927.92
1972 11.8543 179730.00 212342.00 682.14
1973 11.8580 122453.00 137675.00 525.75
1974 11.8618 88424.20 90875.80 424.57
1975 11.8656 71204.90 66590.30 368.06
1976 11.8693 59828.30 55434.70 331.30
1977 11.8731 54902.80 50087.00 313.56
1978 11.8768 50926.40 47380.20 299.85
1979 11.8806 48664.90 45647.40 290.14
1980 11.8843 46306.50 44437.00 283.04
1981 11.8881 45163.30 43476.60 277.01
1982 11.8918 43425.10 42730.40 269.99
1983 11.8956 43734.40 42107.20 272.32
1984 11.8994 42340.40 41594.60 267.08
1985 11.9031 42270.20 41178.40 263.94
1986 11.9069 41828.70 40818.80 265.99
1987 11.9106 41976.70 40522.40 265.19
1988 11.9144 41201.60 40264.70 261.31
1989 11.9181 41135.50 40053.30 261.77
1990 11.9219 40976.10 39872.20 262.15
1991 11.9256 41572.50 39726.70 263.71
1992 11.9294 41285.50 39602.60 262.83
1993 11.9331 42098.40 39497.80 266.19
1994 11.9369 41438.20 39395.10 263.26
1995 11.9407 42340.90 39287.00 267.70
1996 11.9444 40809.30 39173.40 260.85
1997 11.9482 41104.90 39053.80 262.53
1998 11.9519 39918.00 38942.20 257.27
1999 11.9557 39720.70 38838.40 256.10
2000 11.9594 38797.00 38750.10 252.84
2001 11.9632 39448.50 38672.10 254.76
2002 11.9669 38398.50 38606.50 251.62
2003 11.9707 39009.90 38547.20 254.03
2004 11.9744 38309.30 38495.40 249.99
2005 11.9782 38454.60 38446.60 248.09
2006 11.9801 37986.80 38423.60 252.39
2007 11.9839 38947.70 38380.10 253.71
2008 11.9876 38296.20 38340.40 252.76
2009 11.9914 38344.40 38302.10 254.31
2010 11.9951 38276.80 38266.90 253.84
2011 11.9989 38572.00 38232.80 255.19
2012 12.0026 38335.50 38201.30 261.16
2013 12.0064 38238.10 38170.70 250.43
2014 12.0101 38269.30 38142.20 251.07
2015 12.0139 39059.00 38114.40 254.93
2016 12.0177 37836.60 38087.80 248.30
2017 12.0214 37951.00 38063.00 251.02
2018 12.0252 37935.40 38038.60 248.50
2019 12.0289 38520.90 38015.80 253.24
2020 12.0327 37961.10 37993.20 249.48
2021 12.0364 38439.50 37972.10 250.44
2022 12.0402 37879.10 37951.10 249.69
2023 12.0440 37917.00 37930.80 251.66
2024 12.0477 37737.10 37911.70 247.92
2025 12.0515 38747.10 37892.70 252.38
2026 12.0552 37991.30 37874.70 250.90
2027 12.0590 38212.90 37856.80 252.13
2028 12.0627 37955.00 37839.80 250.70
2029 12.0665 38271.60 37822.80 250.38
2030 12.0702 37836.10 37806.60 249.61
2031 12.0740 38266.00 37790.40 251.90
2032 12.0778 37448.60 37774.60 247.51
2033 12.0815 38179.30 37759.60 250.33
2034 12.0853 37709.20 37744.40 248.71
2035 12.0890 37778.40 37730.00 250.10
2036 12.0928 37630.10 37715.40 249.61
2037 12.0965 38347.10 37701.50 250.11
2038 12.1003 37647.30 37687.50 247.88
2039 12.1041 38137.70 37673.70 250.43
2040 12.1078 37687.00 37660.50 247.90
2041 12.1116 37881.10 37647.20 248.49
2042 12.1153 37301.60 37634.40 246.23
2043 12.1191 38045.20 37621.40 249.68
2044 12.1228 37498.10 37609.00 247.50
2045 12.1266 37462.80 37596.40 247.55
2046 12.1303 37314.50 37584.30 247.49
2047 12.1341 37707.00 37571.90 247.87
2048 12.1379 37482.50 37559.80 246.65
2049 12.1416 37630.20 37548.10 248.67
2050 12.1454 36985.30 37536.20 245.23
2051 12.1491 37467.40 37524.70 247.02
2052 12.1529 37218.60 37513.10 246.47
2053 12.1566 37988.70 37501.80 248.85
2054 12.1604 37397.20 37490.40 247.32
2055 12.1641 37572.00 37479.30 248.20
2056 12.1679 37256.00 37468.10 246.70
2057 12.1717 37681.30 37456.90 247.89
2058 12.1754 37448.50 37446.10 247.23
2059 12.1792 38038.70 37396.70 248.56
2060 12.1829 36742.10 37386.90 244.31
2061 12.1867 37631.20 37302.60 248.15
2062 12.1904 37160.90 37294.50 245.89
2063 12.1942 37619.10 37286.10 247.76
2064 12.1979 37138.10 37277.90 246.54
2065 12.2017 37670.70 37269.50 247.55
2066 12.2055 37391.40 37261.00 247.88
2067 12.2092 37322.50 37252.80 246.21
2068 12.2099 36897.60 37251.30 243.93
2069 12.2136 37557.30 37243.00 245.43
2070 12.2174 37338.50 37234.60 246.63
2071 12.2211 37565.70 37226.30 248.68
2072 12.2249 37006.20 37217.90 245.67
2073 12.2286 37973.00 37209.60 250.10
2074 12.2324 37095.50 37201.10 246.04
2075 12.2361 37862.00 37192.80 249.66
2076 12.2399 36798.10 37184.30 244.42
2077 12.2436 37911.40 37176.00 248.49
2078 12.2474 37188.90 37167.50 247.28
2079 12.2512 37501.40 37158.90 247.21
2080 12.2549 37338.30 37150.60 246.39
2081 12.2587 37860.80 37142.00 250.24
2082 12.2624 36978.20 37133.70 244.02
2083 12.2662 37795.40 37125.10 249.51
2084 12.2699 37009.90 37116.70 246.32
2085 12.2737 37561.70 37108.10 248.17
2086 12.2774 36931.80 37099.70 245.04
2087 12.2812 37560.00 37091.10 243.47
2088 12.2850 36362.70 37082.50 243.87
2089 12.2887 37255.60 37074.10 247.10
2090 12.2925 36628.40 37065.40 244.82
2091 12.2962 37265.00 37057.00 247.10
2092 12.3000 37003.70 37048.40 244.96
2093 12.3037 37482.40 37039.90 247.12
2094 12.3075 36871.20 37031.20 245.35
2095 12.3112 37199.00 37022.80 245.92
2096 12.3150 37135.10 37014.10 245.76
2097 12.3187 37665.70 37005.60 248.42
2098 12.3225 36928.10 36996.80 246.92
2099 12.3263 37429.80 36988.10 247.80
2100 12.3300 36720.80 36979.60 245.67
2101 12.3338 37674.50 36970.90 246.74
2102 12.3375 36887.40 36962.30 245.09
2103 12.3413 37176.70 36953.60 247.04
2104 12.3450 36966.80 36945.00 246.08
2105 12.3488 37274.40 36936.20 246.76
2106 12.3525 36793.10 36927.60 244.18
2107 12.3563 37091.30 36918.80 246.59
2108 12.3601 36358.70 36910.00 243.47
2109 12.3638 37627.50 36901.40 244.72
2110 12.3676 36453.00 36892.60 243.59
2111 12.3713 37445.30 36884.00 247.40
2112 12.3751 36775.80 36875.10 245.14
2113 12.3788 37596.40 36866.50 248.71
2114 12.3826 36522.60 36857.60 243.56
2115 12.3863 37265.70 36849.00 245.54
2116 12.3901 36784.40 36840.10 245.58
2117 12.3939 37445.60 36831.20 247.37
2118 12.3976 36872.80 36822.50 246.22
2119 12.4014 37409.30 36813.60 247.69
2120 12.4051 36890.20 36804.90 245.22
2121 12.4089 37078.60 36795.90 245.36
2122 12.4126 36144.80 36787.20 242.73
2123 12.4164 37070.60 36778.30 245.80
2124 12.4201 36459.60 36769.50 243.84
2125 12.4239 37131.60 36760.50 246.77
2126 12.4277 36381.30 36751.60 243.34
2127 12.4314 37127.00 36742.80 246.62
2128 12.4352 36787.50 36733.80 245.33
2129 12.4389 36999.20 36725.00 245.02
2130 12.4427 36626.40 36716.00 242.94
2131 12.4464 37283.70 36707.20 247.18
2132 12.4502 36734.10 36698.10 245.51
2133 12.4539 37288.80 36689.30 247.75
2134 12.4577 36534.50 36680.30 243.87
2135 12.4615 37126.80 36671.20 247.43
2136 12.4652 36383.30 36662.40 244.10
2137 12.4690 37421.20 36653.30 248.75
2138 12.4727 36536.50 36644.40 243.58
2139 12.4765 37095.50 36635.30 245.76
2140 12.4802 36758.40 36626.40 245.67
2141 12.4840 37364.40 36617.30 248.39
2142 12.4877 36693.20 36608.40 245.35
2143 12.4915 37395.70 36599.20 247.69
2144 12.4953 36647.80 36590.10 245.88
2145 12.4990 37211.70 36581.20 248.17
2146 12.5028 36863.80 36572.00 245.49
2147 12.5065 37365.90 36563.00 248.50
2148 12.5103 36686.60 36553.90 244.55
2149 12.5140 37132.70 36544.90 246.42
2150 12.5178 36643.80 36535.70 245.39
2151 12.5215 37251.50 36526.70 246.63
2152 12.5253 36587.30 36517.50 245.48
2153 12.5291 37160.10 36508.20 246.50
2154 12.5328 36776.20 36499.20 246.17
2155 12.5366 37216.40 36490.00 247.68
2156 12.5403 36660.60 36481.00 245.31
2157 12.5441 36871.10 36471.70 246.28
2158 12.5478 36547.40 36462.60 245.24
2159 12.5516 36666.70 36453.30 245.24
2160 12.5554 36867.90 36444.00 246.45
2161 12.5591 36951.00 36435.00 245.89
2162 12.5629 36542.80 36425.70 244.81
2163 12.5666 36890.40 36416.60 245.82
2164 12.5704 36389.00 36407.20 243.83
2165 12.5741 37313.70 36398.10 248.63
2166 12.5779 36412.50 36388.80 243.81
2167 12.5816 36966.40 36379.70 245.48
2168 12.5854 36595.40 36370.30 244.77
2169 12.5892 37036.90 36360.90 246.85
2170 12.5929 36236.70 36351.80 243.01
2171 12.5967 37373.50 36342.30 247.96
2172 12.6004 36707.80 36333.20 246.01
2173 12.6042 37496.80 36323.80 247.87
2174 12.6079 36407.80 36314.60 243.74
2175 12.6117 36948.10 36305.10 246.64
2176 12.6155 36417.60 36295.70 243.55
2177 12.6192 36885.40 36286.50 246.93
2178 12.6230 36467.80 36277.00 244.40
2179 12.6267 37028.20 36267.80 247.20
2180 12.6305 36136.00 36258.30 242.45
2181 12.6342 36677.20 36249.10 244.70
2182 12.6380 36285.80 36239.60 243.72
2183 12.6418 36955.90 36230.10 246.22
2184 12.6455 36350.50 36220.80 244.50
2185 12.6493 36654.50 36211.30 243.92
2186 12.6530 36229.20 36202.00 242.02
2187 12.6568 36797.30 36192.40 244.87
2188 12.6605 36373.30 36183.10 242.09
2189 12.6643 36823.90 36173.60 244.89
2190 12.6681 35821.30 36164.00 241.43
2191 12.6718 36815.40 36154.70 246.37
2192 12.6756 36130.00 36145.10 239.77
2193 12.6793 36424.60 36135.70 241.28
2194 12.6831 36440.30 36126.10 248.26
2195 12.6868 37026.30 36116.80 247.66
2196 12.6906 36210.30 36107.10 241.85
2197 12.6943 36571.00 36097.80 244.25
2198 12.6981 35950.30 36088.10 242.66
2199 12.7019 36143.50 36078.50 242.40
2200 12.7056 35915.40 36069.10 242.79
2201 12.7094 36490.70 36059.40 244.84
2202 12.7131 36017.80 36050.00 240.88
2203 12.7169 36858.60 36040.30 247.82
2204 12.7206 35935.30 36030.80 238.79
2205 12.7244 36536.10 36021.10 244.32
2206 12.7282 36141.30 36011.40 243.07
2207 12.7319 36502.80 36001.90 245.93
2208 12.7357 35922.10 35992.20 242.38
2209 12.7394 36024.40 35982.70 240.64
2210 12.7432 35817.80 35973.00 242.56
2211 12.7469 36569.30 35963.50 244.58
2212 12.7507 36326.30 35953.70 243.87
2213 12.7545 36365.50 35944.00 244.21
2214 12.7582 35848.90 35934.40 240.88
2215 12.7620 36491.40 35924.60 244.94
2216 12.7657 36075.40 35915.10 242.65
2217 12.7695 36682.00 35905.30 242.57
2218 12.7732 35801.80 35895.70 241.20
2219 12.7770 36178.20 35885.90 243.26
2220 12.7808 36000.50 35876.10 239.99
2221 12.7845 36264.90 35866.50 242.99
2222 12.7883 35955.20 35856.60 238.38
2223 12.7920 36098.50 35847.00 242.46
2224 12.7958 36033.00 35837.20 243.32
2225 12.7995 36356.70 35827.60 243.64
2226 12.8033 35692.90 35817.70 240.60
2227 12.8071 36570.60 35807.80 244.46
2228 12.8108 36250.10 35798.10 242.34
2229 12.8146 36748.80 35788.20 245.70
2230 12.8183 35642.30 35778.60 241.30
2231 12.8221 36824.90 35768.60 245.71
2232 12.8258 35609.60 35759.00 240.99
2233 12.8296 36586.60 35749.00 245.84
2234 12.8334 36176.10 35739.10 244.29
2235 12.8371 36881.00 35729.40 245.86
2236 12.8409 35913.10 35719.40 240.66
2237 12.8446 37053.50 35709.70 247.56
2238 12.8484 35819.80 35699.70 242.16
2239 12.8522 36779.90 35689.70 246.04
2240 12.8559 36207.60 35680.00 242.71
2241 12.8597 37148.00 35670.00 247.38
2242 12.8634 36288.20 35660.20 243.48
2243 12.8672 36888.50 35650.20 246.44
2244 12.8709 35995.50 35640.40 242.38
2245 12.8747 36573.50 35630.40 244.74
2246 12.8785 35694.20 35620.30 241.81
2247 12.8822 36414.70 35610.50 244.06
2248 12.8860 35834.60 35600.40 242.27
2249 12.8897 36455.90 35590.60 244.74
2250 12.8935 35716.90 35580.50 241.34
2251 12.8972 36776.90 35570.70 245.99
2252 12.9010 35965.90 35560.60 241.61
2253 12.9048 36511.40 35550.50 244.07
2254 12.9085 35659.40 35540.70 241.87
2255 12.9123 36352.40 35530.50 244.87
2256 12.9160 35801.10 35520.70 241.40
2257 12.9198 35973.20 35510.50 241.58
2258 12.9235 35786.60 35500.60 242.68
2259 12.9273 36173.90 35490.50 243.02
2260 12.9311 35617.40 35480.30 240.77
2261 12.9348 36607.00 35470.40 244.86
2262 12.9386 35647.40 35460.20 241.52
2263 12.9423 36233.40 35450.30 244.35
2264 12.9461 35844.30 35440.10 242.91
2265 12.9499 36418.50 35429.90 244.71
2266 12.9536 35529.30 35419.90 240.62
2267 12.9574 36311.40 35409.70 244.45
2268 12.9611 35335.80 35399.80 240.76
2269 12.9649 36700.30 35389.50 244.73
2270 12.9686 35660.30 35379.50 240.66
2271 12.9724 36228.40 35369.30 243.05
2272 12.9762 35695.40 35359.00 240.35
2273 12.9799 35748.40 35349.00 241.70
2274 12.9837 35632.10 35338.70 241.04
2275 12.9874 36221.10 35328.70 242.32
2276 12.9912 35568.10 35318.40 240.09
2277 12.9949 36059.70 35308.40 241.67
2278 12.9987 35508.90 35298.10 238.42
2279 13.0025 36046.60 35287.80 237.91
2280 13.0062 35099.10 35277.70 238.95
2281 13.0100 36261.90 35267.40 247.68
2282 13.0137 36233.60 35257.30 250.22
2283 13.0175 36629.50 35247.00 247.32
2284 13.0213 35750.40 35236.60 243.63
2285 13.0250 36962.20 35226.50 247.39
2286 13.0288 35395.50 35216.10 238.07
2287 13.0325 35612.30 35206.00 237.22
2288 13.0363 35354.90 35195.60 238.74
2289 13.0400 36046.70 35185.50 242.36
2290 13.0438 35265.60 35175.10 238.21
2291 13.0476 36176.30 35164.70 243.21
2292 13.0513 34935.50 35154.60 238.46
2293 13.0551 35812.60 35144.10 241.48
2294 13.0588 35659.60 35134.00 241.38
2295 13.0626 36265.90 35123.50 243.69
2296 13.0664 35866.50 35113.10 242.41
2297 13.0701 36295.80 35102.90 244.95
2298 13.0739 35713.70 35092.40 242.66
2299 13.0776 36137.30 35082.20 243.93
2300 13.0814 35446.60 35071.70 239.16
2301 13.0851 36139.10 35061.50 243.32
2302 13.0889 35780.80 35051.00 242.94
2303 13.0927 36353.20 35040.50 244.74
2304 13.0964 35933.10 35030.30 242.84
2305 13.1002 36237.80 35019.80 243.23
2306 13.1039 35552.20 35009.50 240.40
2307 13.1077 35974.40 34999.00 243.56
2308 13.1115 35251.10 34988.40 240.20
2309 13.1152 35939.40 34978.20 243.07
2310 13.1190 34882.10 34967.60 237.71
2311 13.1227 35630.60 34957.30 240.91
2312 13.1265 35089.90 34946.80 237.69
2313 13.1302 36214.60 34936.50 243.68
2314 13.1340 35015.80 34925.90 238.00
2315 13.1378 36081.60 34915.30 243.05
2316 13.1415 35124.30 34905.00 237.99
2317 13.1453 35840.60 34894.40 240.38
2318 13.1490 34862.00 34884.00 242.47
2319 13.1528 35637.80 34873.40 240.27
2320 13.1566 34831.70 34862.80 235.40
2321 13.1603 35604.40 34852.40 237.78
2322 13.1641 35277.20 34841.80 238.06
2323 13.1678 35562.40 34831.40 239.51
2324 13.1716 35342.30 34820.70 237.89
2325 13.1754 35614.80 34810.10 239.48
2326 13.1791 35278.90 34799.70 237.93
2327 13.1829 35842.50 34789.00 240.05
2328 13.1866 35535.40 34778.60 237.34
2329 13.1904 35657.20 34767.90 238.76
2330 13.1941 34884.10 34757.50 235.83
2331 13.1979 35459.60 34746.70 237.22
2332 13.2017 35057.40 34736.00 235.10
2333 13.2054 35738.30 34725.60 239.72
2334 13.2092 35065.20 34714.90 236.18
2335 13.2129 35743.10 34704.40 239.00
2336 13.2167 35140.30 34693.70 237.45
2337 13.2205 35575.90 34682.90 238.37
2338 13.2242 35264.00 34672.40 237.82
2339 13.2280 35450.60 34661.70 237.08
2340 13.2317 35014.70 34651.20 235.13
2341 13.2355 35901.10 34640.40 240.40
2342 13.2393 34966.00 34629.60 236.88
2343 13.2430 35673.50 34619.10 240.24
2344 13.2468 35275.70 34608.30 237.46
2345 13.2505 35724.50 34597.80 240.30
2346 13.2543 35265.70 34586.90 238.64
2347 13.2580 35297.50 34576.40 237.64
2348 13.2618 35160.20 34565.60 236.06
2349 13.2656 35522.80 34554.70 238.03
2350 13.2693 34954.00 34544.20 237.01
2351 13.2731 35194.50 34533.30 237.61
2352 13.2768 34809.40 34522.70 236.16
2353 13.2806 35402.00 34511.90 238.09
2354 13.2844 34656.70 34501.00 234.17
2355 13.2881 35532.10 34490.40 239.75
2356 13.2919 34795.90 34479.50 235.74
2357 13.2956 35020.90 34468.90 235.92
2358 13.2994 34610.70 34458.00 235.02
2359 13.3032 35602.50 34447.10 237.79
2360 13.3069 34641.10 34436.50 235.55
2361 13.3107 35219.70 34425.60 236.64
2362 13.3144 34601.90 34414.90 235.61
2363 13.3182 35339.50 34404.00 237.72
2364 13.3220 34465.90 34393.10 233.84
2365 13.3257 35185.40 34382.40 237.45
2366 13.3295 34865.80 34371.40 236.66
2367 13.3332 35313.30 34360.80 237.50
2368 13.3370 34638.50 34349.80 237.16
2369 13.3407 35056.70 34339.10 236.91
2370 13.3445 34828.00 34328.10 235.99
2371 13.3483 35365.80 34317.20 238.37
2372 13.3520 34511.90 34306.50 233.50
2373 13.3558 34925.40 34295.50 235.62
2374 13.3595 34389.70 34284.70 233.71
2375 13.3633 35128.40 34273.70 235.49
2376 13.3671 34667.30 34262.70 236.51
2377 13.3708 35279.20 34252.00 237.16
2378 13.3746 34399.50 34240.90 234.16
2379 13.3783 35244.20 34230.20 238.74
2380 13.3821 35179.00 34219.10 237.25
2381 13.3859 35133.10 34208.10 235.91
2382 13.3896 34658.90 34197.30 235.48
2383 13.3934 35230.40 34186.30 238.27
2384 13.3971 34863.80 34175.50 237.41
2385 13.4009 35035.10 34164.40 238.23
2386 13.4047 34605.10 34153.30 236.75
2387 13.4084 34976.70 34142.50 237.62
2388 13.4122 34626.50 34131.40 236.01
2389 13.4159 35415.50 34120.60 238.64
2390 13.4197 34706.30 34109.50 236.30
2391 13.4235 35188.10 34098.40 238.74
2392 13.4272 34553.50 34087.60 234.62
2393 13.4310 35069.50 34076.40 238.41
2394 13.4347 34533.10 34065.60 234.66
2395 13.4385 34894.30 34054.40 237.27
2396 13.4422 35303.30 34043.60 238.64
2397 13.4460 34980.80 34032.40 236.64
2398 13.4498 34651.80 34021.30 236.11
2399 13.4535 35301.30 34010.40 238.66
2400 13.4573 34421.40 33999.20 234.05
2401 13.4610 35019.40 33988.40 237.27
2402 13.4648 34392.40 33977.20 235.37
2403 13.4686 34844.80 33966.00 236.64
2404 13.4723 34198.70 33955.10 233.79
2405 13.4761 35151.20 33943.90 238.06
2406 13.4798 34532.30 33933.00 235.32
2407 13.4836 34950.10 33921.80 237.99
2408 13.4874 34847.10 33910.50 237.40
2409 13.4911 34924.60 33899.60 237.53
2410 13.4949 34282.80 33888.40 234.77
2411 13.4986 34865.00 33877.40 235.86
2412 13.5024 34146.40 33866.20 233.89
2413 13.5062 35014.20 33854.90 237.75
2414 13.5099 34520.30 33844.00 235.07
2415 13.5137 34986.50 33832.70 236.68
2416 13.5174 34574.40 33821.70 237.05
2417 13.5212 34880.90 33810.50 236.47
2418 13.5250 34299.40 33799.20 234.14
2419 13.5287 34903.50 33788.20 237.89
2420 13.5325 34363.40 33776.90 234.52
2421 13.5362 34972.10 33765.90 239.19
2422 13.5400 34611.60 33754.60 235.22
2423 13.5438 34569.50 33743.30 235.95
2424 13.5475 34474.90 33732.30 235.52
2425 13.5513 34470.20 33720.90 234.01
2426 13.5550 33888.10 33709.90 231.70
2427 13.5588 35028.20 33698.60 237.88
2428 13.5626 34106.50 33687.20 234.85
2429 13.5663 34723.30 33676.20 236.65
2430 13.5701 34474.70 33664.90 236.25
2431 13.5738 34983.20 33653.80 237.24
2432 13.5776 34280.60 33642.40 233.99
2433 13.5814 34885.80 33631.10 237.85
2434 13.5851 34384.20 33620.00 236.24
2435 13.5889 34723.40 33608.60 236.01
2436 13.5926 34076.40 33597.50 234.32
2437 13.5964 34320.50 33586.10 235.12
2438 13.6002 34332.60 33574.80 235.71
2439 13.6039 34613.70 33563.70 236.51
2440 13.6077 34081.50 33552.20 234.33
2441 13.6114 34533.70 33541.10 235.24
2442 13.6152 34312.50 33529.70 234.84
2443 13.6190 34603.90 33518.30 236.20
2444 13.6227 34182.10 33507.20 234.80
2445 13.6265 34739.80 33495.70 237.52
2446 13.6302 33556.10 33484.60 232.23
2447 13.6340 34554.80 33473.10 236.43
2448 13.6378 33522.60 33461.70 232.67
2449 13.6415 34448.60 33450.60 235.69
2450 13.6453 33687.90 33439.10 231.50
2451 13.6490 34222.00 33427.90 234.50
2452 13.6528 33964.60 33416.50 233.82
2453 13.6566 34237.30 33405.00 234.41
2454 13.6603 33602.40 33393.80 232.35
2455 13.6641 34237.60 33382.30 235.43
2456 13.6678 33751.40 33371.10 232.46
2457 13.6716 34408.30 33359.60 235.64
2458 13.6754 33582.90 33348.10 232.07
2459 13.6791 34171.80 33336.90 234.69
2460 13.6829 33533.80 33325.40 231.84
2461 13.6866 34254.00 33314.20 233.17
2462 13.6904 33433.10 33302.70 230.86
2463 13.6942 34117.60 33291.10 234.62
2464 13.6979 33488.60 33279.90 229.37
2465 13.7017 34062.60 33268.40 234.61
2466 13.7054 33311.10 33257.10 229.95
2467 13.7092 33889.90 33245.60 232.60
2468 13.7130 33262.10 33234.00 231.15
2469 13.7167 33722.30 33222.80 231.41
2470 13.7205 33439.30 33211.20 232.32
2471 13.7242 34005.80 33199.90 235.39
2472 13.7280 33388.00 33188.40 231.30
2473 13.7318 33653.00 33176.80 232.56
2474 13.7355 33272.70 33165.50 231.32
2475 13.7393 33806.30 33153.90 232.42
2476 13.7430 33207.00 33142.60 229.91
2477 13.7468 33757.20 33131.00 231.71
2478 13.7506 32815.50 33119.40 228.33
2479 13.7543 33763.40 33108.10 233.21
2480 13.7581 33516.80 33096.50 229.50
2481 13.7618 34124.20 33085.20 232.61
2482 13.7656 33276.40 33073.60 231.24
2483 13.7694 33628.60 33061.90 233.16
2484 13.7731 33190.10 33050.60 230.09
2485 13.7769 33554.50 33039.00 229.51
2486 13.7806 33239.30 33027.60 230.59
2487 13.7844 33731.90 33016.00 233.18
2488 13.7882 33100.80 33004.30 229.59
2489 13.7919 33632.00 32993.00 231.06
2490 13.7957 32820.40 32981.30 230.23
2491 13.7994 33267.40 32970.00 231.72
2492 13.8032 33085.40 32958.30 229.66
2493 13.8070 33941.40 32946.60 234.49
2494 13.8107 33267.30 32935.20 230.46
2495 13.8145 33799.40 32923.60 233.15
2496 13.8182 32994.50 32912.20 229.33
2497 13.8220 33706.30 32900.50 232.68
2498 13.8258 32799.90 32888.80 228.92
2499 13.8295 33590.10 32877.40 230.97
2500 13.8333 32835.00 32865.70 229.72
2501 13.8370 33319.10 32854.30 231.52
2502 13.8408 33032.50 32842.60 229.35
2503 13.8446 33391.70 32830.80 230.49
2504 13.8483 33471.90 32819.40 231.55
2505 13.8521 33480.90 32807.70 231.80
2506 13.8558 32892.10 32796.30 230.65
2507 13.8596 33380.30 32784.50 229.68
2508 13.8634 32984.10 32772.80 230.15
2509 13.8671 33821.40 32761.30 233.32
2510 13.8709 32797.10 32749.60 229.13
2511 13.8746 33267.90 32738.10 231.53
2512 13.8784 32918.80 32726.40 229.09
2513 13.8822 33699.70 32714.60 232.26
2514 13.8859 32836.40 32703.20 229.19
2515 13.8897 32967.70 32691.40 229.45
2516 13.8935 32489.30 32679.60 228.48
2517 13.8972 33181.80 32668.10 231.09
2518 13.9010 32854.90 32656.30 230.08
2519 13.9047 33257.10 32644.90 231.30
2520 13.9085 32557.40 32633.10 227.96
2521 13.9123 33400.60 32621.30 232.21
2522 13.9160 32669.60 32609.80 228.79
2523 13.9198 33445.80 32598.00 232.60
2524 13.9235 32677.50 32586.50 229.41
2525 13.9273 33517.20 32574.70 233.63
2526 13.9311 32607.60 32562.80 228.91
2527 13.9348 33375.00 32551.30 229.36
2528 13.9386 32799.00 32539.50 229.85
2529 13.9423 32978.20 32528.00 230.17
2530 13.9461 32836.70 32516.10 230.57
2531 13.9499 33193.00 32504.30 230.45
2532 13.9536 32619.60 32492.80 228.64
2533 13.9574 33247.30 32480.90 230.58
2534 13.9611 32735.40 32469.40 230.09
2535 13.9649 33027.90 32457.50 230.23
2536 13.9687 32599.50 32445.70 228.89
2537 13.9724 33280.70 32434.10 233.32
2538 13.9762 32368.40 32422.20 228.24
2539 13.9799 33224.40 32410.70 231.60
2540 13.9837 32490.30 32398.80 229.23
2541 13.9875 33065.90 32386.90 229.90
2542 13.9912 32279.40 32375.40 227.65
2543 13.9950 32745.70 32363.50 229.11
2544 13.9987 32619.40 32351.90 229.06
2545 14.0025 33057.50 32340.00 229.88
2546 14.0063 32216.60 32328.10 228.12
2547 14.0100 32638.60 32316.50 228.47
2548 14.0138 32094.40 32304.60 226.52
2549 14.0175 32900.00 32293.00 229.62
2550 14.0213 32318.60 32281.10 227.06
2551 14.0251 32962.30 32269.20 231.22
2552 14.0288 32266.00 32257.60 229.43
2553 14.0326 33090.30 32245.60 231.96
2554 14.0364 32720.00 32233.70 228.67
2555 14.0401 32941.20 32222.10 230.19
2556 14.0439 31804.60 32210.20 225.33
2557 14.0476 32530.00 32198.50 226.28
2558 14.0514 32337.40 32186.60 227.54
2559 14.0552 32945.30 32174.70 230.08
2560 14.0589 32127.80 32163.00 227.82
2561 14.0627 32817.20 32151.10 230.36
2562 14.0664 32536.90 32139.40 230.09
2563 14.0702 32634.50 32127.50 228.23
2564 14.0740 32414.40 32115.50 225.94
2565 14.0777 33023.80 32103.80 230.64
2566 14.0815 32316.60 32091.90 226.99
2567 14.0852 32550.20 32080.20 228.18
2568 14.0890 32102.50 32068.20 226.97
2569 14.0928 32838.80 32056.30 230.21
2570 14.0965 32112.50 32044.60 227.51
2571 14.1003 32648.70 32032.60 229.66
2572 14.1040 31915.60 32020.90 226.20
2573 14.1078 32456.80 32009.00 228.47
2574 14.1116 32005.80 31997.00 227.49
2575 14.1153 32555.20 31985.30 229.48
2576 14.1191 32196.10 31973.30 227.69
2577 14.1228 32992.60 31961.60 232.33
2578 14.1266 32107.50 31949.60 227.35
2579 14.1304 32394.00 31937.60 227.16
2580 14.1341 32007.70 31925.90 227.23
2581 14.1379 32922.20 31913.80 230.45
2582 14.1417 32244.10 31901.80 226.12
2583 14.1454 32654.90 31890.10 228.87
2584 14.1492 32131.80 31878.10 228.25
2585 14.1529 32123.30 31866.40 225.20
2586 14.1567 32328.60 31854.30 228.97
2587 14.1605 32576.10 31842.30 228.87
2588 14.1642 31815.60 31830.60 226.77
2589 14.1680 32241.20 31818.50 227.96
2590 14.1717 31934.30 31806.80 227.05
2591 14.1755 32191.30 31794.80 228.12
2592 14.1793 31483.10 31782.70 223.44
2593 14.1830 32429.20 31771.00 229.67
2594 14.1868 31775.10 31758.90 225.86
2595 14.1905 32481.20 31747.20 228.37
2596 14.1943 31874.30 31735.10 226.36
2597 14.1981 32181.30 31723.00 227.76
2598 14.2018 31788.80 31711.30 226.01
2599 14.2056 32189.20 31699.20 226.63
2600 14.2093 31529.90 31687.50 224.55
2601 14.2131 32038.00 31675.40 226.78
2602 14.2169 31733.30 31663.30 225.65
2603 14.2206 32037.80 31651.50 227.57
2604 14.2244 31959.90 31639.50 225.61
2605 14.2281 32087.30 31627.70 226.58
2606 14.2319 31448.10 31615.60 225.31
2607 14.2357 31960.20 31603.50 227.23
2608 14.2394 31697.90 31591.70 225.17
2609 14.2432 32207.30 31579.60 227.44
2610 14.2470 31512.50 31567.50 222.42
2611 14.2507 32150.80 31555.70 227.62
2612 14.2545 31488.90 31543.60 224.58
2613 14.2582 32027.20 31531.80 227.20
2614 14.2620 31468.00 31519.70 224.37
2615 14.2658 31917.00 31507.60 226.65
2616 14.2695 31359.40 31495.80 224.23
2617 14.2733 31414.40 31483.70 223.70
2618 14.2770 31384.80 31471.90 224.87
2619 14.2808 31633.30 31459.80 223.64
2620 14.2846 31176.60 31447.60 222.05
2621 14.2883 31798.50 31435.80 225.41
2622 14.2921 30976.00 31423.70 223.23
2623 14.2958 31815.00 31411.90 224.53
2624 14.2996 31287.90 31399.80 222.28
2625 14.3034 31931.50 31387.60 226.19
2626 14.3071 31360.60 31375.80 223.18
2627 14.3109 31477.40 31363.70 222.43
2628 14.3146 31028.30 31351.80 222.04
2629 14.3184 31381.10 31339.70 223.19
2630 14.3222 31124.10 31327.50 222.46
2631 14.3259 31568.50 31315.70 224.62
2632 14.3297 31193.50 31303.50 223.64
2633 14.3335 31418.80 31291.40 224.13
2634 14.3372 31285.20 31279.50 224.73
2635 14.3410 31610.00 31267.40 224.65
2636 14.3447 31111.50 31255.50 222.54
2637 14.3485 31566.50 31243.40 225.20
2638 14.3523 31161.80 31231.20 222.59
2639 14.3560 31402.00 31219.40 223.29
2640 14.3598 31005.50 31207.20 223.25
2641 14.3635 31302.70 31195.30 222.85
2642 14.3673 30437.80 31183.20 220.43
2643 14.3711 31647.00 31171.00 224.93
2644 14.3748 31169.00 31159.10 221.92
2645 14.3786 31527.60 31146.90 224.62
2646 14.3823 30618.10 31135.10 220.44
2647 14.3861 31078.30 31122.90 221.97
2648 14.3899 30802.30 31110.70 220.01
2649 14.3936 31404.40 31098.80 225.02
2650 14.3974 31041.00 31086.60 221.76
2651 14.4012 31231.20 31074.50 223.02
2652 14.4049 30737.30 31062.60 220.59
2653 14.4087 31276.60 31050.40 224.66
2654 14.4124 30520.40 31038.50 219.81
2655 14.4162 31032.20 31026.30 222.84
2656 14.4200 30783.80 31014.10 221.96
2657 14.4237 31039.90 31002.20 222.04
2658 14.4275 30519.50 30990.00 220.58
2659 14.4312 31178.10 30978.10 223.50
2660 14.4350 30839.00 30965.90 221.78
2661 14.4388 31160.40 30953.70 223.60
2662 14.4425 30833.10 30941.80 222.57
2663 14.4463 31397.60 30929.60 224.12
2664 14.4500 30912.10 30917.70 221.85
2665 14.4538 31351.50 30905.50 223.98
2666 14.4576 30710.80 30893.30 221.36
2667 14.4613 31113.50 30881.40 224.41
2668 14.4651 30493.20 30869.20 221.07
2669 14.4688 31283.40 30857.20 223.23
2670 14.4726 30322.10 30845.00 218.82
2671 14.4764 31182.10 30832.80 222.76
2672 14.4801 30277.40 30820.90 219.95
2673 14.4839 31122.70 30808.70 222.67
2674 14.4877 30132.70 30796.40 219.55
2675 14.4914 31111.80 30784.50 222.99
2676 14.4952 30682.30 30772.30 221.91
2677 14.4989 30575.40 30760.40 220.87
2678 14.5027 30341.60 30748.10 220.49
2679 14.5065 31048.60 30735.90 221.62
2680 14.5102 30280.60 30724.00 220.56
2681 14.5140 30571.50 30711.70 220.55
2682 14.5177 30497.20 30699.80 221.02
2683 14.5215 30749.70 30687.60 221.52
2684 14.5253 30355.10 30675.30 220.07
2685 14.5290 31253.50 30663.40 222.87
2686 14.5328 30479.20 30651.20 219.79
2687 14.5365 30728.80 30639.20 221.83
2688 14.5403 30344.60 30627.00 219.47
2689 14.5441 30932.20 30614.70 222.74
2690 14.5478 30138.30 30602.80 218.97
2691 14.5516 30762.00 30590.50 221.95
2692 14.5554 30320.80 30578.30 220.49
2693 14.5591 30452.80 30566.40 220.31
2694 14.5629 30153.50 30554.10 218.95
2695 14.5666 30720.00 30542.20 220.39
2696 14.5704 30296.60 30529.90 219.79
2697 14.5742 30535.40 30517.60 220.38
2698 14.5779 30053.00 30505.70 218.69
2699 14.5817 30690.00 30493.40 221.83
2700 14.5854 29991.20 30481.50 218.88
2701 14.5892 30358.40 30469.20 219.47
2702 14.5930 30227.90 30457.00 221.65
2703 14.5967 30488.90 30445.00 219.01
2704 14.6005 29746.30 30432.80 215.04
2705 14.6042 30658.30 30420.80 220.79
2706 14.6080 30241.00 30408.50 216.52
2707 14.6118 30523.60 30396.30 219.15
2708 14.6155 30299.10 30384.30 218.56
2709 14.6193 30390.90 30372.10 219.06
2710 14.6231 29862.10 30359.80 215.98
2711 14.6268 30523.50 30347.80 218.55
2712 14.6306 30093.80 30335.60 217.10
2713 14.6343 30240.60 30323.60 218.47
2714 14.6381 29797.70 30311.30 216.21
2715 14.6419 30279.20 30299.10 218.29
2716 14.6456 29668.10 30287.10 215.57
2717 14.6494 30186.20 30274.80 217.63
2718 14.6531 30046.10 30262.90 217.28
2719 14.6569 30339.20 30250.60 218.56
2720 14.6607 29553.20 30238.30 214.60
2721 14.6644 30193.60 30226.40 217.24
2722 14.6682 30117.90 30214.10 217.87
2723 14.6719 30360.60 30202.10 218.71
2724 14.6757 29541.60 30189.80 215.41
2725 14.6795 30157.60 30177.50 218.66
2726 14.6832 29490.20 30165.60 214.57
2727 14.6870 29992.80 30153.30 215.99
2728 14.6907 29281.50 30141.30 213.13
2729 14.6945 30066.30 30129.10 217.40
2730 14.6983 30094.80 30116.80 216.93
2731 14.7020 30262.40 30104.80 217.83
2732 14.7058 29730.10 30092.50 213.87
2733 14.7096 29854.40 30080.20 215.20
2734 14.7133 29938.50 30068.30 216.84
2735 14.7171 29701.80 30056.00 215.38
2736 14.7208 29987.50 30044.00 215.77
2737 14.7246 29842.90 30031.70 216.20
2738 14.7284 29609.90 30019.50 216.65
2739 14.7359 29770.70 29995.20 216.61
2740 14.7434 29466.40 29970.90 214.89
2741 14.7472 30342.40 29958.60 218.91
2742 14.7509 29557.40 29946.70 215.81
2743 14.7547 29852.70 29934.40 213.58
2744 14.7584 29248.90 29922.40 214.56
2745 14.7622 29775.20 29910.10 216.33
2746 14.7660 29487.10 29897.80 215.57
2747 14.7697 29597.20 29885.90 214.28
2748 14.7735 28926.40 29873.60 212.21
2749 14.7773 29769.70 29861.30 215.52
2750 14.7810 29526.80 29849.30 213.22
2751 14.7848 29858.60 29837.00 215.64
2752 14.7885 29228.00 29825.10 213.06
2753 14.7923 29899.90 29812.80 216.11
2754 14.7961 29394.10 29800.50 214.08
2755 14.7998 29473.80 29788.50 214.58
2756 14.8036 29181.00 29776.20 214.26
2757 14.8073 29596.60 29764.30 216.20
2758 14.8111 29129.10 29752.00 213.82
2759 14.8149 29308.70 29739.70 213.69
2760 14.8186 29616.10 29727.70 215.48
2761 14.8224 29785.40 29715.40 216.80
2762 14.8261 29028.90 29703.40 210.83
2763 14.8299 29706.80 29691.20 215.77
2764 14.8337 29475.00 29678.90 215.05
2765 14.8374 29613.60 29666.90 214.90
2766 14.8412 29281.10 29654.60 214.33
2767 14.8449 29516.80 29642.60 215.04
2768 14.8487 29151.20 29630.30 212.91
2769 14.8525 29018.00 29618.10 213.12
2770 14.8562 29339.90 29606.10 214.07
2771 14.8600 29678.20 29593.80 215.40
2772 14.8638 29135.20 29581.50 213.52
2773 14.8675 29324.00 29569.60 214.11
2774 14.8713 29188.40 29557.30 214.64
2775 14.8750 29395.30 29545.30 214.33
2776 14.8788 28849.30 29533.00 212.13
2777 14.8826 29758.90 29520.70 217.10
2778 14.8863 28939.30 29508.80 211.07
2779 14.8901 29334.10 29496.50 215.00
2780 14.8938 28907.50 29484.50 212.70
2781 14.8976 29584.60 29472.20 215.30
2782 14.9014 28753.90 29459.90 211.23
2783 14.9051 29376.40 29448.00 214.76
2784 14.9089 29044.60 29435.70 212.84
2785 14.9126 29227.90 29423.70 213.19
2786 14.9164 28929.40 29411.50 212.43
2787 14.9202 29062.20 29399.20 213.36
2788 14.9239 28904.40 29387.20 211.37
2789 14.9277 29454.90 29374.90 215.14
2790 14.9315 28831.70 29362.70 212.11
2791 14.9352 29409.60 29350.70 215.01
2792 14.9390 29325.90 29338.40 213.88
2793 14.9427 29330.80 29326.50 214.01
2794 14.9465 28773.20 29314.20 211.24
2795 14.9503 29485.80 29301.90 215.00
2796 14.9540 28832.40 29290.00 211.55
2797 14.9578 29471.50 29277.70 215.09
2798 14.9615 28773.70 29265.70 212.38
2799 14.9653 29407.30 29253.50 215.12
2800 14.9691 29185.00 29241.20 214.97
2801 14.9728 29678.30 29229.20 216.67
2802 14.9766 29067.50 29217.00 213.66
2803 14.9803 29448.50 29205.00 215.05
2804 14.9841 28860.20 29192.70 212.80
2805 14.9879 29571.80 29180.50 215.21
2806 14.9916 28954.00 29168.50 212.56
2807 14.9954 29245.90 29156.30 214.23
2808 14.9991 29069.90 29144.30 214.28
2809 15.0029 29492.50 29132.00 215.32
2810 15.0067 28999.90 29119.80 213.29
2811 15.0104 29926.00 29107.80 218.47
2812 15.0142 29802.20 29095.60 216.29
2813 15.0179 30175.00 29083.60 218.60
2814 15.0217 29899.20 29071.40 218.27
2815 15.0255 30313.90 29059.10 218.49
2816 15.0292 30173.00 29047.20 219.40
2817 15.0330 30706.50 29034.90 219.54
2818 15.0368 30283.70 29022.70 218.49
2819 15.0405 31070.70 29010.70 221.83
2820 15.0443 30874.10 28998.50 221.43
2821 15.0480 31443.20 28986.60 223.96
2822 15.0518 30950.30 28974.30 221.49
2823 15.0556 31275.10 28962.00 224.00
2824 15.0593 31125.00 28950.10 221.91
2825 15.0631 31134.00 28937.90 223.36
2826 15.0668 30417.30 28925.90 217.24
2827 15.0706 30242.00 28913.70 217.94
2828 15.0744 29629.00 28901.50 217.06
2829 15.0781 29456.10 28889.50 215.37
2830 15.0819 29239.30 28877.30 213.62
2831 15.0856 29382.30 28865.40 215.30
2832 15.0894 28815.60 28853.10 212.50
2833 15.0932 29043.30 28840.90 212.79
2834 15.0969 28953.00 28829.00 212.65
2835 15.1007 29212.20 28816.70 214.35
2836 15.1044 28922.30 28804.80 212.51
2837 15.1082 29446.00 28792.60 215.63
2838 15.1120 28720.10 28780.40 212.76
2839 15.1157 28889.10 28768.50 212.63
2840 15.1195 28526.80 28756.20 209.73
2841 15.1233 29111.80 28744.00 213.19
2842 15.1270 28411.50 28732.10 211.19
2843 15.1308 28816.30 28719.90 211.97
2844 15.1345 28455.10 28708.00 210.95
2845 15.1383 28806.20 28695.80 212.11
2846 15.1421 28406.50 28683.50 210.26
2847 15.1458 28718.60 28671.60 213.11
2848 15.1496 28111.90 28659.40 209.20
2849 15.1533 28447.80 28647.50 210.76
2850 15.1571 28322.50 28635.30 210.01
2851 15.1609 28666.20 28623.10 208.31
2852 15.1646 27891.90 28611.20 208.69
2853 15.1684 28650.60 28599.00 211.43
2854 15.1721 28147.20 28587.10 209.49
2855 15.1759 28372.50 28574.90 210.14
2856 15.1797 27947.60 28562.70 209.45
2857 15.1834 28630.70 28550.80 212.22
2858 15.1872 27918.50 28538.60 208.63
2859 15.1909 28418.80 28526.80 210.69
2860 15.1947 28076.00 28514.60 210.53
2861 15.1985 28393.50 28502.40 211.64
2862 15.2022 27961.10 28490.50 207.59
2863 15.2060 28091.40 28478.30 208.76
2864 15.2097 27792.30 28466.40 207.45
2865 15.2135 28646.70 28454.30 211.72
2866 15.2173 27995.90 28442.10 209.57
2867 15.2210 28328.10 28430.20 210.69
2868 15.2248 27760.20 28418.00 207.31
2869 15.2285 28238.00 28406.20 208.62
2870 15.2323 27846.50 28394.00 208.36
2871 15.2361 28008.70 28381.80 209.36
2872 15.2398 27944.00 28370.00 208.31
2873 15.2436 28165.60 28357.80 210.56
2874 15.2474 27411.30 28345.60 206.66
2875 15.2511 28063.10 28333.80 208.95
2876 15.2549 27640.20 28321.60 207.63
2877 15.2586 28002.40 28309.80 208.01
2878 15.2624 27916.20 28297.60 208.18
2879 15.2662 28437.40 28285.40 211.02
2880 15.2699 27715.20 28273.60 206.41
2881 15.2737 27965.40 28261.50 208.53
2882 15.2774 27465.50 28249.60 207.08
2883 15.2812 28187.30 28237.50 209.14
2884 15.2850 27491.20 28225.30 206.58
2885 15.2887 27992.70 28213.50 208.83
2886 15.2925 27871.50 28201.40 208.45
2887 15.2962 28312.10 28189.50 209.46
2888 15.3000 27587.90 28177.40 207.22
2889 15.3038 27924.60 28165.30 207.29
2890 15.3075 27528.10 28153.40 206.98
2891 15.3113 28086.10 28141.30 207.97
2892 15.3150 27569.60 28129.50 207.34
2893 15.3188 28004.80 28117.40 208.33
2894 15.3226 27511.60 28105.20 207.40
2895 15.3263 27928.70 28093.40 208.41
2896 15.3301 27466.40 28081.30 207.02
2897 15.3338 27735.20 28069.50 207.65
2898 15.3376 27729.40 28057.40 205.94
2899 15.3414 27662.70 28045.30 207.67
2900 15.3451 27131.40 28033.50 202.90
2901 15.3489 27677.90 28021.40 207.67
2902 15.3526 27437.30 28009.60 205.53
2903 15.3564 27923.20 27997.50 208.70
2904 15.3602 27426.60 27985.40 207.46
2905 15.3639 27650.80 27973.60 206.67
2906 15.3677 27647.50 27961.50 206.90
2907 15.3714 27714.90 27949.70 208.42
2908 15.3752 27406.80 27937.70 206.28
2909 15.3790 27795.50 27925.60 209.26
2910 15.3827 27107.20 27913.80 205.41
2911 15.3865 27914.40 27901.70 209.29
2912 15.3902 27385.00 27890.00 205.94
2913 15.3940 27866.70 27877.90 208.29
2914 15.3978 27231.20 27865.80 205.97
2915 15.4015 27485.10 27854.00 206.76
2916 15.4053 27344.10 27842.00 204.02
2917 15.4090 27697.70 27830.20 208.01
2918 15.4128 27165.70 27818.20 204.69
2919 15.4166 27748.70 27806.10 208.66
2920 15.4203 27260.50 27794.40 205.56
2921 15.4241 27339.30 27782.30 206.70
2922 15.4278 27442.70 27770.60 206.77
2923 15.4316 27257.50 27758.50 206.42
2924 15.4354 27185.60 27746.50 204.28
2925 15.4391 27449.30 27734.70 207.23
2926 15.4429 27160.80 27722.70 205.27
2927 15.4466 27594.20 27711.00 208.39
2928 15.4504 27328.10 27698.90 205.98
2929 15.4542 27655.10 27686.90 208.57
2930 15.4579 27183.80 27675.20 206.03
2931 15.4617 27668.60 27663.20 208.76
2932 15.4654 27210.70 27651.40 204.33
2933 15.4692 27671.10 27639.40 208.51
2934 15.4730 27181.10 27627.40 204.67
2935 15.4767 27559.10 27615.70 207.61
2936 15.4805 27168.90 27603.70 205.97
2937 15.4843 27164.60 27591.70 206.18
2938 15.4880 27024.30 27580.00 205.39
2939 15.4918 27918.30 27568.00 209.18
2940 15.4955 27344.80 27556.30 205.77
2941 15.4993 27427.40 27544.30 206.01
2942 15.5031 26907.00 27532.30 203.76
2943 15.5068 27358.60 27520.60 205.90
2944 15.5106 26993.30 27508.60 202.34
2945 15.5143 27815.30 27497.00 209.12
2946 15.5181 27029.20 27485.00 205.73
2947 15.5219 27249.60 27473.00 206.22
2948 15.5256 26823.30 27461.40 204.25
2949 15.5294 27560.90 27449.40 206.77
2950 15.5331 26579.00 27437.70 203.85
2951 15.5369 27188.70 27425.80 206.36
2952 15.5407 27094.30 27413.80 206.22
2953 15.5444 27215.80 27402.20 205.43
2954 15.5482 26755.00 27390.20 204.53
2955 15.5519 27257.00 27378.60 206.29
2956 15.5557 27002.50 27366.60 205.86
2957 15.5595 27163.80 27354.70 203.12
2958 15.5632 26878.40 27343.00 202.67
2959 15.5670 27525.20 27331.10 204.66
2960 15.5707 26924.00 27319.50 202.99
2961 15.5745 27172.00 27307.50 204.28
2962 15.5783 26692.30 27295.60 201.65
2963 15.5820 27072.70 27284.00 203.25
2964 15.5858 26697.30 27272.10 201.51
2965 15.5895 27103.50 27260.50 203.81
2966 15.5933 27141.50 27248.50 203.02
2967 15.5970 27409.30 27236.90 205.57
2968 15.6008 26706.90 27225.00 201.79
2969 15.6046 27169.60 27213.10 204.52
2970 15.6083 26924.00 27201.50 202.61
2971 15.6121 27036.60 27189.60 203.62
2972 15.6158 26523.40 27178.10 200.49
2973 15.6196 27119.10 27166.20 203.09
2974 15.6234 26564.90 27154.30 199.84
2975 15.6271 27033.00 27142.70 202.75
2976 15.6309 26701.80 27130.80 201.28
2977 15.6346 26774.70 27119.30 202.11
2978 15.6384 26670.20 27107.40 201.72
2979 15.6422 27129.00 27095.50 202.85
2980 15.6459 26626.50 27084.00 201.14
2981 15.6497 27261.90 27072.10 204.16
2982 15.6534 26497.00 27060.60 200.06
2983 15.6572 26982.70 27048.70 202.76
2984 15.6610 26649.00 27036.80 200.46
2985 15.6647 26917.80 27025.30 202.52
2986 15.6685 26490.70 27013.50 199.68
2987 15.6722 26760.50 27001.90 200.46
2988 15.6760 26551.30 26990.10 200.65
2989 15.6798 26942.90 26978.30 201.80
2990 15.6835 26210.50 26966.80 199.43
2991 15.6873 26856.00 26954.90 202.20
2992 15.6910 26267.50 26943.40 198.99
2993 15.6948 26661.80 26931.60 200.34
2994 15.6986 26481.80 26919.80 200.68
2995 15.7023 26724.50 26908.30 200.92
2996 15.7061 26395.60 26896.50 198.87
2997 15.7098 26487.60 26885.00 201.32
2998 15.7136 26371.90 26873.20 198.79
2999 15.7174 26613.40 26861.40 200.24
3000 15.7211 26568.50 26849.90 198.88
3001 15.7249 26773.80 26838.10 201.80
3002 15.7286 26755.60 26826.70 202.63
3003 15.7324 26499.90 26814.90 199.57
3004 15.7362 26362.10 26803.10 200.36
3005 15.7399 26786.40 26791.60 201.06
3006 15.7437 26043.90 26779.90 198.10
3007 15.7474 26543.90 26768.40 199.62
3008 15.7512 25932.30 26756.70 197.22
3009 15.7550 26513.40 26744.90 199.85
3010 15.7587 26425.70 26733.50 199.91
3011 15.7625 26318.20 26721.70 200.44
3012 15.7662 26205.50 26710.30 198.64
3013 15.7700 26371.00 26698.50 199.90
3014 15.7738 26033.70 26686.80 198.38
3015 15.7775 26673.40 26675.40 201.30
3016 15.7813 26093.90 26663.70 198.81
3017 15.7850 26952.00 26652.20 202.83
3018 15.7888 25984.40 26640.50 198.78
3019 15.7925 26350.50 26629.10 199.40
3020 15.7963 26246.20 26617.40 198.84
3021 15.8001 26254.60 26605.70 199.57
3022 15.8038 25863.10 26594.30 197.29
3023 15.8076 26555.70 26582.60 200.74
3024 15.8113 26120.20 26571.20 198.96
3025 15.8151 26490.40 26559.60 199.80
3026 15.8189 25662.60 26547.90 197.44
3027 15.8226 26618.20 26536.50 201.23
3028 15.8264 26018.00 26524.80 198.10
3029 15.8301 26431.60 26513.50 200.19
3030 15.8339 25959.80 26501.80 198.08
3031 15.8377 26276.00 26490.10 199.87
3032 15.8414 26001.10 26478.80 198.46
3033 15.8452 26329.20 26467.10 198.41
3034 15.8489 25910.20 26455.80 197.81
3035 15.8527 26206.40 26444.10 199.59
3036 15.8565 26105.90 26432.50 198.61
3037 15.8602 26223.50 26421.20 198.90
3038 15.8640 25864.30 26409.60 196.97
3039 15.8677 26479.50 26398.20 201.09
3040 15.8715 25827.20 26386.60 197.53
3041 15.8753 26153.70 26375.00 198.84
3042 15.8790 25916.40 26363.70 198.38
3043 15.8828 26338.10 26352.10 200.56
3044 15.8865 26119.80 26340.80 200.05
3045 15.8903 26175.70 26329.20 199.00
3046 15.8940 25832.70 26317.90 198.71
3047 15.8978 26312.10 26306.30 199.22
3048 15.9016 26008.00 26294.70 198.49
3049 15.9053 26252.00 26283.40 200.21
3050 15.9091 26292.60 26271.90 200.63
3051 15.9128 26381.20 26260.60 201.42
3052 15.9166 26103.50 26249.00 199.26
3053 15.9204 26132.00 26237.50 198.67
3054 15.9241 25657.70 26226.20 197.19
3055 15.9279 26343.70 26214.70 201.16
3056 15.9316 25850.00 26203.40 197.44
3057 15.9354 26439.60 26191.90 201.22
3058 15.9392 25801.00 26180.30 197.65
3059 15.9429 26194.20 26169.10 199.93
3060 15.9467 25750.10 26157.60 198.21
3061 15.9504 26027.20 26146.30 198.73
3062 15.9542 25787.30 26134.80 198.48
3063 15.9580 25929.20 26123.30 198.80
3064 15.9617 25776.80 26112.10 197.06
3065 15.9655 25771.50 26100.60 198.12
3066 15.9692 26149.20 26089.40 199.36
3067 15.9730 26345.40 26077.90 200.45
3068 15.9767 25710.60 26066.70 197.26
3069 15.9805 25916.90 26055.20 198.95
3070 15.9843 25779.80 26043.80 197.30
3071 15.9880 25694.90 26032.60 197.77
3072 15.9918 25407.30 26021.10 196.26
3073 15.9955 25842.50 26009.90 198.36
3074 15.9993 25785.00 25998.50 198.16
3075 16.0031 26485.00 25987.00 201.33
3076 16.0068 25834.10 25975.90 198.54
3077 16.0106 25820.00 25964.40 198.40
3078 16.0143 25466.00 25953.30 195.06
3079 16.0181 26277.30 25941.90 200.69
3080 16.0219 25589.90 25930.40 197.05
3081 16.0256 25755.40 25919.30 197.88
3082 16.0294 25668.10 25907.90 198.11
3083 16.0331 25982.70 25896.80 199.36
3084 16.0369 25776.80 25885.30 201.81
3085 16.0406 26223.80 25874.20 199.54
3086 16.0444 25955.50 25862.80 199.27
3087 16.0482 26093.40 25851.40 197.59
3088 16.0519 25694.30 25840.40 197.74
3089 16.0557 26001.50 25829.00 199.73
3090 16.0594 25925.30 25817.90 198.50
3091 16.0632 26408.40 25806.50 199.73
3092 16.0670 25943.30 25795.10 197.88
3093 16.0707 26485.60 25784.10 201.28
3094 16.0745 25873.90 25772.70 199.45
3095 16.0782 26287.70 25761.70 201.40
3096 16.0820 25661.30 25750.30 197.41
3097 16.0857 26048.40 25739.30 199.26
3098 16.0895 25764.30 25727.90 198.31
3099 16.0933 25904.10 25716.60 198.75
3100 16.0970 25646.00 25705.60 197.70
3101 16.1008 25774.00 25694.20 198.42
3102 16.1045 25917.90 25683.20 198.19
3103 16.1083 25890.10 25671.90 198.45
3104 16.1121 25681.00 25660.60 198.21
3105 16.1158 25837.30 25649.60 198.08
3106 16.1196 25334.70 25638.30 197.10
3107 16.1233 25664.80 25627.30 197.86
3108 16.1271 25743.90 25616.00 199.04
3109 16.1308 26024.20 25605.00 199.54
3110 16.1346 25567.70 25593.70 197.27
3111 16.1384 26015.90 25582.50 199.35
3112 16.1421 25505.60 25571.50 196.91
3113 16.1459 25932.40 25560.20 198.84
3114 16.1496 25614.50 25549.30 198.01
3115 16.1534 25810.30 25538.00 197.88
3116 16.1572 25670.40 25526.80 197.80
3117 16.1609 26193.60 25515.90 200.93
3118 16.1647 25367.80 25504.60 196.25
3119 16.1684 25894.80 25493.70 198.93
3120 16.1722 25457.70 25482.50 197.34
3121 16.1759 25787.50 25471.60 197.38
3122 16.1797 25407.70 25460.30 196.15
3123 16.1835 25621.30 25449.10 196.90
3124 16.1872 25727.90 25438.20 197.56
3125 16.1910 25749.00 25427.00 198.92
3126 16.1947 25420.40 25416.10 197.18
3127 16.1985 25546.90 25405.00 196.80
3128 16.2023 25629.90 25393.80 198.11
3129 16.2060 25772.00 25382.90 197.86
3130 16.2098 25447.00 25371.70 196.59
3131 16.2135 25972.50 25360.90 200.01
3132 16.2173 25219.50 25349.70 195.93
3133 16.2210 25689.70 25338.90 197.40
3134 16.2248 25576.60 25327.70 196.60
3135 16.2286 25750.10 25316.60 197.38
3136 16.2323 25678.30 25305.70 197.32
3137 16.2361 25743.70 25294.60 198.22
3138 16.2398 25531.60 25283.80 196.35
3139 16.2436 25563.20 25272.70 197.11
3140 16.2473 25149.50 25261.90 195.60
3141 16.2511 25419.40 25250.80 196.33
3142 16.2549 25299.10 25239.70 195.71
3143 16.2586 25591.00 25228.90 196.11
3144 16.2624 25267.40 25217.80 195.47
3145 16.2661 25409.80 25207.00 196.70
3146 16.2699 25341.70 25195.90 194.87
3147 16.2737 25424.20 25184.80 195.71
3148 16.2774 25473.10 25174.10 196.62
3149 16.2812 25472.60 25163.00 196.26
3150 16.2849 25289.40 25152.30 195.71
3151 16.2887 25510.30 25141.20 195.63
3152 16.2924 25472.10 25130.50 196.63
3153 16.2962 25561.40 25119.40 196.23
3154 16.3000 25333.10 25108.40 196.89
3155 16.3037 25629.30 25097.70 196.44
3156 16.3075 25426.20 25086.70 196.57
3157 16.3112 25661.40 25075.90 196.35
3158 16.3150 25316.90 25064.90 196.15
3159 16.3187 25494.20 25054.20 196.12
3160 16.3225 25176.80 25043.20 195.60
3161 16.3263 25492.50 25032.20 197.13
3162 16.3300 25108.80 25021.50 194.63
3163 16.3338 25634.00 25010.60 197.05
3164 16.3375 25408.30 24999.90 195.57
3165 16.3413 25908.40 24988.90 198.12
3166 16.3450 25276.00 24978.30 195.74
3167 16.3488 25765.80 24967.30 197.51
3168 16.3526 25371.20 24956.40 196.16
3169 16.3563 25727.10 24945.70 196.93
3170 16.3601 25045.00 24934.80 194.41
3171 16.3638 25681.10 24924.20 198.13
3172 16.3676 25354.90 24913.20 195.72
3173 16.3713 25449.30 24902.60 196.11
3174 16.3751 25268.50 24891.70 195.16
3175 16.3789 25883.70 24880.80 198.79
3176 16.3826 25473.30 24870.20 195.57
3177 16.3864 25666.20 24859.30 198.07
3178 16.3901 25410.80 24848.70 196.01
3179 16.3939 25716.90 26101.70 197.51
3180 16.3977 25614.50 26742.40 197.91
3181 16.4014 25490.60 26770.00 195.86
3182 16.4052 25207.50 26799.50 194.64
3183 16.4089 25755.00 26829.50 198.32
3184 16.4127 25475.60 26861.70 196.35
3185 16.4164 25965.70 26894.30 199.09
3186 16.4202 25688.80 26929.20 197.29
3187 16.4240 25757.90 26965.60 199.46
3188 16.4277 25603.80 27002.60 196.64
3189 16.4315 25697.30 27042.10 198.37
3190 16.4352 25918.30 27082.30 197.73
3191 16.4390 26214.00 27125.30 199.99
3192 16.4427 25425.10 27169.00 196.01
3193 16.4465 26202.20 27215.80 199.30
3194 16.4503 25233.10 27264.60 195.42
3195 16.4540 26011.80 27314.20 198.98
3196 16.4578 25814.00 27367.30 198.69
3197 16.4615 26100.50 27421.30 199.28
3198 16.4653 25948.40 27479.20 198.23
3199 16.4690 26050.50 27538.10 199.81
3200 16.4728 26147.10 27601.20 200.26
3201 16.4765 26409.80 27665.40 201.08
3202 16.4803 26173.10 27734.20 200.67
3203 16.4841 26253.60 27806.30 200.41
3204 16.4878 25946.00 27879.60 198.37
3205 16.4916 26194.00 27958.40 199.01
3206 16.4953 26313.40 28038.60 200.18
3207 16.4991 26695.90 28124.80 201.36
3208 16.5028 26424.10 28212.70 201.07
3209 16.5066 26548.70 28307.20 202.10
3210 16.5104 26287.00 28406.30 201.08
3211 16.5141 26965.60 28507.40 204.01
3212 16.5179 26648.50 28616.40 202.06
3213 16.5216 26905.50 28727.70 204.94
3214 16.5254 26632.90 28847.70 202.75
3215 16.5291 26987.90 28984.80 202.63
3216 16.5329 27228.00 29117.50 205.18
3217 16.5367 27445.30 29257.10 205.76
3218 16.5404 27119.60 29400.20 204.51
3219 16.5442 27760.10 29554.80 208.13
3220 16.5479 27523.10 29713.50 207.34
3221 16.5517 27941.00 29885.30 208.18
3222 16.5554 27623.00 30061.70 206.73
3223 16.5592 27865.90 30253.00 205.27
3224 16.5630 27877.70 30455.10 207.92
3225 16.5667 28329.30 30663.30 211.34
3226 16.5705 28087.70 30889.60 208.94
3227 16.5742 28827.50 31122.90 211.24
3228 16.5780 28322.20 31377.00 209.99
3229 16.5817 29242.20 31639.50 214.14
3230 16.5855 28857.90 31925.90 212.87
3231 16.5893 29662.60 32230.80 214.85
3232 16.5930 29742.30 32546.80 216.75
3233 16.5968 29984.30 32892.70 217.52
3234 16.6005 29876.90 33252.10 217.34
3235 16.6043 30468.40 33646.40 220.16
3236 16.6080 30527.90 34057.20 220.11
3237 16.6118 31409.30 34509.40 223.16
3238 16.6155 31298.20 34981.60 223.04
3239 16.6193 31904.50 35502.70 225.88
3240 16.6231 32501.60 36064.30 229.09
3241 16.6268 32973.70 36653.80 229.80
3242 16.6306 33227.00 37307.60 231.37
3243 16.6343 34169.00 37996.60 234.32
3244 16.6381 33776.60 38763.60 234.51
3245 16.6418 35444.00 39575.30 239.70
3246 16.6456 35470.10 40482.90 240.23
3247 16.6494 37060.70 41474.70 248.32
3248 16.6531 37149.80 42531.70 245.28
3249 16.6569 38386.70 43723.10 252.88
3250 16.6606 38551.40 44999.30 252.94
3251 16.6644 40743.00 46445.40 262.10
3252 16.6681 41841.50 48004.60 266.81
3253 16.6719 43611.00 49784.20 273.24
3254 16.6756 44419.50 51715.80 276.53
3255 16.6794 47501.90 53936.20 287.24
3256 16.6832 48792.90 56436.30 293.38
3257 16.6869 51781.00 59186.40 302.54
3258 16.6907 53549.20 62393.10 310.33
3259 16.6944 57618.70 65953.80 324.27
3260 16.6982 60035.50 70154.60 328.65
3261 16.7019 65192.20 74878.70 352.01
3262 16.7057 69001.70 80522.00 362.67
3263 16.7094 75117.40 86964.90 382.44
3264 16.7132 81764.70 94786.90 405.09
3265 16.7170 91335.50 104145.00 434.45
3266 16.7207 100573.00 115141.00 464.95
3267 16.7245 118203.00 128951.00 518.81
3268 16.7282 135731.00 145684.00 566.38
3269 16.7320 167182.00 167826.00 656.04
3270 16.7357 205162.00 197305.00 749.93
3271 16.7395 272833.00 243212.00 921.80
3272 16.7433 367814.00 322246.00 1142.29
3273 16.7470 533162.00 464622.00 1504.90
3274 16.7508 771573.00 736514.00 2004.11
3275 16.7545 1184380.00 1198620.00 2815.99
3276 16.7583 1800930.00 1943940.00 3984.17
3277 16.7620 2782680.00 2939620.00 5726.99
3278 16.7658 3970570.00 4121700.00 7802.51
3279 16.7695 5200170.00 5150790.00 9893.66
3280 16.7733 5733730.00 5685260.00 10725.20
3281 16.7771 5485010.00 5448800.00 10319.30
3282 16.7808 4374030.00 4598930.00 8475.88
3283 16.7846 3108310.00 3442330.00 6290.20
3284 16.7883 1995250.00 2365580.00 4317.25
3285 16.7921 1293340.00 1498560.00 3020.42
3286 16.7958 834853.00 926564.00 2135.99
3287 16.7996 574489.00 572176.00 1593.33
3288 16.8033 399914.00 380993.00 1216.41
3289 16.8071 297804.00 275077.00 980.33
3290 16.8109 226144.00 216132.00 805.52
3291 16.8146 184184.00 180473.00 696.43
3292 16.8184 153315.00 154968.00 614.15
3293 16.8221 134324.00 136206.00 563.07
3294 16.8259 118327.00 120963.00 521.01
3295 16.8296 107572.00 108924.00 485.31
3296 16.8334 95545.20 98743.30 448.66
3297 16.8371 88886.80 90482.20 429.55
3298 16.8409 80017.80 83341.90 400.29
3299 16.8446 75559.60 77443.70 383.27
3300 16.8484 69803.50 72265.30 367.63
3301 16.8522 66367.20 67817.10 356.50
3302 16.8559 61567.00 64068.00 339.47
3303 16.8597 59942.30 60720.40 334.98
3304 16.8634 56253.20 57880.80 319.05
3305 16.8672 55058.60 55341.30 316.39
3306 16.8709 52911.00 53200.20 309.17
3307 16.8747 51187.80 51328.90 302.05
3308 16.8784 49933.50 49839.20 297.95
3309 16.8822 49952.70 48690.40 297.90
3310 16.8860 49027.30 47999.30 293.85
3311 16.8897 50362.60 47847.80 298.36
3312 16.8935 49441.80 48300.30 296.17
3313 16.8972 51009.50 49354.40 301.96
3314 16.9010 51619.00 50991.50 303.92
3315 16.9047 53738.50 52914.70 306.90
3316 16.9085 53261.60 54814.50 310.29
3317 16.9122 55574.80 55994.20 319.07
3318 16.9160 54641.50 55876.40 314.94
3319 16.9197 54897.30 54227.40 315.09
3320 16.9235 52348.60 51319.40 307.42
3321 16.9273 50220.00 47847.70 299.71
3322 16.9310 46401.00 44470.80 281.27
3323 16.9348 41946.90 41356.80 265.52
3324 16.9385 37612.50 38827.40 249.31
3325 16.9423 36151.20 36778.20 244.99
3326 16.9460 33286.80 35261.50 232.92
3327 16.9498 32547.30 34096.50 229.68
3328 16.9535 31123.90 33242.20 223.12
3329 16.9573 30782.00 32560.30 221.50
3330 16.9611 29913.00 32009.00 217.97
3331 16.9648 29542.90 31553.80 215.00
3332 16.9686 29036.80 31143.30 213.31
3333 16.9723 28645.70 30783.20 211.90
3334 16.9761 28207.70 30445.10 209.48
3335 16.9798 28082.40 30141.00 209.09
3336 16.9817 27616.60 29993.30 206.40
3337 16.9854 27625.60 29720.30 205.89
3338 16.9892 27152.80 29458.00 204.73
3339 16.9930 27194.90 29212.20 205.39
3340 16.9967 26731.30 28986.90 203.46
3341 17.0005 26999.80 28768.80 204.53
3342 17.0042 26657.60 28568.00 202.47
3343 17.0080 26659.10 28372.70 204.19
3344 17.0117 26033.80 28192.30 200.39
3345 17.0155 26714.50 28016.30 201.77
3346 17.0192 26431.20 27853.10 201.95
3347 17.0230 26340.80 27693.40 201.15
3348 17.0268 26028.20 27541.10 199.93
3349 17.0305 26074.00 27399.50 200.87
3350 17.0343 25884.20 27260.40 200.26
3351 17.0380 25682.50 27130.70 198.34
3352 17.0418 25311.30 27003.10 196.60
3353 17.0455 25525.90 26883.90 195.18
3354 17.0493 25339.80 26766.40 196.78
3355 17.0531 25539.30 26653.50 199.04
3356 17.0568 24825.20 26547.80 194.48
3357 17.0606 25246.70 26443.30 195.54
3358 17.0643 24701.70 26345.30 193.92
3359 17.0681 24653.60 26248.30 193.78
3360 17.0718 24460.30 26157.20 193.26
3361 17.0756 24876.80 26066.90 193.80
3362 17.0794 24665.40 25979.70 194.21
3363 17.0831 24377.40 25897.60 192.61
3364 17.0869 24337.30 25816.10 192.68
3365 17.0906 24609.70 25739.30 194.17
3366 17.0944 23989.20 25662.90 190.99
3367 17.0981 24353.80 25590.90 192.05
3368 17.1019 24138.60 25519.20 191.35
3369 17.1056 24165.70 25451.50 191.69
3370 17.1094 23930.20 25384.00 191.14
3371 17.1132 24387.10 25318.60 192.21
3372 17.1169 23704.00 25256.60 189.42
3373 17.1207 24070.30 25194.80 190.34
3374 17.1244 23986.80 25136.30 191.43
3375 17.1282 24398.70 25077.90 191.96
3376 17.1319 23536.90 25022.50 188.25
3377 17.1357 24302.10 24967.10 193.08
3378 17.1395 23834.20 24913.20 188.27
3379 17.1432 23914.30 24862.00 190.64
3380 17.1470 23598.80 24810.80 188.70
3381 17.1507 23921.70 24762.20 190.55
3382 17.1545 23614.40 23473.30 189.38
3383 17.1582 24033.60 23450.60 191.05
3384 17.1620 23209.30 22815.20 187.26
3385 17.1657 23696.50 22805.00 188.91
3386 17.1695 23402.30 22794.50 188.37
3387 17.1733 23533.10 22784.20 187.81
3388 17.1770 23619.80 22774.10 189.06
3389 17.1808 23476.00 22763.80 187.99
3390 17.1845 23426.40 22753.80 185.43
3391 17.1883 23794.90 22743.60 190.26
3392 17.1920 23270.60 22733.70 186.60
3393 17.1958 23510.90 22723.60 187.49
3394 17.1995 23508.70 22713.80 188.02
3395 17.2033 23537.80 22703.70 187.80
3396 17.2071 22979.30 22693.70 186.04
3397 17.2108 23331.30 22684.00 188.22
3398 17.2144 23165.10 22674.60 185.29
3399 17.2181 23402.80 22664.90 187.21
3400 17.2219 23548.90 22655.00 186.15
3401 17.2256 23044.40 22645.40 185.81
3402 17.2294 23432.80 22635.60 187.31
3403 17.2332 23391.10 22625.80 187.58
3404 17.2369 22931.30 22616.30 185.13
3405 17.2407 23292.80 22606.50 186.80
3406 17.2444 23048.50 22597.00 186.45
3407 17.2482 23238.90 22587.30 186.80
3408 17.2519 23072.60 22577.90 185.87
3409 17.2557 22930.70 22568.20 185.01
3410 17.2594 22968.60 22558.80 185.30
3411 17.2632 23413.60 22549.20 187.07
3412 17.2669 22897.60 22539.90 184.31
3413 17.2707 22842.60 22530.30 185.51
3414 17.2745 22830.60 22520.70 182.99
3415 17.2782 23167.50 22511.40 184.05
3416 17.2820 22545.70 22501.90 183.65
3417 17.2857 22782.80 22492.70 184.69
3418 17.2895 22664.80 22483.20 183.18
3419 17.2932 22911.80 22473.90 184.89
3420 17.2970 22712.60 22464.50 184.38
3421 17.3007 22974.40 22455.30 182.97
3422 17.3045 22604.60 22445.90 183.58
3423 17.3082 22829.30 22422.70 183.85
3424 17.3120 22735.40 22413.60 183.33
3425 17.3158 22639.50 22404.50 184.24
3426 17.3195 22409.80 22395.60 182.77
3427 17.3233 22919.40 22386.50 184.27
3428 17.3270 22749.20 22377.70 183.97
3429 17.3308 22544.00 22368.60 184.15
3430 17.3345 22547.30 22359.80 182.46
3431 17.3383 22740.60 22350.70 184.26
3432 17.3420 22850.10 22341.90 185.64
3433 17.3458 22598.60 22332.80 183.59
3434 17.3496 22418.80 22323.80 182.76
3435 17.3533 23150.40 22315.00 186.84
3436 17.3571 22459.70 22306.00 182.93
3437 17.3608 22766.70 22297.20 185.19
3438 17.3646 22172.70 22288.20 182.13
3439 17.3683 22789.80 22279.40 184.47
3440 17.3721 22624.60 22270.40 184.01
3441 17.3758 22600.60 22261.70 183.97
3442 17.3796 22729.70 22252.70 185.20
3443 17.3834 22750.30 22243.70 185.12
3444 17.3871 22207.90 22235.00 181.99
3445 17.3909 22800.00 22226.00 185.15
3446 17.3946 22359.30 22217.30 184.09
3447 17.3984 22307.10 22208.40 182.90
3448 17.4021 22397.10 22199.70 183.54
3449 17.4059 22603.60 22190.80 183.58
3450 17.4096 22254.50 22182.10 182.09
3451 17.4134 22412.60 22173.20 181.77
3452 17.4171 22395.70 22164.50 183.19
3453 17.4209 22691.10 22155.60 184.32
3454 17.4247 22750.10 22146.70 185.29
3455 17.4284 22582.90 22138.10 182.18
3456 17.4322 22650.20 22129.20 184.89
3457 17.4359 22505.60 22120.60 184.03
3458 17.4397 22407.00 22111.80 183.28
3459 17.4434 22555.00 22103.10 184.15
3460 17.4472 22168.20 22094.30 181.88
3461 17.4509 22347.80 22085.70 182.91
3462 17.4547 22160.70 22076.90 182.05
3463 17.4585 22492.90 22068.10 183.80
3464 17.4622 22123.70 22059.50 182.07
3465 17.4660 22542.40 22050.70 183.57
3466 17.4697 22213.00 22042.20 182.04
3467 17.4735 22489.80 22033.40 182.50
3468 17.4772 22346.20 22024.90 183.58
3469 17.4810 22190.30 22016.10 183.35
3470 17.4847 22010.60 22007.60 181.53
3471 17.4885 22293.50 21998.80 182.52
3472 17.4923 21954.00 21990.10 181.70
3473 17.4960 22359.40 21981.60 182.72
3474 17.4998 21950.70 21972.90 180.56
3475 17.5035 22290.40 21964.40 182.75
3476 17.5073 22253.30 21955.70 183.49
3477 17.5110 22284.90 21947.20 183.45
3478 17.5148 22141.30 21938.50 182.27
3479 17.5186 22395.70 21929.90 184.66
3480 17.5223 22147.20 21921.40 182.35
3481 17.5261 22028.20 21912.80 181.32
3482 17.5298 22010.40 21904.30 181.56
3483 17.5336 22405.50 21895.70 183.19
3484 17.5373 22276.80 21887.30 183.30
3485 17.5411 22384.60 21878.60 183.01
3486 17.5448 21868.20 21870.30 181.43
3487 17.5486 22289.70 21861.60 183.29
3488 17.5524 21989.20 21853.00 181.49
3489 17.5561 21993.60 21844.70 181.26
3490 17.5599 21769.80 21836.10 179.84
3491 17.5636 22021.30 21827.70 182.28
3492 17.5674 21862.50 21819.20 180.51
3493 17.5711 22280.90 21810.80 183.18
3494 17.5749 21984.40 21802.30 181.91
3495 17.5786 21942.30 21793.90 180.88
3496 17.5824 21795.30 21785.40 179.88
3497 17.5862 22233.50 21776.90 181.21
3498 17.5899 21451.20 21768.60 178.76
3499 17.5937 22030.20 21760.10 181.90
3500 17.5974 21732.80 21751.80 180.37
3501 17.6012 22017.90 21743.30 182.41
3502 17.6049 21531.80 21735.00 179.57
3503 17.6087 22012.20 21726.50 181.47
3504 17.6125 21801.70 21718.10 181.25
3505 17.6162 22066.00 21709.80 181.91
3506 17.6200 21684.40 21701.40 180.63
3507 17.6237 22111.80 21693.10 182.65
3508 17.6275 21774.90 21684.70 180.27
3509 17.6312 21808.30 21676.50 181.37
3510 17.6350 21601.00 21668.10 180.68
3511 17.6388 21843.90 21659.60 179.59
3512 17.6425 21705.70 21651.50 179.98
3513 17.6463 21947.50 21643.10 181.56
3514 17.6500 21902.10 21634.90 181.54
3515 17.6538 21883.40 21626.50 181.33
3516 17.6575 21610.40 21618.40 179.94
3517 17.6613 21917.20 21610.00 181.93
3518 17.6650 21657.90 21601.90 179.75
3519 17.6688 22026.50 21593.50 181.44
3520 17.6726 21690.00 21585.20 180.46
3521 17.6763 21694.60 21577.00 179.02
3522 17.6801 21557.50 21568.70 178.34
3523 17.6838 21525.90 21560.60 177.99
3524 17.6876 21350.90 21552.30 177.59
3525 17.6913 21666.50 21544.20 178.72
3526 17.6951 21473.10 21536.00 177.96
3527 17.6989 21768.30 21527.70 178.49
3528 17.7026 21455.70 21519.60 177.29
3529 17.7064 21570.80 21511.30 178.31
3530 17.7101 21298.20 21503.30 177.28
3531 17.7139 22011.10 21495.10 180.98
3532 17.7176 21019.70 21487.00 175.76
3533 17.7214 21516.20 21478.80 177.25
3534 17.7252 21603.10 21470.60 178.39
3535 17.7289 21465.50 21462.60 178.00
3536 17.7327 21282.20 21454.40 176.19
3537 17.7364 21462.90 21446.40 178.16
3538 17.7402 21307.90 21438.20 177.72
3539 17.7439 21644.10 21430.20 178.21
3540 17.7477 21561.50 21422.10 178.06
3541 17.7515 21351.40 21413.90 177.38
3542 17.7552 21320.80 21405.90 177.06
3543 17.7590 21460.30 21397.80 178.50
3544 17.7627 21259.20 21389.90 176.73
3545 17.7665 21573.00 21381.70 177.40
3546 17.7702 21168.80 21373.80 176.60
3547 17.7740 21315.70 21365.70 177.70
3548 17.7778 21283.60 21357.60 176.94
3549 17.7815 21645.10 21349.70 178.30
3550 17.7853 21035.00 21341.60 173.89
3551 17.7890 21316.70 21333.80 176.62
3552 17.7928 21265.20 21325.70 177.46
3553 17.7965 21305.70 21317.80 177.25
3554 17.8003 21090.40 21309.80 174.39
3555 17.8041 21293.60 21301.70 177.62
3556 17.8078 21112.70 21293.90 177.20
3557 17.8116 20988.80 21285.90 175.56
3558 17.8153 21032.90 21278.10 175.67
3559 17.8191 21395.50 21270.00 177.81
3560 17.8228 21364.60 21262.20 177.16
3561 17.8266 21354.40 21254.20 175.77
3562 17.8304 21280.30 21246.30 176.91
3563 17.8341 21110.10 21238.50 177.12
3564 17.8379 21314.40 21230.50 177.36
3565 17.8416 20980.90 21222.80 176.24
3566 17.8454 21005.90 21214.80 175.43
3567 17.8491 21359.00 21207.10 176.84
3568 17.8529 21334.50 21199.10 175.38
3569 17.8567 21262.10 21191.20 177.52
3570 17.8604 21391.60 21183.50 178.11
3571 17.8642 21069.20 21175.60 175.75
3572 17.8679 21475.80 21167.90 178.10
3573 17.8717 21308.50 21160.00 177.82
3574 17.8754 20912.70 21152.30 176.09
3575 17.8792 21576.10 21144.40 178.60
3576 17.8830 20895.60 21136.50 175.45
3577 17.8867 21573.60 21128.90 178.99
3578 17.8905 20863.20 21121.00 175.30
3579 17.8942 21245.20 21113.40 174.71
3580 17.8980 21073.50 21105.50 176.60
3581 17.9017 21274.60 21097.90 177.67
3582 17.9055 21245.30 21090.10 177.21
3583 17.9093 21240.90 21082.30 176.57
3584 17.9130 21172.70 21074.70 176.94
3585 17.9168 21158.80 21066.90 176.61
3586 17.9205 21112.30 21059.30 177.20
3587 17.9243 20931.50 21051.50 175.70
3588 17.9280 20973.00 21043.90 175.54
3589 17.9318 21346.10 21036.20 178.27
3590 17.9356 21049.40 21028.40 176.80
3591 17.9393 21358.80 21020.90 177.28
3592 17.9431 20673.10 21013.10 173.85
3593 17.9468 21080.70 21005.60 177.15
3594 17.9506 21101.40 20997.90 176.67
3595 17.9544 21344.00 20990.20 177.02
3596 17.9581 20939.90 20982.70 176.32
3597 17.9619 21313.40 20975.00 178.10
3598 17.9656 20995.60 20967.50 175.38
3599 17.9694 21540.80 20959.80 178.68
3600 17.9731 21004.40 20952.40 175.29
3601 17.9769 21300.10 20944.70 178.62
3602 17.9807 20934.40 20937.00 176.02
3603 17.9844 21227.90 20929.60 177.73
3604 17.9882 20977.70 20922.00 176.15
3605 17.9919 21091.10 20914.50 176.89
3606 17.9957 20902.20 20906.90 175.63
3607 17.9994 20962.20 20899.50 176.27
3608 18.0032 20713.90 20891.90 175.83
3609 18.0070 21557.90 20884.30 179.69
3610 18.0107 20684.40 20876.90 175.21
3611 18.0145 20648.90 20869.30 174.83
3612 18.0182 21092.40 20862.00 176.11
3613 18.0220 21031.40 20854.40 176.04
3614 18.0258 20577.10 20846.80 173.92
3615 18.0295 21077.60 20839.50 177.22
3616 18.0333 21219.90 20832.00 177.81
3617 18.0370 20985.60 20824.60 176.50
3618 18.0408 21246.60 20817.10 178.27
3619 18.0445 20944.20 20809.80 176.90
3620 18.0483 21094.30 20802.30 177.41
3621 18.0521 21104.60 20794.80 175.64
3622 18.0558 20983.90 20787.50 175.26
3623 18.0596 21057.30 20780.00 176.70
3624 18.0633 20825.10 20772.80 176.27
3625 18.0671 21059.60 20765.30 176.92
3626 18.0709 20811.60 20757.90 175.63
3627 18.0746 21119.00 20750.60 177.08
3628 18.0784 21043.30 20743.20 176.40
3629 18.0821 21122.90 20735.90 177.57
3630 18.0859 20657.30 20728.50 174.27
3631 18.0896 21248.80 20721.30 178.08
3632 18.0934 20863.00 20713.90 176.60
3633 18.0972 21408.40 20706.50 177.96
3634 18.1009 21003.40 20699.30 176.45
3635 18.1047 21314.20 20691.90 178.25
3636 18.1084 20947.40 20684.80 176.60
3637 18.1122 21708.20 20677.40 180.76
3638 18.1160 21274.20 20670.10 177.51
3639 18.1197 21837.40 20662.90 181.82
3640 18.1235 21417.10 20655.60 178.32
3641 18.1272 21508.20 20648.40 178.39
3642 18.1310 21307.80 20641.10 178.18
3643 18.1347 21577.90 20634.00 180.16
3644 18.1385 21323.20 20626.70 178.58
3645 18.1423 20837.80 20619.40 176.07
3646 18.1460 20702.40 20612.30 175.00
3647 18.1498 21464.50 20605.10 179.12
3648 18.1535 20869.10 20598.00 176.90
3649 18.1573 21065.50 20590.70 177.40
3650 18.1611 20694.10 20583.50 173.91
3651 18.1648 20868.00 20576.40 175.94
3652 18.1686 20624.50 20569.20 174.01
3653 18.1723 20492.50 20562.20 173.93
3654 18.1761 20895.20 20554.90 175.46
3655 18.1798 21091.30 20547.90 174.99
3656 18.1836 20771.40 20540.70 175.07
3657 18.1874 20625.80 20533.50 173.14
3658 18.1911 20526.00 20526.50 174.00
3659 18.1949 20821.50 20519.40 175.26
3660 18.1986 20547.50 20512.40 174.01
3661 18.2024 20454.80 20505.20 173.64
3662 18.2062 20755.30 20498.10 175.42
3663 18.2099 20438.90 20491.10 173.36
3664 18.2137 20422.70 20484.00 173.81
3665 18.2174 20693.20 20477.10 174.38
3666 18.2212 20473.90 20469.90 173.73
3667 18.2250 20368.40 20462.80 172.60
3668 18.2287 20326.40 20455.90 173.26
3669 18.2325 20702.20 20448.80 174.10
3670 18.2362 20619.60 20441.90 174.62
3671 18.2400 20677.20 20434.90 173.63
3672 18.2437 20462.30 20428.00 171.58
3673 18.2475 20751.30 20420.90 174.19
3674 18.2513 20704.90 20413.90 174.37
3675 18.2550 20718.60 20407.00 174.50
3676 18.2588 20417.90 20400.00 173.04
3677 18.2625 20360.10 20393.20 172.79
3678 18.2663 20417.90 20386.10 172.56
3679 18.2701 20780.20 20379.10 175.33
3680 18.2738 20467.80 20372.30 173.89
3681 18.2776 20690.60 20365.30 172.72
3682 18.2813 20420.90 20358.50 171.13
3683 18.2851 20726.40 20351.60 174.96
3684 18.2889 20128.10 20344.60 171.61
3685 18.2926 20728.60 20337.80 175.06
3686 18.2964 20239.70 20330.90 171.32
3687 18.3001 20349.90 20324.10 172.41
3688 18.3039 20245.70 20317.20 171.73
3689 18.3076 20397.80 20310.40 171.32
3690 18.3114 20118.20 20303.50 171.90
3691 18.3152 20538.30 20296.60 173.33
3692 18.3189 20522.20 20289.90 173.21
3693 18.3227 20603.40 20283.00 173.88
3694 18.3264 20553.60 20276.30 172.81
3695 18.3302 20389.00 20269.50 173.05
3696 18.3340 20222.00 20262.60 172.65
3697 18.3377 20634.20 20255.90 173.98
3698 18.3415 20521.20 20249.10 173.16
3699 18.3452 20657.00 20242.40 174.24
3700 18.3490 20252.50 20235.60 171.88
3701 18.3528 20486.40 20228.80 172.94
3702 18.3565 20334.30 20222.10 172.61
3703 18.3603 20488.30 20215.30 172.71
3704 18.3640 20362.00 20208.70 170.83
3705 18.3678 20278.20 20201.90 171.29
3706 18.3715 20264.50 20195.30 172.43
3707 18.3753 20487.50 20188.50 173.81
3708 18.3791 20146.80 20181.80 168.83
3709 18.3828 20379.10 20175.20 173.04
3710 18.3866 19822.80 20168.50 169.99
3711 18.3903 20691.90 20161.90 174.04
3712 18.3941 20056.20 20155.20 170.29
3713 18.3979 20141.90 20148.40 171.43
3714 18.4016 20335.90 20141.90 171.75
3715 18.4054 20670.70 20135.20 173.98
3716 18.4091 20105.50 20128.70 171.28
3717 18.4129 20100.40 20122.00 170.45
3718 18.4167 19944.60 20115.30 170.21
3719 18.4204 20202.30 20108.80 172.63
3720 18.4242 20239.00 20102.20 172.12
3721 18.4279 20434.50 20095.70 173.48
3722 18.4317 20120.70 20089.00 171.65
3723 18.4355 20088.90 20082.40 170.34
3724 18.4392 20189.20 20075.90 172.10
3725 18.4430 20283.60 20069.30 172.83
3726 18.4467 20005.90 20062.90 171.30
3727 18.4505 20358.60 20056.30 173.11
3728 18.4543 20029.90 20049.70 169.22
3729 18.4580 20400.70 20043.30 173.60
3730 18.4618 20137.50 20036.70 172.24
3731 18.4655 20393.20 20030.30 172.66
3732 18.4693 20132.80 20023.70 171.87
3733 18.4731 20404.60 20017.20 172.65
3734 18.4768 19996.60 20010.80 171.89
3735 18.4806 20133.60 20004.20 171.30
3736 18.4843 19879.50 19997.90 170.40
3737 18.4881 20050.70 19991.40 171.59
3738 18.4918 19918.30 19985.00 171.25
3739 18.4956 20050.80 19978.50 172.16
3740 18.4994 20048.10 19972.00 171.33
3741 18.5031 20149.30 19965.70 171.65
3742 18.5069 20016.60 19959.20 170.62
3743 18.5106 20093.80 19952.90 171.74
3744 18.5144 19872.00 19946.50 170.46
3745 18.5182 20352.30 19940.00 173.31
3746 18.5219 19815.70 19933.70 170.38
3747 18.5257 20228.00 19927.30 171.08
3748 18.5294 20046.90 19921.00 171.99
3749 18.5332 20041.90 19914.60 171.75
3750 18.5370 19999.40 19908.20 171.17
3751 18.5407 20102.50 19901.90 171.89
3752 18.5445 19801.10 19895.50 170.09
3753 18.5482 20240.40 19889.30 173.10
3754 18.5520 20007.30 19882.90 170.21
3755 18.5558 20121.80 19876.60 169.83
3756 18.5595 19910.50 19870.40 170.51
3757 18.5633 19767.40 19864.00 170.22
3758 18.5670 19807.70 19857.80 170.38
3759 18.5708 20145.10 19851.50 172.14
3760 18.5746 19668.20 19845.20 169.96
3761 18.5783 20130.80 19839.00 172.60
3762 18.5821 19825.70 19832.70 169.82
3763 18.5858 20168.80 19826.60 172.52
3764 18.5896 19739.80 19820.30 169.12
3765 18.5934 19825.00 19814.00 169.67
3766 18.5971 19965.70 19807.80 170.99
3767 18.6009 20333.50 19801.60 172.89
3768 18.6046 19934.10 19795.50 170.49
3769 18.6084 19889.90 19789.20 170.05
3770 18.6122 19922.30 19783.00 170.11
3771 18.6159 19953.10 19776.90 170.67
3772 18.6197 19640.90 19770.70 169.10
3773 18.6234 20095.30 19764.60 171.21
3774 18.6272 19776.80 19758.40 169.29
3775 18.6310 19870.80 19752.20 170.08
3776 18.6347 19608.40 19746.10 170.57
3777 18.6385 20111.90 19739.90 170.55
3778 18.6422 19666.90 19733.90 168.87
3779 18.6460 19971.20 19727.70 170.48
3780 18.6498 19746.50 19721.60 168.75
3781 18.6535 19613.40 19715.60 165.96
3782 18.6573 19725.10 19709.40 168.50
3783 18.6610 20127.10 19703.40 170.75
3784 18.6648 19737.30 19697.30 169.80
3785 18.6686 19663.70 19691.20 168.77
3786 18.6723 19753.20 19685.20 168.89
3787 18.6761 19913.20 19679.10 169.26
3788 18.6798 20090.50 19673.20 171.11
3789 18.6836 20180.90 19667.10 169.90
3790 18.6874 19668.50 19661.00 169.37
3791 18.6911 20160.60 19655.10 170.62
3792 18.6949 19710.10 19649.00 168.28
3793 18.6986 19988.70 19643.10 170.29
3794 18.7024 19491.40 19637.10 167.60
3795 18.7062 20030.30 19631.00 170.42
3796 18.7099 19796.00 19625.10 168.97
3797 18.7137 20039.10 19619.10 171.08
3798 18.7174 19811.10 19613.20 169.68
3799 18.7212 19790.70 19607.20 168.66
3800 18.7250 19691.60 19601.20 169.29
3801 18.7287 19940.90 19595.40 170.27
3802 18.7325 19835.90 19589.40 169.16
3803 18.7362 19855.80 19583.60 168.12
3804 18.7400 19818.90 19577.60 168.29
3805 18.7438 19885.50 19571.60 168.16
3806 18.7475 19828.90 19565.80 168.88
3807 18.7513 20120.20 19559.90 171.09
3808 18.7550 19985.30 19554.10 170.16
3809 18.7588 20114.80 19548.20 171.23
3810 18.7626 19622.50 19542.30 168.47
3811 18.7663 19947.40 19536.50 170.02
3812 18.7701 19869.70 19530.60 169.96
3813 18.7738 20016.00 19524.80 170.43
3814 18.7776 19659.80 19519.00 167.12
3815 18.7814 20088.10 19513.10 170.33
3816 18.7851 19738.60 19507.40 168.71
3817 18.7889 19706.20 19501.50 169.60
3818 18.7926 19717.00 19495.80 169.13
3819 18.7964 19600.20 19489.90 167.08
3820 18.8002 19463.90 19484.10 167.45
3821 18.8039 19703.30 19478.40 167.21
3822 18.8077 19362.60 19472.60 167.39
3823 18.8114 20026.50 19466.90 170.73
3824 18.8152 19483.20 19461.10 167.78
3825 18.8190 19764.60 19455.30 169.26
3826 18.8227 19337.40 19449.70 166.84
3827 18.8265 19890.40 19443.90 170.25
3828 18.8302 19196.50 19438.20 165.44
3829 18.8340 19322.70 19432.50 167.43
3830 18.8378 19168.10 19426.70 166.07
3831 18.8415 19199.20 19421.10 166.48
3832 18.8453 19413.60 19415.40 167.90
3833 18.8490 19424.50 19409.80 167.58
3834 18.8528 19436.90 19404.00 167.68
3835 18.8566 19849.20 19398.30 169.29
3836 18.8603 19125.80 19392.80 165.71
3837 18.8641 19705.50 19387.10 168.47
3838 18.8678 19534.00 19381.50 168.74
3839 18.8716 19740.00 19375.80 169.75
3840 18.8754 19199.90 19370.10 166.43
3841 18.8791 19634.90 19364.60 168.99
3842 18.8829 19406.00 19358.90 167.73
3843 18.8866 19797.30 19353.40 169.53
3844 18.8904 19601.70 19347.80 168.88
3845 18.8942 19624.70 19342.10 167.65
3846 18.8979 19323.10 19336.70 167.71
3847 18.9017 19633.60 19331.00 169.13
3848 18.9054 19272.90 19325.60 167.34
3849 18.9092 19400.50 19319.90 167.95
3850 18.9130 19380.10 19314.30 166.78
3851 18.9167 19746.50 19308.90 169.64
3852 18.9205 19402.20 19303.30 167.73
3853 18.9242 19696.40 19297.90 168.80
3854 18.9280 19291.30 19292.30 167.64
3855 18.9318 19718.10 19286.70 167.80
3856 18.9355 19267.90 19281.30 167.41
3857 18.9393 19488.20 19275.80 167.91
3858 18.9430 19240.00 19270.40 167.37
3859 18.9468 19480.20 19264.90 168.11
3860 18.9506 19330.60 19259.30 167.93
3861 18.9543 19612.40 19254.00 169.44
3862 18.9581 19240.20 19248.50 167.40
3863 18.9618 19496.30 19243.10 168.55
3864 18.9656 19548.70 19237.60 168.77
3865 18.9694 19420.60 19232.10 168.04
3866 18.9731 19171.20 19226.80 166.91
3867 18.9769 19601.80 19221.30 168.96
3868 18.9807 19377.50 19215.90 167.70
3869 18.9844 19521.10 19210.50 168.03
3870 18.9882 19379.00 19205.10 168.30
3871 18.9919 19760.70 19199.80 169.52
3872 18.9957 19285.90 19194.40 167.55
3873 18.9995 19425.00 19189.00 168.08
3874 19.0032 19301.50 19183.70 167.50
3875 19.0070 19474.60 19178.30 168.21
3876 19.0107 19325.70 19173.00 167.81
3877 19.0145 19640.70 19167.60 169.41
3878 19.0183 18956.90 19162.20 166.29
3879 19.0220 19457.50 19157.00 168.81
3880 19.0258 19265.30 19151.70 167.37
3881 19.0295 19619.70 19146.40 167.50
3882 19.0333 19090.10 19141.10 166.76
3883 19.0371 19581.10 19135.70 169.54
3884 19.0408 18963.30 19130.50 166.62
3885 19.0446 19386.10 19125.20 168.19
3886 19.0483 19144.70 19120.00 166.50
3887 19.0521 19562.30 19114.70 168.52
3888 19.0559 19369.30 19109.40 167.47
3889 19.0596 19849.90 19104.30 170.67
3890 19.0634 19292.00 19099.00 168.22
3891 19.0671 19701.80 19093.80 169.96
3892 19.0709 19176.30 19088.60 167.02
3893 19.0747 19423.00 19083.30 169.29
3894 19.0784 19176.60 19078.20 166.57
3895 19.0822 19287.80 19072.90 167.68
3896 19.0859 19348.50 19067.80 168.13
3897 19.0897 19363.90 19062.60 168.39
3898 19.0935 19282.20 19057.30 167.67
3899 19.0972 19249.90 19052.30 167.70
3900 19.1010 19263.40 19047.10 167.56
3901 19.1047 19439.60 19042.00 168.76
3902 19.1085 18972.60 19036.80 166.38
3903 19.1123 19480.30 19031.60 168.99
3904 19.1160 19398.20 19026.60 169.92
3905 19.1198 19353.20 19021.40 167.63
3906 19.1236 19080.10 19016.20 167.02
3907 19.1273 19819.50 19011.20 170.96
3908 19.1311 19096.20 19006.00 166.00
3909 19.1348 19285.40 19001.00 164.98
3910 19.1386 19239.90 18995.90 167.44
3911 19.1424 19578.80 18990.80 169.31
3912 19.1461 19248.60 18985.80 167.53
3913 19.1499 19321.40 18980.70 167.27
3914 19.1536 19276.10 18975.70 166.87
3915 19.1574 19192.40 18970.60 166.51
3916 19.1612 19419.10 18965.50 165.65
3917 19.1649 19364.80 18960.60 167.74
3918 19.1687 19140.80 18955.50 167.52
3919 19.1724 19380.70 18950.60 167.86
3920 19.1762 19012.40 18945.50 166.38
3921 19.1800 18927.40 18940.50 165.13
3922 19.1837 19046.70 18935.50 166.47
3923 19.1875 19333.10 18930.50 165.77
3924 19.1912 18961.80 18925.60 166.28
3925 19.1950 19312.50 18920.60 167.63
3926 19.1988 18897.20 18915.60 166.10
3927 19.2025 19277.30 18910.70 167.80
3928 19.2063 19156.70 18905.70 166.82
3929 19.2100 19141.60 18900.90 166.60
3930 19.2138 19079.40 18895.90 166.98
3931 19.2176 19390.20 18890.90 168.31
3932 19.2213 19045.60 18886.10 165.64
3933 19.2251 19219.50 18881.10 165.99
3934 19.2289 19101.00 18876.10 166.06
3935 19.2326 19373.70 18871.30 167.98
3936 19.2364 19146.10 18866.40 167.24
3937 19.2401 19208.00 18861.60 167.28
3938 19.2439 19035.80 18856.70 165.45
3939 19.2477 19506.20 18851.70 168.65
3940 19.2514 18934.80 18847.00 165.70
3941 19.2552 19283.70 18842.10 166.71
3942 19.2589 19142.30 18837.30 166.43
3943 19.2627 19133.10 18832.40 167.02
3944 19.2665 18964.70 18827.50 166.06
3945 19.2702 19410.70 18822.80 167.82
3946 19.2740 18826.10 18817.90 165.20
3947 19.2777 19151.20 18813.20 167.35
3948 19.2815 19003.50 18808.40 164.37
3949 19.2853 19088.60 18803.50 166.72
3950 19.2890 18664.00 18798.80 164.47
3951 19.2928 19173.80 18796.60 166.71
3952 19.2965 18881.70 18792.00 165.13
3953 19.3003 19400.40 18787.20 168.87
3954 19.3041 19160.50 18782.50 167.62
3955 19.3078 18994.60 18777.80 166.63
3956 19.3116 18706.90 18773.10 163.31
3957 19.3153 18843.40 18768.50 165.37
3958 19.3191 18968.40 18763.80 166.37
3959 19.3229 19224.10 18759.10 167.26
3960 19.3266 18890.80 18754.50 166.02
3961 19.3304 19022.60 18749.80 166.35
3962 19.3342 19124.20 18745.20 167.50
3963 19.3379 18871.00 18740.60 165.30
3964 19.3417 18842.90 18735.90 166.46
3965 19.3454 19331.80 18731.40 168.72
3966 19.3492 18814.10 18726.80 164.76
3967 19.3530 19314.00 18722.20 168.04
3968 19.3567 19041.90 18717.70 166.37
3969 19.3605 19424.00 18713.00 166.92
3970 19.3642 18910.10 18708.60 165.63
3971 19.3680 19099.30 18704.00 166.28
3972 19.3718 18893.00 18699.40 165.36
3973 19.3755 18963.30 18695.00 166.27
3974 19.3793 18886.00 18690.40 164.77
3975 19.3830 19186.20 18686.00 166.41
3976 19.3868 18658.50 18681.40 164.76
3977 19.3906 19182.20 18676.90 166.22
3978 19.3943 18931.90 18672.50 165.85
3979 19.3981 19273.70 18668.00 167.49
3980 19.4018 19042.20 18663.60 166.92
3981 19.4056 18823.50 18659.20 165.33
3982 19.4094 18774.90 18654.70 165.70
3983 19.4131 19037.70 18650.40 166.78
3984 19.4169 18845.80 18645.90 163.84
3985 19.4207 19262.20 18641.50 166.48
3986 19.4244 18684.20 18637.20 163.99
3987 19.4282 19248.80 18632.80 167.52
3988 19.4319 18596.00 18628.50 163.82
3989 19.4357 19084.00 18624.20 165.99
3990 19.4395 18815.00 18619.80 165.00
3991 19.4432 19207.90 18615.60 167.44
3992 19.4470 18825.30 18611.20 165.87
3993 19.4507 19161.40 18607.00 168.15
3994 19.4545 18854.30 18602.80 163.51
3995 19.4583 18920.80 18598.50 165.59
3996 19.4620 18664.80 18594.30 164.21
3997 19.4658 19259.80 18590.10 168.02
3998 19.4695 18634.70 18586.00 164.38
3999 19.4733 19098.50 18581.80 165.55
4000 19.4771 18845.50 18577.60 165.44
4001 19.4808 19137.90 18573.60 168.02
4002 19.4846 18785.30 18569.40 165.17
4003 19.4883 19313.10 18565.40 167.93
4004 19.4921 18531.00 18561.40 164.71
4005 19.4959 18790.60 18557.30 164.28
4006 19.4996 19018.40 18553.40 165.19
4007 19.5034 19322.10 18549.40 167.43
4008 19.5072 18893.20 18545.40 164.74
4009 19.5109 19067.10 18541.60 166.61
4010 19.5147 18939.50 18537.70 166.73
4011 19.5184 19249.70 18534.00 168.03
4012 19.5222 18942.30 18530.10 165.43
4013 19.5260 19138.10 18526.40 166.79
4014 19.5297 19172.90 18522.80 168.10
4015 19.5335 19027.50 18519.10 166.89
4016 19.5372 19123.00 18515.60 167.72
4017 19.5410 19211.50 18512.00 168.59
4018 19.5448 19023.00 18508.50 167.15
4019 19.5485 19284.10 18505.20 168.35
4020 19.5523 19011.70 18501.90 166.58
4021 19.5560 19362.60 18498.70 168.45
4022 19.5598 18764.90 18495.50 165.83
4023 19.5636 19017.80 18492.50 166.34
4024 19.5673 18847.00 18489.60 165.41
4025 19.5711 19390.40 18486.80 167.98
4026 19.5748 19266.80 18484.20 167.34
4027 19.5786 19063.60 18481.70 167.54
4028 19.5824 19005.00 18479.30 166.70
4029 19.5861 19476.70 18477.20 169.77
4030 19.5899 18934.00 18475.30 164.40
4031 19.5937 19141.20 18473.70 167.48
4032 19.5974 19105.30 18472.30 169.01
4033 19.6012 19381.00 18471.30 169.67
4034 19.6049 19151.20 18470.70 167.74
4035 19.6087 19359.60 18470.50 168.44
4036 19.6125 18820.60 18470.80 164.51
4037 19.6162 19363.30 18471.80 169.01
4038 19.6200 19384.50 18473.50 168.68
4039 19.6237 19703.60 18476.00 169.71
4040 19.6275 19300.50 18479.60 168.90
4041 19.6313 19663.70 18484.50 169.93
4042 19.6350 19659.50 18490.90 168.44
4043 19.6388 19458.50 18499.30 167.12
4044 19.6425 19779.70 18509.90 169.29
4045 19.6463 19944.50 18523.80 171.21
4046 19.6501 19746.70 18541.90 170.13
4047 19.6538 19947.10 18565.00 172.12
4048 19.6576 19746.80 18597.00 170.61
4049 19.6614 20554.40 18643.40 174.51
4050 19.6651 20285.90 18714.70 171.86
4051 19.6689 20628.00 18840.80 174.97
4052 19.6726 20773.00 19060.40 176.15
4053 19.6764 21234.60 19456.20 178.79
4054 19.6802 21007.90 20109.70 176.97
4055 19.6839 21965.30 21050.40 181.17
4056 19.6877 21784.90 22312.30 180.76
4057 19.6914 22463.70 23678.70 183.50
4058 19.6952 22275.90 24886.00 179.58
4059 19.6990 22933.50 25411.40 184.29
4060 19.7027 22615.10 24989.90 184.00
4061 19.7065 22594.10 23831.50 184.59
4062 19.7102 22340.40 22459.10 182.62
4063 19.7140 22742.60 21160.20 184.49
4064 19.7178 21983.00 20149.50 181.21
4065 19.7215 21724.70 19473.70 179.74
4066 19.7253 21254.10 19042.60 177.91
4067 19.7290 21401.10 18798.60 178.70
4068 19.7328 20982.10 18654.90 174.96
4069 19.7366 20725.00 18569.20 174.66
4070 19.7403 20225.40 18514.00 172.52
4071 19.7441 20151.00 18472.50 171.96
4072 19.7479 19882.80 18440.00 170.76
4073 19.7516 19992.80 18414.00 172.44
4074 19.7554 19588.50 18391.50 169.53
4075 19.7591 19712.60 18372.60 169.08
4076 19.7629 19597.40 18355.80 168.61
4077 19.7667 19495.70 18341.00 168.62
4078 19.7704 19087.90 18328.20 165.62
4079 19.7742 19370.50 18316.30 168.61
4080 19.7779 19202.40 18305.80 166.31
4081 19.7817 19305.80 18295.80 167.46
4082 19.7855 18875.10 18286.70 165.59
4083 19.7892 19102.80 18278.40 164.87
4084 19.7930 18961.70 18270.40 164.48
4085 19.7967 19049.80 18263.10 165.67
4086 19.8005 18876.30 18255.90 163.43
4087 19.8043 18955.30 18249.20 163.81
4088 19.8080 18507.20 18242.80 163.69
4089 19.8118 18842.70 18236.60 165.71
4090 19.8155 18655.40 18230.80 163.64
4091 19.8193 18833.10 18225.00 165.16
4092 19.8231 18698.30 18219.40 164.32
4093 19.8268 18640.70 18214.00 163.80
4094 19.8306 18943.50 18208.70 166.70
4095 19.8343 18752.60 18203.70 164.10
4096 19.8381 18484.90 18198.60 163.37
4097 19.8419 18769.20 18193.60 163.45
4098 19.8456 18506.80 18188.90 164.23
4099 19.8494 18501.60 18184.10 163.89
4100 19.8532 18395.60 18179.40 163.57
4101 19.8569 18709.10 18174.90 163.75
4102 19.8607 18377.20 18170.30 162.88
4103 19.8644 18820.20 18165.90 164.58
4104 19.8682 18237.50 18161.40 162.76
4105 19.8720 18483.60 18157.00 162.88
4106 19.8757 18558.50 18152.80 162.00
4107 19.8795 18583.10 18148.50 164.24
4108 19.8832 18274.00 18144.30 162.27
4109 19.8870 18219.60 18140.10 162.22
4110 19.8908 18337.70 18135.90 163.43
4111 19.8945 18384.20 18131.80 163.23
4112 19.8983 18276.10 18127.70 162.87
4113 19.9020 18564.70 18123.70 164.55
4114 19.9058 18152.30 18119.60 162.35
4115 19.9096 18402.30 18115.50 163.85
4116 19.9133 18207.00 18111.60 161.92
4117 19.9171 18440.10 18107.60 163.83
4118 19.9208 18120.30 18103.70 162.26
4119 19.9246 18209.10 18099.80 163.08
4120 19.9284 18123.80 18095.80 161.88
4121 19.9321 18111.80 18092.00 162.62
4122 19.9359 18323.30 18088.10 163.13
4123 19.9397 18523.90 18084.20 163.80
4124 19.9434 18068.70 18080.50 162.18
4125 19.9472 18630.00 18076.60 163.90
4126 19.9509 17984.50 18072.90 161.39
4127 19.9547 18363.80 18069.10 163.54
4128 19.9585 18220.30 18065.30 162.51
4129 19.9622 18373.90 18061.60 163.80
4130 19.9660 18219.80 18057.80 161.08
4131 19.9697 18248.70 18054.20 161.26
4132 19.9735 18006.40 18050.40 160.14
4133 19.9773 18364.70 18046.70 163.31
4134 19.9810 17924.90 18043.10 161.48
4135 19.9848 18211.20 18039.30 163.22
4136 19.9885 18123.50 18035.70 162.32
4137 19.9923 18514.20 18032.10 163.58
4138 19.9961 17724.40 18028.40 160.11
4139 19.9998 18157.10 18024.80 162.00
4140 20.0036 18250.20 18021.20 161.55
4141 20.0073 18375.70 18017.60 163.36
4142 20.0111 17833.90 18014.00 161.42
4143 20.0149 18261.10 18010.40 163.44
4144 20.0186 17942.70 18006.80 160.90
4145 20.0224 18190.10 18003.20 162.39
4146 20.0261 18378.10 17999.70 162.15
4147 20.0299 18355.10 17996.20 163.54
4148 20.0337 17923.90 17992.60 161.01
4149 20.0374 18106.80 17989.10 163.04
4150 20.0412 18029.90 17985.60 161.55
4151 20.0450 18126.10 17982.00 162.30
4152 20.0487 17959.90 17978.60 160.52
4153 20.0525 18361.50 17975.00 162.81
4154 20.0562 17893.50 17971.60 161.39
4155 20.0600 18228.30 17968.10 163.10
4156 20.0638 17936.00 17964.60 160.02
4157 20.0675 18118.10 17961.20 162.03
4158 20.0713 17869.80 17957.70 160.26
4159 20.0750 18061.70 17954.30 162.60
4160 20.0788 17720.00 17950.80 160.89
4161 20.0826 18160.10 17947.40 162.80
4162 20.0863 18149.50 17944.00 161.48
4163 20.0901 18133.40 17940.50 161.84
4164 20.0938 17936.00 17937.20 160.72
4165 20.0976 18053.00 17933.80 161.54
4166 20.1014 17686.50 17930.30 159.01
4167 20.1051 18073.00 17927.00 162.18
4168 20.1089 17919.10 17921.00 161.40
4169 20.1126 18116.10 17917.70 162.41
4170 20.1164 17771.10 17914.40 159.88
4171 20.1202 18083.70 17911.00 162.02
4172 20.1239 17694.00 17907.80 158.85
4173 20.1277 18421.50 17904.40 163.13
4174 20.1314 17972.50 17901.20 159.99
4175 20.1352 17891.80 17897.90 159.25
4176 20.1390 17826.00 17894.60 158.85
4177 20.1427 18020.10 17891.30 161.75
4178 20.1465 17937.30 17888.00 161.18
4179 20.1502 18198.70 17884.80 162.70
4180 20.1540 17621.40 17881.50 158.92
4181 20.1578 17889.30 17878.20 160.02
4182 20.1615 17868.20 17875.00 160.77
4183 20.1653 17834.00 17871.80 159.60
4184 20.1691 17701.80 17913.80 159.26
4185 20.1728 18083.30 17911.40 160.93
4186 20.1766 17923.00 17909.00 160.63
4187 20.1803 17906.70 17906.70 160.30
4188 20.1841 17713.40 17904.40 160.40
4189 20.1879 18022.30 17902.10 161.23
4190 20.1916 17695.60 17899.90 159.22
4191 20.1954 17888.90 17897.70 160.50
4192 20.1991 17772.70 17895.50 157.43
4193 20.2029 17886.40 17893.40 160.28
4194 20.2067 17698.40 17891.30 158.15
4195 20.2104 17874.40 17889.20 160.72
4196 20.2142 17567.30 17887.20 159.02
4197 20.2179 18012.80 17885.30 160.89
4198 20.2217 17655.00 17883.30 159.42
4199 20.2255 18045.80 17881.40 161.37
4200 20.2292 17770.90 17879.60 159.65
4201 20.2330 17932.20 17877.80 160.61
4202 20.2367 17596.50 17876.10 158.73
4203 20.2405 17782.80 17874.40 160.23
4204 20.2443 17561.00 17872.70 158.11
4205 20.2480 17970.80 17871.10 160.16
4206 20.2518 17716.20 17869.60 159.60
4207 20.2555 18063.00 17868.20 161.59
4208 20.2593 17589.30 17866.80 158.96
4209 20.2631 17772.00 17865.40 160.08
4210 20.2668 17710.50 17864.20 159.51
4211 20.2706 17870.70 17863.00 160.51
4212 20.2743 17423.00 17861.90 158.66
4213 20.2781 17610.30 17860.80 157.77
4214 20.2819 17470.80 17859.80 158.23
4215 20.2856 17857.30 17859.00 160.04
4216 20.2894 17488.40 17858.20 157.52
4217 20.2931 17873.30 17857.50 159.96
4218 20.2969 17463.60 17858.00 158.35
4219 20.3007 17930.90 17857.50 160.36
4220 20.3044 17462.40 17857.20 157.36
4221 20.3082 17978.40 17856.90 161.35
4222 20.3119 17422.10 17856.80 157.67
4223 20.3157 17720.50 17856.80 159.70
4224 20.3195 17310.10 17857.00 157.77
4225 20.3232 17638.70 17857.30 159.14
4226 20.3270 17708.30 17857.70 158.74
4227 20.3307 17683.00 17858.30 160.24
4228 20.3345 17734.10 17859.10 160.41
4229 20.3383 17707.30 17860.10 159.81
4230 20.3420 17469.80 17861.20 157.91
4231 20.3458 17742.50 17862.60 159.65
4232 20.3496 17434.40 17864.20 158.19
4233 20.3533 17759.90 17866.00 160.17
4234 20.3571 17423.60 17868.10 158.08
4235 20.3608 17614.20 17870.30 158.59
4236 20.3646 17684.10 17873.00 158.97
4237 20.3684 17795.10 17875.90 160.12
4238 20.3721 17618.40 17879.00 159.31
4239 20.3759 17691.30 17882.60 157.96
4240 20.3796 17755.30 17886.50 159.29
4241 20.3834 17646.60 17890.90 159.33
4242 20.3872 17522.30 17895.70 159.24
4243 20.3909 17810.00 17900.80 160.36
4244 20.3947 17701.90 17906.60 159.41
4245 20.3984 18131.40 17912.70 160.84
4246 20.4022 17547.30 17919.60 158.37
4247 20.4060 17850.00 17927.10 158.27
4248 20.4097 17416.80 17935.20 158.45
4249 20.4135 17961.20 17944.10 159.62
4250 20.4172 17522.50 17953.70 159.40
4251 20.4210 17791.60 17964.40 160.06
4252 20.4248 17568.70 17976.10 159.03
4253 20.4285 17867.20 17988.60 160.54
4254 20.4323 17759.30 18002.50 159.46
4255 20.4360 17881.50 18017.40 160.52
4256 20.4398 17418.60 18034.20 157.43
4257 20.4436 18018.40 18052.50 161.92
4258 20.4473 17572.10 18072.20 158.51
4259 20.4511 18048.50 18094.30 162.04
4260 20.4548 17913.60 18118.10 159.67
4261 20.4586 18251.50 18145.00 161.24
4262 20.4624 17885.00 18174.70 159.56
4263 20.4661 18225.20 18206.80 163.32
4264 20.4699 17995.10 18243.30 161.71
4265 20.4736 18568.10 18282.90 164.08
4266 20.4774 18190.30 18328.20 162.70
4267 20.4812 18303.90 18379.10 163.71
4268 20.4849 18169.20 18434.60 162.48
4269 20.4887 18398.00 18498.90 163.48
4270 20.4924 18015.10 18569.70 161.94
4271 20.4962 18734.80 18652.40 165.14
4272 20.5000 18070.20 18746.80 161.42
4273 20.5037 18063.70 18852.40 162.74
4274 20.5075 18207.40 18977.50 163.07
4275 20.5112 18637.90 19119.10 165.78
4276 20.5150 18930.50 19289.00 166.80
4277 20.5188 19025.60 19489.60 165.35
4278 20.5225 19050.30 19721.80 167.06
4279 20.5263 19783.00 20008.30 171.35
4280 20.5300 19757.90 20346.80 170.78
4281 20.5338 20300.40 20777.10 172.68
4282 20.5376 20787.10 21327.20 175.42
4283 20.5413 22126.90 22047.60 181.73
4284 20.5451 23326.60 23127.10 187.09
4285 20.5488 26163.40 24809.20 201.90
4286 20.5526 29826.60 27767.10 217.65
4287 20.5564 35813.90 32933.20 243.72
4288 20.5601 42991.00 41291.50 273.24
4289 20.5639 57270.50 54461.60 328.26
4290 20.5676 76684.60 72147.50 391.05
4291 20.5714 107826.00 94070.00 489.71
4292 20.5752 138647.00 116041.00 582.35
4293 20.5789 166844.00 131053.00 657.97
4294 20.5827 171954.00 132859.00 661.94
4295 20.5864 155761.00 120404.00 625.38
4296 20.5902 121421.00 99261.50 525.08
4297 20.5940 89657.60 76882.60 436.32
4298 20.5977 64069.50 58163.60 349.29
4299 20.6015 49092.10 43827.60 296.45
4300 20.6052 38130.10 34519.40 253.81
4301 20.6090 32252.20 28676.00 229.52
4302 20.6127 27364.40 25374.40 209.05
4303 20.6165 25054.20 23407.10 196.76
4304 20.6203 22767.40 22207.90 186.71
4305 20.6240 21947.50 21423.90 182.73
4306 20.6278 20815.20 20833.60 177.45
4307 20.6315 20501.90 20386.50 173.37
4308 20.6353 19921.30 20016.50 171.23
4309 20.6391 19800.90 19713.10 171.18
4310 20.6428 19207.60 19467.00 168.48
4311 20.6466 19271.70 19254.30 168.19
4312 20.6503 18775.60 19078.30 165.86
4313 20.6541 18811.30 18923.60 166.47
4314 20.6579 18210.50 18790.50 163.74
4315 20.6616 18497.90 18678.00 165.11
4316 20.6654 18248.40 18577.20 164.17
4317 20.6691 18230.50 18491.20 163.11
4318 20.6729 17981.40 18413.40 161.69
4319 20.6767 18482.30 18344.90 164.53
4320 20.6804 18110.90 18285.90 162.22
4321 20.6842 18061.80 18232.20 162.55
4322 20.6879 17690.10 18186.00 160.36
4323 20.6917 17887.70 18144.20 159.51
4324 20.6955 17979.50 18107.70 162.13
4325 20.6992 18042.90 18077.30 160.88
4326 20.7030 17936.50 18051.50 162.42
4327 20.7067 18101.70 18032.30 162.93
4328 20.7105 17607.90 18019.90 159.34
4329 20.7143 17775.00 18017.00 161.12
4330 20.7180 17754.50 18025.80 160.92
4331 20.7218 17945.10 18050.00 161.34
4332 20.7255 17823.30 18091.80 160.26
4333 20.7293 18045.00 18156.30 161.45
4334 20.7331 17631.00 18244.20 159.50
4335 20.7368 17864.60 18351.40 161.51
4336 20.7406 17499.70 18478.40 159.09
4337 20.7443 18026.90 18608.10 161.47
4338 20.7481 17631.80 18729.00 158.79
4339 20.7519 18404.10 18811.00 163.18
4340 20.7556 17732.40 18828.90 160.28
4341 20.7594 18065.80 18773.70 162.15
4342 20.7631 18086.30 18660.60 163.42
4343 20.7669 18022.00 18509.70 162.48
4344 20.7706 17640.50 18353.00 159.98
4345 20.7744 17932.70 18199.60 159.82
4346 20.7782 17567.00 18063.60 157.95
4347 20.7819 17490.40 17952.30 157.39
4348 20.7857 17158.00 17860.10 156.42
4349 20.7894 17435.80 17790.00 159.01
4350 20.7932 17171.70 17734.90 157.77
4351 20.7970 17521.60 17693.20 160.05
4352 20.8007 17208.10 17662.10 157.88
4353 20.8045 17348.10 17637.10 158.63
4354 20.8082 17147.60 17617.50 156.47
4355 20.8120 17635.20 17600.60 159.91
4356 20.8158 16979.40 17586.10 155.44
4357 20.8195 17529.30 17573.50 159.72
4358 20.8233 17199.70 17561.80 155.90
4359 20.8270 17477.30 17551.40 159.91
4360 20.8308 17070.90 17541.50 156.60
4361 20.8346 17493.20 17532.20 158.75
4362 20.8383 17290.60 17523.80 158.66
4363 20.8421 17583.80 17515.60 159.69
4364 20.8458 17222.30 17508.00 157.79
4365 20.8496 17219.80 17500.60 157.42
4366 20.8534 16890.10 17493.60 156.45
4367 20.8571 17429.00 17487.00 159.60
4368 20.8609 17187.90 17480.60 157.99
4369 20.8646 17346.20 17474.50 159.05
4370 20.8684 17080.60 17468.50 156.70
4371 20.8721 17282.40 17462.90 157.75
4372 20.8759 17029.60 17457.30 157.16
4373 20.8797 17489.90 17451.90 159.74
4374 20.8834 16978.70 17446.80 157.14
4375 20.8872 17101.60 17441.60 157.24
4376 20.8909 16926.90 17436.80 156.83
4377 20.8947 17478.00 17432.00 157.84
4378 20.8985 17076.90 17427.20 157.88
4379 20.9022 17393.80 17422.70 158.62
4380 20.9060 16833.90 17418.20 154.36
4381 20.9097 17254.10 17413.90 158.19
4382 20.9135 16722.40 17409.60 155.29
4383 20.9173 17523.20 17405.40 159.27
4384 20.9210 16967.10 17401.30 156.84
4385 20.9248 17428.10 17397.30 158.56
4386 20.9285 17026.40 17393.40 157.15
4387 20.9323 17421.30 17389.40 158.90
4388 20.9360 16769.10 17385.70 155.88
4389 20.9398 17235.10 17381.90 157.90
4390 20.9436 16895.60 17378.10 156.52
4391 20.9473 17323.00 17374.50 158.53
4392 20.9511 16852.70 17370.90 155.91
4393 20.9548 17249.00 17367.40 158.69
4394 20.9586 17120.00 17363.90 157.22
4395 20.9624 17224.60 17360.40 156.14
4396 20.9661 16690.20 17357.10 155.91
4397 20.9699 17320.20 17353.70 158.65
4398 20.9736 16942.80 17350.40 156.52
4399 20.9774 17199.80 17347.10 158.35
4400 20.9812 17247.40 17343.80 158.00
4401 20.9849 17256.70 17340.70 157.69
4402 20.9887 16845.70 17337.50 156.10
4403 20.9924 17316.00 17334.40 158.86
4404 20.9962 16909.20 17286.60 156.95
4405 20.9999 17132.70 17284.30 156.16
4406 21.0037 16902.50 17282.00 154.76
4407 21.0075 17262.00 17279.80 159.35
4408 21.0112 17008.30 17277.50 156.40
4409 21.0150 17052.90 17275.30 157.45
4410 21.0187 16909.10 17273.10 155.88
4411 21.0225 17006.70 17270.80 156.63
4412 21.0263 16866.10 17268.60 156.59
4413 21.0300 17153.10 17266.40 158.48
4414 21.0338 16978.10 17264.20 157.02
4415 21.0375 17085.40 17262.10 157.87
4416 21.0413 16957.90 17259.90 157.00
4417 21.0451 17471.30 17257.60 158.64
4418 21.0488 17161.60 17255.50 155.59
4419 21.0526 17386.10 17253.30 158.24
4420 21.0563 16982.60 17251.20 155.71
4421 21.0601 17144.70 17249.00 156.73
4422 21.0638 16874.60 17246.90 154.18
4423 21.0676 17229.50 17244.70 157.21
4424 21.0714 16928.40 17242.60 154.79
4425 21.0751 17311.60 17240.50 157.05
4426 21.0789 16748.50 17238.30 153.94
4427 21.0826 17278.00 17236.30 157.04
4428 21.0864 16909.30 17234.10 154.58
4429 21.0902 17392.30 17232.00 158.26
4430 21.0939 17000.40 17229.90 155.61
4431 21.0977 17261.40 17227.80 156.24
4432 21.1014 16888.40 17225.70 155.31
4433 21.1052 17559.10 17223.60 158.61
4434 21.1089 16853.40 17221.60 155.19
4435 21.1127 17099.50 17219.50 156.65
4436 21.1165 16891.10 17217.40 155.39
4437 21.1202 17124.40 17215.30 154.96
4438 21.1240 17086.60 17213.30 155.95
4439 21.1277 16943.00 17211.20 155.61
4440 21.1315 16884.20 17209.20 155.97
4441 21.1353 17342.10 17207.10 158.08
4442 21.1390 17149.20 17205.10 156.88
4443 21.1428 16964.30 17203.00 155.10
4444 21.1465 17027.70 17201.00 156.39
4445 21.1503 17029.80 17198.90 157.05
4446 21.1540 16886.50 17197.00 154.89
4447 21.1578 17175.40 17194.90 156.56
4448 21.1616 17140.60 17192.90 156.70
4449 21.1653 17143.20 17190.90 157.58
4450 21.1691 16851.60 17188.90 154.98
4451 21.1728 17201.10 17186.90 154.89
4452 21.1766 16914.50 17184.90 155.54
4453 21.1803 17112.70 17182.90 156.63
4454 21.1841 16703.00 17180.90 153.88
4455 21.1879 16958.70 17178.90 155.06
4456 21.1916 16624.90 17176.90 153.80
4457 21.1954 16803.40 17174.90 154.36
4458 21.1991 16773.50 17173.00 153.64
4459 21.2029 16977.20 17171.00 155.31
4460 21.2067 16988.20 17169.00 155.80
4461 21.2104 16810.30 17167.00 154.80
4462 21.2142 16614.80 17164.00 154.00
4463 21.2179 17326.70 17162.10 157.15
4464 21.2217 16691.90 17160.10 154.12
4465 21.2254 17035.10 17158.20 155.94
4466 21.2292 16874.70 17156.30 155.60
4467 21.2330 16899.10 17154.30 155.41
4468 21.2367 16597.30 17152.50 153.10
4469 21.2405 16964.20 17150.50 154.27
4470 21.2442 16872.80 17148.60 155.68
4471 21.2480 16995.50 17146.70 155.40
4472 21.2517 16826.40 17144.80 154.72
4473 21.2555 17363.70 17142.90 156.97
4474 21.2593 17053.10 17141.00 156.41
4475 21.2630 16829.60 17139.10 154.04
4476 21.2668 16908.10 17137.20 155.65
4477 21.2705 16971.10 17135.30 154.39
4478 21.2743 16616.10 17133.40 153.56
4479 21.2781 16952.90 17131.50 155.21
4480 21.2818 16688.70 17129.60 154.31
4481 21.2856 17207.90 17127.70 157.09
4482 21.2893 16802.80 17125.90 154.56
4483 21.2931 17108.30 17124.00 156.25
4484 21.2968 16798.40 17122.20 155.03
4485 21.3006 17068.20 17120.30 155.09
4486 21.3044 16888.80 17118.40 154.97
4487 21.3081 17041.30 17116.60 156.14
4488 21.3119 16642.20 17114.70 152.75
4489 21.3156 17298.10 17112.90 157.35
4490 21.3194 17189.60 17111.00 156.06
4491 21.3231 16947.30 17109.20 154.31
4492 21.3269 16775.60 17107.30 154.61
4493 21.3307 17037.40 17105.50 155.99
4494 21.3344 16900.80 17103.60 155.61
4495 21.3382 17124.60 17101.80 156.00
4496 21.3419 16846.30 17100.00 154.63
4497 21.3457 17028.80 17098.10 156.53
4498 21.3494 16435.70 17096.40 153.70
4499 21.3532 16989.40 17094.50 155.66
4500 21.3570 16542.90 17092.70 153.65
4501 21.3607 16520.00 17090.90 152.99
4502 21.3645 16740.90 17089.10 154.13
4503 21.3682 16973.10 17087.30 153.72
4504 21.3720 16601.00 17085.50 152.39
4505 21.3757 17153.30 17083.70 157.11
4506 21.3795 16576.40 17081.90 154.00
4507 21.3833 17153.80 17080.00 157.52
4508 21.3870 16740.90 17078.30 154.83
4509 21.3908 17001.20 17076.50 154.25
4510 21.3945 16740.50 17074.70 155.36
4511 21.3983 16715.90 17072.90 153.54
4512 21.4020 16743.90 17071.20 155.27
4513 21.4058 17218.80 17069.40 157.44
4514 21.4096 16757.50 17067.60 153.51
4515 21.4133 16836.70 17065.80 154.66
4516 21.4171 16853.20 17064.00 155.24
4517 21.4208 16768.30 17062.30 153.62
4518 21.4246 16754.30 17060.50 154.86
4519 21.4283 16974.30 17058.80 155.05
4520 21.4321 16693.10 17057.00 155.19
4521 21.4359 17154.20 17055.20 156.51
4522 21.4396 16712.50 17053.50 154.75
4523 21.4434 17117.40 17051.80 156.66
4524 21.4471 16844.10 17050.00 154.62
4525 21.4509 16952.60 17048.30 156.25
4526 21.4546 16702.60 17046.60 154.90
4527 21.4584 16910.30 17044.80 155.62
4528 21.4622 16724.20 17043.10 154.11
4529 21.4659 16919.20 17041.40 155.33
4530 21.4697 16949.10 17039.60 156.90
4531 21.4734 16998.90 17037.90 155.64
4532 21.4772 16949.20 17036.20 155.77
4533 21.4809 17064.60 17034.50 156.05
4534 21.4847 16732.60 17032.80 155.08
4535 21.4885 16996.80 17031.00 156.23
4536 21.4922 17010.90 17029.40 153.52
4537 21.4960 16924.00 17027.60 156.43
4538 21.4997 16647.80 17026.00 154.71
4539 21.5035 17023.10 17024.20 156.29
4540 21.5072 16704.90 17022.60 154.74
4541 21.5110 17044.20 17020.90 156.72
4542 21.5148 16702.40 17019.10 154.60
4543 21.5185 17170.40 17017.50 154.98
4544 21.5223 16747.90 17015.80 155.64
4545 21.5260 17116.70 17014.10 157.77
4546 21.5298 16814.50 17012.40 155.48
4547 21.5335 17229.30 17010.80 154.88
4548 21.5373 16964.10 17009.10 156.01
4549 21.5411 17142.00 17007.40 156.74
4550 21.5448 16787.60 17005.70 155.02
4551 21.5486 17154.90 17004.10 156.60
4552 21.5523 16847.60 17002.40 154.59
4553 21.5561 16976.30 17000.70 154.76
4554 21.5598 16720.50 16999.10 153.84
4555 21.5636 17325.60 16997.40 156.11
4556 21.5673 16844.80 16995.80 154.78
4557 21.5711 17135.60 16994.10 156.32
4558 21.5749 16733.00 16992.50 154.99
4559 21.5786 17364.20 16990.90 157.90
4560 21.5824 17126.10 16989.20 155.79
4561 21.5861 17357.20 16987.60 158.07
4562 21.5899 17058.70 16985.90 156.13
4563 21.5936 17355.20 16984.30 157.21
4564 21.5974 16995.90 16982.70 155.47
4565 21.6012 17480.70 16981.00 158.40
4566 21.6049 16742.00 16979.40 154.48
4567 21.6087 17326.30 16977.80 157.37
4568 21.6124 16748.10 16976.20 154.56
4569 21.6162 16951.70 16974.60 155.29
4570 21.6199 16769.30 16973.00 154.08
4571 21.6237 16959.30 16971.30 155.54
4572 21.6274 16741.80 16969.80 153.95
4573 21.6312 16879.40 16968.10 154.75
4574 21.6350 16742.80 16966.50 153.84
4575 21.6387 16962.60 16964.90 154.18
4576 21.6425 16746.20 16963.30 154.47
4577 21.6462 16882.90 16961.70 154.06
4578 21.6500 16703.30 16960.10 154.05
4579 21.6537 16821.00 16958.60 154.40
4580 21.6575 16603.90 16956.90 151.73
4581 21.6613 16964.20 16955.30 154.54
4582 21.6650 16587.40 16953.80 152.06
4583 21.6688 16763.00 16952.20 154.00
4584 21.6725 16712.00 16950.60 153.44
4585 21.6763 16927.40 16949.00 154.67
4586 21.6800 16666.10 16947.50 153.09
4587 21.6838 17105.80 16945.90 155.76
4588 21.6875 16690.20 16944.40 153.33
4589 21.6913 16692.10 16942.80 153.70
4590 21.6951 16617.70 16941.20 151.90
4591 21.6988 16654.40 16939.60 152.55
4592 21.7026 16394.60 16938.10 152.14
4593 21.7063 16768.30 16936.50 152.93
4594 21.7101 16518.90 16935.00 152.88
4595 21.7138 17126.20 16933.40 156.26
4596 21.7176 16753.50 16931.90 152.33
4597 21.7213 16973.40 16930.30 153.94
4598 21.7251 16759.90 16928.80 152.90
4599 21.7289 16844.60 16927.20 154.31
4600 21.7326 16913.80 16925.70 153.45
4601 21.7364 17022.20 16924.10 155.94
4602 21.7401 16554.40 16922.60 152.88
4603 21.7439 16617.30 16921.10 152.16
4604 21.7476 16375.70 16919.60 152.24
4605 21.7514 16742.60 16918.00 153.69
4606 21.7551 16630.00 16916.50 153.12
4607 21.7589 16844.30 16915.00 153.72
4608 21.7627 16243.50 16913.40 151.51
4609 21.7664 16766.90 16912.00 153.93
4610 21.7702 16551.70 16910.40 153.38
4611 21.7739 16641.90 16908.90 152.16
4612 21.7777 16519.50 16907.40 152.82
4613 21.7814 16683.80 16905.90 153.27
4614 21.7852 16316.30 16904.40 150.84
4615 21.7889 16454.80 16902.90 151.90
4616 21.7927 16568.20 16901.40 150.47
4617 21.7965 16891.80 16899.90 155.20
4618 21.8002 16471.80 16898.40 150.84
4619 21.8040 16762.50 16896.90 154.77
4620 21.8077 16510.20 16895.40 153.12
4621 21.8115 16955.60 16893.90 155.50
4622 21.8152 16514.40 16892.40 152.30
4623 21.8190 16948.80 16890.90 154.65
4624 21.8227 16498.00 16889.50 152.53
4625 21.8265 16560.90 16888.00 153.31
4626 21.8303 16257.50 16886.50 151.50
4627 21.8340 16568.70 16885.00 152.27
4628 21.8378 16444.80 16883.50 152.74
4629 21.8415 16518.40 16882.10 152.49
4630 21.8453 16387.90 16880.60 152.68
4631 21.8490 16767.50 16879.10 154.23
4632 21.8528 16313.20 16877.60 152.41
4633 21.8565 16807.30 16876.20 154.79
4634 21.8603 16223.20 16874.70 150.70
4635 21.8641 17019.00 16873.20 155.23
4636 21.8678 16699.60 16871.80 152.79
4637 21.8716 16861.70 16870.30 154.51
4638 21.8753 16389.40 16868.90 151.22
4639 21.8791 16926.50 16867.40 154.91
4640 21.8828 16893.10 16866.00 154.67
4641 21.8866 16757.10 16864.50 154.37
4642 21.8903 16770.10 16863.10 155.03
4643 21.8941 16902.00 16861.60 155.08
4644 21.8978 16451.40 16860.20 152.57
4645 21.9016 16837.50 16858.70 155.06
4646 21.9054 16740.50 16857.30 153.90
4647 21.9091 16788.00 16855.90 155.35
4648 21.9129 16438.00 16854.40 152.97
4649 21.9166 16753.90 16853.00 154.48
4650 21.9204 16716.50 16851.60 153.86
4651 21.9241 16599.20 16850.10 153.70
4652 21.9279 16583.80 16848.70 154.40
4653 21.9316 16608.50 16847.30 153.75
4654 21.9354 16555.70 16845.90 153.57
4655 21.9391 16950.90 16844.50 155.37
4656 21.9429 16545.90 16843.00 153.90
4657 21.9467 17044.80 16841.60 155.21
4658 21.9504 16380.40 16840.20 152.44
4659 21.9542 17341.50 16838.80 158.57
4660 21.9579 16624.90 16837.40 154.31
4661 21.9617 16716.50 16835.90 153.65
4662 21.9654 16435.60 16834.60 152.74
4663 21.9692 16700.70 16833.10 154.40
4664 21.9729 16694.40 16831.70 153.70
4665 21.9767 17151.10 16830.30 156.00
4666 21.9804 16547.50 16828.90 152.96
4667 21.9823 16720.50 16828.20 155.63
4668 21.9861 16436.70 16826.80 153.87
4669 21.9898 16669.50 16825.50 154.69
4670 21.9936 16437.90 16824.00 153.59
4671 21.9973 17022.60 16822.70 156.90
4672 22.0011 16547.10 16821.30 154.05
4673 22.0049 16748.50 16819.90 153.05
4674 22.0086 16530.70 16818.50 154.76
4675 22.0124 16734.50 16817.10 156.01
4676 22.0161 16546.30 16815.70 154.33
4677 22.0199 17105.40 16814.30 154.53
4678 22.0236 16673.30 16813.00 154.75
4679 22.0274 16953.70 16811.60 156.03
4680 22.0312 16689.80 16810.20 154.79
4681 22.0349 16783.70 16808.80 154.92
4682 22.0387 16593.30 16807.40 153.52
4683 22.0424 16704.70 16806.10 153.61
4684 22.0462 16472.00 16804.70 152.80
4685 22.0499 16850.60 16803.30 153.90
4686 22.0537 16463.20 16802.00 153.03
4687 22.0574 16731.00 16800.60 154.46
4688 22.0612 16723.40 16799.20 155.24
4689 22.0650 16979.70 16797.90 156.15
4690 22.0687 16464.90 16796.50 152.57
4691 22.0725 16967.30 16795.20 156.30
4692 22.0762 16511.40 16793.80 153.49
4693 22.0800 16885.70 16792.40 155.02
4694 22.0837 16433.70 16791.10 152.76
4695 22.0875 16843.60 16789.70 155.32
4696 22.0913 16316.80 16788.40 152.49
4697 22.0950 16818.00 16787.10 154.97
4698 22.0988 16395.70 16785.70 152.96
4699 22.1025 16847.90 16784.40 155.04
4700 22.1063 16543.30 16783.00 153.16
4701 22.1100 16841.90 16781.70 155.21
4702 22.1138 16508.50 16780.30 153.00
4703 22.1176 16615.20 16779.00 153.63
4704 22.1213 16377.10 16777.70 152.18
4705 22.1251 16699.20 16776.30 153.08
4706 22.1288 16449.10 16775.00 153.16
4707 22.1326 16957.80 16773.60 154.75
4708 22.1363 16331.00 16772.30 152.34
4709 22.1401 16931.90 16771.00 155.28
4710 22.1438 16553.90 16769.70 151.76
4711 22.1476 16538.20 16768.30 152.57
4712 22.1514 16478.00 16767.00 151.76
4713 22.1551 16955.20 16765.70 155.31
4714 22.1589 16424.80 16764.40 152.19
4715 22.1626 16493.10 16763.10 152.65
4716 22.1664 16224.90 16761.70 151.02
4717 22.1701 16469.00 16760.40 152.66
4718 22.1739 16221.20 16759.10 151.11
4719 22.1776 16662.30 16757.80 153.83
4720 22.1814 16427.00 16756.50 151.18
4721 22.1852 16720.30 16755.10 153.19
4722 22.1889 16378.50 16753.80 152.34
4723 22.1927 16534.90 16752.50 151.98
4724 22.1964 16409.40 16751.20 152.58
4725 22.2002 16575.90 16749.90 153.62
4726 22.2039 16397.80 16748.60 150.73
4727 22.2077 16765.00 16747.30 153.13
4728 22.2114 16504.50 16746.00 151.84
4729 22.2152 16669.90 16744.70 153.67
4730 22.2166 16675.00 16744.20 152.13
4731 22.2203 16766.30 16743.00 152.93
4732 22.2241 16527.10 16741.60 152.12
4733 22.2278 16833.30 16740.40 154.20
4734 22.2316 16255.40 16739.10 151.09
4735 22.2353 16783.50 16737.80 152.78
4736 22.2391 16543.10 16736.50 152.70
4737 22.2428 16725.20 16735.20 152.97
4738 22.2466 16416.10 16733.90 150.77
4739 22.2504 16425.30 16732.60 151.83
4740 22.2541 16447.10 16731.30 152.16
4741 22.2579 16875.20 16730.00 153.21
4742 22.2616 16400.90 16728.80 151.40
4743 22.2654 16567.50 16727.50 151.94
4744 22.2691 16361.40 16726.20 151.51
4745 22.2729 16732.90 16724.90 154.12
4746 22.2766 16653.20 16723.70 152.84
4747 22.2804 16600.10 16722.40 152.51
4748 22.2841 16372.00 16721.10 151.63
4749 22.2879 16776.40 16719.80 152.29
4750 22.2917 16363.30 16718.50 151.15
4751 22.2954 16626.90 16717.30 152.83
4752 22.2992 16579.40 16716.00 152.58
4753 22.3029 16568.00 16714.70 151.88
4754 22.3067 16297.70 16713.40 150.59
4755 22.3104 16293.00 16712.20 150.76
4756 22.3142 16546.50 16710.90 151.78
4757 22.3179 16679.10 16709.70 151.88
4758 22.3217 16434.10 16708.40 151.55
4759 22.3255 16636.90 16707.10 153.34
4760 22.3292 16746.20 16705.90 153.93
4761 22.3330 16729.40 16704.60 153.36
4762 22.3367 16346.20 16703.40 150.56
4763 22.3405 16532.50 16702.10 151.67
4764 22.3442 16555.60 16700.80 152.57
4765 22.3480 16735.80 16699.60 153.50
4766 22.3517 16599.40 16698.30 151.79
4767 22.3555 16678.40 16697.10 153.70
4768 22.3592 16285.30 16695.80 150.96
4769 22.3630 16578.60 16694.60 152.84
4770 22.3668 16516.70 16693.30 152.35
4771 22.3705 16618.10 16692.10 152.92
4772 22.3743 16799.90 16690.80 153.57
4773 22.3780 16608.40 16689.60 151.64
4774 22.3818 16305.00 16688.30 150.65
4775 22.3855 16675.70 16687.10 153.76
4776 22.3893 16450.20 16685.80 152.35
4777 22.3930 16851.50 16684.60 153.90
4778 22.3968 16356.60 16683.40 152.12
4779 22.4006 16583.30 16682.10 153.23
4780 22.4043 16642.70 16680.90 153.21
4781 22.4081 16651.80 16679.60 153.40
4782 22.4118 16190.60 16678.40 150.44
4783 22.4156 16838.10 16677.20 154.47
4784 22.4193 16367.30 16675.90 149.74
4785 22.4231 16926.40 16674.70 154.14
4786 22.4268 16533.70 16673.50 152.80
4787 22.4306 16578.60 16672.20 152.94
4788 22.4343 16448.40 16671.00 152.43
4789 22.4381 16740.00 16669.80 153.27
4790 22.4419 16392.40 16668.50 151.23
4791 22.4456 16787.50 16667.30 153.80
4792 22.4494 16526.80 16666.10 152.30
4793 22.4531 16746.50 16664.90 153.52
4794 22.4569 16723.30 16663.60 154.14
4795 22.4606 16632.20 16662.40 153.01
4796 22.4644 16255.00 16661.20 150.70
4797 22.4681 16652.80 16660.00 153.40
4798 22.4719 16315.40 16658.70 151.28
4799 22.4757 16680.50 16657.50 153.45
4800 22.4794 16419.70 16656.30 152.24
4801 22.4832 16649.30 16655.10 153.17
4802 22.4869 16641.50 16653.90 153.87
4803 22.4907 16562.00 16652.60 153.24
4804 22.4944 15994.80 16651.40 149.56
4805 22.4982 16773.70 16650.20 154.07
4806 22.5019 16493.80 16649.00 151.82
4807 22.5057 16861.10 16647.80 152.77
4808 22.5095 16536.30 16646.60 152.60
4809 22.5132 16793.90 16645.40 154.25
4810 22.5170 16606.60 16644.10 153.88
4811 22.5207 16781.30 16642.90 154.29
4812 22.5245 16307.40 16641.70 152.20
4813 22.5282 16599.70 16640.50 152.56
4814 22.5320 16449.60 16639.30 152.04
4815 22.5357 16750.30 16638.10 154.51
4816 22.5395 16453.60 16636.90 152.33
4817 22.5433 16474.20 16635.70 152.14
4818 22.5470 16453.70 16634.50 152.13
4819 22.5508 16462.70 16633.30 152.81
4820 22.5545 16208.80 16632.10 151.11
4821 22.5583 16649.70 16630.90 153.79
4822 22.5620 16555.40 16629.70 153.80
4823 22.5658 16558.50 16628.50 152.90
4824 22.5696 16561.80 16627.30 152.97
4825 22.5733 16666.80 16626.10 152.88
4826 22.5771 16546.80 16624.90 153.42
4827 22.5808 16585.50 16623.70 152.95
4828 22.5846 16665.50 16622.50 153.80
4829 22.5883 16822.10 16621.30 155.01
4830 22.5921 16160.50 16620.10 151.33
4831 22.5958 16667.20 16618.90 153.08
4832 22.5996 16266.80 16617.70 151.04
4833 22.6034 16657.10 16616.50 153.48
4834 22.6071 16413.50 16615.30 152.12
4835 22.6109 16918.80 16614.10 155.09
4836 22.6146 16471.60 16612.90 152.19
4837 22.6184 16562.80 16611.70 153.33
4838 22.6221 16684.60 16610.50 153.86
4839 22.6259 16795.60 16609.30 154.86
4840 22.6297 16398.40 16608.10 151.37
4841 22.6334 16893.90 16607.00 153.80
4842 22.6372 16564.30 16605.80 151.70
4843 22.6409 16442.30 16604.60 151.58
4844 22.6447 16411.10 16603.40 151.83
4845 22.6484 16569.90 16602.20 152.91
4846 22.6522 16148.80 16601.00 150.26
4847 22.6559 16618.10 16599.80 152.70
4848 22.6597 16207.60 16598.60 150.78
4849 22.6635 16692.40 16597.40 153.67
4850 22.6672 16342.30 16596.30 151.62
4851 22.6710 16849.20 16595.10 154.70
4852 22.6747 16458.30 16593.90 153.61
4853 22.6785 16835.50 16592.70 154.44
4854 22.6822 16515.30 16591.60 152.50
4855 22.6860 16804.70 16590.40 153.39
4856 22.6898 16510.70 16589.20 153.29
4857 22.6935 16822.00 16588.00 154.64
4858 22.6973 16443.10 16586.80 152.92
4859 22.7010 16935.00 16585.70 154.95
4860 22.7048 16506.10 16584.50 153.16
4861 22.7085 16720.30 16583.30 153.06
4862 22.7123 16443.30 16582.10 152.76
4863 22.7160 16680.90 16580.90 153.93
4864 22.7198 16430.50 16579.80 151.76
4865 22.7236 16655.10 16578.60 153.27
4866 22.7273 16456.30 16577.40 151.59
4867 22.7311 16604.50 16576.20 153.11
4868 22.7348 16403.80 16575.10 152.23
4869 22.7386 16694.40 16573.90 153.88
4870 22.7423 16333.70 16572.70 151.71
4871 22.7461 16942.60 16571.50 154.00
4872 22.7499 16295.50 16570.30 151.44
4873 22.7536 16840.10 16569.20 154.57
4874 22.7574 16338.30 16568.00 151.50
4875 22.7611 16745.10 16566.80 153.18
4876 22.7649 16444.80 16565.70 152.31
4877 22.7686 16607.70 16564.50 152.99
4878 22.7724 16349.60 16563.30 151.12
4879 22.7762 16715.40 16562.10 154.05
4880 22.7799 16199.30 16561.00 151.08
4881 22.7837 16799.10 16559.80 154.61
4882 22.7874 16612.00 16558.70 151.69
4883 22.7912 16593.40 16557.50 152.95
4884 22.7949 16377.20 16556.30 150.27
4885 22.7987 16453.10 16555.10 153.06
4886 22.8025 16502.40 16554.00 152.48
4887 22.8062 16719.70 16552.80 155.03
4888 22.8100 16550.70 16551.60 152.47
4889 22.8137 16671.80 16550.50 153.96
4890 22.8175 16451.60 16549.30 152.12
4891 22.8212 16847.90 16548.10 155.42
4892 22.8250 16359.00 16547.00 152.26
4893 22.8288 16532.70 16545.80 152.48
4894 22.8325 16308.50 16544.60 152.06
4895 22.8363 16425.40 16543.50 152.29
4896 22.8400 16303.60 16542.30 151.29
4897 22.8438 16637.80 16541.10 153.22
4898 22.8475 16584.50 16540.00 153.91
4899 22.8513 16795.10 16538.80 152.73
4900 22.8551 16299.80 16537.60 151.76
4901 22.8588 16747.50 16536.50 152.81
4902 22.8626 16392.50 16535.30 152.15
4903 22.8663 16743.40 16534.20 154.07
4904 22.8701 16295.70 16533.00 152.41
4905 22.8738 16726.10 16531.80 154.24
4906 22.8776 16248.40 16530.70 150.90
4907 22.8814 16519.00 16529.50 152.89
4908 22.8851 16761.80 16528.30 153.97
4909 22.8889 16640.50 16527.20 152.74
4910 22.8926 16336.30 16526.00 150.85
4911 22.8964 16779.70 16524.90 153.61
4912 22.9001 16586.00 16523.70 153.23
4913 22.9039 16714.90 16522.50 153.13
4914 22.9077 16242.80 16521.40 151.19
4915 22.9114 16702.00 16520.20 154.13
4916 22.9152 16222.50 16519.00 151.52
4917 22.9189 16638.20 16517.90 153.29
4918 22.9227 16582.40 16516.70 153.73
4919 22.9264 16462.40 16515.60 152.72
4920 22.9302 16740.70 16514.40 153.94
4921 22.9340 17068.10 16513.20 156.32
4922 22.9377 16457.70 16512.10 151.13
4923 22.9415 16773.40 16510.90 154.74
4924 22.9452 16421.70 16509.80 152.12
4925 22.9490 16779.60 16508.60 154.74
4926 22.9527 16396.00 16507.50 152.48
4927 22.9565 16632.70 16506.30 154.20
4928 22.9603 16622.10 16505.10 153.05
4929 22.9640 16807.80 16504.00 155.15
4930 22.9678 16382.30 16502.80 152.04
4931 22.9715 16893.50 16501.70 155.26
4932 22.9753 16594.30 16500.50 152.93
4933 22.9791 16708.00 16499.30 154.58
4934 22.9828 16763.80 16498.20 155.46
4935 22.9866 16859.00 16497.00 154.43
4936 22.9903 16828.20 16495.90 154.61
4937 22.9941 16814.40 16494.70 155.19
4938 22.9978 16657.60 16493.60 152.97
4939 23.0016 16637.50 16492.40 153.53
4940 23.0054 16426.70 16491.20 152.70
4941 23.0091 16791.70 16490.10 155.25
4942 23.0129 16823.30 16488.90 155.37
4943 23.0166 17019.30 16487.80 155.63
4944 23.0204 16531.30 16486.60 153.32
4945 23.0241 16869.40 16485.50 155.37
4946 23.0279 16797.60 16484.30 153.90
4947 23.0317 16673.80 16483.10 154.16
4948 23.0354 16574.70 16482.00 154.17
4949 23.0392 16772.70 16480.80 153.57
4950 23.0429 16626.40 16479.70 153.25
4951 23.0467 16674.40 16478.50 154.06
4952 23.0505 16541.60 16477.30 153.98
4953 23.0542 16928.80 16476.20 155.79
4954 23.0580 16640.70 16475.00 153.49
4955 23.0617 16990.50 16473.90 156.23
4956 23.0655 16650.10 16472.70 154.36
4957 23.0692 17013.10 16471.50 156.25
4958 23.0730 16708.20 16470.40 153.05
4959 23.0768 16928.90 16469.20 155.31
4960 23.0805 16571.80 16468.10 153.66
4961 23.0843 16736.70 16466.90 154.02
4962 23.0880 16928.40 16465.80 155.98
4963 23.0918 16780.40 16464.60 155.35
4964 23.0955 16535.00 16463.40 153.27
4965 23.0993 17049.70 16462.30 155.81
4966 23.1031 16458.00 16461.10 152.84
4967 23.1068 16974.50 16459.90 157.05
4968 23.1106 16783.70 16458.80 153.91
4969 23.1143 16964.20 16457.60 155.82
4970 23.1181 16613.80 16456.50 154.18
4971 23.1219 16984.30 16455.30 156.58
4972 23.1256 16793.70 16454.10 154.40
4973 23.1294 16727.60 16453.00 155.23
4974 23.1331 16705.50 16451.80 154.63
4975 23.1369 16838.50 16450.70 155.36
4976 23.1406 16704.80 16449.50 154.29
4977 23.1444 17034.30 16448.30 156.90
4978 23.1482 16603.50 16447.20 153.99
4979 23.1519 16997.90 16446.00 156.30
4980 23.1557 16589.40 16444.80 154.36
4981 23.1594 16868.30 16443.70 156.05
4982 23.1632 16982.90 16442.50 156.54
4983 23.1670 16787.00 16441.30 154.82
4984 23.1707 16764.70 16440.20 155.35
4985 23.1745 16833.90 16439.00 156.19
4986 23.1782 16698.20 16437.90 154.55
4987 23.1820 17038.40 16436.70 154.67
4988 23.1857 16670.50 16435.60 154.17
4989 23.1895 16876.30 16434.40 153.90
4990 23.1933 16672.10 16433.20 154.85
4991 23.1970 16843.20 16432.10 155.04
4992 23.2008 16580.00 16430.90 154.07
4993 23.2045 16848.80 16429.70 155.65
4994 23.2083 16942.10 16428.60 154.82
4995 23.2121 17018.80 16427.40 156.80
4996 23.2158 16661.70 16426.20 154.83
4997 23.2196 17033.30 16425.00 156.48
4998 23.2233 16931.50 16423.90 155.37
4999 23.2271 17030.40 16422.70 156.72
5000 23.2309 16615.70 16421.50 154.49
5001 23.2346 16851.20 16420.40 156.25
5002 23.2384 16933.60 16419.20 156.15
5003 23.2421 17051.00 16418.10 156.65
5004 23.2459 16698.20 16416.90 153.39
5005 23.2496 17055.30 16415.70 156.18
5006 23.2534 16647.50 16414.50 154.34
5007 23.2572 16923.90 16413.40 155.98
5008 23.2609 16832.20 16412.20 156.38
5009 23.2647 16989.10 16411.00 156.69
5010 23.2684 16892.70 16409.90 155.90
5011 23.2722 16967.20 16408.70 154.03
5012 23.2760 16835.80 16407.50 155.65
5013 23.2797 17107.30 16406.40 157.20
5014 23.2835 16755.70 16405.20 155.23
5015 23.2872 16877.90 16404.00 154.86
5016 23.2910 16533.90 16402.80 153.86
5017 23.2947 17136.40 16401.70 157.16
5018 23.2985 16844.20 16400.50 155.10
5019 23.3023 17059.90 16399.30 155.95
5020 23.3060 16756.50 16398.20 154.14
5021 23.3098 17310.70 16397.00 157.94
5022 23.3135 16872.50 16395.80 155.45
5023 23.3173 16964.00 16394.60 155.80
5024 23.3211 16823.50 16393.40 155.56
5025 23.3248 17034.10 16392.30 156.08
5026 23.3286 17118.90 16391.10 156.46
5027 23.3323 17180.80 16389.90 155.76
5028 23.3361 17071.40 16388.70 155.99
5029 23.3399 16973.90 16387.50 155.44
5030 23.3436 16834.50 16386.40 155.02
5031 23.3474 16975.50 16385.20 155.84
5032 23.3511 17148.10 16384.00 157.18
5033 23.3549 17137.20 16672.50 157.32
5034 23.3586 16811.80 16676.20 155.15
5035 23.3624 17162.90 16680.20 157.17
5036 23.3662 16925.00 16684.30 155.19
5037 23.3699 17449.50 17261.30 158.92
5038 23.3737 16624.30 17275.60 154.27
5039 23.3774 17183.50 17290.00 156.99
5040 23.3812 16723.90 17305.10 154.88
5041 23.3850 17265.90 17320.70 157.79
5042 23.3887 16998.40 17336.30 155.99
5043 23.3925 17164.90 17352.80 157.03
5044 23.3962 16972.40 17369.30 156.45
5045 23.4000 17271.00 17386.80 157.81
5046 23.4038 17173.70 17404.80 156.97
5047 23.4075 17120.60 17422.90 156.73
5048 23.4113 17114.30 17442.00 157.09
5049 23.4150 17493.20 17461.20 159.14
5050 23.4188 17358.00 17481.50 157.38
5051 23.4226 17490.80 17502.50 158.66
5052 23.4263 16918.40 17523.50 156.07
5053 23.4301 17450.30 17545.80 159.64
5054 23.4338 17159.70 17568.10 157.64
5055 23.4376 17339.90 17591.90 159.33
5056 23.4413 17404.60 17615.70 158.46
5057 23.4451 17279.90 17641.00 157.91
5058 23.4489 17294.40 17667.10 158.61
5059 23.4526 17496.20 17693.40 158.98
5060 23.4564 17318.80 17721.30 157.85
5061 23.4601 17626.20 17749.40 158.79
5062 23.4639 17409.20 17779.20 158.33
5063 23.4677 17522.40 17810.10 159.46
5064 23.4714 17451.40 17841.20 159.36
5065 23.4752 17717.80 17874.30 158.31
5066 23.4789 17320.80 17907.70 156.63
5067 23.4827 17776.50 17943.20 161.08
5068 23.4865 17253.20 17980.00 156.65
5069 23.4902 17902.40 18023.10 161.83
5070 23.4940 17484.20 18062.80 158.56
5071 23.4977 17733.30 18102.80 159.51
5072 23.5015 17665.40 18145.50 158.64
5073 23.5053 17965.30 18189.90 161.23
5074 23.5090 17796.10 18234.70 160.52
5075 23.5128 17979.10 18282.60 161.48
5076 23.5165 17884.90 18331.10 160.59
5077 23.5203 18020.20 18382.80 162.20
5078 23.5241 17722.10 18436.80 160.02
5079 23.5278 18025.70 18491.40 162.33
5080 23.5316 17963.60 18549.90 161.46
5081 23.5353 17978.30 18609.20 161.24
5082 23.5391 18066.30 18672.80 162.79
5083 23.5429 18139.10 18739.20 162.78
5084 23.5466 18023.40 18806.60 161.46
5085 23.5504 18671.30 18879.00 164.00
5086 23.5541 18293.80 18952.60 163.45
5087 23.5579 18484.50 19031.70 164.12
5088 23.5616 18290.90 19112.30 163.40
5089 23.5654 18611.00 19199.00 165.09
5090 23.5692 18655.30 19290.00 165.07
5091 23.5729 19106.20 19382.80 167.81
5092 23.5767 18915.60 19482.90 165.57
5093 23.5804 19163.40 19585.20 166.52
5094 23.5842 18973.10 19695.70 167.26
5095 23.5880 19439.30 19812.00 169.71
5096 23.5917 19174.10 19931.20 168.62
5097 23.5955 19822.90 20060.20 171.14
5098 23.5992 19568.20 20192.60 169.69
5099 23.6030 20196.80 20336.30 172.87
5100 23.6068 20186.00 20488.20 173.04
5101 23.6105 20293.30 20644.60 173.32
5102 23.6143 20368.20 20814.70 173.57
5103 23.6180 20684.20 20990.20 173.02
5104 23.6218 20742.60 21181.50 175.66
5105 23.6256 21017.90 21384.90 177.25
5106 23.6293 20706.50 21595.70 176.01
5107 23.6331 21264.20 21826.20 178.03
5108 23.6368 21221.00 22065.50 177.48
5109 23.6406 21811.80 22328.20 180.03
5110 23.6444 22023.20 22609.10 179.96
5111 23.6481 22229.90 22902.30 181.65
5112 23.6519 22515.40 23225.20 183.43
5113 23.6556 22925.30 23563.10 184.63
5114 23.6594 22893.50 23936.60 185.01
5115 23.6632 23974.30 24340.10 189.16
5116 23.6669 23871.60 24764.50 188.79
5117 23.6707 24897.80 25236.30 194.03
5118 23.6744 25109.50 25734.90 195.19
5119 23.6782 25984.00 26291.80 199.16
5120 23.6820 26203.60 26899.50 199.40
5121 23.6857 26965.40 27546.40 204.01
5122 23.6895 27363.50 28274.30 205.10
5123 23.6932 28789.00 29053.50 211.51
5124 23.6970 29259.30 29936.20 213.16
5125 23.7008 30892.60 30913.00 220.90
5126 23.7045 31897.40 31968.90 223.82
5127 23.7083 33591.50 33176.60 231.40
5128 23.7120 34554.10 34492.10 235.65
5129 23.7158 36879.10 36009.50 245.01
5130 23.7196 38373.90 37725.40 251.50
5131 23.7233 41798.00 39619.20 266.86
5132 23.7271 43883.50 41839.00 271.95
5133 23.7308 49122.80 44318.10 291.55
5134 23.7346 52671.90 47257.80 307.14
5135 23.7384 58560.10 50684.30 327.10
5136 23.7421 64155.60 54598.80 347.30
5137 23.7459 73557.80 59363.30 377.35
5138 23.7496 83009.30 64942.80 406.18
5139 23.7534 97537.50 71988.30 454.57
5140 23.7572 111089.00 81006.20 495.29
5141 23.7609 132557.00 92785.70 554.86
5142 23.7647 154252.00 110063.00 612.82
5143 23.7684 189527.00 135396.00 710.12
5144 23.7722 226126.00 175661.00 802.80
5145 23.7760 281471.00 237908.00 935.61
5146 23.7797 339626.00 327916.00 1075.00
5147 23.7835 433340.00 458193.00 1282.58
5148 23.7872 534415.00 625514.00 1506.80
5149 23.7910 698839.00 834856.00 1852.79
5150 23.7948 884755.00 1063150.00 2215.55
5151 23.7985 1151350.00 1273060.00 2753.54
5152 23.8023 1397810.00 1451870.00 3196.72
5153 23.8060 1648740.00 1584340.00 3684.32
5154 23.8098 1727050.00 1659620.00 3827.20
5155 23.8136 1700970.00 1627480.00 3773.38
5156 23.8173 1476040.00 1467840.00 3354.23
5157 23.8211 1221780.00 1211170.00 2878.27
5158 23.8248 934077.00 938060.00 2333.08
5159 23.8286 714524.00 684415.00 1890.90
5160 23.8324 524967.00 481758.00 1490.67
5161 23.8361 395063.00 337777.00 1203.50
5162 23.8399 292324.00 237813.00 967.08
5163 23.8436 226232.00 175567.00 806.59
5164 23.8474 174825.00 135679.00 675.31
5165 23.8512 141343.00 110621.00 581.42
5166 23.8549 114227.00 94381.70 505.05
5167 23.8587 97126.80 82473.40 452.53
5168 23.8624 82792.70 73648.80 408.34
5169 23.8662 73931.00 66429.50 380.48
5170 23.8700 65323.20 60525.40 351.01
5171 23.8737 59657.30 55731.30 332.69
5172 23.8775 54343.60 51573.60 312.78
5173 23.8812 51048.50 48126.50 300.22
5174 23.8850 47473.20 45083.60 285.43
5175 23.8888 45039.20 42457.90 246.54
5176 23.8963 40217.60 38230.10 235.32
5177 23.9000 37837.50 36514.10 248.58
5178 23.9038 36388.80 34955.40 243.84
5179 23.9076 34119.40 33572.20 235.09
5180 23.9113 33704.80 32371.00 233.09
5181 23.9151 31834.50 31266.70 225.59
5182 23.9188 31437.80 30300.80 224.05
5183 23.9226 30161.90 29407.30 218.76
5184 23.9264 29663.40 28601.20 215.26
5185 23.9301 28382.90 27891.30 210.61
5186 23.9339 28325.00 27230.80 210.46
5187 23.9376 27388.20 26647.60 206.79
5188 23.9414 27192.10 26104.60 205.42
5189 23.9452 26218.20 25614.50 201.30
5190 23.9489 26265.80 25184.70 200.81
5191 23.9527 25263.40 24791.10 196.15
5192 23.9564 25922.60 24454.50 200.08
5193 23.9602 25278.50 24159.40 196.66
5194 23.9640 25277.40 23920.60 195.98
5195 23.9677 25111.60 23749.10 195.28
5196 23.9715 25304.30 23645.00 195.81
5197 23.9752 25320.70 23623.90 197.32
5198 23.9790 25575.50 23694.70 197.20
5199 23.9828 25601.90 23866.80 198.97
5200 23.9865 26301.40 24134.00 200.07
5201 23.9903 25968.60 24504.20 199.71
5202 23.9940 26381.80 24939.30 200.02
5203 23.9978 26193.30 25423.80 200.63
5204 24.0016 27022.00 25880.50 204.57
5205 24.0053 26906.30 26207.80 203.88
5206 24.0091 27294.50 26321.50 205.22
5207 24.0128 27220.70 26149.40 206.73
5208 24.0166 27510.90 25686.80 206.40
5209 24.0204 26063.40 25010.20 199.90
5210 24.0241 25892.80 24244.30 199.92
5211 24.0279 24924.40 23436.30 194.93
5212 24.0316 24174.60 22686.30 191.76
5213 24.0354 22951.50 21988.10 186.69
5214 24.0392 22371.80 21379.90 182.98
5215 24.0429 20818.00 20876.90 175.24
5216 24.0467 20846.80 20447.00 174.89
5217 24.0504 19670.40 20103.10 170.33
5218 24.0542 19565.00 19814.50 169.27
5219 24.0580 19216.50 19578.40 167.84
5220 24.0617 19167.60 19387.90 167.04
5221 24.0655 18562.50 19222.70 163.44
5222 24.0692 18815.00 19084.20 164.87
5223 24.0730 18442.80 18959.10 163.75
5224 24.0768 18620.20 18847.30 164.51
5225 24.0805 18382.80 18748.10 163.06
5226 24.0843 18254.20 18654.50 163.23
5227 24.0880 18300.90 18569.80 163.33
5228 24.0918 18270.20 18488.50 162.52
5229 24.0956 17828.60 18412.20 160.14
5230 24.0993 18054.10 18342.20 161.26
5231 24.1031 17806.40 18274.30 159.95
5232 24.1069 18004.70 18209.90 160.88
5233 24.1106 17533.60 18150.40 159.03
5234 24.1144 17739.00 18092.30 159.81
5235 24.1181 17581.40 18038.30 160.12
5236 24.1219 17878.80 17985.30 158.17
5237 24.1257 17826.60 17934.70 158.38
5238 24.1294 17887.60 17887.50 158.31
5239 24.1332 17686.70 17841.10 158.22
5240 24.1369 17647.40 17797.70 156.29
5241 24.1407 17424.90 17754.90 156.27
5242 24.1445 17867.30 17713.70 158.47
5243 24.1482 17320.80 17675.10 155.59
5244 24.1520 17661.00 17636.90 157.87
5245 24.1557 17376.60 17601.10 156.48
5246 24.1595 17776.80 17565.60 157.76
5247 24.1633 17299.40 17531.30 155.84
5248 24.1670 17297.50 17499.00 155.76
5249 24.1708 17231.50 17467.00 154.81
5250 24.1745 17270.70 17436.90 155.86
5251 24.1783 17168.20 17406.90 155.02
5252 24.1821 17326.10 17377.80 155.43
5253 24.1858 17187.10 17350.50 155.47
5254 24.1896 17312.30 17323.20 155.97
5255 24.1933 17058.70 17297.40 154.23
5256 24.1971 17237.40 17271.80 155.97
5257 24.2009 17037.60 17246.90 154.32
5258 24.2046 17451.00 17223.30 156.36
5259 24.2084 16792.50 17199.80 153.24
5260 24.2121 17221.50 17177.50 155.61
5261 24.2159 16946.80 17155.30 153.74
5262 24.2197 17087.10 17133.60 155.04
5263 24.2234 16811.50 17113.20 152.79
5264 24.2272 17101.20 17092.70 154.12
5265 24.2309 16789.20 17073.20 151.97
5266 24.2347 17113.50 17053.80 154.67
5267 24.2385 16807.10 17034.90 153.11
5268 24.2422 16908.90 17016.90 153.80
5269 24.2460 16666.60 16714.60 152.70
5270 24.2498 16809.80 16701.80 153.49
5271 24.2535 16676.90 16689.60 152.70
5272 24.2573 17083.10 16677.40 155.04
5273 24.2610 16448.00 16101.30 151.51
5274 24.2648 16971.50 16099.10 152.13
5275 24.2686 16559.60 16096.90 151.76
5276 24.2723 16567.50 16094.90 151.69
5277 24.2761 16389.90 16092.80 151.30
5278 24.2798 16905.50 16090.70 152.93
5279 24.2836 16964.30 16088.70 153.96
5280 24.2874 16576.60 16086.70 152.74
5281 24.2911 16492.00 16084.70 151.61
5282 24.2949 16670.90 16082.70 151.71
5283 24.2986 16625.10 16080.80 152.19
5284 24.3024 16769.60 16078.90 152.34
5285 24.3062 16435.50 16077.00 151.05
5286 24.3099 16877.40 16075.10 153.60
5287 24.3137 16500.90 16073.20 150.75
5288 24.3174 16547.60 16071.40 151.08
5289 24.3212 16439.30 16069.50 151.40
5290 24.3250 16541.20 16067.70 151.15
5291 24.3287 16360.10 16065.90 151.07
5292 24.3325 16527.30 16064.00 151.95
5293 24.3362 16532.60 16062.30 151.84
5294 24.3400 16594.90 16060.50 152.25
5295 24.3438 16648.40 16058.70 151.55
5296 24.3475 16636.70 16056.90 151.53
5297 24.3513 16477.80 16055.20 151.87
5298 24.3550 16814.40 16053.50 153.17
5299 24.3588 16521.80 16051.70 151.86
5300 24.3626 16785.40 16049.90 152.61
5301 24.3663 16420.80 16048.30 151.09
5302 24.3701 16670.20 16046.50 152.53
5303 24.3739 16407.00 16044.80 151.25
5304 24.3776 16675.80 16043.10 152.73
5305 24.3814 16371.80 16041.40 151.24
5306 24.3851 16541.80 16039.70 151.45
5307 24.3889 16297.40 16038.00 150.43
5308 24.3927 16443.20 16036.30 150.76
5309 24.3964 16264.70 16034.70 150.35
5310 24.4002 16560.00 16033.00 151.82
5311 24.4039 16383.60 16031.40 151.46
5312 24.4077 16421.10 16029.70 151.64
5313 24.4115 16339.30 16028.00 151.27
5314 24.4152 16417.00 16026.40 150.71
5315 24.4190 16613.20 16024.70 152.38
5316 24.4227 16630.30 16023.10 152.32
5317 24.4265 16426.70 16021.50 150.63
5318 24.4303 16719.30 16019.80 152.60
5319 24.4340 16422.00 16018.20 151.50
5320 24.4378 16384.40 16016.50 151.77
5321 24.4415 16463.60 16014.90 151.55
5322 24.4453 16782.50 16013.30 153.23
5323 24.4491 16586.90 16011.70 152.13
5324 24.4528 16521.10 16010.10 152.12
5325 24.4566 16212.40 16008.40 150.43
5326 24.4603 16438.40 16006.80 151.99
5327 24.4641 16358.60 16005.20 151.08
5328 24.4679 16401.90 16003.60 151.17
5329 24.4716 16120.40 16002.00 149.77
5330 24.4754 16644.80 16000.40 152.44
5331 24.4792 16353.60 15998.70 151.54
5332 24.4829 16591.20 15997.10 152.28
5333 24.4867 16197.80 15995.50 150.93
5334 24.4904 16534.40 15993.90 151.89
5335 24.4942 16209.00 15992.30 149.17
5336 24.4980 16517.70 15990.70 153.04
5337 24.5017 16236.10 15989.10 150.19
5338 24.5055 16314.20 15987.50 151.07
5339 24.5092 16437.40 15985.90 151.23
5340 24.5130 16480.70 15984.30 150.99
5341 24.5168 16161.50 15982.70 150.72
5342 24.5205 16251.30 15981.10 150.93
5343 24.5243 16403.70 15979.50 151.76
5344 24.5280 16402.70 15977.90 151.72
5345 24.5318 15914.00 15976.30 149.01
5346 24.5356 16342.00 15968.80 151.50
5347 24.5393 16102.40 15967.30 149.78
5348 24.5431 16377.50 15965.70 150.93
5349 24.5468 16378.70 15964.20 151.23
5350 24.5506 16379.90 15962.70 151.12
5351 24.5544 16212.50 15961.20 150.22
5352 24.5581 16274.20 15959.70 151.07
5353 24.5619 16184.10 15958.10 150.12
5354 24.5656 16144.10 15956.70 149.78
5355 24.5694 16144.60 15955.10 149.85
5356 24.5732 16630.70 15953.60 153.21
5357 24.5769 16167.80 15952.10 149.87
5358 24.5807 16408.50 15950.50 151.55
5359 24.5845 16260.50 15949.00 151.03
5360 24.5882 16166.50 15947.50 150.73
5361 24.5920 15945.00 15945.90 149.04
5362 24.5957 16255.90 15944.40 150.68
5363 24.5995 15905.00 15942.90 149.22
5364 24.6033 16318.10 15941.30 153.75
5365 24.6070 15964.90 15939.80 150.30
5366 24.6108 16081.00 15938.20 150.58
5367 24.6145 16079.30 15936.70 150.80
5368 24.6183 16265.30 15935.20 151.36
5369 24.6221 16230.00 15933.60 150.68
5370 24.6258 16353.40 15932.10 151.78
5371 24.6296 15875.50 15930.50 149.41
5372 24.6333 16361.20 15929.00 150.70
5373 24.6371 15786.40 15927.40 148.97
5374 24.6409 16195.00 15925.80 150.99
5375 24.6446 15802.00 15924.30 148.86
5376 24.6484 16305.60 15922.70 151.61
5377 24.6521 15997.40 15921.20 150.44
5378 24.6559 16354.60 15919.60 151.33
5379 24.6597 15903.80 15918.10 149.33
5380 24.6634 15982.70 15916.50 149.90
5381 24.6672 15919.50 15914.90 148.91
5382 24.6709 16217.10 15913.40 151.79
5383 24.6747 15835.30 15911.80 149.07
5384 24.6785 16348.00 15910.20 152.51
5385 24.6822 15927.30 15908.70 149.15
5386 24.6860 16230.00 15907.10 151.66
5387 24.6898 15739.80 15905.50 148.82
5388 24.6935 16142.10 15904.00 151.17
5389 24.6973 15694.60 15902.40 148.45
5390 24.7010 16099.60 15900.80 150.41
5391 24.7048 16032.10 15899.20 149.60
5392 24.7086 16294.10 15897.60 152.02
5393 24.7123 15979.20 15896.10 150.12
5394 24.7161 15985.10 15894.50 149.87
5395 24.7198 15792.50 15892.90 149.07
5396 24.7236 16228.10 15891.30 151.52
5397 24.7274 15864.30 15889.70 149.43
5398 24.7311 16415.00 15888.10 152.50
5399 24.7349 15869.50 15886.50 149.05
5400 24.7386 16189.80 15885.00 151.87
5401 24.7424 16036.20 15883.40 150.78
5402 24.7462 16331.80 15881.70 152.39
5403 24.7499 15940.80 15880.20 150.36
5404 24.7537 16071.90 15878.60 150.27
5405 24.7574 15942.20 15877.00 149.16
5406 24.7612 16241.70 15875.40 151.13
5407 24.7650 15884.00 15873.70 149.11
5408 24.7687 16058.60 15872.20 150.41
5409 24.7725 15842.70 15870.50 148.33
5410 24.7762 16073.10 15869.00 150.52
5411 24.7800 16230.60 15867.30 151.59
5412 24.7838 16020.20 15865.70 149.97
5413 24.7875 15592.20 15864.10 147.95
5414 24.7913 16103.60 15862.50 151.03
5415 24.7950 15907.80 15860.90 149.25
5416 24.7988 16064.60 15859.20 150.42
5417 24.8026 15737.10 15857.60 148.05
5418 24.8063 16002.50 15856.00 149.83
5419 24.8101 15840.50 15854.40 149.04
5420 24.8139 16277.60 15852.70 152.26
5421 24.8176 16033.60 15851.10 150.36
5422 24.8214 16016.50 15849.50 150.41
5423 24.8251 16045.70 15847.90 150.09
5424 24.8289 15896.30 15846.20 149.49
5425 24.8327 15733.90 15844.60 148.75
5426 24.8364 15918.80 15843.00 150.46
5427 24.8402 15707.80 15841.30 148.23
5428 24.8439 15964.00 15839.70 150.53
5429 24.8477 15898.10 15838.10 149.79
5430 24.8515 15952.40 15836.40 149.68
5431 24.8552 15802.00 15834.80 148.81
5432 24.8590 16085.80 15833.10 149.74
5433 24.8627 15987.10 15831.50 151.15
5434 24.8665 15998.50 15829.80 150.39
5435 24.8703 15588.50 15828.20 148.18
5436 24.8740 16066.30 15826.50 150.50
5437 24.8778 15839.70 15824.90 150.26
5438 24.8815 15912.60 15823.30 149.15
5439 24.8853 15730.50 15821.60 148.33
5440 24.8891 16063.20 15819.90 150.26
5441 24.8928 15981.40 15818.30 150.26
5442 24.8966 16060.70 15816.60 150.95
5443 24.9003 16086.50 15815.00 150.31
5444 24.9041 16129.80 15813.30 150.73
5445 24.9079 15635.90 15811.60 147.67
5446 24.9116 15992.70 15810.00 150.26
5447 24.9154 15685.70 15808.30 148.43
5448 24.9192 16014.80 15806.60 150.58
5449 24.9229 15694.90 15804.90 149.18
5450 24.9267 16227.90 15803.20 150.17
5451 24.9304 15889.40 15801.60 149.44
5452 24.9342 16033.50 15799.90 150.30
5453 24.9380 15594.70 15798.20 148.55
5454 24.9417 15834.10 15796.60 149.95
5455 24.9455 15948.90 15794.90 149.92
5456 24.9492 16097.60 15793.20 150.60
5457 24.9530 15932.30 15791.50 149.87
5458 24.9568 16070.70 15789.80 151.16
5459 24.9605 15786.10 15788.10 148.62
5460 24.9643 15904.90 15786.40 150.09
5461 24.9680 15804.90 15784.80 148.81
5462 24.9718 15966.20 15783.10 150.27
5463 24.9756 15651.00 15781.30 149.84
5464 24.9793 15932.40 15779.70 150.12
5465 24.9831 15723.70 15778.00 148.88
5466 24.9868 15850.60 15776.30 150.27
5467 24.9906 15655.00 15774.60 148.19
5468 24.9944 15892.30 15772.90 150.43
5469 24.9981 15743.00 15771.20 148.91
5470 25.0019 16068.60 15769.50 151.32
5471 25.0056 15664.50 15767.80 147.80
5472 25.0094 16125.90 15766.00 151.16
5473 25.0132 15761.30 15764.30 148.63
5474 25.0169 16076.10 15762.60 151.17
5475 25.0207 15912.50 15760.90 149.38
5476 25.0244 15612.80 15759.20 148.13
5477 25.0282 15618.60 15757.50 148.66
5478 25.0320 16031.20 15755.70 151.43
5479 25.0357 15531.40 15754.00 147.84
5480 25.0395 15933.40 15752.30 149.66
5481 25.0432 15613.40 15750.60 148.88
5482 25.0470 15954.40 15748.90 150.12
5483 25.0508 15532.50 15747.10 147.82
5484 25.0545 15923.50 15745.40 149.71
5485 25.0583 15587.10 15743.70 148.12
5486 25.0621 15998.10 15741.90 150.95
5487 25.0658 15575.20 15740.20 148.80
5488 25.0696 16088.90 15738.50 151.03
5489 25.0733 15683.50 15736.80 148.55
5490 25.0771 15890.20 15735.00 150.37
5491 25.0809 15706.60 15733.20 149.30
5492 25.0846 15964.10 15731.50 150.62
5493 25.0884 15711.30 15729.80 148.70
5494 25.0921 16164.80 15728.00 151.27
5495 25.0959 15895.30 15726.30 149.71
5496 25.0997 15708.70 15724.50 148.78
5497 25.1034 15829.40 15722.80 149.39
5498 25.1072 15782.70 15721.00 148.79
5499 25.1109 15502.40 15719.30 146.12
5500 25.1147 15815.90 15717.50 149.00
5501 25.1185 15678.20 15715.80 146.43
5502 25.1222 15820.80 15714.00 149.05
5503 25.1260 15505.00 15712.20 147.74
5504 25.1297 15854.60 15710.50 150.00
5505 25.1335 15831.50 15708.70 149.87
5506 25.1373 15877.80 15706.90 149.36
5507 25.1410 15619.50 15705.20 148.45
5508 25.1448 15960.90 15703.40 149.79
5509 25.1485 15711.20 15701.70 149.16
5510 25.1523 15810.80 15699.90 146.90
5511 25.1561 15650.90 15698.10 148.18
5512 25.1598 16009.30 15696.30 150.45
5513 25.1636 15625.20 15694.60 148.38
5514 25.1673 15956.70 15692.80 149.90
5515 25.1711 15667.40 15691.00 148.70
5516 25.1749 15883.00 15689.20 149.96
5517 25.1786 15610.00 15687.50 147.98
5518 25.1824 15941.10 15685.60 150.50
5519 25.1861 15757.10 15683.90 149.16
5520 25.1899 15754.30 15682.10 149.02
5521 25.1937 15708.90 15680.30 148.44
5522 25.1974 15922.30 15678.50 150.15
5523 25.2012 15513.60 15676.70 147.39
5524 25.2049 15855.50 15674.90 148.78
5525 25.2087 15510.30 15673.10 148.01
5526 25.2125 15617.50 15671.30 148.51
5527 25.2162 15527.20 15669.50 147.53
5528 25.2200 15768.10 15667.70 148.72
5529 25.2237 15311.50 15665.90 147.10
5530 25.2275 15970.70 15664.10 150.65
5531 25.2313 15309.50 15662.30 145.96
5532 25.2350 15863.90 15660.50 149.69
5533 25.2388 15529.10 15658.70 147.60
5534 25.2426 15583.80 15656.80 147.40
5535 25.2463 15496.30 15655.10 147.07
5536 25.2501 15762.70 15653.20 148.88
5537 25.2538 15323.00 15651.40 145.54
5538 25.2576 15568.70 15649.60 147.69
5539 25.2614 15569.20 15647.80 147.90
5540 25.2651 15553.80 15646.00 148.04
5541 25.2689 15479.90 15644.10 145.64
5542 25.2726 15761.20 15642.30 148.63
5543 25.2764 15638.20 15640.50 148.96
5544 25.2802 15789.80 15638.60 148.99
5545 25.2839 15408.60 15636.80 146.67
5546 25.2877 15479.20 15635.00 146.59
5547 25.2914 15125.50 15633.20 145.93
5548 25.2952 15692.90 15631.30 148.01
5549 25.2990 15275.90 15629.50 145.84
5550 25.3027 15412.30 15627.70 146.39
5551 25.3065 15128.60 15625.80 145.25
5552 25.3102 15485.40 15624.00 146.52
5553 25.3140 15370.90 15622.10 146.56
5554 25.3178 15611.00 15620.30 147.88
5555 25.3215 15415.30 15618.50 146.75
5556 25.3253 15527.60 15616.60 148.24
5557 25.3290 15383.00 15614.80 146.46
5558 25.3328 15603.40 15612.90 147.91
5559 25.3366 15334.20 15611.00 146.23
5560 25.3403 15523.80 15609.20 147.37
5561 25.3441 15380.70 15607.30 146.45
5562 25.3478 15255.40 15605.50 146.06
5563 25.3516 15485.30 15603.60 146.73
5564 25.3554 15640.60 15601.70 147.46
5565 25.3591 15287.70 15599.90 146.13
5566 25.3629 15568.80 15598.00 147.86
5567 25.3666 15461.10 15596.20 146.76
5568 25.3704 15703.30 15594.30 148.42
5569 25.3742 15165.70 15592.40 145.62
5570 25.3779 15570.50 15590.60 147.49
5571 25.3817 15415.80 15588.70 146.82
5572 25.3854 15473.90 15586.80 147.59
5573 25.3892 15334.40 15584.90 145.82
5574 25.3930 15780.20 15583.00 149.14
5575 25.3967 15261.90 15581.20 146.12
5576 25.4005 15661.00 15579.30 148.62
5577 25.4042 15449.50 15577.40 147.12
5578 25.4080 15478.10 15575.50 148.04
5579 25.4118 15260.90 15573.60 146.20
5580 25.4155 15648.70 15571.80 148.37
5581 25.4193 15386.40 15569.90 146.43
5582 25.4230 15362.20 15568.00 146.12
5583 25.4268 15320.40 15566.10 146.57
5584 25.4306 15667.10 15564.20 148.58
5585 25.4343 15290.00 15562.30 147.04
5586 25.4381 15458.60 15560.40 147.25
5587 25.4418 15190.00 15558.50 146.54
5588 25.4456 15575.20 15556.60 147.67
5589 25.4494 15387.30 15554.70 147.02
5590 25.4531 15456.70 15552.80 147.47
5591 25.4569 15310.40 15550.90 146.13
5592 25.4606 15573.20 15549.00 148.60
5593 25.4644 15547.40 15547.10 147.95
5594 25.4682 15332.30 15545.10 146.96
5595 25.4719 15274.90 15543.30 146.01
5596 25.4757 15617.20 15541.30 147.73
5597 25.4794 15192.50 15539.40 145.35
5598 25.4832 15517.90 15537.50 147.83
5599 25.4870 15159.80 15535.60 145.91
5600 25.4907 15581.40 15533.70 148.52
5601 25.4945 15192.50 15531.70 145.45
5602 25.4982 15445.40 15529.80 148.17
5603 25.5020 15358.30 15527.90 146.75
5604 25.5058 15473.50 15525.90 147.94
5605 25.5095 15102.20 15524.00 145.31
5606 25.5133 15513.30 15523.10 148.12
5607 25.5170 15237.30 15521.20 146.10
5608 25.5208 15501.20 15519.30 147.87
5609 25.5246 15281.40 15517.30 146.19
5610 25.5283 15704.40 15515.40 148.66
5611 25.5321 15508.20 15513.50 147.68
5612 25.5358 15539.50 15511.60 147.48
5613 25.5396 15112.70 15509.60 145.29
5614 25.5434 15533.60 15507.70 147.65
5615 25.5471 15181.30 15505.80 146.07
5616 25.5509 15582.90 15503.90 148.44
5617 25.5546 15386.70 15502.00 147.24
5618 25.5584 15664.50 15500.00 149.13
5619 25.5621 15155.80 15498.10 146.21
5620 25.5659 15504.10 15496.20 148.85
5621 25.5697 15144.50 15494.20 146.23
5622 25.5734 15572.20 15492.30 148.34
5623 25.5772 15013.40 15490.40 145.08
5624 25.5809 15377.90 15488.40 146.95
5625 25.5847 15100.80 15486.50 145.89
5626 25.5885 15307.30 15484.50 147.00
5627 25.5922 15218.60 15482.60 147.23
5628 25.5960 15583.20 15480.70 147.51
5629 25.5997 15127.20 15478.80 145.80
5630 25.6035 15526.60 15476.80 148.79
5631 25.6073 15139.80 15474.80 146.57
5632 25.6110 15492.00 15472.90 148.56
5633 25.6148 15155.80 15471.00 144.47
5634 25.6185 15185.10 15469.10 146.05
5635 25.6223 15052.60 15467.10 145.48
5636 25.6261 15462.60 15465.10 148.54
5637 25.6298 15163.10 15463.20 145.69
5638 25.6336 15276.10 15461.20 146.61
5639 25.6373 15070.30 15459.30 145.96
5640 25.6411 15343.60 15457.40 146.99
5641 25.6449 14986.50 15455.40 144.76
5642 25.6486 15218.60 15453.50 145.81
5643 25.6524 15241.80 15451.50 147.35
5644 25.6561 15445.00 15449.60 147.11
5645 25.6599 14924.40 15447.60 145.11
5646 25.6637 15559.80 15445.70 148.57
5647 25.6674 15230.30 15443.80 146.62
5648 25.6712 15539.30 15441.80 148.53
5649 25.6749 15275.20 15439.90 146.15
5650 25.6787 15220.20 15437.90 146.40
5651 25.6825 15109.40 15436.00 145.52
5652 25.6862 15211.80 15434.00 146.02
5653 25.6900 15157.60 15432.10 146.23
5654 25.6937 15363.20 15430.20 147.47
5655 25.6975 15126.20 15428.20 144.97
5656 25.7013 15389.30 15426.20 147.42
5657 25.7050 15192.90 15424.30 145.61
5658 25.7088 15251.90 15422.40 146.04
5659 25.7125 14998.00 15420.50 144.79
5660 25.7163 15262.90 15418.50 147.37
5661 25.7200 15102.90 15416.60 145.47
5662 25.7238 15090.60 15414.70 145.51
5663 25.7276 15276.80 15412.70 146.37
5664 25.7313 15325.40 15410.80 147.03
5665 25.7351 15062.90 15408.90 144.78
5666 25.7388 15314.30 15407.00 146.55
5667 25.7426 15115.40 15405.10 145.37
5668 25.7464 15293.60 15403.20 146.86
5669 25.7501 15045.90 15401.30 145.18
5670 25.7539 15303.80 15399.40 147.71
5671 25.7576 14914.40 15397.50 143.23
5672 25.7614 15231.30 15395.60 146.07
5673 25.7652 15172.00 15393.70 145.66
5674 25.7689 15344.70 15391.90 146.68
5675 25.7727 15301.60 15390.00 146.90
5676 25.7764 15403.00 15388.20 147.60
5677 25.7802 14943.80 15386.30 144.12
5678 25.7840 15146.80 15384.40 145.15
5679 25.7877 15245.50 15382.60 146.10
5680 25.7915 15328.60 15380.80 146.87
5681 25.7952 14949.70 15379.00 144.89
5682 25.7990 15228.30 15377.20 146.38
5683 25.8027 14947.30 15375.50 144.25
5684 25.8065 15369.50 15373.70 147.29
5685 25.8103 14976.70 15372.00 145.35
5686 25.8140 15301.70 15370.30 146.46
5687 25.8178 14914.00 15368.60 145.80
5688 25.8215 15403.90 15366.90 147.60
5689 25.8253 15004.20 15365.30 145.17
5690 25.8291 15245.70 15363.60 145.73
5691 25.8328 15107.10 15362.10 145.61
5692 25.8366 15382.10 15360.50 146.80
5693 25.8403 15211.90 15359.10 146.16
5694 25.8441 15667.20 15357.60 149.43
5695 25.8479 15248.90 15356.20 147.04
5696 25.8516 15534.50 15354.90 148.17
5697 25.8554 15147.50 15353.60 146.62
5698 25.8591 15763.10 15352.40 149.06
5699 25.8629 15493.10 15351.30 148.21
5700 25.8666 15746.50 15350.30 149.52
5701 25.8704 15377.40 15349.40 147.39
5702 25.8742 15579.70 15348.60 149.09
5703 25.8779 15668.30 15348.00 149.29
5704 25.8817 15953.10 15347.50 149.65
5705 25.8854 15692.70 15347.20 149.49
5706 25.8892 15993.60 15347.20 150.87
5707 25.8930 15634.10 15347.40 149.73
5708 25.8967 16015.20 15347.90 151.60
5709 25.9005 15649.90 15348.80 148.95
5710 25.9042 15778.10 15350.10 150.75
5711 25.9080 15565.10 15352.00 148.49
5712 25.9118 15781.10 15354.60 149.84
5713 25.9155 15312.50 15357.90 147.96
5714 25.9193 15600.30 15362.20 148.84
5715 25.9230 15523.40 15367.80 148.75
5716 25.9268 15746.50 15375.10 149.71
5717 25.9305 15512.80 15384.60 148.78
5718 25.9343 15911.50 15398.00 150.07
5719 25.9381 15512.10 15417.50 148.01
5720 25.9418 16229.50 15446.60 152.53
5721 25.9456 15721.60 15494.20 149.55
5722 25.9493 15800.70 15568.70 149.98
5723 25.9531 15746.80 15688.70 150.12
5724 25.9569 15967.60 15868.20 151.19
5725 25.9606 15946.10 16110.40 151.05
5726 25.9644 16126.60 16425.80 152.00
5727 25.9681 15799.20 16774.80 150.82
5728 25.9719 16299.00 17119.30 152.96
5729 25.9757 15572.90 17354.90 148.86
5730 25.9794 16170.20 17385.70 152.81
5731 25.9832 15677.50 17197.50 148.79
5732 25.9869 16118.60 16878.40 152.22
5733 25.9907 15631.90 16512.30 149.13
5734 25.9944 16033.50 16184.40 152.40
5735 25.9982 15761.50 15910.00 150.45
5736 26.0020 15838.00 15706.60 150.56
5737 26.0057 15510.70 15569.70 149.28
5738 26.0095 15595.20 15477.20 149.44
5739 26.0132 15194.50 15419.50 147.15
5740 26.0170 15245.00 15380.80 148.47
5741 26.0208 15414.00 15354.50 148.44
5742 26.0245 15537.80 15335.80 149.05
5743 26.0283 15239.70 15320.80 147.65
5744 26.0320 15493.60 15308.80 149.38
5745 26.0358 15259.70 15298.40 147.80
5746 26.0395 15395.10 15289.60 148.24
5747 26.0433 15301.30 15281.60 147.94
5748 26.0471 15375.00 15274.50 147.66
5749 26.0508 15228.10 15268.30 147.08
5750 26.0546 15010.60 15262.50 143.80
5751 26.0583 15041.50 15257.30 145.15
5752 26.0621 15256.20 15252.40 147.73
5753 26.0659 15253.90 15247.80 147.09
5754 26.0696 15513.90 15243.60 148.52
5755 26.0734 15043.70 15239.50 146.29
5756 26.0771 15019.10 15235.70 145.77
5757 26.0809 14766.20 15232.00 144.63
5758 26.0846 15149.10 15228.50 146.46
5759 26.0884 15099.60 15225.10 146.01
5760 26.0922 15038.80 15221.80 145.64
5761 26.0959 14980.80 15218.70 145.62
5762 26.0997 15436.90 15215.50 148.97
5763 26.1034 14974.80 15212.60 145.37
5764 26.1072 15290.60 15209.60 147.89
5765 26.1110 14853.30 15206.70 144.11
5766 26.1147 15210.60 15203.90 146.67
5767 26.1185 15099.90 15201.10 146.42
5768 26.1222 15029.70 15198.40 145.94
5769 26.1260 15221.80 15195.70 147.66
5770 26.1297 15172.50 15193.10 146.66
5771 26.1335 14635.90 15190.40 143.69
5772 26.1373 15113.80 15187.80 146.54
5773 26.1410 14868.00 15185.30 144.98
5774 26.1448 14908.00 15182.70 144.96
5775 26.1485 14937.60 15180.20 145.47
5776 26.1523 14981.40 15177.70 144.16
5777 26.1561 15042.30 15175.20 146.31
5778 26.1598 14968.20 15172.70 145.12
5779 26.1636 14873.50 15170.20 145.01
5780 26.1673 14910.90 15167.80 145.77
5781 26.1711 14856.20 15165.40 144.93
5782 26.1748 15046.40 15163.00 145.46
5783 26.1786 14800.20 15160.60 145.06
5784 26.1824 14869.50 15158.10 144.57
5785 26.1861 14823.00 15175.00 144.42
5786 26.1899 14987.10 15172.90 145.04
5787 26.1936 14733.90 15170.90 144.73
5788 26.1974 14848.70 15189.30 144.71
5789 26.2011 14741.30 15207.90 144.10
5790 26.2049 15234.80 15206.50 146.97
5791 26.2087 14589.00 15205.20 144.10
5792 26.2124 14878.70 15203.90 145.51
5793 26.2162 14821.30 15202.70 145.05
5794 26.2199 14932.40 15201.50 145.03
5795 26.2237 14673.40 15200.20 144.21
5796 26.2274 15124.30 15199.10 146.29
5797 26.2312 15022.70 15197.90 146.44
5798 26.2350 15135.40 15196.80 146.95
5799 26.2387 14498.00 15195.80 142.52
5800 26.2425 15019.10 15194.80 145.60
5801 26.2462 14770.80 15193.80 144.48
5802 26.2500 14901.30 15192.80 144.98
5803 26.2538 14711.60 15191.90 143.63
5804 26.2575 15078.10 15191.00 145.70
5805 26.2613 14861.10 15190.20 144.17
5806 26.2650 15056.70 15189.40 145.74
5807 26.2688 14678.80 15188.70 143.56
5808 26.2725 15371.30 15188.00 145.79
5809 26.2763 14798.30 15187.30 144.44
5810 26.2801 15012.40 15186.70 145.91
5811 26.2838 14937.20 15186.20 144.32
5812 26.2876 15266.30 15185.70 145.73
5813 26.2913 14842.20 15185.20 145.09
5814 26.2951 15179.50 15184.90 146.95
5815 26.2988 14869.90 15184.50 144.35
5816 26.3026 15222.60 15184.30 146.31
5817 26.3064 14964.10 15184.10 145.13
5818 26.3101 15277.60 15183.90 147.07
5819 26.3139 14589.60 15183.90 143.18
5820 26.3176 15238.50 15183.90 146.57
5821 26.3214 14940.40 15184.00 144.18
5822 26.3251 15403.10 15184.10 147.69
5823 26.3289 14920.70 15184.40 145.32
5824 26.3327 15269.00 15184.70 147.38
5825 26.3364 14926.90 15185.10 145.68
5826 26.3402 15209.70 15185.70 146.83
5827 26.3439 15049.90 15186.30 145.66
5828 26.3477 15307.40 15187.00 146.66
5829 26.3514 15005.50 15187.80 145.77
5830 26.3552 15363.90 15188.70 147.99
5831 26.3590 14975.10 15189.80 145.27
5832 26.3627 15282.50 15191.00 147.55
5833 26.3665 14876.10 15192.30 145.17
5834 26.3702 15037.00 15193.70 145.22
5835 26.3740 14980.00 15195.30 146.04
5836 26.3777 15084.30 15197.00 145.80
5837 26.3815 14859.80 15199.00 144.92
5838 26.3853 15042.60 15201.00 146.22
5839 26.3890 14745.10 15203.30 143.34
5840 26.3928 15155.90 15205.70 145.85
5841 26.3965 14553.10 15208.30 143.05
5842 26.4003 14991.20 15211.20 145.63
5843 26.4040 14660.30 15214.20 144.00
5844 26.4078 14885.70 15217.50 145.48
5845 26.4116 14778.30 15221.10 144.29
5846 26.4153 14862.80 15224.80 144.98
5847 26.4191 14802.70 15229.00 143.10
5848 26.4228 14960.70 15233.30 145.92
5849 26.4266 14626.00 15238.00 144.20
5850 26.4303 14731.80 15242.90 144.82
5851 26.4341 14605.30 15248.40 144.10
5852 26.4379 14879.60 15254.20 145.08
5853 26.4416 14766.00 15260.20 144.87
5854 26.4454 14965.70 15266.90 146.00
5855 26.4491 14330.30 15272.90 142.79
5856 26.4529 15327.50 15280.50 147.90
5857 26.4566 14670.90 15288.50 143.47
5858 26.4604 15079.20 15297.20 146.43
5859 26.4642 14429.40 15306.60 142.58
5860 26.4679 14884.60 15316.30 144.81
5861 26.4717 14722.60 15327.10 144.09
5862 26.4754 14732.60 15338.30 144.13
5863 26.4792 14753.80 15350.60 144.32
5864 26.4829 14942.10 15363.50 145.84
5865 26.4867 14674.90 15377.70 143.53
5866 26.4905 14767.10 15392.90 145.21
5867 26.4942 14841.00 15408.90 145.66
5868 26.4980 15041.90 15426.60 146.87
5869 26.5017 14764.30 15445.10 144.33
5870 26.5055 15148.30 15465.60 146.67
5871 26.5092 15251.60 15487.20 146.01
5872 26.5130 15247.40 15511.10 147.24
5873 26.5167 14895.30 15536.30 145.44
5874 26.5205 15206.00 15564.40 147.50
5875 26.5243 15006.80 15594.90 147.05
5876 26.5280 15269.50 15627.20 148.31
5877 26.5318 15232.50 15663.30 147.19
5878 26.5355 15424.70 15701.70 148.05
5879 26.5393 15355.70 15744.70 147.58
5880 26.5430 15469.80 15790.70 147.95
5881 26.5468 15243.90 15842.50 146.93
5882 26.5506 15624.40 15899.60 148.67
5883 26.5543 15383.00 15961.00 147.74
5884 26.5581 15833.30 16030.70 150.54
5885 26.5618 15828.30 16106.10 149.31
5886 26.5656 15959.50 16192.30 150.91
5887 26.5693 15741.00 16286.20 149.66
5888 26.5731 15870.10 16394.40 150.27
5889 26.5768 15960.00 16513.00 151.01
5890 26.5806 16352.30 16650.80 152.98
5891 26.5844 16194.70 16807.80 151.46
5892 26.5881 16783.10 16982.60 154.91
5893 26.5919 16633.20 17188.90 154.56
5894 26.5956 17245.20 17421.30 157.70
5895 26.5994 17143.80 17699.40 157.52
5896 26.6031 18033.20 18017.60 160.95
5897 26.6069 18296.30 18406.10 163.67
5898 26.6107 19317.80 18876.70 168.10
5899 26.6144 20007.50 19443.40 172.68
5900 26.6182 21269.50 20191.20 178.62
5901 26.6219 22454.50 21171.20 184.25
5902 26.6257 25215.90 22598.40 196.90
5903 26.6294 27183.00 24652.40 206.42
5904 26.6332 31130.80 27835.00 224.24
5905 26.6369 34904.80 32477.60 239.78
5906 26.6407 41704.30 39424.30 267.56
5907 26.6445 49184.50 49135.50 296.10
5908 26.6482 60634.10 61529.50 336.69
5909 26.6520 73649.40 76954.70 379.98
5910 26.6557 91888.00 93286.00 440.00
5911 26.6595 110022.00 109037.00 496.71
5912 26.6632 131123.00 120953.00 554.37
5913 26.6670 137439.00 127765.00 573.62
5914 26.6707 140736.00 127328.00 584.05
5915 26.6745 126744.00 118612.00 543.97
5916 26.6783 109268.00 103279.00 492.77
5917 26.6820 87023.70 85695.40 425.52
5918 26.6858 69677.10 68357.70 369.16
5919 26.6895 54368.90 54067.60 314.48
5920 26.6933 45118.00 42688.90 280.20
5921 26.6970 36165.50 34701.00 243.93
5922 26.7008 31059.40 29101.30 223.25
5923 26.7046 26717.60 25435.90 203.78
5924 26.7083 24256.40 23111.20 193.01
5925 26.7121 21641.80 21523.60 180.59
5926 26.7158 20708.90 20447.70 175.71
5927 26.7196 19049.80 19633.00 167.20
5928 26.7233 18605.60 19017.70 165.27
5929 26.7271 17721.70 18507.70 159.00
5930 26.7308 17327.90 18097.00 157.15
5931 26.7346 17125.80 17742.40 157.00
5932 26.7384 16826.40 17441.30 155.78
5933 26.7421 16497.70 17189.70 153.93
5934 26.7459 16458.60 16966.20 152.80
5935 26.7496 15964.40 16776.60 150.39
5936 26.7534 16173.40 16606.00 151.78
5937 26.7571 15780.60 16459.70 149.43
5938 26.7609 16072.30 16326.40 151.57
5939 26.7646 15599.60 16211.10 149.32
5940 26.7684 15784.50 16104.90 150.46
5941 26.7722 15210.20 16009.90 145.92
5942 26.7759 15583.60 15926.30 148.02
5943 26.7797 15229.70 15848.70 146.53
5944 26.7834 15210.40 15780.00 146.61
5945 26.7872 15148.40 15715.70 146.12
5946 26.7909 15242.40 15658.50 146.84
5947 26.7947 14834.50 15604.60 144.85
5948 26.7984 15161.10 15556.40 147.04
5949 26.8022 14733.60 15510.60 144.83
5950 26.8059 15299.40 15469.50 147.46
5951 26.8097 14730.60 15430.40 144.12
5952 26.8135 15106.10 15394.10 146.33
5953 26.8172 14847.90 15361.20 144.70
5954 26.8210 14838.70 15329.70 144.94
5955 26.8247 14916.30 15301.00 144.16
5956 26.8285 15083.10 15273.50 145.99
5957 26.8322 14711.60 15248.40 143.46
5958 26.8360 15021.20 15224.20 145.39
5959 26.8397 14678.70 15202.10 143.93
5960 26.8435 14740.90 15180.90 143.98
5961 26.8473 14758.50 15160.90 144.09
5962 26.8510 14603.10 15142.80 143.51
5963 26.8548 14899.00 15125.30 145.39
5964 26.8585 14983.70 15109.50 145.19
5965 26.8623 14504.40 15094.40 142.43
5966 26.8660 14997.90 15080.80 146.02
5967 26.8698 14754.20 15067.80 144.41
5968 26.8735 14883.40 15056.10 144.73
5969 26.8773 14890.90 15045.00 145.35
5970 26.8810 15100.30 15034.80 145.86
5971 26.8848 14678.30 15024.70 142.27
5972 26.8886 14983.30 15014.70 144.82
5973 26.8923 14857.10 15004.60 144.42
5974 26.8961 15067.40 14993.60 146.02
5975 26.8998 14776.20 14982.20 144.68
5976 26.9036 14990.80 14969.90 146.06
5977 26.9073 14872.40 14957.80 145.54
5978 26.9111 14974.30 14945.30 145.16
5979 26.9148 14785.50 14933.50 144.70
5980 26.9186 14825.90 14921.90 144.61
5981 26.9223 14872.20 14911.00 144.89
5982 26.9261 14526.20 14900.50 142.53
5983 26.9299 14638.20 14890.50 142.18
5984 26.9336 14574.90 14881.40 143.06
5985 26.9374 14522.00 14872.40 142.98
5986 26.9411 14452.00 14864.20 142.81
5987 26.9449 14572.50 14856.10 143.91
5988 26.9486 14515.10 14848.50 143.32
5989 26.9524 14343.80 14841.10 142.06
5990 26.9561 14549.00 14834.10 142.64
5991 26.9599 14311.20 14827.20 141.93
5992 26.9636 14252.40 14820.60 141.54
5993 26.9674 14211.90 14814.10 141.54
5994 26.9712 14522.70 14807.70 143.10
5995 26.9749 14124.70 14801.70 141.15
5996 26.9787 14446.00 14795.60 141.53
5997 26.9824 14277.40 14789.80 141.52
5998 26.9862 14409.50 14784.00 141.79
5999 26.9881 13964.00 14781.10 140.05
6000 26.9918 14553.90 14775.70 143.60
6001 26.9956 14353.60 14770.10 141.27
6002 26.9993 14300.00 14764.90 142.18
6003 27.0031 14182.70 14759.60 141.67
6004 27.0068 14209.00 14754.50 142.14
6005 27.0106 14046.20 14749.40 141.84
6006 27.0144 14321.40 14744.30 143.22
6007 27.0181 14133.40 14739.50 141.26
6008 27.0219 14460.90 14734.60 142.93
6009 27.0256 13954.60 14729.90 139.95
6010 27.0294 14477.40 14725.20 142.68
6011 27.0331 13991.30 14720.70 140.14
6012 27.0369 14414.60 14716.10 142.20
6013 27.0407 14129.30 14711.50 140.96
6014 27.0444 14223.20 14707.20 141.81
6015 27.0482 13967.80 14702.70 139.21
6016 27.0519 14360.20 14698.50 142.28
6017 27.0557 14120.60 14694.20 140.86
6018 27.0594 14423.10 14690.00 142.49
6019 27.0632 14143.50 14685.80 141.13
6020 27.0670 14460.60 14681.70 142.79
6021 27.0707 14107.40 14677.70 140.17
6022 27.0745 14288.50 14673.60 141.46
6023 27.0782 14087.00 14669.70 140.72
6024 27.0820 14119.20 14665.70 140.79
6025 27.0857 13910.40 14661.80 139.91
6026 27.0895 14241.50 14657.90 140.71
6027 27.0932 14154.20 14654.10 141.38
6028 27.0970 14467.50 14650.30 142.46
6029 27.1008 14096.90 14646.50 141.26
6030 27.1045 14454.20 14642.80 143.00
6031 27.1083 14041.80 14639.00 140.53
6032 27.1120 14260.50 14635.40 141.47
6033 27.1158 13931.00 14631.70 139.94
6034 27.1195 14312.00 14628.20 142.34
6035 27.1233 13639.50 14624.50 138.17
6036 27.1270 14130.20 14621.00 141.14
6037 27.1308 13904.00 14617.40 139.76
6038 27.1346 14197.30 14594.70 141.07
6039 27.1383 14036.80 14591.60 139.76
6040 27.1421 14319.90 14588.40 141.87
6041 27.1458 14053.90 14565.00 140.74
6042 27.1496 14602.60 14542.20 142.83
6043 27.1533 13764.10 14539.70 138.41
6044 27.1571 14176.90 14537.10 141.05
6045 27.1609 14091.50 14534.60 140.48
6046 27.1646 14118.30 14532.10 140.63
6047 27.1684 13978.60 14529.50 140.19
6048 27.1721 14147.00 14527.10 141.31
6049 27.1759 14024.80 14524.50 140.13
6050 27.1796 14164.30 14522.00 141.01
6051 27.1834 13885.90 14519.50 138.99
6052 27.1871 14174.20 14517.00 141.12
6053 27.1909 13774.40 14514.40 138.68
6054 27.1947 14165.10 14511.90 141.36
6055 27.1984 13945.70 14509.40 140.20
6056 27.2022 14092.10 14506.80 140.83
6057 27.2059 14012.30 14504.40 140.26
6058 27.2097 14321.10 14501.80 142.33
6059 27.2134 13914.30 14499.30 138.56
6060 27.2172 14158.60 14496.80 140.13
6061 27.2177 13875.30 14496.40 136.96
6062 27.2214 14230.30 14493.90 139.19
6063 27.2252 13815.70 14491.40 136.88
6064 27.2289 14165.80 14488.90 139.51
6065 27.2327 13986.50 14486.30 139.03
6066 27.2364 14189.70 14483.80 139.84
6067 27.2402 13974.60 14481.20 138.97
6068 27.2439 14208.10 14478.80 139.28
6069 27.2477 13942.50 14476.20 138.61
6070 27.2514 14291.70 14473.70 140.35
6071 27.2552 13869.80 14471.10 138.20
6072 27.2590 14279.00 14468.60 140.22
6073 27.2627 14138.40 14466.10 140.10
6074 27.2665 14222.10 14463.50 139.98
6075 27.2702 13945.30 14461.00 138.72
6076 27.2740 14517.20 14458.40 141.15
6077 27.2777 14160.60 14455.90 139.79
6078 27.2815 14060.30 14453.30 138.80
6079 27.2852 14100.30 14450.80 138.45
6080 27.2890 14035.80 14448.30 138.97
6081 27.2927 13956.20 14445.80 138.39
6082 27.2965 14035.40 14443.20 138.84
6083 27.3002 14201.40 14440.70 139.68
6084 27.3040 14029.10 14438.10 138.69
6085 27.3078 13644.40 14435.50 136.96
6086 27.3115 14140.50 14433.00 139.33
6087 27.3153 13764.30 14430.40 137.79
6088 27.3190 14157.20 14427.90 139.89
6089 27.3228 13852.90 14425.40 137.24
6090 27.3265 14281.10 14422.80 139.82
6091 27.3303 14130.60 14420.30 138.89
6092 27.3340 14100.80 14417.80 139.60
6093 27.3378 13944.30 14415.20 137.58
6094 27.3415 14121.00 14412.70 139.20
6095 27.3453 13727.70 14410.10 137.56
6096 27.3491 13856.20 14407.50 137.85
6097 27.3528 13798.40 14405.00 137.76
6098 27.3566 14252.10 14402.40 140.12
6099 27.3603 14002.30 14399.90 137.80
6100 27.3641 14106.20 14397.30 138.68
6101 27.3678 13750.20 14394.80 136.80
6102 27.3716 14173.80 14392.20 139.28
6103 27.3753 14062.30 14389.70 139.17
6104 27.3791 14252.30 14387.10 140.54
6105 27.3828 13966.60 14384.50 138.19
6106 27.3866 14094.50 14382.00 139.87
6107 27.3903 13868.40 14379.40 137.78
6108 27.3941 14111.00 14376.80 139.74
6109 27.3979 13939.60 14374.20 138.83
6110 27.4016 14150.20 14371.70 139.95
6111 27.4054 13760.40 14369.10 136.49
6112 27.4091 13993.50 14366.60 138.29
6113 27.4129 13971.60 14364.00 138.94
6114 27.4166 14044.20 14361.50 139.12
6115 27.4204 13755.30 14358.90 137.86
6116 27.4241 14217.00 14356.40 140.61
6117 27.4279 13926.30 14353.80 138.54
6118 27.4316 14211.60 14351.20 140.27
6119 27.4354 14073.70 14348.60 140.25
6120 27.4392 13941.10 14346.00 137.95
6121 27.4429 13784.20 14343.50 137.75
6122 27.4467 14239.10 14340.90 140.36
6123 27.4504 13745.60 14338.40 138.00
6124 27.4542 13924.70 14335.80 139.19
6125 27.4579 13913.80 14333.20 138.50
6126 27.4617 14262.50 14330.60 140.24
6127 27.4654 13897.80 14328.10 137.53
6128 27.4692 14191.00 14325.50 140.14
6129 27.4729 13909.80 14322.90 138.73
6130 27.4767 13869.30 14320.30 137.86
6131 27.4805 14000.80 14317.70 139.02
6132 27.4842 14125.30 14315.20 140.30
6133 27.4880 13871.30 14312.60 138.64
6134 27.4917 14053.80 14310.00 138.58
6135 27.4955 14065.40 14307.40 139.39
6136 27.4992 13810.80 14304.90 137.71
6137 27.5030 14022.10 14302.30 139.40
6138 27.5067 14240.80 14299.70 139.97
6139 27.5105 13932.40 14297.10 139.06
6140 27.5143 14260.60 14294.50 141.03
6141 27.5180 13927.10 14291.90 138.85
6142 27.5218 14095.80 14289.30 139.41
6143 27.5255 13926.30 14286.80 138.84
6144 27.5293 13950.50 14284.20 138.89
6145 27.5330 13731.10 14281.60 137.45
6146 27.5368 14100.40 14279.00 138.84
6147 27.5405 14083.00 14276.50 139.41
6148 27.5443 14057.50 14273.90 139.62
6149 27.5480 13742.70 14271.30 137.36
6150 27.5518 14193.70 14268.70 140.63
6151 27.5556 14035.50 14266.10 139.66
6152 27.5593 14099.20 14263.50 140.25
6153 27.5631 13950.10 14260.90 139.52
6154 27.5668 14062.10 14258.30 139.16
6155 27.5706 14033.50 14255.70 138.97
6156 27.5743 14170.60 14253.20 139.91
6157 27.5781 14043.80 14250.60 139.56
6158 27.5818 14184.80 14248.00 140.13
6159 27.5856 14090.00 14245.40 139.67
6160 27.5894 14140.40 14242.80 139.84
6161 27.5931 13807.30 14240.20 138.07
6162 27.5969 14183.50 14237.60 140.74
6163 27.6006 13761.40 14235.00 138.41
6164 27.6044 14075.20 14232.40 139.20
6165 27.6081 13804.60 14229.80 138.00
6166 27.6119 14099.90 14227.20 139.98
6167 27.6156 13947.50 14224.70 137.91
6168 27.6194 14087.60 14222.00 139.51
6169 27.6232 13979.60 14219.40 139.63
6170 27.6269 14129.50 14216.80 138.61
6171 27.6307 13779.00 14214.20 137.63
6172 27.6344 13900.80 14211.70 138.20
6173 27.6382 13811.80 14209.00 138.44
6174 27.6419 13839.60 14206.50 138.52
6175 27.6457 13819.80 14203.80 136.64
6176 27.6494 14138.20 14201.30 139.42
6177 27.6532 13636.20 14198.70 137.36
6178 27.6570 14065.80 14196.00 139.62
6179 27.6607 13892.20 14193.50 138.00
6180 27.6645 13993.20 14190.80 138.29
6181 27.6682 13734.10 14188.30 137.24
6182 27.6720 13843.10 14185.60 138.47
6183 27.6757 13882.60 14183.10 138.51
6184 27.6795 14069.60 14180.40 138.42
6185 27.6832 13988.80 14177.90 138.31
6186 27.6870 13929.70 14175.20 136.81
6187 27.6908 13689.70 14172.60 136.34
6188 27.6945 13955.30 14170.00 137.45
6189 27.6983 13813.60 14167.40 136.74
6190 27.7020 13819.00 14164.80 136.67
6191 27.7058 13838.80 14162.20 137.00
6192 27.7095 13899.70 14159.60 137.41
6193 27.7133 13874.60 14157.00 137.23
6194 27.7170 13855.60 14154.40 136.73
6195 27.7208 13926.10 14151.80 137.22
6196 27.7246 14077.20 14149.10 138.72
6197 27.7283 13711.60 14146.60 136.10
6198 27.7321 14125.10 14143.90 137.29
6199 27.7358 13696.40 14141.30 136.63
6200 27.7396 13781.50 14138.70 136.43
6201 27.7433 13696.80 14136.10 136.36
6202 27.7471 13802.50 14133.50 137.19
6203 27.7508 13600.70 14130.90 136.26
6204 27.7546 14090.00 14128.30 137.71
6205 27.7584 13799.90 14125.60 136.10
6206 27.7621 13880.60 14123.10 137.28
6207 27.7659 13802.40 14120.40 137.03
6208 27.7696 13758.30 14117.80 136.72
6209 27.7734 13733.20 14115.20 136.09
6210 27.7771 13768.20 14112.60 137.00
6211 27.7809 13696.10 14110.00 135.97
6212 27.7847 14024.90 14107.30 137.98
6213 27.7884 13882.60 14104.80 137.93
6214 27.7922 14001.20 14102.10 138.30
6215 27.7959 13882.90 14099.50 137.55
6216 27.7997 13702.20 14096.90 136.44
6217 27.8034 13918.90 14094.30 137.75
6218 27.8072 13706.00 14091.70 135.98
6219 27.8109 13867.90 14089.10 136.79
6220 27.8147 14128.10 14086.40 138.46
6221 27.8185 13811.40 14083.80 136.46
6222 27.8222 13895.40 14081.20 137.49
6223 27.8260 13717.70 14078.60 136.45
6224 27.8297 13823.70 14076.00 137.05
6225 27.8335 13829.00 14073.30 137.65
6226 27.8372 13918.20 14070.80 138.28
6227 27.8410 13686.40 14068.10 136.60
6228 27.8448 13928.30 14065.50 138.00
6229 27.8485 13684.50 14062.90 136.86
6230 27.8523 13964.90 14060.20 139.00
6231 27.8560 13853.10 14057.60 136.80
6232 27.8598 13914.20 14055.00 137.39
6233 27.8635 13561.50 14052.40 135.74
6234 27.8673 13784.90 14049.80 137.20
6235 27.8710 13911.60 14047.20 137.37
6236 27.8748 14092.90 14044.50 138.90
6237 27.8786 13743.30 14041.90 136.49
6238 27.8823 13910.60 14039.30 137.90
6239 27.8861 13659.90 14036.60 136.85
6240 27.8898 14074.00 14034.00 139.32
6241 27.8936 13792.00 14031.40 137.17
6242 27.8973 14131.40 14028.80 138.97
6243 27.9011 13676.60 14026.10 137.18
6244 27.9049 14068.60 14023.50 138.35
6245 27.9086 14039.50 14020.90 139.12
6246 27.9124 14001.00 14018.20 138.95
6247 27.9161 13801.30 14015.70 137.46
6248 27.9199 13935.80 14013.00 138.26
6249 27.9236 13582.40 14010.40 135.41
6250 27.9274 14041.30 14007.80 139.54
6251 27.9312 13800.50 14005.10 137.51
6252 27.9349 13774.10 14002.50 136.83
6253 27.9387 13912.60 13999.90 138.16
6254 27.9424 14147.40 13997.30 139.36
6255 27.9462 13893.50 13994.60 137.84
6256 27.9499 13769.60 13992.00 137.29
6257 27.9537 13736.20 13989.40 136.78
6258 27.9574 13846.90 13986.80 137.29
6259 27.9612 13654.00 13984.10 136.01
6260 27.9650 14065.60 13981.50 138.67
6261 27.9687 13742.80 13978.90 136.78
6262 27.9725 13920.30 13976.20 137.88
6263 27.9762 13814.30 13973.60 137.73
6264 27.9800 13848.40 13971.00 137.45
6265 27.9837 13599.90 13968.40 135.98
6266 27.9875 14038.60 13965.70 139.05
6267 27.9913 13898.50 13963.10 137.95
6268 27.9950 14003.20 13960.50 138.31
6269 27.9988 13754.30 13957.80 136.91
6270 28.0025 14049.10 13955.20 138.78
6271 28.0063 13930.00 13952.60 137.52
6272 28.0100 13980.60 13950.00 139.16
6273 28.0138 13795.60 13947.30 137.19
6274 28.0176 14225.90 13944.60 140.08
6275 28.0213 13703.50 13942.10 136.51
6276 28.0251 14058.50 13939.40 139.00
6277 28.0288 13782.90 13936.80 137.08
6278 28.0326 14007.30 13934.10 138.01
6279 28.0363 14018.80 13931.50 139.06
6280 28.0401 13903.60 13928.90 138.23
6281 28.0439 13761.40 13926.20 136.91
6282 28.0476 13870.70 13923.60 136.93
6283 28.0514 13952.50 13921.00 138.23
6284 28.0551 13982.40 13918.40 138.44
6285 28.0589 13768.30 13915.70 137.17
6286 28.0626 13974.80 13913.10 137.96
6287 28.0664 14074.90 13910.50 139.57
6288 28.0702 14007.70 13907.80 138.03
6289 28.0739 13906.70 13905.20 138.51
6290 28.0777 13969.00 13902.50 138.41
6291 28.0814 13905.70 13899.90 138.04
6292 28.0852 13841.80 13897.30 138.40
6293 28.0889 13843.60 13894.70 138.08
6294 28.0927 14020.20 13892.00 138.66
6295 28.0965 13818.40 13889.40 137.73
6296 28.1002 13912.70 13886.80 138.48
6297 28.1040 13928.60 13884.10 138.52
6298 28.1077 13807.70 13881.50 137.53
6299 28.1115 13674.90 13878.80 136.90
6300 28.1152 13804.60 13876.20 137.25
6301 28.1190 13959.70 13873.60 137.84
6302 28.1228 14012.50 13870.90 138.73
6303 28.1265 13674.80 13868.30 136.63
6304 28.1303 13823.30 13865.70 137.03
6305 28.1340 13670.50 13863.10 136.67
6306 28.1378 13868.80 13860.40 137.74
6307 28.1416 13694.50 13857.70 136.94
6308 28.1453 14031.80 13855.10 138.85
6309 28.1491 13862.10 13852.50 137.16
6310 28.1528 14003.30 13849.90 138.60
6311 28.1566 13888.30 13847.20 138.78
6312 28.1603 14065.90 13844.60 138.11
6313 28.1641 14000.50 13842.00 138.16
6314 28.1679 13985.10 13839.30 137.82
6315 28.1716 13688.10 13836.70 136.30
6316 28.1754 13939.70 13834.00 138.31
6317 28.1791 13896.10 13831.40 138.29
6318 28.1829 13952.60 13828.80 138.63
6319 28.1866 14007.80 13826.20 138.33
6320 28.1904 14234.20 13823.50 139.40
6321 28.1942 13717.50 13820.90 136.64
6322 28.1979 13939.20 13818.30 137.38
6323 28.2017 13720.00 13815.60 136.51
6324 28.2054 13940.20 13813.00 138.27
6325 28.2092 14051.20 13810.30 138.00
6326 28.2129 14110.20 13807.70 138.67
6327 28.2167 13785.90 13805.10 136.62
6328 28.2205 14205.00 13802.40 139.18
6329 28.2242 13857.50 13799.80 137.21
6330 28.2280 14101.60 13797.10 138.65
6331 28.2317 13759.20 13794.60 136.10
6332 28.2355 14256.90 13791.90 139.39
6333 28.2392 13883.70 13789.30 137.29
6334 28.2430 14188.00 13786.60 138.60
6335 28.2468 14115.10 13784.00 138.14
6336 28.2505 14231.20 13781.40 140.04
6337 28.2543 14058.60 13778.70 138.32
6338 28.2580 14170.60 13776.10 139.05
6339 28.2618 13772.30 13773.40 136.40
6340 28.2656 14070.60 13770.80 138.53
6341 28.2693 13873.30 13768.20 137.68
6342 28.2731 14046.90 13765.50 138.46
6343 28.2768 13962.80 13762.90 138.66
6344 28.2806 14123.30 13760.30 139.06
6345 28.2843 13737.20 13757.70 136.88
6346 28.2881 14167.90 13755.00 138.71
6347 28.2919 13839.70 13752.30 136.64
6348 28.2956 13908.50 13749.80 137.41
6349 28.2994 13867.50 13747.10 136.95
6350 28.3031 14059.20 13744.50 138.49
6351 28.3069 13781.10 13741.80 136.65
6352 28.3107 13918.30 13739.20 137.46
6353 28.3144 13820.90 13736.60 136.73
6354 28.3182 13886.00 13733.90 137.97
6355 28.3219 13773.30 13731.30 136.97
6356 28.3257 13869.20 13728.70 137.21
6357 28.3294 13717.70 13726.10 136.55
6358 28.3332 13873.10 13723.40 137.25
6359 28.3370 13710.10 13720.70 136.81
6360 28.3407 13925.50 13718.10 137.51
6361 28.3445 13751.80 13715.50 136.72
6362 28.3482 14057.80 13712.90 138.89
6363 28.3520 13657.90 13710.20 135.48
6364 28.3557 14012.90 13707.60 138.29
6365 28.3595 13993.10 13705.00 138.01
6366 28.3633 13810.80 13702.30 136.65
6367 28.3670 13742.20 13699.70 136.15
6368 28.3708 13858.90 13697.10 137.15
6369 28.3745 13708.90 13694.50 136.51
6370 28.3783 13992.30 13691.80 137.71
6371 28.3821 13786.80 13689.10 137.40
6372 28.3858 13742.40 13686.60 136.28
6373 28.3896 13556.10 13683.90 135.90
6374 28.3933 13962.60 13681.30 137.29
6375 28.3971 13738.70 13678.60 136.31
6376 28.4008 13763.40 13676.10 136.93
6377 28.4046 13925.70 13673.40 138.12
6378 28.4084 13918.50 13670.70 138.14
6379 28.4121 13799.10 13668.10 136.81
6380 28.4159 13816.90 13665.50 137.47
6381 28.4196 13649.90 13662.90 136.11
6382 28.4234 13714.80 13660.20 135.83
6383 28.4272 13669.20 13657.60 136.21
6384 28.4309 13847.40 13655.00 137.31
6385 28.4347 13596.80 13652.30 135.44
6386 28.4384 14014.70 13649.70 137.22
6387 28.4422 13715.30 13647.10 136.26
6388 28.4459 13957.80 13644.50 138.09
6389 28.4497 13728.60 13641.80 136.23
6390 28.4535 13890.60 13639.20 137.87
6391 28.4572 13787.10 13636.60 137.46
6392 28.4610 14004.50 13633.90 138.55
6393 28.4647 13821.90 13631.40 136.90
6394 28.4685 14043.30 13628.70 138.55
6395 28.4723 13648.50 13626.00 136.15
6396 28.4760 13857.50 13623.50 137.33
6397 28.4798 13850.90 13620.80 137.53
6398 28.4835 13905.90 13618.20 137.85
6399 28.4873 13745.40 13615.60 136.88
6400 28.4910 13754.70 13613.00 136.73
6401 28.4948 13726.60 13610.30 136.66
6402 28.4986 13981.20 13607.70 138.70
6403 28.5023 13545.40 13605.10 135.61
6404 28.5061 13914.50 13602.40 137.74
6405 28.5098 13701.70 13599.80 136.10
6406 28.5136 13938.50 13597.20 138.14
6407 28.5174 13585.50 13594.50 135.95
6408 28.5211 13859.40 13592.00 136.95
6409 28.5249 13679.10 13589.30 135.72
6410 28.5286 13936.00 13586.70 137.22
6411 28.5324 13767.70 13584.10 137.25
6412 28.5362 13941.70 13581.40 138.04
6413 28.5399 13687.80 13578.80 137.09
6414 28.5437 13972.00 13576.20 138.49
6415 28.5474 13772.40 13573.60 136.86
6416 28.5512 13993.80 13570.90 138.10
6417 28.5549 13788.20 13568.40 137.22
6418 28.5587 13954.40 13565.70 137.45
6419 28.5625 13746.10 13563.10 137.14
6420 28.5662 13990.50 13560.50 138.25
6421 28.5700 13733.70 13557.80 136.28
6422 28.5737 14234.00 13555.30 140.15
6423 28.5775 13719.00 13552.60 136.88
6424 28.5813 13971.80 13550.00 138.20
6425 28.5850 13758.10 13547.40 136.26
6426 28.5888 14136.60 13544.70 138.38
6427 28.5925 13794.40 13542.20 136.67
6428 28.5963 14105.80 13539.50 138.39
6429 28.6000 13950.70 13536.90 137.79
6430 28.6038 14119.60 13534.30 138.33
6431 28.6076 14075.70 13531.60 138.47
6432 28.6113 14058.60 13529.10 138.92
6433 28.6151 13775.70 13526.40 136.88
6434 28.6188 14035.90 13523.90 138.69
6435 28.6226 13904.80 13521.20 137.20
6436 28.6264 13984.00 13518.60 138.29
6437 28.6301 13942.20 13516.00 137.48
6438 28.6339 14035.00 13513.30 138.21
6439 28.6376 13794.50 13510.80 137.59
6440 28.6414 14006.40 13508.10 137.78
6441 28.6452 13800.40 13505.50 135.67
6442 28.6489 13898.50 13502.90 136.80
6443 28.6527 13959.90 13500.30 137.64
6444 28.6564 13913.10 13497.70 136.85
6445 28.6602 13802.80 13495.10 136.59
6446 28.6639 14212.30 13492.50 138.42
6447 28.6677 13638.20 13489.90 135.27
6448 28.6715 14097.30 13487.20 138.14
6449 28.6752 14040.80 13484.70 138.21
6450 28.6790 14273.80 13482.00 138.46
6451 28.6827 13938.80 13479.40 136.80
6452 28.6865 13944.30 13476.80 137.10
6453 28.6903 14026.10 13474.20 137.86
6454 28.6940 14187.70 13471.60 138.00
6455 28.6978 14069.80 13469.00 137.53
6456 28.7015 14064.30 13466.40 137.62
6457 28.7053 13800.50 13463.80 136.20
6458 28.7091 14134.70 13461.10 138.54
6459 28.7128 13981.40 13458.60 137.16
6460 28.7166 14051.60 13455.90 138.14
6461 28.7203 13859.20 13453.40 136.97
6462 28.7241 14076.30 13450.70 137.98
6463 28.7279 13877.30 13448.10 136.65
6464 28.7316 14078.50 13445.50 137.95
6465 28.7354 14095.40 13442.90 138.44
6466 28.7391 14167.70 13440.30 138.53
6467 28.7429 13984.60 13437.70 137.83
6468 28.7466 14096.50 13435.20 138.55
6469 28.7504 13785.00 13432.50 136.11
6470 28.7542 14127.00 13429.90 138.15
6471 28.7579 14298.20 13427.30 139.49
6472 28.7617 14322.50 13730.60 139.35
6473 28.7654 13782.30 13732.60 136.18
6474 28.7692 13944.40 14357.10 137.54
6475 28.7730 14220.10 14368.90 138.71
6476 28.7767 14265.10 14380.80 139.31
6477 28.7805 14025.30 14393.30 138.06
6478 28.7842 14243.80 14405.90 139.08
6479 28.7880 14079.70 14419.10 137.57
6480 28.7918 14332.50 14432.70 139.16
6481 28.7955 14190.10 14446.30 138.65
6482 28.7993 14357.40 14460.80 139.47
6483 28.8030 14021.70 14475.20 137.98
6484 28.8068 14470.10 14490.40 140.47
6485 28.8106 14257.10 14506.10 138.64
6486 28.8143 14247.70 14521.90 139.16
6487 28.8181 14111.00 14538.50 138.63
6488 28.8218 14569.10 14555.20 141.38
6489 28.8256 14403.30 14572.80 139.72
6490 28.8293 14508.80 14590.50 140.32
6491 28.8331 14328.60 14609.10 139.96
6492 28.8369 14556.60 14628.40 141.13
6493 28.8406 14437.70 14647.70 140.33
6494 28.8444 14668.70 14668.10 141.69
6495 28.8481 14319.80 14688.70 139.75
6496 28.8519 14684.20 14710.30 141.24
6497 28.8557 14521.60 14732.70 140.34
6498 28.8594 14850.80 14755.20 141.44
6499 28.8632 14698.40 14779.00 140.95
6500 28.8669 14893.20 14802.80 142.83
6501 28.8707 14756.20 14828.10 142.17
6502 28.8745 14845.60 14854.30 142.01
6503 28.8782 14750.00 14880.50 142.01
6504 28.8820 15067.10 14908.30 144.11
6505 28.8857 14539.90 14942.00 140.06
6506 28.8895 14916.20 14971.70 142.91
6507 28.8933 14709.90 15002.40 141.62
6508 28.8970 14729.00 15033.30 141.96
6509 28.9008 14676.50 15066.10 140.66
6510 28.9045 14719.90 15099.10 141.87
6511 28.9083 14732.20 15134.10 142.44
6512 28.9121 14862.80 15170.40 142.89
6513 28.9158 14988.20 15206.90 143.12
6514 28.9196 15169.60 15245.70 144.03
6515 28.9233 14736.90 15284.70 141.51
6516 28.9271 14988.70 15326.30 144.08
6517 28.9308 14753.90 15368.30 142.60
6518 28.9346 15007.20 15412.80 144.12
6519 28.9384 14820.60 15459.10 143.18
6520 28.9421 14959.70 15505.80 143.01
6521 28.9459 15002.20 15555.50 144.01
6522 28.9496 15038.70 15605.70 143.39
6523 28.9534 15051.00 15659.20 144.43
6524 28.9572 15453.40 15714.80 146.39
6525 28.9609 15145.70 15771.00 143.83
6526 28.9647 15455.80 15831.00 145.84
6527 28.9684 15370.10 15891.70 146.05
6528 28.9722 15611.40 15956.50 146.10
6529 28.9760 15480.30 16024.00 146.80
6530 28.9797 15551.70 16092.50 146.62
6531 28.9835 15137.40 16165.50 144.70
6532 28.9872 15803.20 16239.80 148.73
6533 28.9910 15598.60 16319.10 146.68
6534 28.9948 15832.30 16402.00 149.35
6535 28.9985 15988.40 16486.10 149.24
6536 29.0023 15992.10 16576.30 149.60
6537 29.0060 15954.50 16668.10 148.57
6538 29.0098 16196.90 16766.50 150.20
6539 29.0136 16044.50 16869.60 149.95
6540 29.0173 16447.50 16974.50 150.99
6541 29.0211 15965.10 17087.40 149.82
6542 29.0248 16404.80 17202.50 151.43
6543 29.0286 16188.00 17326.50 150.65
6544 29.0324 16804.60 17456.60 153.66
6545 29.0361 16630.80 17589.70 152.72
6546 29.0399 16601.40 17733.10 152.44
6547 29.0436 16755.30 17880.10 153.47
6548 29.0474 16889.40 18038.70 154.70
6549 29.0512 16976.30 18206.10 155.18
6550 29.0549 17334.30 18377.70 156.37
6551 29.0587 17216.90 18563.70 155.96
6552 29.0624 17436.30 18754.80 157.63
6553 29.0662 17263.60 18962.40 157.12
6554 29.0700 17804.50 19182.20 158.85
6555 29.0737 17803.60 19408.70 159.14
6556 29.0775 18092.40 19655.50 160.31
6557 29.0812 18180.60 19910.30 160.54
6558 29.0850 18527.20 20188.50 162.98
6559 29.0887 18548.50 20476.50 162.94
6560 29.0925 19051.40 20791.70 165.93
6561 29.0963 19211.30 21128.20 167.14
6562 29.1000 19335.50 21478.20 166.52
6563 29.1038 19493.20 21862.10 168.07
6564 29.1075 20092.90 22263.00 170.68
6565 29.1113 19830.20 22704.20 169.84
6566 29.1151 20771.70 23179.00 173.41
6567 29.1188 20715.60 23676.30 174.44
6568 29.1226 21745.20 24227.40 179.59
6569 29.1263 22022.00 24806.70 180.22
6570 29.1301 22314.40 25451.10 182.00
6571 29.1339 22979.70 26150.80 184.42
6572 29.1376 23608.30 26890.90 188.60
6573 29.1414 23858.50 27719.80 189.47
6574 29.1451 24920.20 28600.60 192.35
6575 29.1489 25145.10 29592.10 194.51
6576 29.1527 26386.80 30682.30 200.83
6577 29.1564 26848.80 31851.80 203.81
6578 29.1602 28231.00 33177.40 207.41
6579 29.1639 29022.40 34609.80 212.25
6580 29.1677 30942.40 36244.60 218.77
6581 29.1715 31996.20 38074.60 224.24
6582 29.1752 34184.70 40071.30 232.32
6583 29.1790 35120.90 42382.60 238.57
6584 29.1827 38292.80 44927.40 250.43
6585 29.1865 40247.90 47902.30 257.56
6586 29.1903 43541.50 51311.20 270.44
6587 29.1940 47748.50 55128.10 287.33
6588 29.1978 53305.60 59673.90 303.03
6589 29.2015 58706.90 64840.70 324.42
6590 29.2053 67868.30 71108.70 360.32
6591 29.2091 76153.30 78626.40 386.93
6592 29.2128 90406.00 87590.90 431.26
6593 29.2166 105232.00 99208.00 476.90
6594 29.2203 128502.00 114079.00 544.56
6595 29.2241 155746.00 135092.00 621.89
6596 29.2279 195438.00 165431.00 726.00
6597 29.2316 240326.00 208889.00 836.33
6598 29.2354 309913.00 274898.00 1004.75
6599 29.2391 389175.00 368046.00 1188.55
6600 29.2429 510385.00 501981.00 1451.98
6601 29.2467 655522.00 680641.00 1753.97
6602 29.2504 868478.00 896811.00 2156.96
6603 29.2542 1112920.00 1149810.00 2678.26
6604 29.2579 1427840.00 1397710.00 3247.27
6605 29.2617 1695360.00 1611360.00 3764.38
6606 29.2655 1912160.00 1739410.00 4160.62
6607 29.2692 1928720.00 1748940.00 4163.15
6608 29.2730 1820440.00 1628510.00 4005.88
6609 29.2767 1530770.00 1412430.00 3458.54
6610 29.2805 1223990.00 1145950.00 2844.41
6611 29.2843 916582.00 885721.00 2277.82
6612 29.2880 694041.00 666836.00 1842.79
6613 29.2918 514240.00 488139.00 1460.86
6614 29.2955 391226.00 358847.00 1185.39
6615 29.2993 295215.00 265087.00 967.42
6616 29.3031 231363.00 201678.00 810.49
6617 29.3068 180914.00 160418.00 684.91
6618 29.3106 146394.00 131781.00 595.40
6619 29.3143 118626.00 112350.00 512.60
6620 29.3181 100012.00 97736.00 458.23
6621 29.3219 84609.60 86547.80 409.78
6622 29.3256 74040.90 77841.40 378.76
6623 29.3294 64345.90 70478.40 346.99
6624 29.3331 58511.60 64472.10 325.29
6625 29.3369 52695.10 59229.80 301.96
6626 29.3407 48980.40 54745.00 291.78
6627 29.3444 44615.60 50975.10 270.48
6628 29.3482 42123.90 47605.60 262.77
6629 29.3519 39641.90 44737.30 254.44
6630 29.3557 38199.00 42144.30 251.12
6631 29.3595 36100.30 39857.60 240.43
6632 29.3632 35202.60 37877.80 240.37
6633 29.3670 33062.60 36064.40 227.60
6634 29.3707 32373.50 34484.30 224.76
6635 29.3745 30682.30 33024.40 217.30
6636 29.3783 29667.20 31709.40 215.16
6637 29.3820 28530.90 30551.50 210.98
6638 29.3858 27495.80 29471.40 202.70
6639 29.3895 26767.30 28514.90 200.93
6640 29.3933 25882.10 27617.90 198.82
6641 29.3970 25145.20 26819.70 195.76
6642 29.4008 25082.50 26067.80 194.09
6643 29.4046 24299.70 25378.00 188.38
6644 29.4083 24073.70 24760.50 191.40
6645 29.4121 23113.20 24175.80 186.54
6646 29.4158 23006.30 23650.80 185.43
6647 29.4196 22298.20 23152.50 181.02
6648 29.4234 22651.50 22692.90 183.89
6649 29.4271 21396.00 22278.70 176.49
6650 29.4309 21467.70 21885.60 175.71
6651 29.4346 20907.20 21532.40 175.59
6652 29.4384 20896.20 21197.90 173.57
6653 29.4422 20804.70 20891.10 172.27
6654 29.4459 20797.20 20618.70 173.76
6655 29.4497 19946.00 20365.50 169.21
6656 29.4534 20307.80 20145.90 173.16
6657 29.4572 20037.80 19949.30 170.68
6658 29.4610 20240.60 19784.70 173.00
6659 29.4647 19745.60 19658.20 169.82
6660 29.4685 19956.20 19567.10 170.71
6661 29.4722 19970.80 19520.50 169.61
6662 29.4760 20047.90 19520.60 171.81
6663 29.4798 20078.80 19573.90 170.33
6664 29.4835 20433.40 19680.30 172.71
6665 29.4873 20481.70 19847.20 171.28
6666 29.4910 20666.50 20064.90 174.63
6667 29.4948 20949.30 20339.50 176.05
6668 29.4986 21146.80 20653.60 175.63
6669 29.5023 21455.00 20976.70 177.93
6670 29.5061 21824.70 21293.40 179.74
6671 29.5098 22047.20 21542.70 181.90
6672 29.5136 22511.40 21686.60 182.93
6673 29.5174 21946.60 21671.60 180.07
6674 29.5211 22501.90 21485.10 181.49
6675 29.5249 21999.40 21131.80 181.50
6676 29.5286 22383.30 20670.30 181.26
6677 29.5324 21950.90 20126.60 179.27
6678 29.5362 21752.00 19559.90 176.68
6679 29.5399 20553.30 19018.30 173.32
6680 29.5437 19841.30 18495.70 169.12
6681 29.5474 18718.50 18030.50 164.03
6682 29.5512 18243.10 17604.20 162.88
6683 29.5550 17066.40 17229.70 154.03
6684 29.5587 17102.40 16914.00 156.99
6685 29.5625 16407.60 16635.10 153.09
6686 29.5662 16344.80 16402.90 152.52
6687 29.5700 15903.10 16198.90 147.52
6688 29.5738 15910.70 16024.40 149.66
6689 29.5775 15315.60 15877.40 146.18
6690 29.5813 15414.00 15745.70 147.11
6691 29.5850 15106.20 15632.20 146.19
6692 29.5888 15026.60 15528.00 144.25
6693 29.5926 14824.90 15433.70 144.45
6694 29.5963 15113.20 15349.40 144.65
6695 29.6001 14540.70 15269.50 142.70
6696 29.6038 15007.70 15196.80 144.87
6697 29.6076 14745.20 15126.90 142.94
6698 29.6114 14850.80 15060.90 143.71
6699 29.6151 14491.70 15000.20 141.41
6700 29.6189 14697.40 14940.90 142.24
6701 29.6226 14379.60 14886.00 141.28
6702 29.6264 14634.90 14832.10 142.23
6703 29.6302 14564.70 14780.70 141.41
6704 29.6339 14653.80 14732.70 141.18
6705 29.6377 14407.60 14685.40 140.27
6706 29.6414 14554.40 14641.20 139.62
6707 29.6452 14434.00 14597.50 140.42
6708 29.6490 14333.30 14555.50 140.59
6709 29.6527 14267.40 14516.00 140.07
6710 29.6565 14060.40 14476.90 138.78
6711 29.6602 14402.20 14440.10 140.67
6712 29.6640 14050.40 14403.60 138.53
6713 29.6678 14036.10 14368.30 138.99
6714 29.6715 14201.20 14334.90 139.57
6715 29.6753 14073.70 14301.80 138.26
6716 29.6790 14011.20 14270.50 137.80
6717 29.6828 14074.50 14239.30 138.58
6718 29.6866 14227.00 14209.10 140.11
6719 29.6903 14195.90 14180.50 139.40
6720 29.6941 14216.40 14151.90 139.55
6721 29.6978 13812.90 14124.90 137.90
6722 29.7016 14174.00 14097.80 139.19
6723 29.7054 13762.30 14071.50 136.67
6724 29.7091 13983.40 14046.60 138.22
6725 29.7129 13817.40 14021.70 136.67
6726 29.7166 13871.70 13998.00 136.43
6727 29.7204 13660.60 13974.30 136.70
6728 29.7242 14124.30 13951.10 139.24
6729 29.7279 13654.00 13929.20 135.57
6730 29.7317 13896.60 13907.10 137.83
6731 29.7354 13525.20 13886.20 136.16
6732 29.7392 13969.00 13865.20 137.35
6733 29.7430 13523.70 13844.70 136.12
6734 29.7467 13888.20 13825.10 137.99
6735 29.7505 13671.80 13805.50 137.21
6736 29.7542 13809.00 13786.80 137.81
6737 29.7580 13591.40 13768.00 136.46
6738 29.7618 13562.20 13749.70 135.97
6739 29.7655 13645.30 13432.70 136.50
6740 29.7693 13755.40 13419.50 136.35
6741 29.7730 13672.20 13406.90 136.47
6742 29.7768 13764.40 12784.00 137.10
6743 29.7806 13426.60 12780.70 135.06
6744 29.7843 13924.90 12777.50 138.54
6745 29.7881 13449.60 12774.20 135.53
6746 29.7918 13740.80 12771.10 137.14
6747 29.7956 13419.80 12767.90 134.87
6748 29.7994 13627.90 12764.70 136.08
6749 29.8031 13416.50 12761.70 133.95
6750 29.8069 13488.60 12758.60 135.28
6751 29.8106 13492.00 12755.60 134.95
6752 29.8144 13713.10 12752.50 136.59
6753 29.8182 13264.60 12749.50 133.86
6754 29.8219 13482.00 12746.60 135.88
6755 29.8257 13606.40 12743.60 134.33
6756 29.8294 13648.00 12740.80 136.42
6757 29.8332 13327.60 12737.80 132.73
6758 29.8370 13609.00 12734.90 136.70
6759 29.8407 13366.20 12732.10 133.76
6760 29.8445 13207.30 12729.30 133.99
6761 29.8482 13371.30 12726.50 133.66
6762 29.8520 13703.20 12723.70 137.82
6763 29.8558 13418.90 12720.80 134.85
6764 29.8595 13566.30 12718.10 136.24
6765 29.8633 13346.70 12715.30 134.00
6766 29.8670 13327.80 12712.60 134.72
6767 29.8708 13358.00 12709.90 134.96
6768 29.8746 13389.60 12707.10 134.25
6769 29.8783 13268.10 12704.50 135.24
6770 29.8821 13254.20 12701.80 134.47
6771 29.8858 13157.30 12699.20 132.85
6772 29.8896 13270.30 12696.50 134.04
6773 29.8934 13198.40 12693.80 135.10
6774 29.8971 13444.80 12691.20 134.04
6775 29.9009 12828.50 12688.50 131.24
6776 29.9046 13300.40 12686.00 135.23
6777 29.9084 13243.60 12683.30 135.08
6778 29.9122 13378.70 12680.70 135.76
6779 29.9159 13280.90 12678.20 135.51
6780 29.9197 13117.40 12675.50 133.91
6781 29.9234 13348.30 12673.00 135.72
6782 29.9272 13574.10 12670.40 135.70
6783 29.9310 13156.50 12667.80 134.01
6784 29.9347 13424.40 12665.30 135.02
6785 29.9385 13168.60 12662.80 133.03
6786 29.9422 13419.60 12660.30 135.09
6787 29.9460 13145.20 12657.70 133.20
6788 29.9498 13584.70 12655.20 135.62
6789 29.9535 13109.10 12652.70 133.08
6790 29.9573 13349.00 12650.20 134.46
6791 29.9610 13134.40 12647.70 132.79
6792 29.9648 13264.80 12645.20 133.68
6793 29.9686 13135.40 12642.70 134.62
6794 29.9723 13551.10 12640.30 136.35
6795 29.9761 13152.00 12637.80 134.17
6796 29.9798 13321.30 12635.30 135.58
6797 29.9836 13110.20 12632.80 134.01
6798 29.9874 13406.10 12630.40 135.41
6799 29.9911 13322.00 12628.00 133.40
6800 29.9949 13112.30 12625.50 133.91
6801 29.9986 13133.80 12623.10 134.47
6802 30.0024 13358.70 12620.60 135.57
6803 30.0061 12915.70 12618.20 132.53
6804 30.0099 13166.40 12615.80 132.84
6805 30.0137 13097.20 12613.30 133.71
6806 30.0174 13005.80 12611.00 133.47
6807 30.0212 13001.70 12608.50 132.59
6808 30.0249 13429.70 12606.20 135.78
6809 30.0287 13047.80 12603.70 134.04
6810 30.0325 13484.30 12601.30 136.43
6811 30.0362 13212.50 12598.90 134.59
6812 30.0400 13087.40 12596.50 133.93
6813 30.0437 13166.70 12594.20 133.95
6814 30.0475 13205.80 12591.80 134.71
6815 30.0513 12979.40 12589.40 134.19
6816 30.0550 13320.10 12587.00 134.62
6817 30.0588 13146.90 12584.60 133.88
6818 30.0625 13280.90 12582.30 135.16
6819 30.0663 12984.20 12579.90 133.53
6820 30.0701 13102.90 12577.50 132.81
6821 30.0738 12915.10 12575.20 133.38
6822 30.0776 13005.00 12572.80 132.05
6823 30.0813 12987.70 12570.50 134.15
6824 30.0851 13285.00 12568.20 134.50
6825 30.0889 12973.80 12565.80 132.20
6826 30.0926 13125.00 12563.50 133.23
6827 30.0964 12928.20 12561.10 132.81
6828 30.1001 13065.50 12558.80 132.95
6829 30.1039 13039.90 12556.50 132.86
6830 30.1077 13096.00 12554.10 133.01
6831 30.1114 13167.60 12551.80 134.11
6832 30.1152 13018.60 12549.50 132.09
6833 30.1189 12950.40 12547.20 132.58
6834 30.1227 13420.30 12544.90 134.77
6835 30.1265 12727.10 12542.50 130.54
6836 30.1302 13270.70 12540.30 134.00
6837 30.1340 13160.90 12537.90 132.90
6838 30.1377 13184.70 12535.70 133.89
6839 30.1415 13044.20 12533.30 133.19
6840 30.1453 13144.40 12531.00 132.33
6841 30.1490 12986.60 12528.80 132.03
6842 30.1528 13172.40 12520.80 132.66
6843 30.1565 13135.20 12518.60 133.72
6844 30.1603 13358.60 12516.30 133.71
6845 30.1641 13028.20 12514.10 131.78
6846 30.1678 13198.50 12511.90 131.75
6847 30.1716 13086.70 12509.70 133.48
6848 30.1753 13186.80 12507.50 133.30
6849 30.1791 12946.40 12505.20 130.58
6850 30.1829 13051.10 12503.00 131.56
6851 30.1866 12987.40 12500.80 130.76
6852 30.1904 12950.70 12498.60 131.12
6853 30.1941 12760.70 12496.40 129.74
6854 30.1979 13000.60 12494.20 131.49
6855 30.2017 12764.00 12492.00 130.96
6856 30.2054 13112.30 12489.80 132.21
6857 30.2092 12923.70 12487.60 132.05
6858 30.2129 13002.80 12485.40 132.15
6859 30.2167 12878.00 12483.20 131.18
6860 30.2204 13286.30 12481.00 133.69
6861 30.2242 12903.00 12478.80 132.22
6862 30.2280 13050.70 12476.60 133.17
6863 30.2317 13011.00 12474.40 132.55
6864 30.2355 12683.00 12472.20 130.29
6865 30.2392 12780.90 12470.10 131.36
6866 30.2430 13019.10 12467.80 132.85
6867 30.2468 12948.30 12465.60 130.25
6868 30.2505 13045.60 12463.50 132.12
6869 30.2543 12890.80 12461.30 129.98
6870 30.2580 12902.80 12459.10 131.22
6871 30.2618 12663.00 12456.90 130.74
6872 30.2656 13149.90 12454.70 131.31
6873 30.2693 12878.90 12452.60 131.88
6874 30.2731 12992.90 12450.40 132.50
6875 30.2768 12756.50 12448.20 130.50
6876 30.2806 12793.30 12446.00 130.24
6877 30.2844 12758.80 12443.90 130.34
6878 30.2881 12960.10 12441.70 131.73
6879 30.2919 12778.10 12439.50 130.81
6880 30.2956 12892.90 12437.40 131.20
6881 30.2994 12885.50 12435.20 130.68
6882 30.3032 13011.90 12433.00 131.81
6883 30.3069 12743.30 12430.90 130.13
6884 30.3107 13011.60 12428.70 131.48
6885 30.3144 12357.40 12426.60 128.62
6886 30.3182 12900.50 12424.40 131.60
6887 30.3220 12649.10 12422.20 130.47
6888 30.3257 12777.50 12420.10 131.23
6889 30.3295 12608.80 12417.90 129.83
6890 30.3332 12672.10 12415.80 130.33
6891 30.3370 12788.10 12413.60 130.85
6892 30.3407 12979.00 12411.50 130.05
6893 30.3445 12606.40 12409.40 129.22
6894 30.3483 12632.40 12407.20 128.79
6895 30.3520 12732.10 12405.10 130.62
6896 30.3558 12748.10 12402.90 131.07
6897 30.3595 12826.20 12400.80 131.03
6898 30.3633 12929.70 12398.70 131.41
6899 30.3671 12486.30 12396.50 129.00
6900 30.3708 12664.00 12394.40 129.37
6901 30.3746 12686.80 12392.20 130.40
6902 30.3783 12941.00 12390.10 130.84
6903 30.3821 12603.30 12388.00 128.17
6904 30.3859 13061.10 12385.80 131.99
6905 30.3896 12779.60 12383.70 130.52
6906 30.3934 12877.00 12381.60 130.78
6907 30.3971 12635.70 12379.50 130.19
6908 30.4009 12983.80 12377.40 131.60
6909 30.4047 12525.00 12375.20 129.19
6910 30.4084 12598.00 12373.10 129.81
6911 30.4122 12451.40 12371.00 128.24
6912 30.4159 12825.40 12368.90 131.34
6913 30.4197 12605.20 12366.80 129.37
6914 30.4235 12794.40 12364.60 130.10
6915 30.4272 12641.90 12362.60 130.37
6916 30.4310 12634.00 12360.40 129.02
6917 30.4347 12506.60 12358.40 128.56
6918 30.4385 12491.20 12356.20 129.34
6919 30.4422 12607.50 12354.20 128.25
6920 30.4460 12789.90 12352.00 131.86
6921 30.4498 12163.60 12349.90 126.61
6922 30.4535 12927.20 12347.90 129.84
6923 30.4573 12375.10 12345.70 128.21
6924 30.4610 12698.80 12343.70 130.37
6925 30.4648 12588.20 12341.60 130.46
6926 30.4686 12643.80 12339.40 130.13
6927 30.4723 12489.70 12337.40 129.00
6928 30.4761 12669.70 12335.30 129.53
6929 30.4798 12606.70 12333.20 128.71
6930 30.4836 12902.70 12331.10 132.12
6931 30.4874 12522.90 12329.00 129.56
6932 30.4911 12785.50 12327.00 131.13
6933 30.4949 12455.40 12324.80 128.78
6934 30.4986 12702.10 12322.80 130.34
6935 30.5024 12569.20 12320.70 128.64
6936 30.5061 12833.40 12318.70 131.47
6937 30.5099 12645.10 12316.60 130.25
6938 30.5137 12560.40 12314.50 128.80
6939 30.5174 12662.50 12312.40 130.43
6940 30.5212 12584.80 12310.30 129.29
6941 30.5249 12745.70 12308.30 129.93
6942 30.5287 12605.60 12306.20 129.76
6943 30.5325 12593.40 12304.10 129.76
6944 30.5362 12468.90 12302.10 128.79
6945 30.5400 12829.70 12300.00 131.27
6946 30.5437 12548.00 12298.00 129.73
6947 30.5475 12688.20 12295.90 130.36
6948 30.5513 12471.70 12293.80 127.87
6949 30.5550 12380.80 12291.80 128.80
6950 30.5588 12494.80 12289.70 129.77
6951 30.5625 12453.70 12287.70 130.18
6952 30.5663 12483.50 12285.70 128.95
6953 30.5701 12557.70 12284.00 128.34
6954 30.5738 12829.40 12282.00 130.56
6955 30.5776 12472.00 12279.90 129.17
6956 30.5813 12471.00 12277.90 128.41
6957 30.5851 12652.60 12275.90 130.02
6958 30.5888 12868.60 12273.90 130.69
6959 30.5926 12577.70 12271.80 129.93
6960 30.5964 12709.50 12269.80 130.80
6961 30.6001 12625.90 12267.80 129.65
6962 30.6039 12552.80 12265.80 129.52
6963 30.6076 12416.50 12263.80 127.23
6964 30.6114 12522.30 12261.70 128.82
6965 30.6152 12512.30 12259.70 128.66
6966 30.6189 12642.10 12257.70 127.81
6967 30.6227 12507.90 12255.70 128.79
6968 30.6264 12581.30 12253.70 129.89
6969 30.6302 12617.80 12251.60 129.81
6970 30.6340 12643.80 12249.60 128.30
6971 30.6377 12280.30 12247.60 128.14
6972 30.6415 12867.60 12245.60 131.03
6973 30.6452 12515.20 12243.60 128.96
6974 30.6490 12489.60 12241.60 127.57
6975 30.6527 12320.20 12239.70 128.19
6976 30.6565 12547.40 12237.60 129.27
6977 30.6603 12157.00 12235.60 126.36
6978 30.6640 12572.70 12233.70 127.80
6979 30.6678 12061.90 12231.60 126.19
6980 30.6715 12511.50 12229.70 128.93
6981 30.6753 12316.30 12227.70 127.95
6982 30.6791 12678.70 12225.70 130.00
6983 30.6828 12364.80 12223.70 128.56
6984 30.6866 12419.20 12221.70 127.77
6985 30.6903 12274.70 12219.80 127.78
6986 30.6941 12542.60 12217.80 129.85
6987 30.6978 12243.20 12215.80 127.14
6988 30.7016 12678.70 12213.80 130.54
6989 30.7054 12477.40 12211.90 129.68
6990 30.7091 12829.00 12209.90 130.45
6991 30.7129 12221.30 12207.90 127.86
6992 30.7166 12518.50 12206.00 128.99
6993 30.7204 12467.30 12204.00 128.89
6994 30.7242 12536.00 12202.00 128.99
6995 30.7279 12208.20 12200.10 127.37
6996 30.7317 12765.60 12198.10 130.19
6997 30.7354 12305.80 12196.20 127.10
6998 30.7392 12538.20 12194.30 128.35
6999 30.7429 12294.80 12192.30 127.88
7000 30.7467 12484.50 12190.40 129.36
7001 30.7505 12235.40 12188.40 125.31
7002 30.7542 12483.50 12186.50 128.97
7003 30.7580 12100.30 12184.50 126.65
7004 30.7617 12464.30 12182.60 128.67
7005 30.7655 12338.60 12180.70 127.83
7006 30.7693 12530.90 12178.70 128.12
7007 30.7730 12342.80 12176.80 126.51
7008 30.7768 12467.20 12174.90 127.75
7009 30.7805 12533.30 12173.00 128.70
7010 30.7843 12507.30 12171.10 128.25
7011 30.7880 12141.80 12169.20 126.78
7012 30.7918 12246.70 12167.30 127.65
7013 30.7956 12228.10 12165.30 127.24
7014 30.7993 12458.60 12163.40 126.96
7015 30.8031 12196.70 12161.50 126.81
7016 30.8068 12352.90 12159.70 127.87
7017 30.8106 12494.60 12157.70 128.41
7018 30.8144 12789.50 12155.80 131.28
7019 30.8181 12382.50 12154.00 127.29
7020 30.8219 12441.30 12152.10 128.88
7021 30.8256 12240.60 12150.20 128.11
7022 30.8294 12298.90 12148.30 128.09
7023 30.8331 12311.30 12146.50 127.72
7024 30.8369 12261.20 12144.60 127.43
7025 30.8407 12059.70 12142.70 126.52
7026 30.8444 12436.30 12140.90 128.85
7027 30.8482 12369.50 12139.00 128.91
7028 30.8519 12534.10 12137.20 128.89
7029 30.8557 12233.20 12135.30 128.23
7030 30.8595 12407.70 12133.40 128.74
7031 30.8632 12422.50 12131.60 128.45
7032 30.8670 12282.50 12129.80 128.38
7033 30.8707 12213.30 12128.00 127.82
7034 30.8745 12352.90 12126.10 128.65
7035 30.8782 12085.70 12124.30 126.88
7036 30.8820 12444.50 12122.50 129.24
7037 30.8858 12294.00 12120.70 126.98
7038 30.8895 12437.70 12118.90 129.05
7039 30.8933 12371.90 12117.10 128.96
7040 30.8970 12341.00 12115.40 127.57
7041 30.9008 12175.20 12113.60 127.12
7042 30.9046 12584.10 12111.80 129.36
7043 30.9083 12290.90 12110.10 128.61
7044 30.9121 12642.40 12108.30 129.78
7045 30.9158 12291.90 12106.60 128.22
7046 30.9196 12559.10 12104.90 128.91
7047 30.9233 12384.60 12103.20 128.11
7048 30.9271 12355.50 12101.50 128.90
7049 30.9309 12294.80 12099.80 128.29
7050 30.9346 12511.10 12098.10 128.95
7051 30.9384 12214.30 12096.50 126.88
7052 30.9421 12562.90 12094.90 129.80
7053 30.9459 12269.40 12093.30 128.15
7054 30.9496 12375.10 12091.70 128.89
7055 30.9534 12171.90 12090.10 127.51
7056 30.9572 12245.10 12088.60 127.90
7057 30.9609 12515.70 12087.10 129.59
7058 30.9647 12620.40 12085.60 129.59
7059 30.9684 12258.90 12084.20 127.73
7060 30.9722 12364.10 12082.80 128.28
7061 30.9760 12315.90 12081.40 127.91
7062 30.9797 12496.20 12080.20 128.99
7063 30.9835 12328.50 12078.90 128.23
7064 30.9872 12404.40 12077.80 128.95
7065 30.9910 12357.90 12076.70 128.57
7066 30.9947 12467.00 12075.70 129.65
7067 30.9985 12359.90 12074.80 128.46
7068 31.0023 12613.30 12074.00 130.91
7069 31.0060 12459.70 12073.40 129.76
7070 31.0098 12607.60 12072.90 129.52
7071 31.0135 12202.30 12072.70 127.74
7072 31.0173 12380.30 12072.60 128.81
7073 31.0210 12309.70 12072.80 128.10
7074 31.0248 12493.40 12073.40 128.44
7075 31.0286 12415.70 12074.30 128.48
7076 31.0323 12638.90 12075.80 130.75
7077 31.0361 12346.50 12077.90 128.67
7078 31.0398 12531.00 12080.90 129.83
7079 31.0436 12527.10 12085.30 130.18
7080 31.0473 12706.60 12091.60 130.89
7081 31.0511 12492.70 12101.20 129.21
7082 31.0549 12734.20 12116.10 130.92
7083 31.0586 12552.20 12138.30 128.55
7084 31.0624 12622.20 12172.70 129.77
7085 31.0661 12576.70 12221.60 129.63
7086 31.0699 12593.70 12291.50 129.49
7087 31.0736 12576.10 12380.40 130.24
7088 31.0774 13034.00 12491.70 132.88
7089 31.0812 12758.10 12615.40 130.35
7090 31.0849 13129.50 12731.60 132.59
7091 31.0887 12605.60 12819.70 130.28
7092 31.0924 12701.50 12846.20 129.73
7093 31.0962 12803.30 12800.70 132.00
7094 31.1000 12853.20 12699.20 130.60
7095 31.1037 12678.20 12576.50 130.93
7096 31.1075 12980.80 12450.90 131.76
7097 31.1112 12718.10 12342.70 130.06
7098 31.1150 12906.80 12252.30 132.17
7099 31.1187 12569.10 12185.00 129.40
7100 31.1225 12684.00 12134.80 130.52
7101 31.1263 12502.40 12099.70 129.44
7102 31.1300 12658.10 12076.00 130.26
7103 31.1338 12396.40 12058.90 128.40
7104 31.1375 12669.80 12046.70 130.19
7105 31.1413 12592.50 12037.20 129.78
7106 31.1450 12586.10 12029.70 129.35
7107 31.1488 12602.30 12023.20 129.35
7108 31.1526 12894.90 12017.60 131.25
7109 31.1563 12488.80 12012.70 129.30
7110 31.1601 12581.10 12008.20 130.42
7111 31.1638 12346.30 12004.30 128.66
7112 31.1676 12529.50 12000.50 130.04
7113 31.1713 12374.00 11997.00 128.68
7114 31.1751 12401.60 11993.70 128.14
7115 31.1789 12193.80 11990.60 127.43
7116 31.1826 12532.20 11987.80 130.35
7117 31.1864 12401.20 11985.00 126.97
7118 31.1901 12446.90 11982.30 129.21
7119 31.1939 12274.10 11979.70 127.01
7120 31.1976 12441.50 11977.30 129.24
7121 31.2014 12559.00 11974.80 129.78
7122 31.2052 12526.40 11972.50 128.74
7123 31.2089 12254.50 11970.20 127.55
7124 31.2127 12469.20 11968.00 128.18
7125 31.2164 12332.00 11965.80 127.94
7126 31.2202 12563.60 11963.60 129.11
7127 31.2239 12380.40 11961.50 128.46
7128 31.2277 12386.70 11959.40 128.62
7129 31.2314 12225.40 11957.40 127.66
7130 31.2352 12163.20 11955.40 126.84
7131 31.2390 12258.60 11953.40 127.90
7132 31.2427 12548.70 11951.40 129.49
7133 31.2465 12192.70 11949.40 127.85
7134 31.2502 12294.40 11947.50 127.59
7135 31.2540 12287.80 11945.60 127.30
7136 31.2577 12465.80 11943.70 129.64
7137 31.2615 12309.60 11941.80 127.40
7138 31.2653 12259.60 11939.90 128.34
7139 31.2690 12180.50 11938.10 127.11
7140 31.2728 12183.60 11936.20 126.93
7141 31.2765 12200.60 11934.40 127.11
7142 31.2803 12160.30 11932.50 126.30
7143 31.2840 12380.20 11930.80 128.62
7144 31.2878 12223.80 11928.90 127.93
7145 31.2916 12097.90 11927.10 125.96
7146 31.2953 11959.60 11925.30 126.04
7147 31.2991 12007.20 11923.50 126.12
7148 31.3028 12015.10 11921.80 125.86
7149 31.3066 11765.40 11920.00 125.11
7150 31.3103 12157.30 11918.20 127.24
7151 31.3141 12134.10 11916.50 127.71
7152 31.3179 12148.40 11914.70 126.85
7153 31.3216 11999.60 11913.00 126.59
7154 31.3254 12268.80 11911.20 128.70
7155 31.3291 11906.60 11909.50 126.43
7156 31.3329 12236.10 11907.70 127.82
7157 31.3366 11995.10 11906.00 125.82
7158 31.3404 12191.80 11904.30 128.11
7159 31.3441 12011.20 11902.60 126.58
7160 31.3479 12128.60 11900.90 127.46
7161 31.3517 12013.30 11899.10 125.42
7162 31.3554 12028.80 11897.50 126.45
7163 31.3592 12136.80 11895.70 127.37
7164 31.3629 12194.70 11894.10 127.41
7165 31.3667 12016.30 11892.30 126.88
7166 31.3704 12193.20 11890.70 128.06
7167 31.3742 12005.60 11889.00 127.30
7168 31.3780 12206.50 11887.30 125.88
7169 31.3817 12142.80 11885.60 127.87
7170 31.3855 12217.90 11883.90 127.33
7171 31.3892 11793.90 11882.30 125.05
7172 31.3930 12112.70 11880.60 127.19
7173 31.3967 12089.20 11878.90 127.75
7174 31.4005 11952.60 11877.30 126.83
7175 31.4042 11868.60 11875.60 126.05
7176 31.4080 12130.00 11873.90 127.19
7177 31.4118 12078.30 11872.30 126.39
7178 31.4155 12078.90 11870.60 126.63
7179 31.4193 12096.00 11869.00 128.03
7180 31.4230 12031.40 11867.30 126.48
7181 31.4268 12123.80 11865.70 127.84
7182 31.4305 12270.10 11864.10 128.36
7183 31.4343 12050.90 11862.40 127.45
7184 31.4381 12158.50 11860.80 127.68
7185 31.4418 11947.40 11859.20 126.01
7186 31.4456 12011.60 11857.50 126.32
7187 31.4493 12086.60 11855.90 127.50
7188 31.4531 12080.60 11854.30 126.79
7189 31.4568 11938.00 11852.70 126.64
7190 31.4606 12137.80 11851.00 125.66
7191 31.4643 11968.90 11849.40 125.32
7192 31.4681 11997.90 11847.80 127.13
7193 31.4719 12107.30 11846.20 127.32
7194 31.4756 12193.10 11844.60 127.57
7195 31.4794 12050.40 11843.00 126.89
7196 31.4831 12314.10 11841.40 128.65
7197 31.4869 11928.20 11839.80 125.29
7198 31.4906 12135.20 11838.20 127.02
7199 31.4944 11883.60 11836.60 126.16
7200 31.4982 12032.20 11834.90 127.10
7201 31.5019 11656.20 11833.40 124.21
7202 31.5057 12179.10 11831.80 127.20
7203 31.5094 11812.90 11830.20 125.39
7204 31.5132 11988.60 11828.60 127.43
7205 31.5169 11732.90 11827.00 125.41
7206 31.5207 12155.60 11825.40 127.67
7207 31.5244 12096.20 11823.90 128.65
7208 31.5282 12304.50 11822.30 129.55
7209 31.5320 12006.00 11820.70 126.21
7210 31.5357 11980.00 11819.20 126.30
7211 31.5395 11992.10 11817.60 127.23
7212 31.5432 12012.90 11816.00 126.98
7213 31.5470 11952.70 11814.40 124.87
7214 31.5507 12188.60 11812.90 128.31
7215 31.5545 11943.80 11811.30 124.74
7216 31.5582 12064.40 11809.80 127.16
7217 31.5620 11893.80 11808.20 126.19
7218 31.5658 11953.60 11806.60 125.58
7219 31.5695 11818.70 11805.10 125.70
7220 31.5733 12191.90 11803.50 129.03
7221 31.5770 11837.30 11802.00 125.53
7222 31.5808 12061.80 11800.50 127.91
7223 31.5845 11941.80 11798.90 125.68
7224 31.5883 12026.90 11797.40 126.27
7225 31.5920 12001.70 11795.90 126.76
7226 31.5958 11896.00 11794.30 126.42
7227 31.5996 11830.20 11792.80 125.25
7228 31.6033 12181.90 11791.20 127.92
7229 31.6071 11902.10 11789.70 126.02
7230 31.6108 11875.10 11788.20 124.43
7231 31.6146 11876.70 11786.60 126.32
7232 31.6183 12075.60 11784.70 127.59
7233 31.6221 11746.70 11783.20 125.86
7234 31.6258 11909.60 11781.70 126.27
7235 31.6296 11627.30 11780.20 124.83
7236 31.6333 12004.10 11778.70 125.22
7237 31.6371 11929.00 11777.20 126.52
7238 31.6409 11864.40 11775.60 124.34
7239 31.6446 11930.30 11774.20 126.35
7240 31.6484 11807.90 11772.60 126.04
7241 31.6521 11926.70 11771.20 125.30
7242 31.6559 12028.00 11769.60 127.37
7243 31.6596 11911.80 11768.20 126.23
7244 31.6634 11915.00 11766.70 125.49
7245 31.6671 11727.30 11765.20 124.94
7246 31.6709 12001.10 11763.70 126.48
7247 31.6747 11879.80 11762.20 125.83
7248 31.6784 11890.50 11760.70 126.14
7249 31.6822 11780.40 11759.20 125.31
7250 31.6859 11921.00 11757.80 126.61
7251 31.6897 11725.50 11756.30 124.25
7252 31.6934 12013.30 11754.80 126.86
7253 31.6972 11690.30 11753.30 123.56
7254 31.7009 11903.80 11751.90 126.39
7255 31.7047 11802.00 11750.40 125.28
7256 31.7084 11963.20 11748.90 125.85
7257 31.7122 11737.90 11747.50 125.51
7258 31.7160 11774.60 11746.00 125.00
7259 31.7197 11750.20 11744.50 124.91
7260 31.7235 12021.30 11743.10 126.80
7261 31.7272 11796.90 11741.60 125.13
7262 31.7310 11672.80 11740.10 123.36
7263 31.7347 11908.00 11738.70 125.90
7264 31.7385 11741.30 11737.20 125.53
7265 31.7422 11965.20 11735.80 125.82
7266 31.7460 12081.40 11734.30 127.05
7267 31.7498 11937.00 11732.90 126.58
7268 31.7535 12218.60 11731.50 127.52
7269 31.7573 11858.40 11730.00 125.72
7270 31.7610 11866.70 11728.60 126.06
7271 31.7648 11828.50 11727.10 125.40
7272 31.7685 12041.30 11725.70 126.96
7273 31.7723 11886.40 11724.30 124.10
7274 31.7760 12040.40 11722.90 126.79
7275 31.7798 11883.30 11721.40 126.11
7276 31.7835 12108.10 11720.00 127.50
7277 31.7873 11796.10 11718.60 123.18
7278 31.7911 11935.60 11717.10 126.61
7279 31.7948 11874.00 11715.70 125.56
7280 31.7986 11892.10 11714.30 125.61
7281 31.8023 11922.80 11712.90 126.34
7282 31.8061 11847.70 11711.40 125.65
7283 31.8098 11779.70 11710.10 125.10
7284 31.8136 11660.00 11708.60 124.93
7285 31.8173 11928.60 11707.20 126.18
7286 31.8211 11985.90 11705.80 125.64
7287 31.8248 11733.30 11704.40 124.52
7288 31.8286 11746.80 11703.00 125.45
7289 31.8323 11756.60 11701.60 125.28
7290 31.8361 11968.90 11700.20 126.11
7291 31.8399 11578.00 11698.80 124.52
7292 31.8436 11741.90 11697.40 124.75
7293 31.8474 11544.90 11696.00 122.62
7294 31.8511 11921.40 11694.60 126.66
7295 31.8549 11640.20 11693.20 123.24
7296 31.8586 11708.70 11691.90 125.35
7297 31.8624 11878.30 11690.50 125.86
7298 31.8661 11785.50 11689.10 126.04
7299 31.8699 11682.10 11687.70 125.00
7300 31.8736 11909.60 11686.40 125.78
7301 31.8774 11640.10 11685.00 123.80
7302 31.8812 11774.60 11683.60 125.52
7303 31.8849 11689.70 11682.20 124.78
7304 31.8887 11998.80 11680.80 125.76
7305 31.8924 11630.00 11679.50 123.57
7306 31.8962 12000.70 11678.10 127.07
7307 31.8999 11812.70 11676.80 124.67
7308 31.9037 11688.10 11675.40 124.30
7309 31.9074 11739.60 11674.00 124.35
7310 31.9112 11739.50 11672.70 125.25
7311 31.9149 11752.20 11671.30 125.47
7312 31.9187 11781.10 11670.00 124.89
7313 31.9224 11698.90 11668.60 125.64
7314 31.9262 11829.00 11667.30 126.11
7315 31.9300 11604.20 11665.90 123.65
7316 31.9337 11665.30 11664.60 124.96
7317 31.9375 11578.50 11663.20 124.46
7318 31.9412 11868.60 11661.90 123.97
7319 31.9450 11688.30 11660.50 124.42
7320 31.9487 11828.80 11659.20 125.21
7321 31.9525 11629.60 11657.90 123.75
7322 31.9562 11610.20 11656.60 124.43
7323 31.9600 11686.10 11655.20 124.70
7324 31.9637 11862.40 11653.90 125.74
7325 31.9675 11721.60 11652.60 124.75
7326 31.9712 11778.50 11651.20 124.88
7327 31.9750 11461.70 11649.90 123.19
7328 31.9787 11832.70 11648.60 124.09
7329 31.9825 11762.50 11647.30 125.13
7330 31.9863 11876.20 11645.90 124.69
7331 31.9883 11531.60 11645.20 123.70
7332 31.9920 11940.40 11643.90 126.02
7333 31.9958 11674.40 11642.60 124.80
7334 31.9995 11851.00 11641.30 126.84
7335 32.0033 11534.20 11640.00 124.44
7336 32.0070 11821.80 11638.70 125.91
7337 32.0108 11801.00 11637.40 127.11
7338 32.0145 11930.80 11636.10 127.55
7339 32.0183 11659.10 11634.80 124.36
7340 32.0221 11969.10 11633.50 126.48
7341 32.0258 11580.50 11632.20 124.97
7342 32.0296 11838.00 11630.90 126.17
7343 32.0333 11698.90 11629.60 123.59
7344 32.0371 11749.40 11628.30 125.90
7345 32.0408 11818.10 11627.10 124.23
7346 32.0446 12022.50 11625.80 127.16
7347 32.0483 11728.60 11624.50 125.44
7348 32.0521 12071.50 11623.20 126.53
7349 32.0559 11729.60 11621.90 125.40
7350 32.0596 11709.60 11620.60 126.35
7351 32.0634 11783.80 11619.40 125.45
7352 32.0671 11771.30 11618.10 126.39
7353 32.0709 11757.90 11616.80 124.82
7354 32.0746 11814.30 11615.60 125.24
7355 32.0784 11627.00 11614.30 124.74
7356 32.0821 11848.90 11613.00 126.38
7357 32.0859 11714.40 11611.80 124.79
7358 32.0897 12144.50 11610.50 127.94
7359 32.0934 11726.80 11609.20 125.20
7360 32.0972 11896.30 11608.00 124.80
7361 32.1009 11863.70 11606.70 126.49
7362 32.1047 11914.20 11605.50 126.87
7363 32.1084 11726.70 11604.20 125.98
7364 32.1122 11921.00 11603.00 126.58
7365 32.1159 11881.90 11601.80 126.62
7366 32.1197 12053.10 11600.50 125.75
7367 32.1234 11828.90 11599.30 126.16
7368 32.1272 11799.60 11598.00 124.20
7369 32.1310 11695.40 11596.80 125.18
7370 32.1347 11905.40 11595.50 126.88
7371 32.1385 11630.50 11594.30 123.76
7372 32.1422 11901.50 11593.10 126.85
7373 32.1460 11831.10 11591.80 125.99
7374 32.1497 11887.40 11590.60 125.56
7375 32.1535 11649.20 11589.40 124.71
7376 32.1572 11765.90 11588.20 125.31
7377 32.1610 11459.10 11587.00 123.52
7378 32.1648 11609.30 11585.70 124.68
7379 32.1685 11533.50 11584.50 124.05
7380 32.1723 11756.20 11583.30 125.86
7381 32.1760 11618.10 11582.10 123.84
7382 32.1798 11921.00 11580.90 126.55
7383 32.1835 11620.30 11579.70 123.38
7384 32.1873 11520.20 11578.50 124.30
7385 32.1910 11483.20 11577.30 123.58
7386 32.1948 11808.90 11576.10 125.16
7387 32.1985 11529.90 11574.90 124.49
7388 32.2023 11516.10 11573.70 123.67
7389 32.2061 11397.70 11572.40 123.01
7390 32.2098 11588.30 11571.30 124.42
7391 32.2136 11604.10 11570.10 124.21
7392 32.2173 11627.40 11568.90 123.32
7393 32.2202 11526.00 11568.00 123.62
7394 32.2239 11632.50 11566.80 124.36
7395 32.2277 11588.30 11565.60 123.37
7396 32.2314 11767.40 11564.40 125.97
7397 32.2352 11424.90 11563.20 124.10
7398 32.2389 11680.70 11562.10 125.31
7399 32.2427 11360.60 11560.90 123.85
7400 32.2464 11695.70 11559.70 125.28
7401 32.2502 11531.70 11558.50 124.56
7402 32.2539 11780.10 11557.40 126.40
7403 32.2577 11447.80 11556.20 123.88
7404 32.2615 11847.50 11555.00 126.08
7405 32.2652 11318.30 11553.90 123.45
7406 32.2690 11765.60 11552.70 125.99
7407 32.2727 11489.70 11551.60 124.38
7408 32.2765 11991.80 11550.40 127.44
7409 32.2802 11464.00 11549.30 124.47
7410 32.2840 11725.30 11548.10 125.79
7411 32.2877 11533.80 11547.00 124.72
7412 32.2915 11669.90 11545.80 125.69
7413 32.2952 11459.30 11544.70 124.23
7414 32.2990 11703.00 11543.50 125.46
7415 32.3027 11502.30 11542.40 124.97
7416 32.3065 11717.40 11541.20 125.52
7417 32.3103 11626.70 11540.10 124.76
7418 32.3140 11831.50 11538.90 125.95
7419 32.3178 11609.00 11537.80 125.24
7420 32.3215 11942.40 11536.70 127.38
7421 32.3253 11545.00 11535.50 124.98
7422 32.3290 11801.80 11534.40 126.62
7423 32.3328 11473.30 11533.30 123.97
7424 32.3365 11545.50 11532.20 123.80
7425 32.3403 11700.30 11531.00 125.90
7426 32.3440 11781.50 11529.90 126.34
7427 32.3478 11672.20 11528.80 126.17
7428 32.3515 11649.00 11527.70 125.42
7429 32.3553 11434.30 11526.60 124.10
7430 32.3591 11559.80 11525.40 125.02
7431 32.3628 11683.80 11524.40 125.86
7432 32.3666 11792.90 11523.20 126.14
7433 32.3703 11449.90 11522.10 124.00
7434 32.3741 11603.50 11521.00 124.92
7435 32.3778 11414.90 11519.90 123.89
7436 32.3816 11693.40 11518.80 124.93
7437 32.3853 11375.90 11517.70 123.25
7438 32.3891 11710.10 11516.60 126.00
7439 32.3928 11659.00 11515.50 125.22
7440 32.3966 11591.20 11514.40 125.04
7441 32.4004 11682.50 11513.30 125.75
7442 32.4041 11747.90 11512.30 126.08
7443 32.4079 11501.30 11511.20 124.50
7444 32.4116 11601.20 11510.10 124.69
7445 32.4154 11426.10 11509.00 123.88
7446 32.4191 11482.80 11507.90 124.79
7447 32.4229 11248.60 11506.90 123.25
7448 32.4266 11870.20 11505.80 126.01
7449 32.4304 11291.00 11504.70 123.23
7450 32.4341 11796.00 11503.60 126.42
7451 32.4379 11474.80 11502.60 124.91
7452 32.4417 11720.60 11501.50 125.91
7453 32.4454 11413.10 11500.40 124.50
7454 32.4492 11815.20 11499.40 126.76
7455 32.4529 11560.80 11498.30 123.89
7456 32.4567 11602.10 11497.20 125.27
7457 32.4604 11354.10 11496.20 123.60
7458 32.4642 11756.40 11495.10 126.02
7459 32.4679 11511.20 11494.10 124.30
7460 32.4717 11783.80 11493.00 126.19
7461 32.4755 11635.00 11492.00 125.74
7462 32.4792 11793.10 11490.90 126.39
7463 32.4830 11712.80 11489.90 126.27
7464 32.4867 11543.10 11488.80 124.51
7465 32.4905 11672.00 11487.80 125.65
7466 32.4942 11843.70 11486.80 125.64
7467 32.4980 11700.20 11485.70 126.46
7468 32.5017 11799.00 11484.70 125.71
7469 32.5055 11746.70 11483.70 126.22
7470 32.5092 11954.30 11482.60 127.23
7471 32.5130 11657.80 11481.60 125.12
7472 32.5168 11834.40 11480.60 126.21
7473 32.5205 11772.40 11479.60 126.79
7474 32.5243 11871.90 11478.50 127.09
7475 32.5280 11696.50 11477.50 125.17
7476 32.5318 11717.30 11476.50 126.33
7477 32.5355 11538.60 11475.50 125.08
7478 32.5393 11860.70 11474.40 126.47
7479 32.5430 11749.10 11473.50 125.66
7480 32.5468 11877.60 11472.40 125.71
7481 32.5506 11648.70 11471.40 125.46
7482 32.5543 12000.10 11470.40 127.32
7483 32.5581 11593.00 11469.40 125.55
7484 32.5618 11553.70 11468.40 124.57
7485 32.5656 11375.90 11467.40 123.51
7486 32.5693 11669.80 11466.40 125.09
7487 32.5731 11459.90 11465.40 124.48
7488 32.5768 11563.00 11464.40 124.05
7489 32.5806 11423.40 11463.40 123.35
7490 32.5843 11659.10 11462.40 126.00
7491 32.5881 11508.00 11461.40 125.34
7492 32.5919 11539.70 11460.40 124.62
7493 32.5956 11292.90 11459.50 123.65
7494 32.5994 11748.40 11458.50 126.31
7495 32.6031 11491.30 11457.50 124.24
7496 32.6069 11595.90 11456.50 125.14
7497 32.6106 11296.40 11455.60 123.17
7498 32.6144 11532.10 11454.60 124.88
7499 32.6181 11573.20 11453.60 125.03
7500 32.6219 11758.60 11452.60 125.91
7501 32.6257 11262.50 11451.70 122.35
7502 32.6294 11538.30 11450.70 124.80
7503 32.6332 11298.80 11449.70 123.53
7504 32.6369 11585.10 11448.80 124.94
7505 32.6407 11492.10 11447.80 124.34
7506 32.6444 11517.20 11446.90 124.19
7507 32.6482 11388.30 11445.90 123.43
7508 32.6519 11467.50 11445.00 124.09
7509 32.6557 11375.20 11444.00 124.14
7510 32.6595 11564.10 11443.00 124.96
7511 32.6632 11476.90 11442.10 124.87
7512 32.6670 11546.40 11441.10 124.99
7513 32.6707 11201.10 11440.20 122.51
7514 32.6745 11535.00 11439.30 124.39
7515 32.6782 11525.70 11438.30 126.07
7516 32.6820 11705.90 11437.40 125.61
7517 32.6858 11432.20 11436.40 123.18
7518 32.6895 11608.70 11435.50 124.39
7519 32.6933 11244.90 11434.60 122.62
7520 32.6970 11567.90 11433.70 124.04
7521 32.7008 11368.50 11432.70 122.22
7522 32.7045 11791.70 11431.80 126.04
7523 32.7083 11411.60 11430.90 123.68
7524 32.7120 11624.90 11430.00 124.57
7525 32.7158 11488.80 11429.00 123.58
7526 32.7196 11441.70 11428.10 123.55
7527 32.7233 11584.30 11427.20 124.27
7528 32.7271 11489.00 11426.30 123.90
7529 32.7308 11319.80 11425.40 123.28
7530 32.7346 11521.50 11424.50 122.68
7531 32.7383 11491.40 11423.60 123.96
7532 32.7421 11673.00 11422.70 125.09
7533 32.7458 11543.50 11421.80 124.58
7534 32.7496 11372.90 11420.80 123.58
7535 32.7534 11448.50 11419.90 124.00
7536 32.7571 11502.50 11419.10 124.02
7537 32.7609 11388.60 11418.10 122.85
7538 32.7646 11705.60 11417.30 125.43
7539 32.7684 11398.00 11416.40 124.24
7540 32.7721 11712.00 11415.50 124.45
7541 32.7759 11325.00 11414.60 123.54
7542 32.7797 11609.10 11413.70 124.72
7543 32.7834 11225.90 11412.80 121.89
7544 32.7872 11778.20 11411.90 125.76
7545 32.7909 11350.60 11411.10 122.65
7546 32.7947 11679.50 11410.20 124.41
7547 32.7984 11256.30 11409.30 123.05
7548 32.8022 11452.20 11408.40 123.57
7549 32.8059 11406.60 11407.60 124.18
7550 32.8097 11489.50 11406.70 124.14
7551 32.8135 11143.50 11405.80 121.69
7552 32.8172 11730.00 11405.00 124.76
7553 32.8210 11267.30 11404.10 122.57
7554 32.8247 11664.10 11403.20 125.22
7555 32.8285 11524.60 11402.40 124.29
7556 32.8322 11416.90 11401.50 123.72
7557 32.8360 11335.00 11400.70 123.19
7558 32.8398 11393.70 11399.80 123.61
7559 32.8435 11379.40 11398.90 123.42
7560 32.8473 11721.60 11398.10 124.82
7561 32.8510 11325.80 11397.30 122.38
7562 32.8548 11744.40 11396.40 125.08
7563 32.8585 11129.50 11395.60 121.21
7564 32.8623 11379.60 11394.70 123.22
7565 32.8660 11573.80 11393.90 125.12
7566 32.8698 11680.60 11393.00 125.28
7567 32.8736 11359.00 11392.20 123.25
7568 32.8773 11591.70 11391.40 124.24
7569 32.8811 11359.90 11390.50 123.48
7570 32.8848 11416.00 11389.70 124.03
7571 32.8886 11352.60 11388.90 123.48
7572 32.8923 11593.70 11388.10 125.28
7573 32.8961 11488.20 11387.20 124.52
7574 32.8999 11540.70 11386.40 124.16
7575 32.9036 11548.00 11385.60 123.30
7576 32.9074 11639.90 11384.80 125.12
7577 32.9111 11291.60 11384.00 123.13
7578 32.9149 11539.10 11383.10 124.64
7579 32.9186 11311.20 11382.30 123.17
7580 32.9224 11596.70 11381.50 125.25
7581 32.9262 11657.50 11380.70 125.14
7582 32.9299 11378.60 11379.90 123.19
7583 32.9337 11493.00 11379.10 122.85
7584 32.9374 11603.10 11378.30 124.76
7585 32.9412 11404.40 11377.50 123.42
7586 32.9449 11590.90 11376.70 124.58
7587 32.9487 11438.30 11375.90 124.58
7588 32.9525 11499.10 11375.10 124.11
7589 32.9562 11389.10 11374.30 122.83
7590 32.9600 11612.20 11373.50 125.21
7591 32.9637 11375.70 11372.70 123.53
7592 32.9675 11410.30 11371.90 123.87
7593 32.9712 11303.10 11371.20 123.62
7594 32.9750 11713.50 11370.40 125.20
7595 32.9788 11530.90 11369.60 124.76
7596 32.9825 11626.40 11368.80 125.35
7597 32.9863 11357.70 11368.00 124.07
7598 32.9900 11640.40 11367.30 125.42
7599 32.9938 11536.50 11366.50 124.29
7600 32.9975 11575.00 11365.70 125.53
7601 33.0013 11560.90 11364.90 125.63
7602 33.0051 11686.20 11364.20 125.33
7603 33.0088 11327.20 11363.40 123.88
7604 33.0126 11763.10 11362.60 126.42
7605 33.0163 11407.60 11361.90 123.94
7606 33.0201 11726.50 11361.10 126.05
7607 33.0238 11416.30 11360.40 123.72
7608 33.0276 11499.40 11359.60 124.04
7609 33.0314 11527.20 11358.80 124.92
7610 33.0351 11572.20 11358.10 124.52
7611 33.0389 11470.50 11357.30 124.74
7612 33.0426 11594.20 11356.60 125.22
7613 33.0464 11327.50 11355.80 123.65
7614 33.0501 11686.40 11355.10 126.29
7615 33.0539 11307.10 11354.40 123.60
7616 33.0577 11641.90 11353.60 125.78
7617 33.0614 11386.50 11352.90 124.26
7618 33.0652 11654.30 11352.10 125.65
7619 33.0689 11350.00 11351.40 123.51
7620 33.0727 11809.70 11350.70 125.87
7621 33.0764 11311.70 11350.00 123.17
7622 33.0802 11734.80 11349.20 126.26
7623 33.0840 11397.70 11348.50 124.07
7624 33.0877 11705.90 11347.80 124.71
7625 33.0915 11403.80 11347.00 124.45
7626 33.0952 11578.60 11346.30 124.57
7627 33.0990 11551.80 11345.60 125.86
7628 33.1027 11925.50 11344.90 127.58
7629 33.1065 11487.20 11344.20 124.85
7630 33.1103 11589.50 11343.50 124.85
7631 33.1140 11636.60 11342.80 125.45
7632 33.1178 11867.70 11342.00 127.04
7633 33.1215 11453.40 11341.30 124.69
7634 33.1253 11676.30 11340.60 125.63
7635 33.1290 11392.00 11339.90 123.88
7636 33.1328 11663.70 11339.20 125.65
7637 33.1366 11622.60 11338.50 124.83
7638 33.1403 11583.90 11337.80 124.72
7639 33.1441 11538.30 11337.10 125.05
7640 33.1478 11890.40 11336.40 127.26
7641 33.1516 11408.90 11335.70 124.53
7642 33.1553 11530.10 11335.10 125.07
7643 33.1591 11515.60 11334.40 125.89
7644 33.1629 11644.30 11333.70 126.09
7645 33.1666 11561.80 11333.00 125.56
7646 33.1704 11611.60 11332.30 124.93
7647 33.1741 11524.90 11331.60 124.67
7648 33.1779 11844.60 11330.90 125.14
7649 33.1817 11731.80 11330.30 125.92
7650 33.1854 11830.50 11329.60 126.72
7651 33.1892 11452.20 11328.90 124.74
7652 33.1929 11594.20 11328.30 125.15
7653 33.1967 11607.70 11327.60 125.69
7654 33.2004 11590.50 11326.90 125.36
7655 33.2042 11498.50 11326.20 124.71
7656 33.2080 11942.60 11325.60 125.94
7657 33.2117 11510.70 11324.90 123.50
7658 33.2155 11668.60 11324.30 125.67
7659 33.2192 11458.50 11323.60 124.10
7660 33.2230 11730.80 11322.90 125.39
7661 33.2267 11751.10 11322.30 126.20
7662 33.2305 11712.80 11321.60 124.24
7663 33.2343 11553.20 11321.00 124.91
7664 33.2380 11698.30 11320.30 126.69
7665 33.2418 11665.60 11319.70 125.27
7666 33.2455 11830.00 11319.10 126.44
7667 33.2493 11570.20 11318.40 125.29
7668 33.2531 11764.00 11317.80 125.76
7669 33.2568 11602.10 11317.10 124.97
7670 33.2606 11699.70 11316.50 125.76
7671 33.2643 11668.60 11315.90 125.51
7672 33.2681 11779.30 11315.20 126.53
7673 33.2718 11760.60 11314.60 125.74
7674 33.2756 11784.80 11314.00 125.44
7675 33.2794 11689.50 11313.30 125.86
7676 33.2831 11691.00 11312.70 123.96
7677 33.2869 11500.30 11312.10 124.74
7678 33.2906 11720.70 11311.50 125.24
7679 33.2944 11418.40 11310.80 123.80
7680 33.2981 11787.90 11310.20 126.19
7681 33.3019 11611.30 11309.60 125.11
7682 33.3057 11606.30 11309.00 125.25
7683 33.3094 11500.20 11308.40 124.57
7684 33.3132 11621.00 11307.80 125.06
7685 33.3169 11534.10 11307.20 125.02
7686 33.3207 11712.80 11306.50 126.00
7687 33.3245 11562.30 11305.90 125.40
7688 33.3282 11651.20 11305.30 125.23
7689 33.3320 11452.60 11304.70 124.18
7690 33.3357 11790.80 11304.10 126.15
7691 33.3395 11614.20 11303.50 125.89
7692 33.3432 11711.50 11302.90 125.24
7693 33.3470 11735.00 11302.30 126.09
7694 33.3508 11834.40 11301.70 126.20
7695 33.3545 11629.70 11301.20 125.63
7696 33.3583 11705.30 11300.60 125.65
7697 33.3620 11738.90 11300.00 125.76
7698 33.3658 11732.40 11644.50 125.92
7699 33.3696 11648.10 11648.70 125.11
7700 33.3733 11735.90 11652.90 125.80
7701 33.3771 11491.60 11828.60 124.51
7702 33.3808 11747.20 11835.30 126.06
7703 33.3846 11578.70 11842.40 125.04
7704 33.3883 11855.00 11849.40 126.42
7705 33.3921 11456.60 11856.80 124.14
7706 33.3959 11971.10 11864.40 127.79
7707 33.3996 11670.60 11871.90 125.09
7708 33.4034 11935.30 11879.80 127.57
7709 33.4071 11423.70 11887.70 124.24
7710 33.4109 11850.40 11896.00 127.07
7711 33.4147 11617.20 11904.50 125.87
7712 33.4184 11926.30 11913.00 126.81
7713 33.4222 11903.10 11921.90 127.32
7714 33.4259 11862.20 11930.80 126.91
7715 33.4297 11897.90 11940.20 127.17
7716 33.4334 11772.90 11949.60 125.71
7717 33.4372 11728.80 11959.40 126.38
7718 33.4410 11955.50 11969.50 127.66
7719 33.4447 11677.50 11979.50 125.72
7720 33.4485 11779.50 11990.10 126.33
7721 33.4522 11659.50 12000.70 125.76
7722 33.4560 11992.00 12011.90 128.21
7723 33.4598 11967.10 12023.30 127.60
7724 33.4635 12140.20 12034.70 129.10
7725 33.4673 11676.30 12046.80 126.13
7726 33.4710 11843.50 12058.80 126.45
7727 33.4748 11665.30 12071.50 125.98
7728 33.4785 12038.60 12084.20 127.57
7729 33.4823 11690.30 12101.00 126.07
7730 33.4861 11874.00 12114.80 126.37
7731 33.4898 11534.60 12128.50 125.09
7732 33.4936 11935.00 12143.10 127.46
7733 33.4973 11834.40 12157.60 126.14
7734 33.5011 12158.80 12173.00 128.82
7735 33.5049 11887.50 12188.80 127.05
7736 33.5086 12149.70 12204.60 128.18
7737 33.5124 11916.50 12221.30 127.78
7738 33.5161 12336.20 12238.00 129.60
7739 33.5199 11987.80 12255.70 127.50
7740 33.5236 12235.60 12273.40 128.96
7741 33.5274 11739.10 12292.20 126.40
7742 33.5312 12122.00 12311.50 128.64
7743 33.5349 12206.80 12330.80 128.85
7744 33.5387 12180.50 12351.30 128.52
7745 33.5424 11984.00 12371.90 128.13
7746 33.5462 12389.80 12393.60 130.65
7747 33.5500 12139.40 12416.10 127.97
7748 33.5537 12326.60 12438.60 129.71
7749 33.5575 12090.60 12462.50 128.94
7750 33.5612 12382.90 12486.50 129.85
7751 33.5650 12144.30 12511.90 128.98
7752 33.5688 12335.50 12538.20 129.37
7753 33.5725 11846.20 12564.60 126.65
7754 33.5763 12174.60 12592.70 129.09
7755 33.5800 12301.30 12621.00 129.76
7756 33.5838 12440.20 12650.90 130.40
7757 33.5875 12033.40 12681.10 127.93
7758 33.5913 12406.50 12713.20 129.76
7759 33.5951 12336.80 12746.40 128.45
7760 33.5988 12634.80 12779.90 132.32
7761 33.6026 12158.00 12815.60 129.21
7762 33.6063 12498.00 12851.50 130.90
7763 33.6101 12568.70 12889.80 131.33
7764 33.6139 12463.90 12929.50 130.81
7765 33.6176 12449.60 12969.70 131.05
7766 33.6214 12725.30 13012.50 132.14
7767 33.6251 12708.70 13055.70 131.70
7768 33.6289 12602.20 13101.90 131.44
7769 33.6327 12660.60 13149.90 131.82
7770 33.6364 12649.80 13198.50 131.73
7771 33.6402 12602.90 13250.40 133.35
7772 33.6439 12821.30 13303.10 130.13
7773 33.6477 12565.10 13359.40 128.21
7774 33.6514 12728.30 13416.60 129.91
7775 33.6552 12657.20 13477.70 129.67
7776 33.6590 12784.40 13541.60 130.21
7777 33.6627 12939.60 13606.50 130.63
7778 33.6665 13251.90 13676.10 132.40
7779 33.6702 12993.40 13747.00 131.02
7780 33.6740 13178.00 13823.10 132.41
7781 33.6778 13180.80 13902.80 132.27
7782 33.6815 13217.70 13984.10 132.54
7783 33.6853 13385.80 14071.50 133.54
7784 33.6890 13482.10 14160.80 134.33
7785 33.6928 13242.80 14257.10 132.29
7786 33.6966 13399.60 14358.20 133.59
7787 33.7003 13386.60 14461.80 133.52
7788 33.7041 13613.80 14573.60 135.01
7789 33.7078 13661.50 14688.30 135.50
7790 33.7116 13883.10 14812.30 136.45
7791 33.7154 13903.70 14943.30 136.18
7792 33.7191 14135.80 15078.00 138.13
7793 33.7229 13968.60 15224.20 137.05
7794 33.7266 14331.40 15374.60 139.11
7795 33.7304 14143.60 15538.40 138.57
7796 33.7342 14375.00 15712.20 138.79
7797 33.7379 14371.80 15891.70 139.52
7798 33.7417 14777.20 16087.70 141.46
7799 33.7454 14504.60 16290.80 139.71
7800 33.7492 14968.80 16512.90 143.06
7801 33.7529 15084.00 16743.60 143.46
7802 33.7567 15259.10 16996.70 144.44
7803 33.7605 15453.60 17267.60 145.28
7804 33.7642 15753.50 17550.50 147.27
7805 33.7680 15964.10 17861.90 148.42
7806 33.7717 16229.70 18188.20 149.86
7807 33.7755 16140.50 18548.70 148.91
7808 33.7793 16670.00 18938.40 151.84
7809 33.7830 16668.10 19348.20 151.98
7810 33.7868 17204.80 19804.50 154.57
7811 33.7905 17271.10 20286.30 155.32
7812 33.7943 17823.40 20825.10 157.60
7813 33.7981 18127.20 21413.30 159.24
7814 33.8018 18870.90 22039.00 163.58
7815 33.8056 19263.10 22744.60 164.50
7816 33.8093 19864.80 23498.70 168.59
7817 33.8131 20041.50 24353.20 168.78
7818 33.8169 21259.70 25298.90 175.26
7819 33.8206 21778.80 26322.00 177.38
7820 33.8244 23133.40 27491.20 184.33
7821 33.8281 23672.60 28765.80 186.75
7822 33.8319 25157.00 30234.10 193.80
7823 33.8356 26376.10 31848.60 198.58
7824 33.8394 28795.70 33725.80 209.32
7825 33.8432 30234.40 35870.50 216.18
7826 33.8469 32947.80 38262.50 228.16
7827 33.8507 36402.50 41099.70 241.08
7828 33.8544 40976.90 44312.90 260.19
7829 33.8582 45316.00 48200.50 274.88
7830 33.8620 52567.60 52866.90 302.30
7831 33.8657 60365.40 58412.50 331.00
7832 33.8695 71416.50 65617.10 369.10
7833 33.8732 83386.40 74781.30 405.65
7834 33.8770 100726.00 87574.00 459.18
7835 33.8808 119485.00 105528.00 513.78
7836 33.8845 147689.00 130357.00 594.83
7837 33.8883 178539.00 166396.00 677.13
7838 33.8920 225898.00 215122.00 798.55
7839 33.8958 276908.00 282227.00 922.45
7840 33.8996 356929.00 368797.00 1108.08
7841 33.9033 444839.00 471275.00 1300.99
7842 33.9071 574339.00 590693.00 1582.26
7843 33.9108 696942.00 709799.00 1838.15
7844 33.9146 839068.00 816065.00 2125.35
7845 33.9184 916650.00 883124.00 2262.43
7846 33.9221 962224.00 897206.00 2373.18
7847 33.9259 908487.00 860215.00 2246.25
7848 33.9296 820078.00 784387.00 2087.74
7849 33.9334 677331.00 678912.00 1794.51
7850 33.9372 556547.00 562149.00 1547.80
7851 33.9409 433568.00 451951.00 1284.24
7852 33.9447 346073.00 352520.00 1090.43
7853 33.9484 268813.00 272944.00 904.53
7854 33.9522 216568.00 209329.00 774.65
7855 33.9560 171312.00 161863.00 658.86
7856 33.9597 140058.00 128319.00 577.72
7857 33.9635 113425.00 103704.00 498.86
7858 33.9672 95423.20 86662.10 445.54
7859 33.9710 79312.70 74038.70 396.33
7860 33.9748 68506.30 64750.50 358.90
7861 33.9785 58167.30 57827.10 324.01
7862 33.9823 52041.10 52204.00 301.87
7863 33.9860 44776.50 47734.30 275.93
7864 33.9898 41117.90 43901.20 261.90
7865 33.9935 36736.40 40742.30 244.35
7866 33.9973 34285.70 37949.20 233.70
7867 34.0011 31127.10 35538.20 221.20
7868 34.0048 29691.70 33487.30 213.71
7869 34.0086 27417.40 31640.30 204.71
7870 34.0123 26814.70 30051.40 202.70
7871 34.0161 24985.30 28606.00 193.52
7872 34.0199 24550.80 27319.30 192.31
7873 34.0236 23400.30 26199.60 185.67
7874 34.0274 23299.80 25166.30 185.53
7875 34.0311 22283.70 24260.30 181.53
7876 34.0349 22085.40 23418.60 180.43
7877 34.0387 21216.00 22656.80 175.27
7878 34.0424 20395.70 21981.40 172.57
7879 34.0462 19849.20 21349.00 169.05
7880 34.0499 19641.80 20786.20 167.65
7881 34.0537 18900.20 20255.70 164.00
7882 34.0575 18840.30 19769.70 164.14
7883 34.0612 17807.70 19333.50 158.75
7884 34.0650 18265.90 18920.80 161.73
7885 34.0687 17529.50 18549.10 156.82
7886 34.0725 17370.20 18196.00 156.48
7887 34.0763 16747.60 17868.70 153.11
7888 34.0800 16827.90 17573.00 154.20
7889 34.0838 16458.40 17290.50 152.18
7890 34.0875 16317.60 17034.70 151.40
7891 34.0913 16171.00 16789.70 149.73
7892 34.0951 16104.60 16561.70 150.53
7893 34.0988 15728.90 16354.30 147.51
7894 34.1026 15717.10 16155.50 148.01
7895 34.1063 15224.20 15975.00 146.16
7896 34.1101 15564.70 15801.80 146.45
7897 34.1139 15074.30 15640.40 144.27
7898 34.1176 15144.70 15494.00 144.48
7899 34.1214 15035.80 15354.40 144.40
7900 34.1251 15112.90 15228.20 145.24
7901 34.1289 14688.70 15108.90 142.92
7902 34.1327 14879.00 14999.60 143.99
7903 34.1364 14820.30 14903.10 143.37
7904 34.1402 14756.40 14814.60 143.22
7905 34.1439 14834.40 14739.40 143.36
7906 34.1477 14625.90 14674.10 142.53
7907 34.1515 14296.90 14622.30 140.11
7908 34.1552 14709.60 14585.90 143.02
7909 34.1590 14419.30 14564.70 141.90
7910 34.1627 14662.90 14561.30 142.58
7911 34.1665 14258.40 14577.40 140.27
7912 34.1703 14914.00 14614.90 143.45
7913 34.1740 14657.00 14673.30 142.40
7914 34.1778 15052.70 14756.80 144.36
7915 34.1815 15187.10 14861.00 145.61
7916 34.1853 14871.00 14990.60 143.57
7917 34.1891 15077.40 15140.50 145.01
7918 34.1928 15428.50 15301.10 146.71
7919 34.1966 15353.20 15472.90 146.73
7920 34.2003 15773.60 15635.10 148.04
7921 34.2041 15598.90 15780.00 147.21
7922 34.2079 16305.60 15883.20 148.98
7923 34.2116 15688.50 15925.70 148.23
7924 34.2154 16378.80 15896.70 151.60
7925 34.2191 15644.70 15794.90 148.16
7926 34.2229 16199.20 15622.90 150.51
7927 34.2267 15932.80 15399.40 149.67
7928 34.2304 15674.70 15150.80 147.51
7929 34.2342 15101.70 14881.90 145.26
7930 34.2379 15206.00 14620.70 145.41
7931 34.2417 14742.90 14362.40 141.89
7932 34.2455 14458.90 14120.90 141.81
7933 34.2492 13694.80 13905.30 137.48
7934 34.2530 13730.70 13705.20 136.40
7935 34.2567 13405.60 13531.40 135.33
7936 34.2605 13268.40 13373.50 134.99
7937 34.2643 12728.40 13235.20 131.40
7938 34.2680 13171.00 13117.50 134.16
7939 34.2718 12915.30 13012.10 132.24
7940 34.2755 12703.70 12922.60 130.54
7941 34.2793 12501.20 12842.20 130.15
7942 34.2831 12609.80 12771.70 130.55
7943 34.2868 12448.80 12710.80 130.06
7944 34.2906 12202.00 12655.00 128.35
7945 34.2943 12246.60 12606.00 127.64
7946 34.2981 12337.30 12560.20 129.21
7947 34.3019 11991.00 12518.30 126.48
7948 34.3056 11981.80 12480.70 126.29
7949 34.3094 12083.50 12444.60 127.50
7950 34.3131 12072.50 12411.80 126.78
7951 34.3169 12018.30 12380.00 126.64
7952 34.3207 12015.50 12350.00 126.87
7953 34.3244 11933.70 12322.40 126.47
7954 34.3282 12088.20 12295.30 127.36
7955 34.3319 11752.40 12270.30 125.57
7956 34.3357 12038.30 12245.70 127.57
7957 34.3395 11907.30 12222.20 126.44
7958 34.3432 11954.20 12200.20 126.15
7959 34.3470 11737.10 12178.60 125.28
7960 34.3507 11986.00 12158.40 126.71
7961 34.3545 11754.00 12138.40 124.33
7962 34.3583 11613.00 12119.10 124.64
7963 34.3620 11730.80 12101.10 124.79
7964 34.3658 12043.80 12083.20 127.20
7965 34.3695 11683.20 12066.40 124.34
7966 34.3733 11817.00 12049.70 125.86
7967 34.3771 11782.20 12033.50 126.22
7968 34.3808 11966.60 12018.30 126.77
7969 34.3846 11620.30 12003.20 124.59
7970 34.3883 11684.50 11988.90 124.80
7971 34.3921 11431.40 11974.60 123.50
7972 34.3958 11869.30 11961.20 126.54
7973 34.3996 11774.30 11947.80 125.53
7974 34.4034 11795.30 11934.70 125.41
7975 34.4071 11581.60 11922.40 124.35
7976 34.4109 11739.40 11910.10 125.05
7977 34.4147 11581.80 11898.10 124.72
7978 34.4184 11891.10 11886.80 126.67
7979 34.4222 11581.30 11875.40 124.26
7980 34.4259 11632.50 11864.70 124.16
7981 34.4297 11706.50 11853.90 125.00
7982 34.4335 11914.80 11843.40 126.38
7983 34.4372 11763.50 11833.50 125.83
7984 34.4410 11896.10 11823.50 126.60
7985 34.4447 11680.30 11814.00 124.72
7986 34.4485 11722.40 11804.50 125.01
7987 34.4522 11597.50 11795.50 124.84
7988 34.4560 11769.90 11786.50 125.96
7989 34.4598 11494.20 11777.60 124.07
7990 34.4635 11621.60 11769.20 124.24
7991 34.4673 11695.90 11760.80 125.16
7992 34.4711 11602.50 11752.60 124.30
7993 34.4748 11689.00 11404.40 125.11
7994 34.4786 11535.70 11401.10 123.35
7995 34.4823 11659.70 11398.00 125.11
7996 34.4861 11642.40 11226.10 124.71
7997 34.4899 11393.90 11225.30 123.03
7998 34.4936 11827.40 11224.60 125.37
7999 34.4974 11552.60 11223.80 123.66
8000 34.5011 11495.70 11223.20 124.08
8001 34.5049 11321.00 11222.50 122.67
8002 34.5087 11475.70 11221.90 123.85
8003 34.5124 11317.30 11221.30 122.72
8004 34.5162 11415.40 11220.70 123.16
8005 34.5199 11494.90 11220.10 123.87
8006 34.5237 11639.00 11219.50 125.24
8007 34.5275 11512.20 11219.00 123.15
8008 34.5312 11554.50 11218.50 123.21
8009 34.5350 11374.80 11218.00 123.13
8010 34.5387 11331.30 11217.50 122.22
8011 34.5425 11383.10 11217.00 123.10
8012 34.5463 11409.40 11216.50 123.07
8013 34.5500 11481.00 11216.10 123.74
8014 34.5538 11559.80 11215.70 124.42
8015 34.5575 11435.70 11215.30 123.39
8016 34.5613 11721.50 11214.80 124.92
8017 34.5651 11350.40 11214.40 122.90
8018 34.5688 11649.50 11214.10 124.88
8019 34.5726 11361.40 11213.70 123.23
8020 34.5763 11681.50 11213.30 125.22
8021 34.5801 11333.30 11213.00 122.61
8022 34.5839 11436.10 11212.60 123.36
8023 34.5876 11547.80 11212.30 123.72
8024 34.5914 11437.70 11212.00 123.58
8025 34.5951 11401.90 11211.70 122.53
8026 34.5989 11463.20 11211.40 123.38
8027 34.6027 11248.30 11211.10 122.79
8028 34.6064 11784.50 11210.80 126.24
8029 34.6102 11284.90 11210.50 122.96
8030 34.6139 11609.20 11210.20 124.70
8031 34.6177 11120.60 11210.00 121.56
8032 34.6215 11558.50 11209.70 124.59
8033 34.6252 11349.20 11209.50 123.25
8034 34.6290 11469.60 11209.20 124.03
8035 34.6327 11220.30 11209.00 122.79
8036 34.6365 11413.30 11208.70 123.66
8037 34.6403 11310.40 11208.50 122.62
8038 34.6440 11501.50 11208.30 123.86
8039 34.6478 11146.90 11208.10 122.12
8040 34.6515 11583.80 11207.90 124.48
8041 34.6553 11280.10 11207.70 121.34
8042 34.6591 11304.40 11207.50 122.68
8043 34.6628 11056.70 11207.30 121.22
8044 34.6666 11316.10 11207.10 122.62
8045 34.6703 11272.20 11206.90 123.25
8046 34.6741 11550.30 11206.70 124.78
8047 34.6779 11250.80 11206.60 122.77
8048 34.6816 11569.90 11206.40 124.35
8049 34.6854 11237.70 11206.20 122.24
8050 34.6891 11474.50 11206.10 124.03
8051 34.6929 11035.60 11205.90 121.19
8052 34.6967 11480.90 11205.80 124.12
8053 34.7004 11305.60 11205.60 122.95
8054 34.7042 11455.30 11205.50 123.82
8055 34.7079 11107.80 11205.40 122.09
8056 34.7117 11297.80 11205.20 123.37
8057 34.7155 11099.30 11205.10 122.11
8058 34.7192 11275.60 11205.00 122.59
8059 34.7230 11013.50 11204.80 121.01
8060 34.7267 11319.80 11204.70 122.62
8061 34.7305 11254.90 11204.60 122.25
8062 34.7343 11337.30 11204.50 123.70
8063 34.7380 11275.50 11204.40 123.28
8064 34.7418 11239.20 11204.30 122.85
8065 34.7455 11367.80 11204.20 122.67
8066 34.7493 11432.00 11204.10 123.96
8067 34.7531 11317.50 11204.00 123.00
8068 34.7568 11297.90 11203.90 122.44
8069 34.7606 11241.80 11203.80 122.28
8070 34.7643 11388.10 11203.70 123.88
8071 34.7681 11231.00 11203.60 122.82
8072 34.7719 11172.00 11203.50 122.11
8073 34.7756 11221.90 11203.50 122.08
8074 34.7794 11388.00 11203.40 123.57
8075 34.7831 11385.60 11203.30 122.95
8076 34.7869 11329.80 11203.30 123.41
8077 34.7907 11147.40 11203.20 121.99
8078 34.7944 11448.10 11203.10 122.17
8079 34.7982 11277.50 11203.10 122.01
8080 34.8019 11613.40 11203.00 124.56
8081 34.8057 11270.10 11202.90 122.68
8082 34.8095 11277.70 11202.90 122.94
8083 34.8132 11084.70 11202.80 121.91
8084 34.8170 11311.90 11202.80 122.43
8085 34.8207 11145.90 11202.70 121.92
8086 34.8245 11279.00 11202.70 123.12
8087 34.8283 11204.10 11202.70 122.71
8088 34.8320 11512.80 11202.60 123.14
8089 34.8358 11181.10 11202.60 122.35
8090 34.8395 11385.40 11202.50 123.13
8091 34.8433 11258.20 11202.50 123.11
8092 34.8471 11418.40 11202.50 123.72
8093 34.8508 11079.90 11202.40 121.64
8094 34.8546 11170.70 11202.40 122.46
8095 34.8583 11233.80 11202.40 123.39
8096 34.8621 11570.90 11202.40 124.87
8097 34.8659 10989.30 11202.40 121.26
8098 34.8696 11364.10 11202.30 124.02
8099 34.8734 11131.50 11202.30 122.12
8100 34.8771 11513.50 11202.30 123.27
8101 34.8809 11108.80 11202.30 121.76
8102 34.8847 11449.80 11202.30 123.86
8103 34.8884 10985.90 11202.30 120.89
8104 34.8922 11408.00 11202.30 123.84
8105 34.8959 11221.60 11202.30 122.98
8106 34.8997 11422.70 11202.30 123.25
8107 34.9035 11305.40 11202.30 123.40
8108 34.9072 11307.20 11202.30 123.52
8109 34.9110 11107.00 11202.30 122.05
8110 34.9147 11405.30 11202.30 124.32
8111 34.9185 11013.10 11202.30 120.99
8112 34.9223 11200.70 11202.30 122.76
8113 34.9260 11176.30 11202.30 121.87
8114 34.9298 11522.90 11202.30 124.11
8115 34.9335 11221.80 11202.30 122.62
8116 34.9373 11204.30 11202.30 122.21
8117 34.9410 11152.40 11202.30 122.43
8118 34.9448 11430.50 11202.60 122.84
8119 34.9486 11248.10 11202.60 122.99
8120 34.9523 11241.60 11199.20 122.92
8121 34.9561 11380.20 11199.50 124.04
8122 34.9599 11355.60 11199.60 123.61
8123 34.9636 11327.20 11200.60 123.39
8124 34.9674 11331.70 11200.70 123.08
8125 34.9711 11353.00 11200.70 123.62
8126 34.9749 11416.40 11200.80 124.11
8127 34.9787 11245.40 11200.90 122.98
8128 34.9824 11431.50 11201.00 124.15
8129 34.9862 11185.10 11201.10 122.74
8130 34.9899 11383.20 11201.20 123.90
8131 34.9937 11290.10 11201.30 123.36
8132 34.9975 11259.30 11201.40 123.71
8133 35.0012 11329.60 11201.50 122.74
8134 35.0050 11550.90 11201.60 124.81
8135 35.0087 11094.40 11201.60 122.28
8136 35.0125 11520.50 11201.70 125.08
8137 35.0162 11375.70 11201.80 124.31
8138 35.0200 11281.40 11201.90 123.32
8139 35.0238 11133.70 11202.10 122.50
8140 35.0275 11280.10 11202.20 123.12
8141 35.0313 11070.00 11202.30 122.04
8142 35.0350 11394.40 11202.40 124.65
8143 35.0388 11013.20 11202.50 122.13
8144 35.0426 11415.80 11202.60 124.17
8145 35.0463 11183.30 11202.70 122.72
8146 35.0501 11606.80 11202.80 125.21
8147 35.0538 11061.80 11202.90 122.19
8148 35.0576 11495.90 11203.10 124.81
8149 35.0614 11311.90 11203.20 123.64
8150 35.0651 11403.00 11203.30 124.25
8151 35.0689 11262.70 11203.40 122.87
8152 35.0726 11409.70 11203.60 123.99
8153 35.0764 11244.30 11203.70 123.70
8154 35.0802 11177.10 11203.80 121.69
8155 35.0839 11247.90 11203.90 123.69
8156 35.0877 11315.40 11204.10 123.36
8157 35.0914 11257.50 11204.20 123.74
8158 35.0952 11466.60 11204.40 124.33
8159 35.0990 11245.80 11204.50 122.27
8160 35.1027 11585.80 11204.60 124.72
8161 35.1065 11495.00 11204.80 124.60
8162 35.1102 11535.50 11204.90 124.34
8163 35.1140 11200.80 11205.10 123.04
8164 35.1178 11264.60 11205.20 122.82
8165 35.1215 11175.60 11205.40 121.72
8166 35.1253 11499.50 11205.60 124.85
8167 35.1290 11106.40 11205.70 122.54
8168 35.1328 11468.50 11205.90 123.92
8169 35.1366 11323.00 11206.00 123.71
8170 35.1403 11484.60 11206.20 124.59
8171 35.1441 11363.20 11206.40 123.50
8172 35.1478 11656.10 11206.50 125.52
8173 35.1516 11055.30 11206.70 121.57
8174 35.1554 11536.80 11206.90 124.24
8175 35.1591 11206.80 11207.10 123.15
8176 35.1629 11243.50 11207.30 121.80
8177 35.1666 11175.20 11207.40 122.70
8178 35.1704 11348.50 11207.60 123.55
8179 35.1742 11317.10 11207.80 123.50
8180 35.1779 11595.60 11208.00 124.70
8181 35.1817 11025.50 11208.20 121.43
8182 35.1854 11482.70 11208.40 123.79
8183 35.1892 11232.30 11208.60 122.30
8184 35.1930 11380.90 11208.90 124.27
8185 35.1967 11226.10 11209.10 122.08
8186 35.2005 11318.90 11209.30 123.89
8187 35.2042 11189.80 11209.50 122.85
8188 35.2080 11177.30 11209.70 122.09
8189 35.2118 11202.30 11210.00 122.79
8190 35.2155 11448.30 11210.20 124.37
8191 35.2193 11248.60 11210.50 122.80
8192 35.2230 11505.40 11210.70 123.55
8193 35.2268 11073.80 11211.00 121.68
8194 35.2306 11335.70 11211.20 123.39
8195 35.2343 11185.20 11211.50 122.48
8196 35.2381 11207.90 11211.70 122.49
8197 35.2418 11329.20 11212.00 123.44
8198 35.2456 11606.20 11212.30 124.54
8199 35.2493 11197.60 11212.60 122.91
8200 35.2531 11210.20 11212.90 122.02
8201 35.2569 11194.40 11213.20 122.70
8202 35.2606 11560.50 11213.50 124.72
8203 35.2644 11327.00 11213.80 123.68
8204 35.2681 11453.10 11214.10 124.22
8205 35.2719 11276.00 11214.50 123.08
8206 35.2757 11346.70 11214.80 123.50
8207 35.2794 11194.10 11215.20 122.60
8208 35.2832 11411.20 11215.60 124.70
8209 35.2869 11251.10 11215.90 123.29
8210 35.2907 11337.30 11216.30 123.39
8211 35.2945 11230.40 11216.70 122.91
8212 35.2982 11323.10 11217.10 123.14
8213 35.3020 11331.90 11217.60 123.47
8214 35.3057 11420.30 11218.00 123.32
8215 35.3095 11242.40 11218.50 121.99
8216 35.3133 11461.30 11219.00 124.58
8217 35.3170 11067.20 11219.40 121.95
8218 35.3208 11432.60 11220.00 124.33
8219 35.3245 11121.80 11220.50 121.09
8220 35.3283 11388.80 11221.00 122.75
8221 35.3321 11568.20 11221.60 125.41
8222 35.3358 11544.40 11222.20 124.25
8223 35.3396 11236.50 11222.90 123.07
8224 35.3433 11723.50 11223.50 125.78
8225 35.3471 11331.40 11224.20 124.00
8226 35.3509 11464.60 11224.90 124.67
8227 35.3546 11248.90 11225.70 123.21
8228 35.3584 11649.10 11226.50 124.85
8229 35.3621 11365.80 11227.30 123.98
8230 35.3659 11868.60 11228.30 126.74
8231 35.3697 11323.80 11229.20 121.65
8232 35.3734 11727.90 11230.20 125.67
8233 35.3772 11393.10 11231.30 124.09
8234 35.3809 11629.10 11232.40 124.96
8235 35.3847 11432.40 11233.60 124.25
8236 35.3884 11621.20 11234.90 125.22
8237 35.3922 11218.10 11236.30 123.51
8238 35.3960 11682.80 11237.80 126.20
8239 35.3997 11637.10 11239.40 126.17
8240 35.4035 11441.30 11241.10 125.27
8241 35.4072 11406.00 11243.00 124.61
8242 35.4110 11752.20 11245.00 126.33
8243 35.4148 11338.30 11247.30 124.30
8244 35.4185 11499.90 11249.60 124.60
8245 35.4223 11602.30 11252.30 125.45
8246 35.4260 11580.40 11255.20 125.43
8247 35.4298 11404.10 11258.50 123.85
8248 35.4336 11793.50 11262.10 126.15
8249 35.4373 11510.10 11266.00 124.18
8250 35.4411 11775.30 11270.50 126.61
8251 35.4448 11616.30 11275.40 125.53
8252 35.4486 11920.60 11281.20 127.50
8253 35.4524 11396.40 11289.50 123.52
8254 35.4561 11839.10 11296.80 127.54
8255 35.4599 11582.20 11305.50 125.02
8256 35.4636 11592.90 11315.50 125.18
8257 35.4674 11765.60 11340.90 126.98
8258 35.4712 11838.20 11355.90 126.34
8259 35.4749 11806.70 11381.00 125.66
8260 35.4787 11849.20 11408.20 126.70
8261 35.4824 11887.40 11439.50 126.57
8262 35.4862 12049.20 11482.80 128.66
8263 35.4900 12000.40 11542.00 127.93
8264 35.4937 12281.60 11620.60 129.88
8265 35.4975 12041.90 11729.20 128.63
8266 35.5012 12429.70 11868.60 130.33
8267 35.5050 12005.80 12051.20 127.05
8268 35.5087 12525.40 12268.60 131.47
8269 35.5125 12223.10 12525.90 129.08
8270 35.5163 12666.90 12802.70 131.74
8271 35.5200 12523.70 13069.20 130.72
8272 35.5238 12809.70 13313.60 132.35
8273 35.5275 12669.60 13490.10 131.96
8274 35.5313 12810.20 13565.90 133.07
8275 35.5351 12616.40 13502.20 132.59
8276 35.5388 12869.20 13311.80 133.88
8277 35.5426 12660.40 13029.90 132.71
8278 35.5463 12890.20 12726.50 133.93
8279 35.5501 12618.90 12428.00 131.99
8280 35.5539 12685.90 12167.30 131.89
8281 35.5576 12417.20 11958.50 130.53
8282 35.5614 12408.50 11791.10 130.51
8283 35.5651 12372.80 11668.70 130.28
8284 35.5689 12359.00 11577.40 129.72
8285 35.5726 12118.60 11513.80 127.92
8286 35.5764 12312.20 11467.50 129.24
8287 35.5802 11981.70 11434.40 126.87
8288 35.5839 11935.30 11410.70 126.34
8289 35.5877 11831.50 11392.10 126.52
8290 35.5914 11961.60 11377.90 126.97
8291 35.5952 11876.20 11366.20 126.60
8292 35.5990 11723.40 11356.50 125.74
8293 35.6027 11638.90 11348.70 125.05
8294 35.6065 11878.40 11341.90 127.00
8295 35.6102 11603.00 11336.30 125.17
8296 35.6140 11764.60 11331.40 125.79
8297 35.6178 11616.10 11327.30 125.27
8298 35.6215 11793.90 11323.80 126.03
8299 35.6253 11388.70 11320.80 124.11
8300 35.6290 11668.90 11318.40 125.27
8301 35.6328 11529.50 11316.20 125.29
8302 35.6365 11569.60 11314.50 124.54
8303 35.6403 11237.90 11313.00 123.18
8304 35.6441 11774.30 11311.80 125.70
8305 35.6478 11198.10 11310.90 122.43
8306 35.6516 11710.90 11310.20 125.30
8307 35.6553 11300.30 11309.70 122.63
8308 35.6591 11651.80 11309.30 124.86
8309 35.6629 11411.30 11309.10 123.71
8310 35.6666 11448.40 11309.10 123.53
8311 35.6704 11133.10 11309.20 122.24
8312 35.6741 11537.00 11309.50 124.48
8313 35.6779 11370.60 11309.90 121.94
8314 35.6817 11599.20 11310.40 124.43
8315 35.6854 11382.10 11310.90 123.43
8316 35.6892 11444.40 11311.70 123.95
8317 35.6929 11180.40 11312.40 122.09
8318 35.6967 11547.30 11313.40 124.42
8319 35.7004 11172.60 11314.30 122.10
8320 35.7042 11304.20 11315.40 122.33
8321 35.7080 11317.10 11316.70 123.01
8322 35.7117 11523.50 11317.90 124.07
8323 35.7155 11273.50 11319.30 121.67
8324 35.7192 11339.70 11320.70 122.86
8325 35.7230 11184.90 11322.30 121.81
8326 35.7268 11425.20 11323.90 123.65
8327 35.7305 11091.70 11325.70 121.89
8328 35.7343 11483.40 11327.50 124.47
8329 35.7380 11382.50 11329.40 123.87
8330 35.7418 11451.10 11331.40 123.87
8331 35.7456 11130.00 11333.60 122.27
8332 35.7493 11166.60 11335.70 122.32
8333 35.7531 11160.80 11338.10 122.03
8334 35.7568 11473.20 11340.50 123.85
8335 35.7606 11349.40 11343.10 123.29
8336 35.7643 11221.80 11345.70 122.32
8337 35.7681 11332.70 11348.50 122.58
8338 35.7719 11453.90 11351.40 124.61
8339 35.7756 11421.00 11354.40 123.27
8340 35.7794 11518.30 11357.60 125.15
8341 35.7831 11152.80 11360.90 122.47
8342 35.7869 11440.80 11364.40 123.30
8343 35.7907 11215.60 11368.10 122.10
8344 35.7944 11237.60 11371.90 122.35
8345 35.7982 11297.70 11375.90 122.57
8346 35.8019 11249.60 11380.00 123.14
8347 35.8057 11246.60 11384.40 122.86
8348 35.8094 11454.80 11388.90 123.75
8349 35.8132 11064.90 11393.80 121.96
8350 35.8170 11457.20 11398.90 124.19
8351 35.8207 11154.80 11404.10 122.43
8352 35.8245 11303.10 11409.70 122.69
8353 35.8282 11182.90 11415.50 122.79
8354 35.8320 11508.00 11421.70 123.94
8355 35.8358 11336.50 11428.20 123.40
8356 35.8395 11322.30 11435.00 123.89
8357 35.8433 11254.60 11442.20 123.09
8358 35.8470 11436.10 11449.70 124.22
8359 35.8508 11425.20 11457.80 124.27
8360 35.8545 11577.70 11466.20 123.74
8361 35.8583 11326.20 11475.30 123.43
8362 35.8621 11517.40 11484.90 122.93
8363 35.8658 11315.70 11494.90 122.95
8364 35.8696 11399.90 11505.80 124.24
8365 35.8733 11265.40 11517.00 123.20
8366 35.8771 11570.40 11529.40 124.52
8367 35.8809 11511.00 11542.50 124.60
8368 35.8846 11534.00 11556.20 124.79
8369 35.8884 11344.30 11571.30 123.75
8370 35.8921 11752.60 11586.90 126.31
8371 35.8959 11202.10 11604.20 123.21
8372 35.8996 11607.00 11622.30 124.88
8373 35.9034 11328.70 11642.40 124.02
8374 35.9072 11674.60 11664.00 125.67
8375 35.9109 11540.60 11686.80 122.76
8376 35.9147 11666.80 11712.20 126.04
8377 35.9184 11648.70 11739.00 125.87
8378 35.9222 11716.00 11769.00 125.27
8379 35.9259 11475.00 11800.90 125.10
8380 35.9297 11810.50 11836.70 126.87
8381 35.9335 11521.20 11876.00 125.10
8382 35.9372 11944.80 11918.20 127.04
8383 35.9410 11750.70 11966.00 126.14
8384 35.9447 11918.90 12017.60 127.50
8385 35.9485 11816.60 12076.50 126.70
8386 35.9523 11813.00 12142.30 127.18
8387 35.9560 12004.30 12214.10 127.60
8388 35.9598 12362.40 12297.10 129.71
8389 35.9635 12140.40 12388.50 128.65
8390 35.9673 12419.20 12495.40 129.55
8391 35.9710 12263.40 12614.50 127.23
8392 35.9748 12966.50 12755.70 134.07
8393 35.9786 13219.70 12920.90 137.85
8394 35.9823 13399.90 13111.00 136.45
8395 35.9861 13601.60 13346.40 138.23
8396 35.9898 14126.40 13629.10 141.31
8397 35.9936 14194.90 13996.20 140.58
8398 35.9974 15173.40 14476.30 146.05
8399 36.0011 15731.30 15099.90 148.63
8400 36.0049 16686.20 15968.10 153.98
8401 36.0086 18046.00 17124.20 162.39
8402 36.0124 19677.50 18737.50 170.13
8403 36.0161 21181.60 20843.10 177.45
8404 36.0199 23857.50 23660.10 190.36
8405 36.0237 26696.40 27213.60 203.27
8406 36.0274 31107.10 31356.80 224.01
8407 36.0312 35764.40 36175.20 242.64
8408 36.0349 42444.20 41131.60 266.03
8409 36.0387 48421.80 46028.30 292.59
8410 36.0424 54565.20 49924.70 314.08
8411 36.0462 57430.60 52235.40 327.01
8412 36.0500 59032.30 52286.10 330.06
8413 36.0537 53713.70 50141.00 309.55
8414 36.0575 49528.20 46132.10 294.74
8415 36.0612 41922.80 41191.00 265.59
8416 36.0650 36105.40 35837.90 241.84
8417 36.0687 30407.70 30948.30 219.51
8418 36.0725 26798.90 26595.30 203.53
8419 36.0763 23070.40 23052.10 185.87
8420 36.0800 20576.50 20357.40 174.12
8421 36.0838 18616.80 18276.40 164.26
8422 36.0875 17291.10 16789.00 156.06
8423 36.0913 15655.40 15685.90 148.23
8424 36.0950 15202.00 14909.50 145.46
8425 36.0988 14106.20 14326.90 139.56
8426 36.1026 14032.00 13891.00 138.59
8427 36.1063 13177.00 13563.00 134.30
8428 36.1101 13160.90 13292.70 133.43
8429 36.1138 12781.50 13077.50 131.73
8430 36.1176 12559.20 12891.90 131.04
8431 36.1214 12342.00 12734.10 128.91
8432 36.1251 12210.20 12601.90 127.97
8433 36.1289 12011.50 12483.70 126.42
8434 36.1326 12115.70 12383.10 126.76
8435 36.1364 11842.70 12292.00 126.39
8436 36.1401 12032.50 12213.60 127.35
8437 36.1439 11816.50 12142.00 125.97
8438 36.1477 11876.30 12078.30 126.05
8439 36.1514 11711.80 12022.60 125.60
8440 36.1552 11727.10 11971.30 125.21
8441 36.1589 11386.10 11926.10 123.54
8442 36.1627 11756.50 11884.10 125.65
8443 36.1664 11586.60 11847.00 124.30
8444 36.1702 11540.50 11812.30 124.62
8445 36.1740 11375.10 11780.60 123.62
8446 36.1777 11617.60 11752.40 125.26
8447 36.1815 11444.50 11725.70 123.86
8448 36.1852 11497.80 11702.00 123.64
8449 36.1890 11478.60 11679.40 124.13
8450 36.1927 11556.10 11659.10 124.68
8451 36.1965 11395.80 11639.90 123.46
8452 36.2003 11517.90 11622.10 124.43
8453 36.2040 11323.10 11605.90 123.50
8454 36.2078 11562.10 11590.60 124.44
8455 36.2115 11284.60 11576.60 122.85
8456 36.2153 11749.00 11563.20 125.70
8457 36.2190 11342.20 11551.10 123.28
8458 36.2228 11506.80 11539.40 123.98
8459 36.2266 11332.60 11528.50 123.18
8460 36.2303 11359.60 11518.50 122.53
8461 36.2341 11343.10 11508.90 123.07
8462 36.2378 11385.60 11500.10 123.74
8463 36.2416 11492.00 11491.60 123.94
8464 36.2453 11408.20 11483.90 123.78
8465 36.2491 11256.80 11476.30 122.16
8466 36.2529 11554.30 11469.20 124.20
8467 36.2566 11309.60 11462.70 122.50
8468 36.2604 11498.20 11456.40 124.06
8469 36.2641 11292.90 11450.60 122.41
8470 36.2679 11351.90 11444.90 122.57
8471 36.2716 11244.20 11439.70 121.98
8472 36.2754 11476.90 11434.70 123.91
8473 36.2792 11056.10 11429.90 121.53
8474 36.2829 11217.50 11425.60 122.73
8475 36.2867 11128.50 11421.30 121.67
8476 36.2904 11648.20 11417.40 125.13
8477 36.2942 11180.70 11413.60 122.02
8478 36.2979 11244.40 11410.10 122.38
8479 36.3017 11063.00 11406.80 120.90
8480 36.3054 11391.00 11403.80 123.33
8481 36.3092 11196.20 11400.90 122.08
8482 36.3130 11344.70 11398.20 123.49
8483 36.3167 11117.60 11395.70 121.72
8484 36.3205 11490.10 11393.50 123.92
8485 36.3242 11229.30 11391.40 122.63
8486 36.3280 11242.40 11389.50 122.61
8487 36.3317 11178.60 11387.90 121.84
8488 36.3355 11234.50 11386.30 122.21
8489 36.3393 11357.90 11384.90 122.26
8490 36.3430 11403.10 11383.60 122.77
8491 36.3468 11092.00 11382.30 121.06
8492 36.3505 11427.00 11381.00 123.39
8493 36.3543 11306.50 11379.60 122.80
8494 36.3580 11659.50 11378.10 124.89
8495 36.3618 11230.40 11376.40 122.10
8496 36.3656 11329.40 11374.50 123.34
8497 36.3693 11361.80 11372.40 123.32
8498 36.3731 11442.00 11370.30 123.88
8499 36.3768 11295.30 11368.10 122.83
8500 36.3806 11391.80 11365.90 123.59
8501 36.3843 11349.30 11363.80 123.25
8502 36.3881 11129.70 11361.70 121.89
8503 36.3918 11113.40 11359.70 121.85
8504 36.3956 11509.80 11357.80 124.23
8505 36.3994 11298.70 11356.10 122.74
8506 36.4031 11617.30 11354.50 124.98
8507 36.4069 11135.80 11352.90 122.68
8508 36.4106 11628.60 11351.50 124.78
8509 36.4144 11163.90 11350.20 122.17
8510 36.4181 11563.70 11349.00 124.67
8511 36.4219 11339.50 11347.90 122.78
8512 36.4257 11561.30 11346.80 124.70
8513 36.4294 11293.30 11345.80 123.52
8514 36.4332 11447.70 11344.90 124.01
8515 36.4369 11297.50 11344.00 123.30
8516 36.4407 11559.30 11343.20 124.65
8517 36.4444 11170.20 11342.40 121.74
8518 36.4482 11325.50 11341.70 123.71
8519 36.4519 11227.40 11341.00 122.35
8520 36.4557 11521.60 11340.30 124.45
8521 36.4595 11149.30 11339.70 122.08
8522 36.4632 11372.80 11339.10 123.90
8523 36.4670 11243.00 11338.50 122.19
8524 36.4707 11269.90 11338.00 122.68
8525 36.4745 11173.30 11337.50 121.66
8526 36.4782 11437.70 11337.00 121.94
8527 36.4820 10935.10 11336.50 119.89
8528 36.4858 11277.80 11336.10 123.07
8529 36.4895 11138.00 11335.70 121.76
8530 36.4933 11294.50 11335.30 121.97
8531 36.4970 11432.20 11334.90 123.72
8532 36.5008 11329.70 11334.50 122.59
8533 36.5045 10963.90 11334.20 121.30
8534 36.5083 11210.40 11333.90 122.70
8535 36.5120 11050.50 11333.60 121.69
8536 36.5158 11314.40 11333.30 123.04
8537 36.5196 11061.50 11333.00 121.42
8538 36.5233 11541.70 11332.70 124.56
8539 36.5271 11108.20 11332.50 122.03
8540 36.5308 11212.30 11332.30 123.02
8541 36.5346 11049.20 11332.00 121.39
8542 36.5383 11235.60 11331.80 122.39
8543 36.5421 11172.30 11331.70 121.81
8544 36.5458 11168.30 11331.50 121.75
8545 36.5496 11218.50 11331.30 122.68
8546 36.5534 11393.10 11331.20 123.62
8547 36.5571 11231.00 11331.00 123.08
8548 36.5609 11510.10 11330.90 122.78
8549 36.5646 11082.50 11330.80 121.53
8550 36.5684 11259.50 11330.70 122.52
8551 36.5721 11282.70 11330.60 122.60
8552 36.5759 11146.40 11330.50 121.95
8553 36.5796 11215.70 11330.40 121.43
8554 36.5834 11205.90 11330.30 123.15
8555 36.5872 10993.60 11330.30 121.39
8556 36.5909 11076.80 11330.20 122.07
8557 36.5947 11237.80 11330.20 122.42
8558 36.5984 11212.90 11330.10 122.67
8559 36.6022 10974.00 11330.10 120.09
8560 36.6059 11323.40 11330.10 122.54
8561 36.6097 11063.70 11330.10 121.44
8562 36.6134 11475.40 11328.20 124.23
8563 36.6172 11147.50 11328.20 122.19
8564 36.6210 11236.50 11328.30 121.63
8565 36.6247 10833.10 11328.30 120.18
8566 36.6285 10991.90 11315.30 121.03
8567 36.6322 10790.00 11315.50 119.68
8568 36.6360 11150.80 11309.00 121.73
8569 36.6397 11103.80 11306.40 121.43
8570 36.6435 11139.00 11306.80 120.97
8571 36.6472 11093.80 11307.10 120.20
8572 36.6510 11285.30 11307.50 122.81
8573 36.6548 10895.40 11307.80 121.17
8574 36.6585 11206.10 11308.20 122.78
8575 36.6623 10894.80 11308.50 120.56
8576 36.6660 11351.40 11308.90 123.37
8577 36.6698 10836.20 11309.20 119.75
8578 36.6735 11187.10 11309.60 122.67
8579 36.6773 11291.60 11309.90 122.41
8580 36.6810 11217.80 11310.30 122.25
8581 36.6848 11044.60 11310.60 121.27
8582 36.6886 11182.20 11311.00 122.25
8583 36.6923 11067.00 11311.30 121.66
8584 36.6961 11185.50 11311.70 122.22
8585 36.6998 10883.30 11312.00 120.66
8586 36.7036 11301.80 11312.40 122.79
8587 36.7073 10976.30 11312.70 120.50
8588 36.7111 11395.00 11313.10 121.39
8589 36.7148 11067.80 11313.40 121.02
8590 36.7186 11275.40 11313.80 121.14
8591 36.7223 10995.80 11314.10 120.80
8592 36.7261 11092.20 11314.50 121.76
8593 36.7299 11284.50 11314.80 122.71
8594 36.7336 11227.80 11315.20 122.55
8595 36.7374 10976.90 11315.50 120.45
8596 36.7411 11372.20 11315.90 122.72
8597 36.7449 10921.20 11316.20 119.99
8598 36.7486 11129.40 11316.60 121.54
8599 36.7524 11297.30 11316.90 121.27
8600 36.7561 11311.20 11317.30 121.84
8601 36.7599 11043.10 11317.60 120.09
8602 36.7636 11196.00 11318.00 122.45
8603 36.7674 10895.50 11318.30 120.64
8604 36.7712 11166.30 11318.70 122.15
8605 36.7749 11006.20 11319.00 120.73
8606 36.7787 11084.40 11319.40 121.62
8607 36.7824 11206.80 11319.70 121.85
8608 36.7862 11145.70 11320.10 121.43
8609 36.7899 11014.30 11320.40 121.28
8610 36.7937 11294.70 11320.80 122.73
8611 36.7974 11068.50 11321.20 120.92
8612 36.8012 11389.00 11321.50 123.15
8613 36.8049 10959.70 11321.90 120.96
8614 36.8087 11445.20 11322.20 124.14
8615 36.8125 10924.50 11322.60 120.73
8616 36.8162 11422.30 11322.90 123.25
8617 36.8200 11122.20 11323.30 121.15
8618 36.8237 11275.80 11323.60 122.92
8619 36.8275 10995.70 11324.00 120.52
8620 36.8312 11213.00 11324.30 122.39
8621 36.8350 10801.70 11324.70 119.56
8622 36.8387 11235.80 11325.00 122.65
8623 36.8425 10941.70 11325.40 120.82
8624 36.8462 11289.50 11325.70 122.45
8625 36.8500 11143.40 11326.10 122.34
8626 36.8538 11225.60 11326.50 121.95
8627 36.8575 11013.30 11326.80 121.34
8628 36.8613 11328.00 11327.20 122.87
8629 36.8650 11062.40 11327.50 120.56
8630 36.8688 11151.40 11327.90 121.76
8631 36.8725 10969.60 11328.20 120.59
8632 36.8763 11193.30 11328.60 122.20
8633 36.8800 11094.80 11328.90 121.61
8634 36.8838 11330.20 11329.30 123.48
8635 36.8875 11193.70 11329.60 122.36
8636 36.8913 11213.80 11330.00 122.72
8637 36.8950 11098.90 11330.40 121.52
8638 36.8988 11455.80 11330.70 124.28
8639 36.9026 11004.90 11331.10 120.38
8640 36.9063 11195.40 11331.40 122.60
8641 36.9101 11062.10 11331.80 121.20
8642 36.9138 11199.20 11332.10 122.34
8643 36.9176 11046.40 11332.50 121.21
8644 36.9213 11548.10 11332.80 124.25
8645 36.9251 11193.60 11333.20 122.04
8646 36.9288 11434.30 11333.60 123.30
8647 36.9326 11250.70 11333.90 122.75
8648 36.9363 11123.90 11334.30 121.62
8649 36.9401 11196.70 11334.60 122.65
8650 36.9438 11151.30 11335.00 122.39
8651 36.9476 11289.80 11335.30 122.99
8652 36.9514 10992.10 11335.70 120.63
8653 36.9551 11071.50 11336.00 122.05
8654 36.9589 11221.50 11336.40 122.20
8655 36.9626 11119.30 11336.80 121.53
8656 36.9664 11439.20 11337.10 122.38
8657 36.9701 11296.60 11337.50 123.06
8658 36.9739 11385.20 11337.80 123.43
8659 36.9776 11020.50 11338.20 121.67
8660 36.9814 11306.00 11338.50 123.01
8661 36.9851 11213.50 11338.90 121.78
8662 36.9889 11219.40 11339.20 121.77
8663 36.9909 11199.10 11339.40 123.00
8664 36.9946 11433.10 11339.80 124.32
8665 36.9984 11158.90 11340.10 122.60
8666 37.0021 11587.10 11340.50 124.95
8667 37.0059 11094.10 11340.90 121.86
8668 37.0097 11295.40 11341.20 123.28
8669 37.0134 11080.10 11341.60 122.10
8670 37.0172 11196.50 11341.90 123.16
8671 37.0209 11270.30 11342.30 123.00
8672 37.0247 11188.50 11342.60 122.33
8673 37.0284 11108.20 11343.00 121.64
8674 37.0322 11258.50 11343.30 122.54
8675 37.0359 11444.10 11343.70 124.31
8676 37.0397 11252.30 11344.10 123.00
8677 37.0435 11130.80 11344.40 122.70
8678 37.0472 11235.80 11344.80 121.35
8679 37.0510 11236.10 11345.10 122.72
8680 37.0547 11299.00 11345.50 123.00
8681 37.0585 11192.80 11345.80 122.29
8682 37.0622 11390.10 11346.20 123.69
8683 37.0660 11244.30 11346.50 121.85
8684 37.0697 11356.40 11346.90 124.33
8685 37.0735 11150.50 11347.30 122.61
8686 37.0773 11114.40 11347.60 122.54
8687 37.0810 10893.80 11348.00 120.52
8688 37.0848 11333.20 11348.30 123.65
8689 37.0885 11038.30 11348.70 120.72
8690 37.0923 11149.40 11349.00 121.70
8691 37.0960 11238.40 11349.40 122.76
8692 37.0998 11490.50 11349.70 124.56
8693 37.1035 11213.80 11350.10 122.84
8694 37.1073 11301.90 11350.40 122.27
8695 37.1111 11142.60 11350.80 122.35
8696 37.1148 11389.30 11351.20 123.73
8697 37.1186 11176.90 11351.50 122.33
8698 37.1223 11454.90 11351.90 123.84
8699 37.1261 11096.50 11352.20 121.62
8700 37.1298 11396.50 11352.60 122.79
8701 37.1336 11239.20 11352.90 121.33
8702 37.1373 11283.60 11353.30 123.04
8703 37.1411 11011.70 11353.60 122.14
8704 37.1449 11158.00 11354.00 122.72
8705 37.1486 11306.70 11354.30 123.36
8706 37.1524 11255.90 11354.70 123.02
8707 37.1561 11077.60 11355.00 121.49
8708 37.1599 11431.40 11355.40 124.42
8709 37.1636 11304.30 11355.70 122.72
8710 37.1674 11278.30 11356.10 122.86
8711 37.1711 11000.50 11356.40 121.23
8712 37.1749 11225.40 11356.80 122.75
8713 37.1786 11185.50 11357.10 122.64
8714 37.1824 11294.30 11357.50 123.13
8715 37.1862 11163.40 11357.90 122.64
8716 37.1899 11234.90 11358.20 122.61
8717 37.1937 11084.80 11358.60 121.41
8718 37.1974 11301.10 11358.90 121.05
8719 37.2012 11169.60 11359.30 121.89
8720 37.2049 11187.70 11359.60 120.84
8721 37.2087 11164.70 11360.00 122.08
8722 37.2124 11367.30 11360.30 123.70
8723 37.2162 11291.00 11360.70 122.98
8724 37.2176 11263.50 11360.80 123.19
8725 37.2213 11461.50 11361.20 122.25
8726 37.2251 11112.90 11361.50 120.61
8727 37.2288 11510.00 11361.90 122.60
8728 37.2326 10969.60 11362.20 120.21
8729 37.2363 11278.00 11362.60 122.30
8730 37.2401 11254.10 11362.90 121.66
8731 37.2438 11552.70 11363.30 123.68
8732 37.2476 11134.70 11363.60 121.37
8733 37.2513 11380.20 11364.00 122.85
8734 37.2551 11260.10 11364.30 122.31
8735 37.2588 11373.60 11364.70 123.00
8736 37.2626 11260.60 11365.00 122.44
8737 37.2663 11239.80 11365.40 122.02
8738 37.2701 11162.20 11365.70 121.45
8739 37.2739 11380.70 11366.10 123.02
8740 37.2776 11131.10 11366.40 121.34
8741 37.2814 11422.00 11366.80 122.63
8742 37.2851 11270.20 11367.10 121.36
8743 37.2889 11391.50 11367.50 121.29
8744 37.2926 11232.00 11367.80 122.87
8745 37.2964 11489.80 11368.20 123.10
8746 37.3001 11278.00 11368.50 122.25
8747 37.3039 11308.20 11368.90 122.72
8748 37.3076 11355.30 11369.20 122.16
8749 37.3114 11555.90 11369.50 122.68
8750 37.3151 11043.90 11369.90 123.23
8751 37.3189 11650.40 11370.20 125.53
8752 37.3227 11381.30 11370.60 122.65
8753 37.3264 11255.80 11370.90 121.35
8754 37.3302 11320.80 11371.30 122.29
8755 37.3339 11577.10 11371.60 124.32
8756 37.3377 11079.30 11372.00 121.25
8757 37.3414 11419.00 11372.30 123.18
8758 37.3452 11276.30 11372.70 121.93
8759 37.3489 11553.10 11373.00 124.33
8760 37.3527 11413.00 11373.40 123.12
8761 37.3564 11312.00 11373.70 122.61
8762 37.3602 11239.00 11374.10 121.98
8763 37.3640 11473.10 11374.40 123.56
8764 37.3677 11210.50 11374.70 122.26
8765 37.3715 11390.60 11375.10 123.15
8766 37.3752 11175.30 11375.40 120.62
8767 37.3790 11358.20 11375.80 122.42
8768 37.3827 11159.90 11376.10 121.39
8769 37.3865 11264.80 11376.50 121.46
8770 37.3902 11290.70 11376.80 122.00
8771 37.3940 11585.80 11377.20 124.30
8772 37.3977 11253.90 11377.50 122.49
8773 37.4015 11668.00 11377.80 124.99
8774 37.4052 11337.40 11378.20 122.71
8775 37.4090 11510.70 11378.50 121.81
8776 37.4128 11236.00 11378.90 122.63
8777 37.4165 11628.60 11379.20 126.31
8778 37.4203 11371.30 11379.60 122.81
8779 37.4240 11544.20 11379.90 123.22
8780 37.4278 11313.90 11380.20 122.13
8781 37.4315 11279.50 11380.60 122.15
8782 37.4353 11278.30 11380.90 121.92
8783 37.4390 11566.50 11381.30 124.07
8784 37.4428 11203.20 11381.60 121.50
8785 37.4465 11654.90 11381.90 124.39
8786 37.4503 11465.50 11382.30 123.06
8787 37.4541 11457.80 11512.80 122.80
8788 37.4578 11377.20 11514.80 122.25
8789 37.4616 11529.00 11516.80 123.68
8790 37.4653 11455.10 11518.80 123.56
8791 37.4691 11425.00 11520.90 122.63
8792 37.4728 11326.00 11650.30 122.12
8793 37.4766 11341.90 11782.80 122.91
8794 37.4803 11459.00 11788.20 123.29
8795 37.4841 11450.40 11793.70 122.96
8796 37.4878 11351.80 11799.30 122.26
8797 37.4916 11436.40 11805.10 123.33
8798 37.4954 11521.20 11811.00 123.48
8799 37.4991 11495.90 11816.80 123.30
8800 37.5029 11477.50 11822.90 123.53
8801 37.5066 11634.10 11829.00 124.72
8802 37.5104 11349.80 11835.40 120.96
8803 37.5141 11915.20 11841.70 128.15
8804 37.5179 11460.70 11848.30 123.75
8805 37.5216 11668.10 11854.80 124.40
8806 37.5254 11416.00 11861.70 121.77
8807 37.5292 11723.10 11868.70 124.53
8808 37.5329 11589.70 11875.60 124.51
8809 37.5367 11840.30 11882.90 125.70
8810 37.5404 11463.90 11890.10 123.15
8811 37.5442 11585.10 11897.70 123.96
8812 37.5479 11401.30 11905.20 122.61
8813 37.5517 11655.10 11913.10 124.57
8814 37.5554 11461.10 11921.00 123.84
8815 37.5592 11685.50 11929.20 125.79
8816 37.5629 11471.50 11937.40 123.89
8817 37.5667 11873.40 11946.00 126.07
8818 37.5705 11268.70 11954.80 122.03
8819 37.5742 11699.30 11965.70 125.56
8820 37.5780 11413.30 11974.90 123.35
8821 37.5817 11813.80 11984.10 125.69
8822 37.5855 11601.50 11993.70 123.40
8823 37.5892 11745.90 12003.20 124.89
8824 37.5930 11589.70 12013.30 125.07
8825 37.5967 11893.50 12023.30 126.06
8826 37.6005 11722.20 12033.80 125.97
8827 37.6043 11830.30 12044.50 125.97
8828 37.6080 11556.40 12055.30 123.85
8829 37.6118 11812.80 12066.50 124.63
8830 37.6155 11781.50 12077.80 128.36
8831 37.6193 11925.10 12089.60 126.34
8832 37.6230 11717.40 12101.40 124.81
8833 37.6268 11718.50 12113.80 123.61
8834 37.6305 11787.50 12126.20 124.83
8835 37.6343 11810.10 12139.30 125.32
8836 37.6381 11644.00 12152.60 124.51
8837 37.6418 11869.50 12166.00 125.08
8838 37.6456 11879.90 12180.10 125.68
8839 37.6493 11952.80 12194.10 125.94
8840 37.6531 11501.30 12209.00 124.01
8841 37.6568 12000.50 12223.80 127.03
8842 37.6606 11626.50 12239.40 124.48
8843 37.6643 12003.80 12255.10 126.21
8844 37.6681 11857.20 12271.60 126.00
8845 37.6719 12090.90 12288.50 127.15
8846 37.6756 11760.00 12305.50 125.81
8847 37.6794 11851.50 12323.40 125.22
8848 37.6831 11797.70 12341.40 123.44
8849 37.6869 12139.10 12360.40 127.24
8850 37.6906 11952.60 12379.40 126.38
8851 37.6944 12025.30 12399.50 127.50
8852 37.6981 11737.30 12419.60 125.10
8853 37.7019 12020.80 12441.00 126.75
8854 37.7057 11776.50 12462.90 124.91
8855 37.7094 11987.50 12485.00 124.82
8856 37.7132 12106.20 12508.40 127.16
8857 37.7169 12136.20 12531.80 129.16
8858 37.7207 11956.40 12556.70 125.84
8859 37.7244 12064.30 12581.70 126.36
8860 37.7282 11997.00 12608.20 125.89
8861 37.7319 12241.00 12634.90 127.81
8862 37.7357 12030.50 12663.20 126.40
8863 37.7395 12343.80 12692.50 128.43
8864 37.7432 12051.90 12721.90 126.93
8865 37.7470 12354.00 12753.20 126.79
8866 37.7507 12199.10 12784.80 127.85
8867 37.7545 12493.90 12818.30 129.01
8868 37.7582 12374.80 12852.10 129.11
8869 37.7620 12375.80 12888.20 128.59
8870 37.7657 12373.50 12924.50 128.75
8871 37.7695 12421.00 12963.20 128.68
8872 37.7733 12179.90 13003.40 127.61
8873 37.7770 12652.20 13044.00 130.39
8874 37.7808 12157.20 13087.40 127.42
8875 37.7845 12516.50 13131.20 129.42
8876 37.7883 12357.40 13178.10 128.39
8877 37.7920 12540.60 13225.50 129.90
8878 37.7958 12521.10 13276.30 130.25
8879 37.7996 12753.40 13329.10 130.88
8880 37.8033 12609.60 13382.80 130.38
8881 37.8071 12929.50 13440.20 131.90
8882 37.8108 12540.50 13498.50 128.10
8883 37.8146 13094.80 13561.00 135.30
8884 37.8183 13114.40 13624.70 135.02
8885 37.8221 13197.90 13692.90 133.42
8886 37.8258 12988.10 13762.50 131.38
8887 37.8296 13223.00 13837.30 133.09
8888 37.8334 13109.30 13915.70 133.47
8889 37.8371 13501.00 13995.60 134.22
8890 37.8409 13159.90 14081.90 133.40
8891 37.8446 13512.60 14169.90 135.46
8892 37.8484 13483.70 14265.10 135.34
8893 37.8521 13880.20 14362.40 138.09
8894 37.8559 13498.60 14467.70 135.80
8895 37.8597 13729.10 14578.80 137.05
8896 37.8634 13795.30 14692.70 137.21
8897 37.8672 13953.80 14816.30 138.49
8898 37.8709 14126.40 14943.30 139.37
8899 37.8747 14254.90 15081.40 139.21
8900 37.8784 14409.60 15223.70 140.13
8901 37.8822 14678.50 15378.70 141.05
8902 37.8859 14599.20 15538.80 141.52
8903 37.8897 15134.80 15713.60 144.19
8904 37.8935 14946.50 15899.60 143.28
8905 37.8972 15049.00 16092.70 144.31
8906 37.9010 15370.50 16304.00 144.91
8907 37.9047 15382.80 16524.10 146.03
8908 37.9085 15603.20 16765.60 146.55
8909 37.9122 16093.80 17017.90 148.76
8910 37.9160 16337.50 17295.70 154.75
8911 37.9198 16657.60 17595.00 154.35
8912 37.9235 16796.30 17908.60 153.10
8913 37.9273 17112.50 18256.80 154.85
8914 37.9310 17342.10 18622.80 156.93
8915 37.9348 18036.00 19030.40 160.34
8916 37.9385 18254.70 19461.50 160.98
8917 37.9423 19227.50 19942.90 166.31
8918 37.9461 19215.30 20469.30 165.53
8919 37.9498 20357.40 21029.70 170.09
8920 37.9536 20635.20 21661.60 172.87
8921 37.9573 21922.30 22338.00 180.55
8922 37.9611 22414.60 23105.40 182.58
8923 37.9648 23709.00 23932.30 188.94
8924 37.9686 24817.70 24876.80 193.84
8925 37.9723 26600.60 25902.10 201.89
8926 37.9761 27922.80 27082.70 205.62
8927 37.9799 30319.40 28412.30 216.88
8928 37.9836 31728.00 29878.80 223.71
8929 37.9874 35020.60 31593.30 237.99
8930 37.9911 37235.30 33507.40 246.40
8931 37.9949 41820.90 35788.00 266.79
8932 37.9986 44634.00 38396.10 276.56
8933 38.0024 49941.30 41608.40 297.24
8934 38.0062 55083.70 45546.90 314.55
8935 38.0099 62108.70 50372.50 334.03
8936 38.0137 69607.80 56755.60 369.96
8937 38.0174 79472.90 64940.20 399.56
8938 38.0212 88137.20 76116.30 425.80
8939 38.0249 102336.00 90629.60 469.07
8940 38.0287 116123.00 110292.00 508.53
8941 38.0325 137018.00 135919.00 569.47
8942 38.0362 156311.00 167507.00 620.53
8943 38.0400 185184.00 207412.00 693.72
8944 38.0437 214387.00 253348.00 775.49
8945 38.0475 257221.00 306360.00 878.74
8946 38.0512 303230.00 360324.00 997.06
8947 38.0550 367524.00 413147.00 1136.72
8948 38.0588 429064.00 459355.00 1276.40
8949 38.0625 504254.00 497182.00 1447.95
8950 38.0663 561131.00 530015.00 1569.09
8951 38.0700 606848.00 555087.00 1658.89
8952 38.0738 606860.00 568027.00 1670.33
8953 38.0775 594530.00 560076.00 1638.68
8954 38.0813 536166.00 526279.00 1510.34
8955 38.0851 478275.00 470595.00 1386.30
8956 38.0888 401521.00 404943.00 1212.06
8957 38.0926 339596.00 335985.00 1080.90
8958 38.0963 278768.00 273775.00 939.95
8959 38.1001 229893.00 218536.00 818.97
8960 38.1038 186402.00 174310.00 706.35
8961 38.1076 157298.00 138381.00 622.38
8962 38.1114 126693.00 111020.00 531.52
8963 38.1151 109872.00 91115.60 500.96
8964 38.1189 91193.40 76084.50 439.72
8965 38.1226 79483.90 65321.70 396.17
8966 38.1264 66843.50 57117.70 351.34
8967 38.1301 59091.80 51045.80 327.80
8968 38.1339 51708.90 46174.20 303.17
8969 38.1377 45850.00 42265.30 280.79
8970 38.1414 41078.10 39123.40 261.69
8971 38.1452 38023.60 36400.20 249.46
8972 38.1489 34023.20 34131.30 234.12
8973 38.1527 31872.90 32111.90 225.44
8974 38.1565 29191.60 30351.60 215.54
8975 38.1602 28371.90 28845.80 209.58
8976 38.1640 26015.70 27477.80 200.31
8977 38.1677 25389.80 26295.40 195.21
8978 38.1715 24036.60 25211.20 189.57
8979 38.1752 23484.20 24266.10 187.14
8980 38.1790 22130.40 23392.80 180.38
8981 38.1828 21751.90 22606.40 179.23
8982 38.1865 20904.50 21912.40 175.18
8983 38.1903 20428.20 21265.90 171.67
8984 38.1940 19909.70 20691.90 171.11
8985 38.1978 19535.20 20153.70 168.03
8986 38.2015 18948.00 19674.10 165.57
8987 38.2053 18770.50 19221.80 164.37
8988 38.2091 18051.30 18806.30 159.39
8989 38.2128 18186.80 18433.50 161.63
8990 38.2166 17497.00 18079.50 160.88
8991 38.2203 17526.70 17760.50 157.41
8992 38.2241 16933.80 17457.10 154.23
8993 38.2278 16976.60 17182.40 154.59
8994 38.2316 16603.70 16920.30 152.84
8995 38.2354 16573.10 16676.10 152.92
8996 38.2391 16135.80 16454.40 150.80
8997 38.2429 16169.50 16241.60 151.60
8998 38.2466 15800.30 16047.90 148.55
8999 38.2504 15779.30 15861.50 148.33
9000 38.2541 15417.40 15691.50 146.36
9001 38.2579 15496.20 15527.60 147.31
9002 38.2617 15078.70 15373.80 144.88
9003 38.2654 15367.60 15233.20 145.96
9004 38.2692 14932.30 15097.30 144.15
9005 38.2729 14952.10 14972.80 143.97
9006 38.2767 14656.20 14852.60 142.65
9007 38.2805 14787.20 14739.60 143.07
9008 38.2842 14551.80 14636.00 142.08
9009 38.2880 14439.50 14536.00 139.82
9010 38.2917 14068.60 14444.40 138.54
9011 38.2955 14518.00 14356.30 142.19
9012 38.2992 14198.60 14275.70 139.24
9013 38.3030 14204.90 14198.60 140.58
9014 38.3068 13902.30 14126.80 138.15
9015 38.3105 14068.60 14062.10 136.56
9016 38.3143 13807.80 14001.10 137.64
9017 38.3180 14160.90 13947.10 141.73
9018 38.3218 13735.70 13897.40 137.15
9019 38.3255 13942.80 13855.10 136.19
9020 38.3293 13698.60 13818.20 136.85
9021 38.3331 14012.10 13788.40 138.53
9022 38.3368 13743.10 13767.00 137.89
9023 38.3406 14028.70 13753.40 138.13
9024 38.3443 13712.10 13749.00 136.52
9025 38.3481 14068.90 13754.30 137.82
9026 38.3519 13751.30 13770.30 137.26
9027 38.3556 13824.90 13796.70 137.77
9028 38.3594 13788.10 13835.40 136.67
9029 38.3631 14009.50 13884.60 138.58
9030 38.3669 14039.80 13946.70 139.02
9031 38.3706 14083.70 14017.90 139.30
9032 38.3744 14050.60 14100.30 139.30
9033 38.3782 14187.90 14189.70 139.80
9034 38.3819 14034.60 14279.70 139.26
9035 38.3857 14427.90 14369.60 140.93
9036 38.3894 14184.50 14447.50 137.17
9037 38.3932 14395.20 14509.20 141.85
9038 38.3970 14199.90 14543.60 139.74
9039 38.4007 14268.10 14544.00 140.90
9040 38.4045 14246.20 14506.80 139.98
9041 38.4082 14332.80 14435.00 140.35
9042 38.4120 13905.60 14329.70 136.67
9043 38.4157 14514.00 14204.00 144.32
9044 38.4195 13883.90 14059.80 139.24
9045 38.4233 14286.10 13908.50 140.43
9046 38.4270 13549.10 13760.50 136.13
9047 38.4308 13557.10 13612.80 136.05
9048 38.4345 13300.70 13476.10 134.59
9049 38.4383 13598.40 13345.00 136.90
9050 38.4421 12913.00 13224.40 132.99
9051 38.4458 12952.10 13117.30 133.25
9052 38.4496 12964.30 13017.90 132.99
9053 38.4533 12861.10 12931.10 132.43
9054 38.4571 12571.50 12851.40 130.18
9055 38.4608 12694.80 12782.30 132.04
9056 38.4646 12324.00 12719.10 129.15
9057 38.4684 12422.50 12663.00 129.94
9058 38.4721 12100.00 12614.40 127.89
9059 38.4759 12182.30 12569.80 126.68
9060 38.4796 11928.40 12530.90 125.72
9061 38.4834 12017.80 12494.80 127.29
9062 38.4872 11865.40 12462.10 126.04
9063 38.4909 12068.90 12432.90 127.53
9064 38.4947 12066.40 12405.30 129.24
9065 38.4984 11826.50 12380.50 126.17
9066 38.5022 11754.20 12356.70 126.01
9067 38.5059 11842.40 12335.00 126.14
9068 38.5097 11887.70 12314.00 126.12
9069 38.5135 12118.50 12294.20 127.64
9070 38.5172 11889.10 12275.90 128.54
9071 38.5210 11945.60 12258.00 126.92
9072 38.5247 11838.70 12241.40 126.14
9073 38.5285 11953.70 12225.10 126.50
9074 38.5323 11874.20 12209.40 126.51
9075 38.5360 11929.60 12194.90 126.93
9076 38.5398 11583.00 12180.50 124.92
9077 38.5435 11772.00 12167.00 125.45
9078 38.5473 11520.40 12153.70 124.34
9079 38.5510 11774.00 12141.20 125.79
9080 38.5548 11565.10 12128.80 124.86
9081 38.5586 11711.60 12116.80 124.90
9082 38.5623 11649.70 12105.50 124.66
9083 38.5661 11588.80 12094.30 124.85
9084 38.5698 11530.80 12083.80 124.24
9085 38.5736 11788.50 12073.30 126.10
9086 38.5774 11681.10 12063.10 124.59
9087 38.5811 11763.00 12053.50 124.75
9088 38.5849 11632.90 12043.90 124.31
9089 38.5886 11802.60 12034.80 125.59
9090 38.5924 11422.00 12025.80 123.88
9091 38.5962 11969.10 12017.00 126.82
9092 38.5999 11439.70 12008.70 124.09
9093 38.6037 11814.00 12000.30 126.71
9094 38.6074 11707.40 11992.40 124.57
9095 38.6112 11706.80 11984.60 123.94
9096 38.6149 11555.70 11977.10 127.03
9097 38.6187 11786.60 11969.60 126.59
9098 38.6225 11663.20 11962.30 124.96
9099 38.6262 11778.60 11955.30 124.95
9100 38.6300 11329.00 11948.40 122.15
9101 38.6337 11781.90 11941.80 125.91
9102 38.6375 11574.00 11935.20 124.95
9103 38.6413 11773.80 11928.70 126.00
9104 38.6450 11449.20 11922.60 123.92
9105 38.6488 11527.00 11916.40 124.17
9106 38.6525 11552.50 11910.50 124.35
9107 38.6563 11727.10 11904.60 125.11
9108 38.6601 11487.20 11898.90 123.55
9109 38.6638 11578.60 11765.10 124.54
9110 38.6676 11497.50 11761.10 123.48
9111 38.6713 11556.60 11757.40 124.18
9112 38.6751 11384.90 11753.70 122.84
9113 38.6788 11497.90 11750.10 123.19
9114 38.6826 11647.40 11619.80 124.25
9115 38.6864 11632.60 11490.80 124.18
9116 38.6901 11443.40 11490.50 122.46
9117 38.6939 11619.00 11490.20 124.79
9118 38.6976 11581.30 11490.00 123.58
9119 38.7014 11550.90 11489.70 123.42
9120 38.7052 11524.30 11489.50 124.16
9121 38.7089 11686.60 11489.30 124.19
9122 38.7127 11269.50 11489.10 120.55
9123 38.7164 11753.80 11488.90 128.31
9124 38.7202 11484.70 11488.70 124.74
9125 38.7240 11434.60 11488.50 123.01
9126 38.7277 11469.50 11488.40 121.23
9127 38.7315 11677.90 11488.20 124.70
9128 38.7352 11284.10 11488.10 122.12
9129 38.7390 11564.10 11487.90 124.21
9130 38.7427 11408.10 11487.80 123.53
9131 38.7465 11323.60 11487.70 122.29
9132 38.7503 11382.90 11487.60 123.00
9133 38.7540 11508.60 11487.50 124.38
9134 38.7578 11418.10 11487.40 123.54
9135 38.7615 11699.40 11487.30 125.43
9136 38.7653 11723.70 11487.20 124.75
9137 38.7691 11458.00 11487.20 123.55
9138 38.7728 11217.10 11487.10 121.55
9139 38.7766 11649.60 11487.10 124.19
9140 38.7803 11223.40 11487.00 120.84
9141 38.7841 11517.20 11487.00 124.10
9142 38.7879 11246.30 11486.90 121.62
9143 38.7916 11637.50 11486.90 124.32
9144 38.7954 11474.60 11486.90 123.06
9145 38.7991 11677.40 11486.80 124.54
9146 38.8029 11377.30 11486.80 123.56
9147 38.8067 11546.40 11486.80 123.43
9148 38.8104 11200.60 11486.80 120.22
9149 38.8142 11668.80 11486.80 124.97
9150 38.8179 11463.50 11486.80 126.14
9151 38.8217 11631.00 11486.80 124.58
9152 38.8254 11202.40 11486.80 121.56
9153 38.8292 11442.40 11486.80 122.29
9154 38.8330 11396.80 11486.80 122.86
9155 38.8367 11494.30 11486.80 123.38
9156 38.8405 11297.90 11486.80 122.58
9157 38.8442 11647.10 11486.80 124.15
9158 38.8480 11335.90 11486.80 122.48
9159 38.8518 11608.60 11486.90 122.70
9160 38.8555 11508.70 11486.90 124.24
9161 38.8593 11643.60 11486.90 125.06
9162 38.8630 11461.70 11486.90 123.86
9163 38.8668 11550.80 11487.00 123.56
9164 38.8706 11420.70 11487.00 123.52
9165 38.8743 11503.00 11487.00 124.10
9166 38.8781 11572.20 11487.10 124.26
9167 38.8818 11792.60 11487.10 125.63
9168 38.8856 11505.40 11487.10 123.16
9169 38.8894 11710.40 11487.20 124.66
9170 38.8931 11484.80 11487.20 124.04
9171 38.8969 11661.20 11487.30 125.43
9172 38.9006 11252.80 11487.30 122.67
9173 38.9044 11600.60 11487.40 123.31
9174 38.9082 11491.80 11487.40 122.32
9175 38.9119 11683.50 11488.00 123.04
9176 38.9157 11553.10 11488.00 125.51
9177 38.9194 11501.20 11488.10 125.25
9178 38.9232 11474.00 11488.10 124.23
9179 38.9269 11743.80 11488.20 124.50
9180 38.9307 11406.50 11488.30 123.09
9181 38.9345 11593.50 11488.30 123.99
9182 38.9382 11394.00 11488.40 123.51
9183 38.9420 11500.00 11488.50 124.31
9184 38.9457 11426.50 11488.50 123.56
9185 38.9495 11455.30 11488.60 123.18
9186 38.9533 11257.30 11488.70 122.12
9187 38.9570 11439.70 11488.70 123.56
9188 38.9608 11510.10 11488.80 124.33
9189 38.9645 11611.70 11488.90 124.30
9190 38.9683 11394.30 11488.90 123.48
9191 38.9721 11720.20 11489.00 125.55
9192 38.9758 11453.30 11489.10 123.22
9193 38.9796 11583.70 11489.10 124.50
9194 38.9833 11271.80 11489.20 122.03
9195 38.9871 11752.40 11489.30 125.12
9196 38.9909 11363.20 11489.40 122.62
9197 38.9946 11536.40 11489.40 124.25
9198 38.9984 11425.60 11489.50 123.82
9199 39.0021 11640.00 11489.60 125.61
9200 39.0059 11353.70 11489.60 122.61
9201 39.0097 11371.30 11489.70 121.17
9202 39.0134 11489.90 11489.80 122.99
9203 39.0172 11542.10 11489.90 125.49
9204 39.0209 11453.20 11489.90 124.48
9205 39.0247 11567.50 11490.00 124.27
9206 39.0285 11456.10 11490.10 123.32
9207 39.0322 11567.20 11490.20 124.42
9208 39.0360 11455.70 11490.30 123.87
9209 39.0397 11732.70 11490.30 125.84
9210 39.0435 11349.20 11490.40 123.14
9211 39.0473 11750.40 11490.50 124.82
9212 39.0510 11575.90 11490.60 125.20
9213 39.0548 11489.50 11490.60 124.94
9214 39.0585 11514.40 11490.70 123.65
9215 39.0623 11663.50 11490.80 124.01
9216 39.0660 11387.30 11490.90 122.53
9217 39.0698 11549.10 11491.00 124.86
9218 39.0736 11542.90 11491.00 125.13
9219 39.0773 11646.20 11491.10 124.14
9220 39.0811 11477.00 11491.20 123.87
9221 39.0848 11625.90 11491.30 124.95
9222 39.0886 11431.20 11491.40 122.35
9223 39.0924 11555.00 11491.40 123.50
9224 39.0961 11457.40 11491.50 125.08
9225 39.0999 11717.30 11491.60 125.68
9226 39.1036 11503.50 11491.70 124.75
9227 39.1074 11531.10 11491.80 124.40
9228 39.1112 11386.40 11491.80 122.44
9229 39.1149 11781.50 11491.90 126.91
9230 39.1187 11459.60 11492.00 125.87
9231 39.1224 11754.10 11492.10 126.09
9232 39.1262 11438.60 11492.20 123.00
9233 39.1300 11684.00 11492.30 125.29
9234 39.1337 11373.00 11492.30 123.55
9235 39.1375 11685.50 11492.40 125.29
9236 39.1412 11587.70 11492.50 123.56
9237 39.1450 11481.10 11492.60 124.65
9238 39.1488 11507.70 11492.70 124.35
9239 39.1525 11646.30 11492.80 125.01
9240 39.1563 11418.50 11492.90 123.93
9241 39.1600 11670.90 11492.90 125.27
9242 39.1638 11409.00 11493.00 123.82
9243 39.1676 11716.90 11493.10 125.88
9244 39.1713 11505.70 11493.20 124.85
9245 39.1751 11405.60 11493.30 123.67
9246 39.1788 11392.80 11493.40 124.03
9247 39.1826 11708.90 11493.50 124.97
9248 39.1864 11480.60 11493.60 124.28
9249 39.1901 11554.40 11493.60 124.13
9250 39.1939 11334.80 11493.70 123.59
9251 39.1976 11661.10 11493.80 125.10
9252 39.2014 11550.80 11493.90 125.35
9253 39.2052 11722.30 11494.00 126.17
9254 39.2089 11562.60 11494.10 124.38
9255 39.2127 11569.10 11494.20 122.37
9256 39.2164 11669.60 11494.30 128.48
9257 39.2202 11721.00 11494.40 127.30
9258 39.2240 11326.20 11494.50 122.91
9259 39.2277 11552.00 11494.60 123.66
9260 39.2315 11405.60 11494.70 123.27
9261 39.2352 11542.20 11492.60 125.14
9262 39.2390 11529.30 11492.70 124.15
9263 39.2428 11702.90 11492.80 125.64
9264 39.2465 11448.00 11493.00 124.37
9265 39.2503 11669.90 11493.10 125.42
9266 39.2540 11356.20 11493.20 123.60
9267 39.2578 11804.40 11493.40 125.93
9268 39.2615 11625.70 11493.50 125.04
9269 39.2653 11588.10 11493.60 124.30
9270 39.2691 11477.00 11493.80 124.68
9271 39.2728 11663.30 11493.90 125.14
9272 39.2766 11243.20 11494.10 122.91
9273 39.2803 11695.90 11494.20 125.35
9274 39.2841 11254.60 11494.40 122.96
9275 39.2879 11645.00 11494.50 124.90
9276 39.2916 11497.70 11494.70 123.32
9277 39.2954 11644.20 11494.90 126.01
9278 39.2991 11418.50 11495.00 123.31
9279 39.3029 11655.30 11495.20 124.95
9280 39.3067 11480.20 11495.40 123.59
9281 39.3104 11744.40 11495.60 125.15
9282 39.3142 11368.30 11495.70 122.19
9283 39.3179 11726.90 11495.90 128.42
9284 39.3217 11522.60 11496.10 123.44
9285 39.3255 11547.10 11496.40 124.06
9286 39.3292 11363.70 11496.60 122.92
9287 39.3330 11542.30 11496.80 124.84
9288 39.3367 11281.00 11497.00 122.23
9289 39.3405 11749.60 11497.30 125.99
9290 39.3443 11321.30 11497.60 123.08
9291 39.3480 11677.80 11497.80 125.02
9292 39.3518 11504.60 11498.10 124.58
9293 39.3555 11671.20 11498.40 125.15
9294 39.3593 11469.30 11498.70 122.72
9295 39.3631 11616.40 11499.10 124.30
9296 39.3668 11614.50 11500.30 124.71
9297 39.3706 11605.00 11500.70 124.76
9298 39.3743 11592.40 11501.10 124.67
9299 39.3781 11615.60 11501.60 124.51
9300 39.3819 11528.20 11502.00 124.85
9301 39.3856 11759.70 11504.10 125.92
9302 39.3894 11323.90 11504.60 122.91
9303 39.3931 11446.40 11505.20 123.88
9304 39.3969 11392.90 11505.80 124.42
9305 39.4007 11556.10 11506.50 124.58
9306 39.4044 11610.90 11507.20 125.33
9307 39.4082 11854.90 11508.00 126.43
9308 39.4119 11382.30 11508.80 121.66
9309 39.4157 11775.60 11509.80 127.63
9310 39.4195 11492.70 11510.80 125.83
9311 39.4232 11691.90 11511.90 125.34
9312 39.4270 11522.10 11513.10 123.67
9313 39.4307 11617.30 11514.40 125.39
9314 39.4345 11626.50 11515.90 123.87
9315 39.4383 11681.70 11517.50 125.49
9316 39.4420 11608.90 11519.30 125.08
9317 39.4458 11826.50 11521.40 125.22
9318 39.4495 11469.40 11523.60 123.76
9319 39.4533 11796.60 11526.20 125.50
9320 39.4571 11613.50 11529.20 125.25
9321 39.4608 11851.10 11532.50 126.07
9322 39.4646 11353.00 11536.50 123.14
9323 39.4683 11940.80 11541.00 126.71
9324 39.4721 11519.70 11546.50 124.22
9325 39.4759 11979.50 11553.20 126.83
9326 39.4796 11676.60 11561.40 124.61
9327 39.4834 11947.00 11572.40 126.16
9328 39.4871 11694.50 11586.40 126.06
9329 39.4909 11883.50 11605.80 126.70
9330 39.4947 11703.90 11632.30 125.05
9331 39.4984 11976.90 11667.40 127.09
9332 39.5022 11970.40 11715.60 127.57
9333 39.5059 11947.10 11776.70 125.96
9334 39.5097 11759.40 11855.50 125.46
9335 39.5135 12024.90 11950.90 125.38
9336 39.5172 12050.90 12057.20 130.23
9337 39.5210 12171.60 12173.70 129.26
9338 39.5247 11824.20 12282.20 126.60
9339 39.5285 12021.90 12369.90 125.94
9340 39.5323 11874.00 12411.40 125.70
9341 39.5360 12160.50 12395.50 127.21
9342 39.5398 12021.00 12326.30 127.61
9343 39.5435 12068.20 12225.90 127.55
9344 39.5473 11965.80 12109.90 126.24
9345 39.5511 12268.90 11996.50 128.94
9346 39.5548 11957.00 11897.40 126.23
9347 39.5586 12079.00 11811.10 127.98
9348 39.5623 12035.30 11743.10 127.75
9349 39.5661 12040.80 11688.70 128.39
9350 39.5699 11662.80 11647.80 125.29
9351 39.5736 11983.00 11618.30 127.53
9352 39.5774 11761.80 11596.10 126.30
9353 39.5811 11992.20 11580.30 126.57
9354 39.5849 11787.30 11568.10 126.13
9355 39.5887 12077.90 11558.90 128.43
9356 39.5924 11664.10 11551.80 125.31
9357 39.5962 11874.50 11546.00 126.36
9358 39.5999 11625.40 11541.30 125.69
9359 39.6037 12045.10 11537.20 128.28
9360 39.6075 11732.50 11533.70 125.55
9361 39.6112 11872.10 11530.80 125.32
9362 39.6150 11692.50 11528.20 124.31
9363 39.6187 11960.30 11526.00 129.25
9364 39.6225 11703.00 11524.00 125.67
9365 39.6262 11847.60 11522.30 125.51
9366 39.6300 11675.90 11520.70 123.81
9367 39.6338 11717.80 11519.40 124.83
9368 39.6375 11776.70 11518.20 125.72
9369 39.6413 11683.30 11517.10 124.72
9370 39.6451 11565.40 11516.10 124.24
9371 39.6488 11674.50 11515.30 124.32
9372 39.6526 11584.90 11514.50 124.42
9373 39.6563 11825.90 11513.90 123.45
9374 39.6601 11422.00 11513.20 123.22
9375 39.6639 11702.60 11512.70 125.11
9376 39.6676 11658.80 11512.20 123.76
9377 39.6714 11479.20 11511.80 123.85
9378 39.6751 11670.10 11511.50 123.73
9379 39.6789 11736.60 11511.10 124.88
9380 39.6826 11497.50 11510.90 123.83
9381 39.6864 11525.20 11510.60 123.52
9382 39.6902 11439.70 11510.40 122.84
9383 39.6939 11688.40 11510.20 124.49
9384 39.6977 11561.50 11510.10 123.82
9385 39.7014 11584.80 11510.00 123.78
9386 39.7052 11510.80 11509.90 124.42
9387 39.7090 11742.60 11509.90 124.70
9388 39.7127 11637.40 11509.90 122.98
9389 39.7165 11713.00 11509.90 126.60
9390 39.7202 11441.80 11509.90 125.18
9391 39.7240 11558.70 11509.90 123.99
9392 39.7278 11516.80 11510.00 123.42
9393 39.7315 11800.90 11510.10 124.59
9394 39.7353 11474.80 11510.30 122.98
9395 39.7390 11626.60 11510.40 124.27
9396 39.7428 11328.90 11510.60 122.19
9397 39.7466 11681.50 11510.80 124.47
9398 39.7503 11457.60 11511.00 123.30
9399 39.7541 11668.10 11511.30 124.38
9400 39.7578 11375.60 11511.60 123.70
9401 39.7616 11659.30 11511.90 125.16
9402 39.7654 11512.00 11512.20 123.65
9403 39.7691 11575.80 11512.60 123.73
9404 39.7729 11364.60 11513.00 122.68
9405 39.7766 11640.60 11513.40 124.66
9406 39.7804 11495.90 11513.90 123.53
9407 39.7842 11663.20 11514.40 123.82
9408 39.7879 11320.50 11515.00 122.48
9409 39.7917 11804.90 11515.60 125.05
9410 39.7954 11651.90 11516.20 123.59
9411 39.7992 11633.10 11516.80 124.21
9412 39.8030 11456.30 11517.60 123.86
9413 39.8067 11665.50 11518.30 123.45
9414 39.8105 11495.30 11519.20 123.65
9415 39.8142 11799.20 11520.00 123.39
9416 39.8180 11646.90 11521.00 127.28
9417 39.8218 11795.60 11522.00 126.44
9418 39.8255 11658.40 11523.10 123.10
9419 39.8293 11520.70 11524.30 122.89
9420 39.8330 11668.50 11525.50 124.68
9421 39.8368 11559.60 11526.90 122.83
9422 39.8406 11497.40 11528.30 123.36
9423 39.8443 11490.10 11529.90 122.44
9424 39.8481 11434.10 11531.60 123.11
9425 39.8518 11673.20 11533.40 124.91
9426 39.8556 11695.30 11535.30 124.83
9427 39.8594 11787.80 11537.50 125.69
9428 39.8631 11414.00 11539.80 122.99
9429 39.8669 11721.30 11542.30 123.87
9430 39.8706 11444.10 11545.00 123.85
9431 39.8744 11697.10 11548.00 123.32
9432 39.8782 11387.40 11551.30 123.63
9433 39.8819 11667.70 11554.80 124.87
9434 39.8857 11515.80 11558.70 122.46
9435 39.8894 11884.40 11563.00 125.62
9436 39.8932 11402.80 11567.70 122.74
9437 39.8970 11772.50 11573.10 126.90
9438 39.9007 11563.10 11578.80 123.35
9439 39.9045 11898.20 11585.40 125.54
9440 39.9082 11671.20 11592.50 125.60
9441 39.9120 11676.60 11600.70 124.23
9442 39.9158 11702.80 11610.00 124.59
9443 39.9195 11905.30 11620.30 129.23
9444 39.9233 11405.20 11632.30 124.08
9445 39.9270 11872.90 11645.70 125.33
9446 39.9308 11644.30 11661.80 125.01
9447 39.9346 11883.90 11680.70 125.99
9448 39.9383 11669.70 11702.90 124.75
9449 39.9421 11899.90 11730.90 126.78
9450 39.9458 11643.70 11765.10 125.45
9451 39.9496 11914.70 11810.30 126.76
9452 39.9534 11860.70 11869.90 125.94
9453 39.9571 11974.20 11946.30 126.11
9454 39.9609 12033.20 12050.20 127.51
9455 39.9646 12133.60 12182.80 127.84
9456 39.9684 11975.60 12358.10 127.12
9457 39.9722 12362.00 12579.80 128.65
9458 39.9759 12531.80 12843.90 128.58
9459 39.9797 12674.70 13163.90 130.19
9460 39.9834 12880.80 13513.40 131.77
9461 39.9872 13280.90 13889.40 133.03
9462 39.9910 13488.20 14247.90 135.13
9463 39.9947 13810.20 14549.00 137.47
9464 39.9985 13983.10 14792.40 138.95
9465 40.0022 14412.80 14965.40 141.47
9466 40.0060 14566.70 15069.10 141.97
9467 40.0097 14656.50 15070.40 142.21
9468 40.0135 14397.10 14934.40 138.49
9469 40.0173 14492.60 14653.50 144.31
9470 40.0210 14004.50 14280.00 139.13
9471 40.0248 13736.40 13852.00 136.17
9472 40.0285 13370.50 13443.50 134.93
9473 40.0323 12969.60 13064.60 132.22
9474 40.0361 12608.90 12740.90 131.20
9475 40.0398 12816.20 12482.80 132.06
9476 40.0436 12589.40 12272.70 131.24
9477 40.0473 12377.20 12115.20 128.91
9478 40.0511 12237.30 11992.90 127.52
9479 40.0549 12342.60 11902.00 129.49
9480 40.0586 11958.90 11835.90 126.56
9481 40.0624 12091.60 11784.70 127.76
9482 40.0661 11956.30 11746.20 127.10
9483 40.0699 11945.20 11715.10 126.75
9484 40.0737 11828.20 11689.90 126.00
9485 40.0774 12125.80 11669.50 127.52
9486 40.0812 11428.80 11651.70 124.30
9487 40.0849 11806.70 11636.80 126.13
9488 40.0887 11827.90 11623.60 125.64
9489 40.0925 11721.10 11612.00 124.35
9490 40.0962 11652.30 11602.00 125.39
9491 40.1000 11821.20 11592.90 125.05
9492 40.1037 11801.70 11585.00 125.95
9493 40.1075 11823.90 11577.80 125.32
9494 40.1113 11512.70 11571.30 123.18
9495 40.1150 11938.50 11565.60 126.23
9496 40.1188 11782.50 11560.30 127.78
9497 40.1225 11716.80 11555.60 125.22
9498 40.1263 11638.00 11551.20 123.43
9499 40.1301 11585.50 11547.20 123.76
9500 40.1338 11642.20 11543.60 124.59
9501 40.1376 11839.80 11540.30 125.48
9502 40.1413 11623.90 11537.30 124.36
9503 40.1451 11604.70 11534.40 123.33
9504 40.1489 11693.30 11531.80 124.80
9505 40.1526 11625.10 11529.40 124.61
9506 40.1564 11777.50 11526.70 125.33
9507 40.1601 11838.80 11524.70 125.95
9508 40.1639 11767.10 11522.80 125.20
9509 40.1677 11789.70 11521.00 124.91
9510 40.1714 11423.40 11519.40 123.09
9511 40.1752 11668.50 11517.80 124.52
9512 40.1789 11726.60 11516.50 124.92
9513 40.1827 11792.00 11515.10 125.26
9514 40.1864 11410.70 11513.90 121.20
9515 40.1902 11722.40 11512.80 124.84
9516 40.1940 11463.70 11511.80 123.36
9517 40.1977 11544.20 11510.80 125.02
9518 40.2015 11646.00 11509.90 123.01
9519 40.2052 11805.70 11509.10 124.83
9520 40.2090 11458.30 11508.40 122.33
9521 40.2128 11692.40 11507.70 123.85
9522 40.2165 11485.20 11507.20 122.95
9523 40.2203 11859.80 11506.60 128.27
9524 40.2240 11449.70 11506.20 122.46
9525 40.2278 11581.20 11505.80 123.50
9526 40.2316 11480.10 11505.50 122.58
9527 40.2353 11543.20 11505.30 123.00
9528 40.2391 11593.60 11505.10 124.05
9529 40.2428 11536.80 11505.10 123.39
9530 40.2466 11488.70 11505.10 123.42
9531 40.2504 11758.30 11505.20 125.35
9532 40.2541 11562.70 11505.50 123.68
9533 40.2579 11688.00 11505.90 123.32
9534 40.2616 11602.00 11506.50 123.93
9535 40.2654 11473.70 11507.20 123.52
9536 40.2692 11521.60 11508.20 124.11
9537 40.2729 11611.80 11509.30 123.96
9538 40.2767 11456.50 11510.80 123.63
9539 40.2804 11807.10 11512.60 125.57
9540 40.2842 11542.60 11514.90 123.28
9541 40.2880 11768.50 11517.60 124.90
9542 40.2917 11568.50 11520.70 123.62
9543 40.2955 11750.40 11524.50 125.83
9544 40.2992 11628.80 11528.80 125.10
9545 40.3030 11548.70 11534.00 124.70
9546 40.3067 11563.80 11539.80 124.15
9547 40.3105 11735.80 11546.50 124.02
9548 40.3143 11455.60 11554.10 121.50
9549 40.3180 11702.90 11562.30 126.46
9550 40.3218 11496.80 11571.50 124.20
9551 40.3255 11508.40 11581.10 123.21
9552 40.3293 11607.30 11591.50 123.80
9553 40.3331 11625.40 11602.20 124.22
9554 40.3368 11525.80 11612.50 123.12
9555 40.3406 11707.30 11622.50 124.73
9556 40.3443 11554.10 11631.00 124.01
9557 40.3481 11646.10 11637.80 124.82
9558 40.3519 11530.20 11641.90 124.28
9559 40.3556 11670.10 11643.00 124.97
9560 40.3594 11543.30 11641.00 123.43
9561 40.3631 11727.70 11636.00 125.23
9562 40.3669 11551.60 11628.40 124.49
9563 40.3707 11967.90 11618.80 126.57
9564 40.3744 11504.70 11608.30 122.03
9565 40.3782 11725.10 11597.00 125.22
9566 40.3819 11355.70 11585.80 123.08
9567 40.3857 11937.00 11574.60 125.58
9568 40.3895 11586.70 11564.00 123.81
9569 40.3932 11884.00 11554.30 125.82
9570 40.3970 11785.50 11545.20 125.14
9571 40.4007 11804.80 11537.10 125.79
9572 40.4045 11706.10 11529.60 124.66
9573 40.4083 11922.20 11522.90 126.67
9574 40.4120 11407.30 11517.10 122.76
9575 40.4158 11565.80 11511.90 121.80
9576 40.4195 11552.60 11507.40 126.67
9577 40.4233 11758.90 11503.40 124.73
9578 40.4270 11561.00 11499.90 123.55
9579 40.4308 11618.50 11496.80 124.27
9580 40.4346 11693.20 11494.20 124.17
9581 40.4383 11779.30 11491.80 124.60
9582 40.4421 11289.50 11489.80 121.05
9583 40.4458 11745.30 11487.90 125.15
9584 40.4496 11558.80 11486.30 124.62
9585 40.4534 11831.20 11484.80 125.80
9586 40.4571 11523.90 11483.40 123.90
9587 40.4609 11897.30 11482.20 125.22
9588 40.4646 11641.40 11481.10 125.17
9589 40.4684 11478.30 11480.00 124.52
9590 40.4722 11565.00 11479.00 123.94
9591 40.4759 11810.00 11478.10 124.56
9592 40.4797 11434.80 11477.20 123.88
9593 40.4834 11718.20 11476.40 124.20
9594 40.4872 11652.90 11475.70 125.33
9595 40.4909 11873.60 11474.90 124.64
9596 40.4947 11508.40 11474.20 122.22
9597 40.4985 11835.90 11473.50 124.69
9598 40.5022 11556.70 11472.90 124.08
9599 40.5060 11906.70 11472.30 126.68
9600 40.5097 11397.50 11471.70 122.43
9601 40.5135 11792.70 11471.10 124.33
9602 40.5173 11847.50 11470.50 127.97
9603 40.5210 11728.50 11470.00 127.11
9604 40.5248 11537.60 11469.40 123.96
9605 40.5285 11745.40 11468.90 123.88
9606 40.5323 11573.60 11468.40 124.19
9607 40.5361 11809.90 11467.90 125.44
9608 40.5398 11546.40 11467.40 124.45
9609 40.5436 11887.40 11467.00 125.52
9610 40.5473 11577.70 11466.50 123.93
9611 40.5511 11959.60 11466.10 126.73
9612 40.5548 11574.80 11465.60 124.32
9613 40.5586 11865.20 11465.20 126.07
9614 40.5624 11508.50 11464.70 124.45
9615 40.5661 11715.70 11464.30 125.19
9616 40.5699 11730.10 11463.90 125.01
9617 40.5736 11698.70 11463.50 124.70
9618 40.5774 11722.70 11463.10 124.29
9619 40.5812 11946.10 11462.70 125.46
9620 40.5849 11735.40 11462.30 124.78
9621 40.5887 11887.30 11461.90 125.14
9622 40.5924 11686.90 11461.50 124.71
9623 40.5962 11818.30 11461.10 125.86
9624 40.6000 11551.90 11460.70 124.17
9625 40.6037 11890.70 11460.40 125.96
9626 40.6075 11667.60 11460.00 124.73
9627 40.6112 11851.40 11459.60 125.92
9628 40.6150 11666.50 11459.20 122.84
9629 40.6187 11877.60 11458.90 128.63
9630 40.6225 11636.70 11457.60 124.17
9631 40.6263 11681.20 11457.20 124.39
9632 40.6300 11468.80 11456.90 122.61
9633 40.6338 11657.50 11456.50 123.88
9634 40.6375 11500.20 11456.20 123.55
9635 40.6413 11809.40 11455.90 125.07
9636 40.6451 11573.50 11454.00 124.11
9637 40.6488 11775.10 11453.70 125.64
9638 40.6526 11522.00 11453.30 123.39
9639 40.6563 11615.80 11453.00 124.20
9640 40.6601 11505.00 11452.70 123.60
9641 40.6639 11882.60 11452.40 125.38
9642 40.6676 11513.10 11452.00 122.93
9643 40.6714 11804.50 11451.70 123.54
9644 40.6751 11438.60 11451.40 122.81
9645 40.6789 11673.50 11451.10 124.85
9646 40.6826 11623.40 11450.80 124.40
9647 40.6864 11693.60 11450.40 123.89
9648 40.6902 11450.50 11450.10 121.88
9649 40.6939 11868.40 11449.80 124.97
9650 40.6977 11614.30 11449.50 124.94
9651 40.7014 11655.80 11449.20 124.30
9652 40.7052 11586.90 11448.80 124.66
9653 40.7090 11641.90 11448.50 124.12
9654 40.7127 11648.10 11448.20 123.29
9655 40.7165 11676.10 11447.90 124.08
9656 40.7202 11624.90 11447.60 126.57
9657 40.7240 11431.80 11447.20 123.13
9658 40.7277 11305.40 11446.90 121.69
9659 40.7315 11561.50 11446.60 123.42
9660 40.7353 11601.40 11446.30 123.58
9661 40.7390 11527.60 11446.00 123.55
9662 40.7428 11486.80 11445.60 122.35
9663 40.7465 11598.80 11445.30 123.29
9664 40.7503 11451.70 11445.00 123.29
9665 40.7541 11561.50 11444.70 123.30
9666 40.7578 11643.40 11444.30 124.44
9667 40.7616 11763.10 11444.00 124.70
9668 40.7653 11443.90 11443.70 123.07
9669 40.7691 11807.30 11443.40 125.48
9670 40.7728 11589.00 11443.00 123.95
9671 40.7766 11835.00 11442.70 125.90
9672 40.7804 11626.70 11442.40 123.28
9673 40.7841 11606.70 11442.10 123.78
9674 40.7879 11441.00 11441.70 123.17
9675 40.7916 11630.10 11441.40 124.70
9676 40.7954 11495.00 11441.10 123.40
9677 40.7992 11763.30 11440.70 125.65
9678 40.8029 11534.90 11440.40 124.07
9679 40.8067 11723.30 11440.10 123.97
9680 40.8104 11494.70 11439.80 123.48
9681 40.8142 11790.00 11439.40 123.80
9682 40.8179 11700.30 11439.10 125.42
9683 40.8217 11847.10 11438.80 127.63
9684 40.8255 11648.90 11438.40 123.66
9685 40.8292 11667.00 11438.10 124.18
9686 40.8330 11622.30 11437.80 124.15
9687 40.8367 11769.40 11437.40 124.70
9688 40.8405 11589.20 11437.10 123.83
9689 40.8443 11664.60 11436.70 124.65
9690 40.8480 11527.00 11436.40 124.43
9691 40.8518 11761.00 11436.10 126.03
9692 40.8555 11549.20 11435.70 123.39
9693 40.8593 11649.70 11435.40 124.42
9694 40.8630 11372.30 11435.10 123.07
9695 40.8668 11770.80 11434.70 123.62
9696 40.8706 11432.70 11434.40 123.31
9697 40.8743 11790.30 11434.00 125.64
9698 40.8781 11707.70 11433.70 125.06
9699 40.8818 11766.20 11433.30 124.94
9700 40.8856 11276.40 11433.00 121.17
9701 40.8893 11854.10 11432.70 125.98
9702 40.8931 11562.00 11432.30 123.90
9703 40.8969 11860.10 11432.00 127.43
9704 40.9006 11419.50 11431.60 123.23
9705 40.9044 11923.00 11431.30 127.62
9706 40.9081 11508.70 11430.90 124.06
9707 40.9119 11605.60 11430.60 124.19
9708 40.9157 11557.60 11430.20 122.64
9709 40.9194 11691.80 11429.90 128.27
9710 40.9232 11547.50 11429.50 125.10
9711 40.9269 11739.40 11429.20 124.72
9712 40.9307 11646.20 11428.80 123.29
9713 40.9344 11757.40 11428.40 125.25
9714 40.9382 11596.80 11428.10 124.66
9715 40.9420 11882.70 11427.70 126.63
9716 40.9457 11511.60 11427.40 124.04
9717 40.9495 11635.70 11427.00 124.81
9718 40.9532 11687.40 11426.70 125.39
9719 40.9570 11675.50 11426.30 124.87
9720 40.9607 11611.40 11425.90 124.74
9721 40.9645 12030.00 11425.60 127.53
9722 40.9683 11801.40 11425.20 125.59
9723 40.9720 11778.20 11424.80 125.65
9724 40.9758 11530.10 11424.50 124.23
9725 40.9795 11891.20 11424.10 126.82
9726 40.9833 11750.10 11423.70 125.61
9727 40.9871 11736.10 11423.40 125.41
9728 40.9908 11679.20 11423.00 125.01
9729 40.9946 11761.00 11422.60 124.29
9730 40.9983 11625.50 11422.30 124.50
9731 41.0021 11873.30 11421.90 125.87
9732 41.0058 11681.40 11421.50 125.73
9733 41.0096 11885.40 11421.20 126.39
9734 41.0134 11580.40 11420.80 123.60
9735 41.0171 11698.90 11420.40 123.98
9736 41.0209 11884.10 11420.00 129.14
9737 41.0246 11667.60 11419.70 124.94
9738 41.0284 11568.50 11419.30 123.55
9739 41.0321 11733.80 11418.90 124.75
9740 41.0359 11420.40 11418.50 123.09
9741 41.0397 11903.80 11418.10 126.05
9742 41.0434 11613.20 11417.80 124.89
9743 41.0472 11770.00 11417.40 125.82
9744 41.0509 11677.00 11417.00 125.14
9745 41.0547 11715.80 11416.60 124.31
9746 41.0584 11709.00 11416.30 125.24
9747 41.0622 11953.50 11415.90 125.73
9748 41.0660 11843.40 11415.50 125.61
9749 41.0697 11896.90 11415.10 126.29
9750 41.0735 11761.90 11414.70 125.33
9751 41.0772 11884.20 11414.30 125.95
9752 41.0810 11625.90 11413.90 125.04
9753 41.0847 12028.90 11413.50 127.35
9754 41.0885 11929.60 11413.20 126.66
9755 41.0923 11844.60 11412.80 125.89
9756 41.0960 11907.50 11412.40 126.47
9757 41.0998 11864.50 11412.00 126.57
9758 41.1035 11839.70 11411.60 126.54
9759 41.1073 11777.40 11411.20 125.27
9760 41.1110 11648.00 11410.80 125.55
9761 41.1148 11867.60 11410.40 124.46
9762 41.1186 11617.40 11410.00 127.41
9763 41.1223 12107.50 11409.60 127.99
9764 41.1261 11737.10 11409.20 125.21
9765 41.1298 11684.50 11408.80 124.24
9766 41.1336 11958.30 11408.40 127.27
9767 41.1373 11856.60 11408.00 125.88
9768 41.1411 11600.70 11407.60 124.54
9769 41.1449 11954.80 11407.20 127.30
9770 41.1486 11589.70 11406.80 124.49
9771 41.1524 12006.70 11406.40 125.64
9772 41.1561 11533.50 11406.00 124.75
9773 41.1599 11790.50 11405.60 126.50
9774 41.1636 11619.60 11405.20 125.21
9775 41.1674 11749.70 11404.80 125.71
9776 41.1712 11831.00 11404.30 126.09
9777 41.1749 11902.20 11403.90 126.68
9778 41.1787 11744.90 11403.50 126.01
9779 41.1824 11880.80 11403.10 125.86
9780 41.1862 11729.20 11402.70 125.59
9781 41.1899 11810.20 11402.30 125.50
9782 41.1937 11718.00 11401.90 124.56
9783 41.1975 11837.10 11401.50 127.08
9784 41.2012 11882.60 11401.00 126.43
9785 41.2050 11837.80 11400.60 126.83
9786 41.2087 11637.60 11400.20 125.38
9787 41.2125 11788.90 11399.80 124.68
9788 41.2162 11493.60 11548.70 122.44
9789 41.2200 12039.90 11550.00 130.37
9790 41.2238 11631.70 11551.40 124.70
9791 41.2275 11874.20 11552.70 125.66
9792 41.2313 11656.30 11553.90 124.45
9793 41.2350 11902.30 11555.40 126.79
9794 41.2388 11696.50 11556.90 124.60
9795 41.2425 11789.90 11558.30 125.71
9796 41.2463 11710.70 11559.90 125.50
9797 41.2501 11801.80 11561.50 126.15
9798 41.2538 11740.40 11563.10 125.88
9799 41.2576 11940.70 11564.80 126.81
9800 41.2613 11572.90 11566.40 124.61
9801 41.2651 11879.10 11568.20 125.79
9802 41.2688 11528.50 11569.90 124.04
9803 41.2726 11874.10 11571.70 125.77
9804 41.2764 11609.00 11573.60 124.45
9805 41.2801 11884.10 11575.50 125.41
9806 41.2839 11585.00 11577.40 124.38
9807 41.2876 11862.50 11579.40 125.99
9808 41.2914 11473.10 11581.50 123.47
9809 41.2951 12083.50 11583.50 127.46
9810 41.2989 11879.80 11585.70 127.52
9811 41.3026 11711.30 11587.80 124.77
9812 41.3064 11638.80 11590.10 124.54
9813 41.3102 11795.10 11592.40 125.74
9814 41.3139 11533.70 11595.70 122.69
9815 41.3177 11799.30 11598.10 124.82
9816 41.3214 11679.50 11600.50 126.93
9817 41.3252 11611.40 11603.10 124.14
9818 41.3289 11560.70 11605.60 123.58
9819 41.3327 11766.30 11608.30 125.28
9820 41.3365 11634.50 11611.00 124.16
9821 41.3402 11906.70 11613.80 126.40
9822 41.3440 11715.20 11616.60 125.30
9823 41.3477 11939.60 11619.50 126.09
9824 41.3515 11550.00 11622.50 124.05
9825 41.3552 11996.50 11625.60 126.59
9826 41.3590 11973.40 11628.70 125.24
9827 41.3628 11982.40 11632.00 126.25
9828 41.3665 11743.30 11635.20 125.13
9829 41.3703 11767.20 11638.70 125.41
9830 41.3740 11826.60 11642.10 125.41
9831 41.3778 11995.00 11645.70 126.91
9832 41.3815 11730.20 11649.30 125.36
9833 41.3853 11917.70 11653.10 126.35
9834 41.3890 11715.80 11656.90 123.89
9835 41.3928 11910.20 11660.90 125.59
9836 41.3966 11710.20 11665.00 125.22
9837 41.4003 11919.80 11669.10 126.28
9838 41.4041 11697.30 11673.40 125.48
9839 41.4078 11933.90 11677.70 126.41
9840 41.4116 11653.70 11682.30 124.46
9841 41.4153 11761.50 11686.80 123.74
9842 41.4191 11992.20 11691.70 129.48
9843 41.4228 12015.30 11696.50 128.32
9844 41.4266 11701.10 11701.60 124.61
9845 41.4304 12056.20 11706.80 126.64
9846 41.4341 11943.40 11712.00 125.98
9847 41.4379 12064.00 11717.60 127.84
9848 41.4416 11796.80 11723.10 125.04
9849 41.4454 12019.50 11728.90 127.26
9850 41.4491 11572.20 11734.80 124.17
9851 41.4529 11984.40 11741.00 126.41
9852 41.4567 11793.10 11747.40 125.84
9853 41.4604 12033.40 11753.80 127.55
9854 41.4642 11835.30 11760.60 125.61
9855 41.4679 12029.20 11767.40 126.99
9856 41.4717 11828.80 11774.50 125.93
9857 41.4754 11907.10 11781.70 126.25
9858 41.4792 11811.90 11789.40 126.23
9859 41.4829 12086.80 11797.00 127.36
9860 41.4867 11825.50 11805.20 125.97
9861 41.4905 11874.00 11813.50 125.66
9862 41.4942 11809.10 11821.90 124.97
9863 41.4980 11895.20 11830.90 126.83
9864 41.5017 12101.20 11839.80 127.60
9865 41.5055 12225.70 11849.30 127.21
9866 41.5092 11941.80 11858.90 127.03
9867 41.5130 11967.10 11869.10 126.14
9868 41.5167 11694.60 11879.30 123.27
9869 41.5205 12243.40 11890.10 131.62
9870 41.5243 11842.20 11901.40 126.99
9871 41.5280 12076.20 11912.70 127.75
9872 41.5318 11806.80 11924.70 125.54
9873 41.5355 12151.60 11936.80 127.76
9874 41.5393 12022.80 11949.70 127.58
9875 41.5430 12147.40 11962.70 127.71
9876 41.5468 12112.90 11976.50 128.12
9877 41.5505 12367.60 11990.50 126.96
9878 41.5543 12086.00 12005.40 128.20
9879 41.5581 12254.00 12020.80 128.13
9880 41.5618 11958.10 12036.50 127.51
9881 41.5656 12358.90 12053.10 129.06
9882 41.5693 12002.80 12070.00 127.36
9883 41.5731 12455.90 12087.90 129.38
9884 41.5768 12203.30 12106.20 128.48
9885 41.5806 12165.10 12125.60 128.62
9886 41.5843 12238.70 12145.30 129.16
9887 41.5881 12291.30 12166.40 129.67
9888 41.5919 12136.70 12188.40 128.17
9889 41.5956 12387.20 12210.70 128.52
9890 41.5994 12257.80 12234.60 129.91
9891 41.6031 12257.80 12258.90 128.31
9892 41.6069 12154.60 12284.90 128.14
9893 41.6106 12368.70 12311.40 129.46
9894 41.6144 12080.30 12339.80 127.19
9895 41.6181 12365.80 12368.80 128.97
9896 41.6219 12403.70 12399.90 131.41
9897 41.6257 12445.60 12432.50 130.32
9898 41.6294 12361.40 12465.80 129.14
9899 41.6332 12317.00 12501.60 128.33
9900 41.6369 12234.20 12538.30 128.27
9901 41.6407 12541.00 12577.80 130.49
9902 41.6444 12345.20 12618.20 129.37
9903 41.6482 12309.70 12661.90 129.05
9904 41.6519 12426.90 12706.70 129.73
9905 41.6557 12660.80 12755.20 130.95
9906 41.6594 12324.80 12804.90 129.02
9907 41.6632 12505.20 12858.90 130.16
9908 41.6670 12477.10 12915.90 129.24
9909 41.6707 12782.00 12974.70 131.12
9910 41.6745 12661.40 13038.60 131.73
9911 41.6782 12771.10 13104.50 131.75
9912 41.6820 12293.40 13176.40 128.61
9913 41.6857 12768.20 13250.60 132.00
9914 41.6895 12389.90 13331.80 128.88
9915 41.6932 12969.50 13415.90 132.86
9916 41.6970 12767.80 13508.00 131.06
9917 41.7008 12983.00 13606.40 133.59
9918 41.7045 12927.50 13708.90 130.91
9919 41.7083 13054.80 13821.50 133.23
9920 41.7120 13063.70 13939.10 133.27
9921 41.7158 13264.60 14068.80 132.97
9922 41.7195 13377.90 14204.70 135.90
9923 41.7233 13763.40 14355.00 139.72
9924 41.7270 13303.30 14513.20 135.31
9925 41.7308 13752.70 14688.70 136.14
9926 41.7345 13791.40 14874.20 137.01
9927 41.7383 13775.60 15080.80 137.08
9928 41.7421 13756.60 15306.30 137.19
9929 41.7458 14251.90 15545.60 139.86
9930 41.7496 13980.90 15815.00 138.36
9931 41.7533 14439.10 16102.60 140.96
9932 41.7571 14467.40 16427.00 141.50
9933 41.7608 14911.10 16775.90 144.29
9934 41.7646 15051.40 17172.10 144.38
9935 41.7683 15660.30 17600.80 148.17
9936 41.7721 15760.20 18091.00 146.27
9937 41.7758 16588.30 18625.40 153.02
9938 41.7796 16725.90 19241.30 153.51
9939 41.7834 17664.20 19938.10 159.10
9940 41.7871 18248.00 20707.20 162.10
9941 41.7909 19426.40 21609.80 167.35
9942 41.7946 20233.20 22620.60 171.10
9943 41.7984 22466.40 23828.90 183.34
9944 41.8021 23887.00 25215.90 190.01
9945 41.8059 26443.70 26929.30 201.35
9946 41.8096 29042.70 28979.00 213.52
9947 41.8134 33321.60 31637.60 231.97
9948 41.8171 36278.40 34984.90 240.65
9949 41.8209 43065.40 39531.70 274.68
9950 41.8247 48168.20 45645.10 292.22
9951 41.8284 56438.60 53609.90 318.80
9952 41.8322 64115.90 64483.70 344.85
9953 41.8359 78146.90 78278.40 392.33
9954 41.8397 91609.00 96283.90 433.93
9955 41.8434 113393.00 117810.00 501.11
9956 41.8472 137574.00 143922.00 573.75
9957 41.8509 172749.00 172448.00 667.51
9958 41.8547 206493.00 203143.00 758.44
9959 41.8584 247859.00 231193.00 858.10
9960 41.8622 272062.00 253354.00 912.62
9961 41.8659 288667.00 263456.00 956.31
9962 41.8697 278999.00 259126.00 940.77
9963 41.8735 260776.00 241217.00 891.26
9964 41.8772 222762.00 215154.00 799.17
9965 41.8810 189540.00 184764.00 704.97
9966 41.8847 152092.00 155378.00 612.97
9967 41.8885 125124.00 127821.00 535.29
9968 41.8922 99752.00 104671.00 458.35
9969 41.8960 82700.40 85007.40 405.02
9970 41.8997 68203.10 69749.70 364.98
9971 41.9035 57990.50 57594.20 326.98
9972 41.9072 49474.00 48648.80 297.62
9973 41.9110 43174.50 41758.70 271.90
9974 41.9147 37001.90 36763.80 245.58
9975 41.9185 33213.70 32902.60 229.27
9976 41.9223 29816.40 29960.10 221.57
9977 41.9260 27263.20 27711.00 206.00
9978 41.9298 24701.70 25853.50 193.40
9979 41.9335 23020.40 24360.10 184.83
9980 41.9373 21086.80 23070.40 176.61
9981 41.9410 20371.10 21995.20 173.08
9982 41.9448 19185.70 21039.60 167.00
9983 41.9485 18410.30 20227.70 162.05
9984 41.9523 17448.70 19493.80 157.80
9985 41.9560 17116.00 18862.30 156.49
9986 41.9598 16205.90 18285.50 151.37
9987 41.9635 16450.20 17784.60 153.00
9988 41.9673 15712.10 17323.30 147.56
9989 41.9711 15752.90 16909.30 149.05
9990 41.9748 15251.30 16545.00 144.98
9991 41.9786 15226.90 16206.40 146.01
9992 41.9823 14632.20 15907.10 142.09
9993 41.9861 14769.20 15627.00 143.00
9994 41.9881 14333.80 15489.60 140.83
9995 41.9918 14347.70 15252.20 139.67
9996 41.9956 14212.50 15028.50 140.58
9997 41.9993 14198.50 14828.50 139.34
9998 42.0031 13635.40 14639.10 134.81
9999 42.0068 14146.60 14469.10 143.22
10000 42.0106 13597.30 14307.50 137.66
10001 42.0144 13876.50 14158.10 138.56
10002 42.0181 13526.80 14022.90 135.92
10003 42.0219 13556.30 13893.90 136.26
10004 42.0256 13351.50 13776.80 135.70
10005 42.0294 13413.10 13664.70 135.40
10006 42.0331 13404.30 13562.70 136.00
10007 42.0369 13333.80 13464.60 132.78
10008 42.0406 12974.60 13375.40 133.75
10009 42.0444 13219.30 13289.30 134.05
10010 42.0482 13103.50 13208.60 134.59
10011 42.0519 13007.80 13134.70 133.14
10012 42.0557 13089.70 13063.30 134.06
10013 42.0594 12892.90 12997.80 132.20
10014 42.0632 12801.30 12934.50 132.28
10015 42.0669 12826.90 12876.20 132.82
10016 42.0707 12694.30 12819.80 132.13
10017 42.0744 13006.40 12767.80 134.17
10018 42.0782 12872.50 12717.40 132.79
10019 42.0820 12953.30 12669.70 132.09
10020 42.0857 12800.60 12625.80 133.42
10021 42.0895 12992.00 12583.10 132.89
10022 42.0932 12623.80 12543.70 131.19
10023 42.0970 12753.30 12505.40 132.00
10024 42.1007 12617.00 12470.20 130.63
10025 42.1045 12761.00 12435.90 131.56
10026 42.1082 12481.20 12404.30 132.14
10027 42.1120 12794.00 12373.70 132.64
10028 42.1158 12480.30 12344.90 130.10
10029 42.1195 12660.30 12318.50 130.61
10030 42.1233 12383.50 12293.00 129.41
10031 42.1270 12697.30 12269.80 131.66
10032 42.1308 12499.70 12247.60 130.54
10033 42.1345 12383.20 12227.70 129.73
10034 42.1383 12263.00 12209.00 129.00
10035 42.1420 12321.50 12192.50 129.18
10036 42.1458 11989.70 12177.50 127.26
10037 42.1495 12478.80 12164.80 130.26
10038 42.1533 12348.00 12154.00 128.73
10039 42.1571 12563.20 12145.60 130.09
10040 42.1608 12323.50 12139.90 129.96
10041 42.1646 12629.90 12136.80 131.17
10042 42.1683 12268.40 12136.70 128.71
10043 42.1721 12321.70 12139.90 129.60
10044 42.1758 12376.70 12146.40 129.05
10045 42.1796 12409.40 12156.90 129.81
10046 42.1833 12188.70 12170.80 127.89
10047 42.1871 12532.90 12189.20 131.18
10048 42.1909 12218.20 12211.80 127.02
10049 42.1946 12620.10 12237.80 130.93
10050 42.1984 12252.20 12268.40 128.74
10051 42.2021 12295.00 12301.60 127.58
10052 42.2059 12613.30 12338.50 131.66
10053 42.2096 12683.70 12376.10 133.61
10054 42.2134 12289.60 12414.80 129.58
10055 42.2171 12594.40 12450.70 129.72
10056 42.2209 12297.00 12483.00 128.58
10057 42.2234 12640.90 12500.40 130.90
10058 42.2271 12729.00 12518.50 130.95
10059 42.2309 12393.60 12525.30 128.67
10060 42.2346 12570.40 12518.90 130.11
10061 42.2384 12381.20 12498.50 128.87
10062 42.2421 12836.80 12466.20 132.05
10063 42.2459 12739.20 12422.30 131.52
10064 42.2496 12641.80 12371.70 130.62
10065 42.2534 12582.60 12314.70 130.86
10066 42.2571 12524.60 12256.60 129.33
10067 42.2609 12427.90 12196.70 129.15
10068 42.2646 12383.10 12139.50 129.36
10069 42.2684 12437.70 12083.20 128.63
10070 42.2722 12451.30 12030.10 129.82
10071 42.2759 12279.80 11981.80 128.99
10072 42.2797 12228.90 11936.10 128.36
10073 42.2834 12158.40 11895.20 127.94
10074 42.2872 12172.00 11857.10 127.99
10075 42.2909 12023.50 11823.30 126.88
10076 42.2947 12234.90 11792.10 128.78
10077 42.2984 11754.20 11764.60 126.21
10078 42.3022 11950.20 11739.30 127.25
10079 42.3059 11937.70 11717.10 127.54
10080 42.3097 12055.50 11696.60 127.59
10081 42.3134 11793.20 11678.50 126.11
10082 42.3172 11812.40 11661.70 124.29
10083 42.3210 11932.60 11646.50 129.07
10084 42.3247 12059.50 11632.90 128.10
10085 42.3285 11742.90 11620.10 125.32
10086 42.3322 11751.20 11608.60 124.85
10087 42.3360 11725.60 11597.70 124.59
10088 42.3397 12039.80 11587.70 127.50
10089 42.3435 11697.20 11578.10 125.32
10090 42.3472 11831.70 11569.20 126.34
10091 42.3510 11890.30 11560.70 126.58
10092 42.3547 12096.30 11552.70 127.52
10093 42.3585 11437.80 11545.00 124.16
10094 42.3622 11933.40 11537.70 126.35
10095 42.3660 11618.10 11530.60 125.17
10096 42.3698 11884.50 11523.80 126.71
10097 42.3735 11790.90 11517.40 125.81
10098 42.3773 11807.50 11511.10 125.87
10099 42.3810 11811.20 11505.10 126.06
10100 42.3848 11659.50 11499.20 124.23
10101 42.3885 11716.50 11493.60 124.92
10102 42.3923 11698.80 11488.10 124.95
10103 42.3960 11602.20 11482.80 125.19
10104 42.3998 11783.30 11477.60 125.84
10105 42.4035 11534.50 11472.70 124.76
10106 42.4073 11896.90 11467.70 126.38
10107 42.4111 11640.00 11462.90 123.93
10108 42.4148 11674.30 11458.40 123.25
10109 42.4186 11900.30 11453.80 129.80
10110 42.4223 11752.70 11449.50 125.98
10111 42.4261 11692.60 11445.20 125.08
10112 42.4298 11628.30 11441.10 124.52
10113 42.4336 11439.70 11436.90 123.44
10114 42.4373 11712.10 11433.00 125.73
10115 42.4411 11793.70 11429.00 125.74
10116 42.4448 11699.10 11425.30 125.53
10117 42.4486 11492.10 11421.50 123.34
10118 42.4524 11823.00 11417.80 126.19
10119 42.4561 11772.50 11414.20 125.08
10120 42.4599 11796.30 11410.60 125.32
10121 42.4636 11634.20 11407.20 125.05
10122 42.4674 11845.90 11403.80 126.96
10123 42.4711 11549.30 11400.50 124.78
10124 42.4749 11666.80 11397.20 125.91
10125 42.4786 11772.70 11394.10 126.23
10126 42.4824 11954.80 11390.90 126.21
10127 42.4862 11754.70 11387.70 126.43
10128 42.4899 11997.60 11384.70 126.37
10129 42.4937 11541.20 11381.70 124.29
10130 42.4974 11860.20 11378.80 126.27
10131 42.5012 11685.20 11375.90 125.16
10132 42.5049 11934.40 11373.00 126.92
10133 42.5087 11766.90 11370.20 126.30
10134 42.5124 11654.70 11367.50 124.49
10135 42.5162 11489.00 11364.70 122.56
10136 42.5199 11766.90 11213.60 128.16
10137 42.5237 11566.00 11212.60 125.29
10138 42.5275 11574.30 11211.60 124.99
10139 42.5312 11640.90 11210.70 124.67
10140 42.5350 11595.00 11209.80 124.71
10141 42.5387 11647.40 11208.80 125.80
10142 42.5425 11670.60 11207.90 126.18
10143 42.5462 11625.20 11207.10 125.85
10144 42.5500 11579.70 11206.20 124.50
10145 42.5537 11624.90 11205.30 124.84
10146 42.5575 11711.30 11204.40 126.19
10147 42.5613 11561.90 11203.80 124.21
10148 42.5650 11586.00 11203.00 125.18
10149 42.5688 11542.90 11202.10 124.76
10150 42.5725 11567.00 11201.20 125.26
10151 42.5763 11541.80 11200.30 123.98
10152 42.5800 11425.90 11199.50 123.49
10153 42.5838 11640.40 11198.60 125.32
10154 42.5875 11666.10 11197.80 125.83
10155 42.5913 11546.80 11196.90 124.85
10156 42.5951 11496.60 11196.10 124.15
10157 42.5988 11392.00 11195.30 124.66
10158 42.6026 11716.60 11194.40 125.43
10159 42.6063 11535.80 11193.60 125.01
10160 42.6101 11498.30 11192.80 124.62
10161 42.6138 11266.80 11192.00 122.09
10162 42.6176 11658.20 11191.10 125.01
10163 42.6213 11474.80 11190.30 127.18
10164 42.6251 11849.80 11189.50 126.75
10165 42.6289 11475.80 11188.70 123.49
10166 42.6326 11569.70 11187.90 124.44
10167 42.6364 11486.10 11187.00 124.36
10168 42.6401 11576.60 11186.30 124.56
10169 42.6439 11425.40 11185.40 124.11
10170 42.6476 11453.30 11184.60 124.56
10171 42.6514 11509.40 11183.80 124.64
10172 42.6551 11548.90 11183.00 125.09
10173 42.6589 11264.10 11182.20 123.21
10174 42.6627 11638.10 11181.40 124.84
10175 42.6664 11455.40 11180.70 124.65
10176 42.6702 11501.20 11179.90 123.84
10177 42.6739 11478.00 11179.10 124.44
10178 42.6777 11674.30 11178.30 125.70
10179 42.6814 11464.90 11177.50 125.22
10180 42.6852 11529.70 11176.70 124.39
10181 42.6889 11270.00 11175.90 123.11
10182 42.6927 11528.90 11175.10 123.18
10183 42.6965 11450.40 11174.30 122.90
10184 42.7002 11631.20 11173.60 125.36
10185 42.7040 11542.50 11172.80 123.42
10186 42.7077 11556.80 11172.00 123.89
10187 42.7115 11252.20 11171.20 121.81
10188 42.7152 11540.90 11170.50 122.48
10189 42.7190 11498.90 11169.70 123.87
10190 42.7227 11616.90 11168.90 125.32
10191 42.7265 11281.40 11168.10 122.05
10192 42.7303 11555.00 11167.30 123.65
10193 42.7340 11537.90 11166.60 123.92
10194 42.7378 11599.90 11165.80 123.75
10195 42.7415 11226.50 11165.00 122.36
10196 42.7453 11508.10 11164.20 123.93
10197 42.7490 11616.90 11163.50 123.97
10198 42.7528 11458.20 11162.70 123.12
10199 42.7566 11323.30 11161.90 122.48
10200 42.7603 11464.50 11161.20 123.50
10201 42.7641 11530.80 11160.40 123.86
10202 42.7678 11462.10 11159.60 123.23
10203 42.7716 11403.50 11158.90 123.29
10204 42.7753 11408.40 11158.10 123.24
10205 42.7791 11388.80 11157.30 123.00
10206 42.7828 11582.60 11156.60 124.69
10207 42.7866 11327.40 11155.80 123.44
10208 42.7904 11271.10 11155.00 122.05
10209 42.7941 11224.20 11154.30 121.67
10210 42.7979 11646.00 11153.50 124.51
10211 42.8016 11100.60 11152.70 121.44
10212 42.8054 11539.90 11152.00 124.67
10213 42.8091 11415.80 11151.20 123.47
10214 42.8129 11590.30 11150.50 124.52
10215 42.8167 11182.90 11149.70 119.96
10216 42.8204 11650.50 11148.90 127.63
10217 42.8242 11618.90 11148.20 124.65
10218 42.8279 11332.30 11147.40 122.35
10219 42.8317 11130.60 11146.60 121.33
10220 42.8354 11539.90 11145.90 124.19
10221 42.8392 11435.50 11145.10 122.52
10222 42.8429 11541.00 11144.40 124.21
10223 42.8467 11445.20 11143.60 123.91
10224 42.8505 11213.10 11142.90 122.45
10225 42.8542 11126.20 11142.10 121.61
10226 42.8580 11424.50 11141.40 122.72
10227 42.8617 11426.80 11140.60 123.54
10228 42.8655 11457.40 11139.90 123.78
10229 42.8692 11525.20 11139.10 124.44
10230 42.8730 11509.10 11138.40 122.88
10231 42.8768 11327.80 11137.60 123.69
10232 42.8805 11336.60 11136.90 123.34
10233 42.8843 11256.70 11136.10 121.49
10234 42.8880 11598.50 11135.40 124.75
10235 42.8918 11271.70 11134.60 121.68
10236 42.8955 11479.70 11133.90 123.75
10237 42.8993 11524.20 11133.10 125.15
10238 42.9031 11606.60 11132.40 124.53
10239 42.9068 11340.80 11131.60 123.60
10240 42.9106 11465.90 11130.90 123.59
10241 42.9143 11272.90 11130.20 121.13
10242 42.9181 11397.60 11129.40 123.92
10243 42.9218 11426.40 11128.70 124.81
10244 42.9256 11586.30 11127.90 125.24
10245 42.9294 11394.00 11127.20 123.38
10246 42.9331 11484.50 11126.50 123.60
10247 42.9369 11269.40 11125.70 122.98
10248 42.9406 11382.00 11125.00 123.13
10249 42.9444 11361.00 11124.30 123.24
10250 42.9481 11480.20 11123.60 123.10
10251 42.9519 11401.40 11122.80 123.39
10252 42.9557 11376.40 11122.10 123.31
10253 42.9594 11385.60 11121.40 123.11
10254 42.9632 11375.20 11120.70 123.28
10255 42.9669 11327.90 11120.00 123.06
10256 42.9707 11388.60 11119.20 124.00
10257 42.9744 11395.30 11118.60 121.85
10258 42.9782 11335.90 11121.30 122.72
10259 42.9820 11489.10 11120.70 123.91
10260 42.9857 11466.20 11120.00 122.68
10261 42.9895 11303.00 11122.10 123.19
10262 42.9932 11532.80 11121.50 122.72
10263 42.9970 11221.80 11123.80 122.46
10264 43.0007 11703.80 11123.20 125.18
10265 43.0045 11392.30 11122.60 124.11
10266 43.0082 11518.90 11122.10 124.64
10267 43.0120 11261.20 11121.50 122.73
10268 43.0158 11387.40 11121.00 120.35
10269 43.0195 11432.60 11120.50 125.42
10270 43.0233 11612.40 11120.00 126.59
10271 43.0270 11350.40 11119.50 123.21
10272 43.0308 11515.80 11118.90 122.87
10273 43.0346 11312.60 11118.50 122.81
10274 43.0383 11315.20 11118.00 123.37
10275 43.0421 11343.60 11117.50 123.29
10276 43.0458 11542.20 11117.10 125.24
10277 43.0496 11373.10 11116.70 122.90
10278 43.0533 11288.50 11116.20 123.23
10279 43.0571 11378.30 11115.80 122.58
10280 43.0609 11606.90 11115.50 124.41
10281 43.0646 11274.40 11115.10 123.28
10282 43.0684 11655.10 11114.80 125.28
10283 43.0721 11171.80 11114.50 122.40
10284 43.0759 11482.40 11114.20 123.25
10285 43.0796 11445.60 11114.00 124.34
10286 43.0834 11329.90 11113.80 122.81
10287 43.0872 11111.00 11113.60 122.36
10288 43.0909 11455.80 11113.50 124.75
10289 43.0947 11332.90 11113.40 123.21
10290 43.0984 11607.40 11113.40 126.28
10291 43.1022 11178.50 11113.40 122.20
10292 43.1059 11435.90 11113.50 123.90
10293 43.1097 11555.20 11113.60 124.79
10294 43.1135 11376.30 11113.90 123.41
10295 43.1172 11522.40 11114.20 123.44
10296 43.1210 11574.80 11114.60 127.78
10297 43.1247 11260.30 11115.20 121.85
10298 43.1285 11434.80 11115.90 123.32
10299 43.1322 10999.90 11116.70 120.84
10300 43.1360 11419.90 11117.70 123.47
10301 43.1398 11229.20 11119.00 122.43
10302 43.1435 11551.10 11120.40 124.11
10303 43.1473 11252.20 11122.20 122.96
10304 43.1510 11643.70 11124.30 125.33
10305 43.1548 11334.70 11126.00 123.63
10306 43.1585 11427.40 11129.10 124.35
10307 43.1623 11307.20 11133.20 123.97
10308 43.1661 11439.20 11138.40 123.18
10309 43.1698 11477.90 11144.90 123.24
10310 43.1736 11615.20 11153.70 123.24
10311 43.1773 11470.60 11165.00 122.91
10312 43.1811 11535.50 11180.30 124.18
10313 43.1849 11412.10 11200.50 123.25
10314 43.1886 11361.50 11226.10 123.06
10315 43.1924 11438.30 11259.70 123.54
10316 43.1961 11695.90 11300.40 124.74
10317 43.1999 11625.80 11350.80 125.08
10318 43.2036 11687.10 11407.80 125.03
10319 43.2074 11653.20 11472.30 124.58
10320 43.2112 11819.00 11539.00 126.15
10321 43.2149 11506.30 11600.80 122.85
10322 43.2187 11881.80 11654.60 127.21
10323 43.2224 11659.40 11690.60 126.51
10324 43.2262 11893.90 11703.00 126.78
10325 43.2299 11415.10 11686.70 123.32
10326 43.2337 11928.20 11642.60 125.86
10327 43.2375 11621.00 11579.30 124.34
10328 43.2412 11915.60 11509.40 125.89
10329 43.2450 11598.60 11438.00 124.65
10330 43.2487 11814.50 11374.00 126.45
10331 43.2525 11619.00 11316.60 124.70
10332 43.2563 11973.00 11268.70 127.09
10333 43.2600 11474.50 11231.00 123.77
10334 43.2638 11705.90 11200.40 124.93
10335 43.2675 11350.90 11177.40 121.60
10336 43.2713 11573.60 11159.40 124.63
10337 43.2750 11607.50 11146.10 124.85
10338 43.2788 11533.50 11135.70 124.02
10339 43.2826 11525.90 11127.60 124.46
10340 43.2863 11536.10 11121.40 124.22
10341 43.2901 11245.30 11116.20 122.39
10342 43.2938 11479.30 11112.10 123.13
10343 43.2976 11412.00 11108.50 123.39
10344 43.3013 11692.00 11105.50 124.32
10345 43.3051 11276.20 11102.90 122.99
10346 43.3089 11358.80 11100.60 123.53
10347 43.3126 11374.90 11098.60 123.53
10348 43.3164 11456.60 11096.80 120.75
10349 43.3201 11460.00 11095.30 125.96
10350 43.3239 11585.30 11093.90 125.84
10351 43.3277 11157.30 11092.70 120.83
10352 43.3314 11293.90 11091.60 122.15
10353 43.3352 11347.40 11090.70 122.20
10354 43.3389 11478.30 11089.90 123.67
10355 43.3427 11359.40 11089.20 123.01
10356 43.3464 11487.30 11088.70 123.80
10357 43.3502 11350.40 11088.20 122.35
10358 43.3540 11253.90 11087.80 122.79
10359 43.3577 11306.20 11087.50 123.18
10360 43.3615 11361.30 11087.30 123.29
10361 43.3652 11326.40 11087.10 122.78
10362 43.3690 11517.50 11087.10 123.08
10363 43.3728 11085.50 11087.10 121.60
10364 43.3765 11310.00 11087.20 122.89
10365 43.3803 11359.10 11087.40 123.21
10366 43.3840 11546.70 11087.70 124.15
10367 43.3878 11037.50 11088.00 121.39
10368 43.3915 11388.30 11088.50 123.06
10369 43.3953 11376.80 11089.00 122.82
10370 43.3991 11558.00 11089.60 124.97
10371 43.4028 11162.20 11090.30 121.34
10372 43.4066 11262.50 11091.10 122.93
10373 43.4103 11282.50 11091.90 122.62
10374 43.4141 11462.30 11092.90 122.99
10375 43.4179 11237.00 11094.00 120.82
10376 43.4216 11487.80 11095.20 127.02
10377 43.4254 11217.90 11096.50 122.63
10378 43.4291 11283.60 11097.90 121.61
10379 43.4329 11187.70 11099.50 122.16
10380 43.4366 11650.20 11101.10 124.60
10381 43.4404 11506.40 11103.00 124.23
10382 43.4442 11492.90 11105.00 124.19
10383 43.4479 11276.40 11107.10 122.52
10384 43.4517 11465.30 11109.50 123.96
10385 43.4554 11213.30 11111.90 122.50
10386 43.4592 11409.00 11114.60 123.57
10387 43.4630 11119.50 11117.60 120.95
10388 43.4667 11433.60 11120.70 123.91
10389 43.4705 11070.00 11124.10 121.07
10390 43.4742 11443.30 11127.70 123.57
10391 43.4780 11248.50 11131.60 122.49
10392 43.4818 11357.40 11135.90 123.29
10393 43.4855 11206.80 11140.40 121.27
10394 43.4893 11174.50 11145.40 121.82
10395 43.4930 11249.40 11150.70 122.33
10396 43.4968 11446.00 11156.50 123.33
10397 43.5005 11286.20 11162.60 123.80
10398 43.5043 11514.00 11169.40 123.90
10399 43.5081 11119.70 11176.80 122.18
10400 43.5118 11374.20 11184.60 124.01
10401 43.5156 11351.30 11193.30 122.37
10402 43.5193 11452.00 11202.50 123.58
10403 43.5231 11373.10 11212.80 125.22
10404 43.5269 11533.90 11224.00 124.66
10405 43.5306 11252.80 11236.00 122.02
10406 43.5344 11484.00 11249.40 123.03
10407 43.5381 11257.80 11263.80 122.22
10408 43.5419 11334.90 11280.00 123.37
10409 43.5456 11309.00 11297.40 123.11
10410 43.5494 11415.10 11317.10 124.24
10411 43.5532 11620.10 11339.00 124.77
10412 43.5569 11540.60 11362.60 124.76
10413 43.5607 11447.20 11389.70 124.25
10414 43.5644 11471.30 11419.20 123.98
10415 43.5682 11451.30 11453.10 124.26
10416 43.5720 11722.70 11491.50 125.30
10417 43.5757 11595.30 11533.80 124.92
10418 43.5795 11531.00 11583.40 124.61
10419 43.5832 11656.40 11639.00 125.00
10420 43.5870 12097.90 11705.40 128.09
10421 43.5908 12020.70 11783.90 125.48
10422 43.5945 12172.40 11875.80 127.78
10423 43.5983 12070.30 11991.40 127.87
10424 43.6020 12626.40 12132.40 130.94
10425 43.6058 12814.90 12316.90 132.04
10426 43.6096 12849.80 12556.60 132.43
10427 43.6133 13154.70 12860.30 134.10
10428 43.6171 13425.80 13266.70 134.78
10429 43.6208 13827.30 13777.90 139.00
10430 43.6246 14599.30 14446.00 142.97
10431 43.6283 14551.80 15257.30 142.21
10432 43.6321 15483.30 16268.10 146.78
10433 43.6359 16129.30 17459.10 149.40
10434 43.6396 17452.30 18762.40 157.08
10435 43.6434 18570.80 20182.20 164.01
10436 43.6471 20054.80 21533.10 170.80
10437 43.6509 21158.30 22749.70 175.82
10438 43.6547 22493.90 23664.50 181.80
10439 43.6584 23360.50 24190.20 186.48
10440 43.6622 23867.40 24315.80 188.56
10441 43.6659 23116.60 24022.40 184.88
10442 43.6697 22478.10 23310.80 182.51
10443 43.6735 20560.20 22242.00 172.81
10444 43.6772 19862.50 20962.60 169.26
10445 43.6810 17989.80 19543.90 159.75
10446 43.6847 17157.10 18183.10 155.07
10447 43.6885 15821.60 16901.50 148.50
10448 43.6923 15061.50 15786.70 143.76
10449 43.6960 14081.50 14877.00 138.16
10450 43.6998 13894.10 14116.00 138.40
10451 43.7035 13138.10 13527.30 132.07
10452 43.7073 13226.30 13054.90 134.40
10453 43.7110 12541.60 12700.00 130.44
10454 43.7148 12328.90 12419.70 128.41
10455 43.7186 12089.20 12204.60 124.63
10456 43.7223 12275.80 12041.10 130.73
10457 43.7261 11887.60 11908.20 125.61
10458 43.7298 11819.80 11803.50 124.74
10459 43.7336 11660.90 11714.60 123.06
10460 43.7374 11668.70 11640.00 124.42
10461 43.7411 11585.10 11577.80 123.70
10462 43.7449 11728.70 11522.30 124.99
10463 43.7486 11318.70 11475.00 122.51
10464 43.7524 11521.10 11432.00 123.47
10465 43.7562 11599.00 11393.90 124.71
10466 43.7599 11461.80 11360.70 123.95
10467 43.7637 11163.30 11330.10 121.37
10468 43.7674 11405.60 11303.20 122.75
10469 43.7712 11191.90 11278.20 121.80
10470 43.7750 11533.70 11255.60 123.08
10471 43.7787 11242.60 11235.40 121.90
10472 43.7825 11406.20 11216.50 122.91
10473 43.7862 11223.60 11199.70 122.08
10474 43.7900 11298.50 11183.70 122.39
10475 43.7937 11146.20 11169.40 120.60
10476 43.7975 11186.50 11155.80 121.11
10477 43.8013 11121.40 11143.20 122.29
10478 43.8050 11223.90 11131.80 121.55
10479 43.8088 11074.60 11120.80 121.10
10480 43.8125 11254.30 11110.90 121.96
10481 43.8163 11094.00 11101.40 120.69
10482 43.8201 10997.00 11092.50 119.54
10483 43.8238 11244.30 11084.30 124.59
10484 43.8276 11482.20 11076.40 123.19
10485 43.8313 11257.00 11069.20 121.47
10486 43.8351 11374.30 11062.20 122.23
10487 43.8389 11175.10 11055.60 121.84
10488 43.8426 11421.10 11049.50 123.07
10489 43.8464 11272.00 11043.50 122.34
10490 43.8501 11476.30 11038.00 124.04
10491 43.8539 11123.10 11032.60 121.72
10492 43.8577 11346.10 11027.50 122.86
10493 43.8614 10896.70 11022.70 120.43
10494 43.8652 11148.40 11018.00 121.87
10495 43.8689 11122.10 11013.70 121.67
10496 43.8727 11229.80 11009.40 121.88
10497 43.8765 11040.30 11005.30 120.74
10498 43.8802 11214.60 11001.40 122.13
10499 43.8840 11053.10 10997.60 121.14
10500 43.8877 11128.30 10994.00 121.75
10501 43.8915 11009.40 10990.50 121.04
10502 43.8953 11088.40 10987.10 119.37
10503 43.8990 10934.30 10983.60 120.76
10504 43.9028 11406.00 10980.50 124.00
10505 43.9065 11005.70 10977.50 119.84
10506 43.9103 11356.20 10974.50 122.69
10507 43.9141 11143.60 10971.70 120.89
10508 43.9178 11076.60 10969.00 119.43
10509 43.9216 11238.90 10966.30 124.23
10510 43.9253 11387.10 10963.80 124.96
10511 43.9291 11203.80 10961.20 121.86
10512 43.9328 11192.20 10958.80 121.20
10513 43.9366 11101.70 10956.40 120.77
10514 43.9404 11211.90 10954.10 121.40
10515 43.9441 11005.80 10951.90 120.84
10516 43.9479 11157.30 10949.70 121.74
10517 43.9516 11055.30 10947.60 121.91
10518 43.9554 11223.50 10945.50 122.00
10519 43.9592 10861.00 10943.40 120.21
10520 43.9629 11056.90 10941.50 121.75
10521 43.9667 11162.60 10939.50 121.93
10522 43.9704 11279.00 10937.70 123.06
10523 43.9742 11076.50 10935.90 122.07
10524 43.9780 11203.40 10934.10 121.49
10525 43.9817 11077.70 10932.40 121.68
10526 43.9855 11472.30 10930.70 123.73
10527 43.9892 11070.40 10929.10 121.20
10528 43.9930 11138.40 10927.50 121.81
10529 43.9968 11143.60 10926.00 122.28
10530 44.0005 11277.90 10924.50 123.39
10531 44.0043 11004.60 10923.10 120.42
10532 44.0080 11194.80 10921.80 122.68
10533 44.0118 11082.80 10920.40 121.06
10534 44.0156 11207.10 10919.10 121.49
10535 44.0193 11100.40 10917.90 120.74
10536 44.0231 11161.80 10916.60 124.50
10537 44.0268 11041.50 10915.40 121.68
10538 44.0306 11095.60 10914.20 121.00
10539 44.0344 10929.10 10912.90 120.07
10540 44.0381 11258.40 10911.70 122.98
10541 44.0419 11012.40 10910.30 121.42
10542 44.0456 11256.40 10909.00 121.78
10543 44.0494 11087.80 10907.50 121.32
10544 44.0532 11134.10 10906.00 121.35
10545 44.0569 10918.10 10904.40 120.66
10546 44.0607 11151.30 10902.80 122.01
10547 44.0644 10946.50 10901.10 120.53
10548 44.0682 11288.40 10899.50 121.86
10549 44.0720 10989.20 10897.80 120.97
10550 44.0757 11128.80 10896.20 120.69
10551 44.0795 11027.40 10894.50 121.43
10552 44.0832 11244.20 10892.90 122.02
10553 44.0870 10968.30 10891.30 120.79
10554 44.0908 11102.70 10889.80 120.60
10555 44.0945 10837.40 10888.30 120.12
10556 44.0983 11007.40 10886.80 120.93
10557 44.1020 11268.10 10885.30 123.59
10558 44.1058 11263.60 10883.90 122.82
10559 44.1096 10949.10 10882.50 121.43
10560 44.1133 10928.70 10881.10 120.00
10561 44.1171 11065.70 10879.80 120.15
10562 44.1208 11193.00 10878.50 122.58
10563 44.1246 11000.50 10877.10 123.85
10564 44.1284 11319.90 10875.80 123.30
10565 44.1321 10869.70 10874.60 119.59
10566 44.1359 11143.40 10873.30 121.69
10567 44.1396 11040.40 10872.10 120.98
10568 44.1434 11157.80 10870.90 122.50
10569 44.1472 11071.20 10869.60 121.71
10570 44.1509 11020.40 10868.50 121.03
10571 44.1547 10920.80 10867.30 119.94
10572 44.1584 11247.50 10866.10 122.47
10573 44.1622 10988.00 10864.90 121.01
10574 44.1660 11331.20 10863.70 123.20
10575 44.1697 11032.80 10862.60 121.22
10576 44.1735 11280.00 10861.40 122.11
10577 44.1772 10992.60 10860.30 120.88
10578 44.1810 11300.90 10859.10 123.42
10579 44.1848 10914.60 10858.00 120.32
10580 44.1885 11049.60 10856.90 121.44
10581 44.1923 10777.70 10855.80 119.00
10582 44.1960 11063.20 10854.70 120.86
10583 44.1998 10943.80 10853.50 120.82
10584 44.2036 10809.10 10852.40 119.68
10585 44.2073 10851.70 10851.30 120.61
10586 44.2111 11198.40 10850.20 122.04
10587 44.2148 10867.60 10849.10 119.32
10588 44.2186 10789.00 10848.00 117.27
10589 44.2224 10933.20 10846.90 124.02
10590 44.2261 11205.90 10845.90 122.90
10591 44.2299 10871.30 10844.80 118.79
10592 44.2336 11093.80 10843.70 121.06
10593 44.2374 10981.80 10842.70 120.50
10594 44.2412 11021.50 10841.60 120.75
10595 44.2449 10833.10 10840.50 120.08
10596 44.2487 11246.10 10839.50 121.58
10597 44.2524 11033.20 10838.40 121.49
10598 44.2562 10997.00 10837.30 120.08
10599 44.2600 10787.40 10836.30 119.38
10600 44.2637 10927.50 10835.20 120.02
10601 44.2675 10906.40 10834.20 119.95
10602 44.2712 11041.50 10833.20 120.52
10603 44.2750 10914.10 10832.10 119.94
10604 44.2787 11144.70 10831.10 121.19
10605 44.2825 10945.80 10830.00 120.46
10606 44.2863 10914.60 10829.00 119.97
10607 44.2900 10852.00 10828.00 119.66
10608 44.2938 11020.40 10826.90 120.49
10609 44.2976 10846.10 10825.90 119.35
10610 44.3013 11063.90 10824.90 121.54
10611 44.3051 10869.50 10823.90 118.84
10612 44.3088 11074.90 10822.80 121.99
10613 44.3126 10885.40 10821.80 119.24
10614 44.3164 10965.40 10820.80 119.93
10615 44.3201 10779.70 10819.80 117.64
10616 44.3239 11155.60 10818.80 124.77
10617 44.3276 10948.70 10814.30 120.30
10618 44.3314 10813.80 10813.30 119.54
10619 44.3352 10940.30 10812.30 120.19
10620 44.3389 11056.50 10808.60 120.88
10621 44.3427 10803.40 10807.70 119.83
10622 44.3464 10959.70 10806.70 119.90
10623 44.3502 10992.20 10802.90 119.93
10624 44.3540 11102.10 10802.00 120.99
10625 44.3577 10907.00 10801.10 119.35
10626 44.3615 11182.60 10800.20 122.46
10627 44.3652 10882.20 10799.30 119.65
10628 44.3690 11104.50 10798.40 122.15
10629 44.3728 10900.10 10797.50 119.52
10630 44.3765 10914.30 10796.60 120.89
10631 44.3803 10699.10 10795.70 119.21
10632 44.3840 11012.50 10794.80 121.03
10633 44.3878 10834.00 10793.90 119.58
10634 44.3916 11077.00 10793.00 121.18
10635 44.3953 11033.90 10792.10 120.20
10636 44.3991 11035.40 10791.10 120.84
10637 44.4028 10829.40 10790.20 120.33
10638 44.4066 10982.20 10789.30 120.80
10639 44.4104 11049.70 10788.40 120.19
10640 44.4141 10808.80 10787.50 120.03
10641 44.4179 10592.20 10786.60 116.80
10642 44.4216 11192.80 10785.70 124.83
10643 44.4254 10908.10 10784.80 121.53
10644 44.4292 10953.20 10783.90 119.77
10645 44.4329 10887.80 10783.00 119.77
10646 44.4367 11044.00 10782.10 121.56
10647 44.4404 10744.70 10781.20 119.53
10648 44.4442 11109.10 10780.20 121.64
10649 44.4480 10728.50 10779.30 119.08
10650 44.4517 11078.20 10778.40 121.40
10651 44.4555 10842.50 10777.50 119.83
10652 44.4592 11007.30 10776.60 121.15
10653 44.4630 10886.80 10775.70 120.47
10654 44.4668 10959.10 10774.80 121.28
10655 44.4705 10628.80 10773.90 118.66
10656 44.4743 11023.90 10773.00 121.47
10657 44.4780 10735.90 10772.10 119.74
10658 44.4818 10982.90 10771.10 120.49
10659 44.4856 10798.30 10770.20 120.07
10660 44.4893 11094.10 10769.30 121.71
10661 44.4931 11013.90 10768.40 120.57
10662 44.4968 10926.90 10767.50 118.78
10663 44.5006 11001.60 10766.60 121.18
10664 44.5044 11017.30 10765.70 121.90
10665 44.5081 10905.80 10764.80 120.44
10666 44.5119 11089.70 10763.80 122.02
10667 44.5156 11021.80 10762.90 120.77
10668 44.5194 11048.70 10762.00 119.68
10669 44.5232 10910.30 10761.10 123.46
10670 44.5269 11033.30 10760.20 121.33
10671 44.5307 11053.90 10759.30 120.96
10672 44.5344 11045.60 10758.40 120.85
10673 44.5382 10808.10 10757.50 119.60
10674 44.5420 11122.80 10756.50 121.69
10675 44.5457 10968.70 10755.60 120.40
10676 44.5495 11153.90 10754.70 122.50
10677 44.5532 10759.90 10753.80 119.23
10678 44.5570 11036.50 10752.90 121.75
10679 44.5608 10882.10 10752.00 120.29
10680 44.5645 10774.90 10751.10 119.39
10681 44.5683 10895.80 10750.20 120.11
10682 44.5720 11192.70 10749.30 123.03
10683 44.5758 10798.40 10748.30 119.67
10684 44.5796 11060.40 10747.40 121.89
10685 44.5833 11001.10 10746.50 121.12
10686 44.5871 11216.30 10745.60 122.57
10687 44.5908 10672.50 10744.70 119.36
10688 44.5946 11197.60 10743.80 122.00
10689 44.5984 10805.30 10742.80 120.40
10690 44.6021 11112.00 10741.90 122.49
10691 44.6059 10902.10 10741.00 120.53
10692 44.6096 11275.20 10740.10 123.74
10693 44.6134 11069.30 10739.20 120.75
10694 44.6172 11172.50 10738.30 121.34
10695 44.6209 11295.10 10737.40 123.29
10696 44.6247 11357.70 10736.50 125.00
10697 44.6284 10891.50 10735.60 120.85
10698 44.6322 10976.80 10734.60 119.91
10699 44.6360 10701.50 10733.70 117.86
10700 44.6397 11199.90 10732.80 122.47
10701 44.6435 11170.10 10731.90 121.48
10702 44.6472 10933.10 10731.00 120.39
10703 44.6510 11083.10 10730.10 121.64
10704 44.6548 11242.40 10729.10 120.80
10705 44.6585 10852.10 10728.20 120.08
10706 44.6623 11244.30 10727.30 122.70
10707 44.6660 10843.90 10726.40 120.26
10708 44.6698 11021.60 10725.50 121.84
10709 44.6736 11110.10 10724.60 121.62
10710 44.6773 11073.10 10723.70 121.66
10711 44.6811 10815.00 10722.70 120.64
10712 44.6848 11133.10 10721.80 120.87
10713 44.6886 10881.00 10720.90 120.30
10714 44.6924 11066.40 10856.70 120.24
10715 44.6961 10908.60 10857.20 120.60
10716 44.6999 10932.90 10857.80 120.83
10717 44.7036 11034.90 10991.70 122.17
10718 44.7074 11033.80 10993.90 121.50
10719 44.7112 10836.50 11131.30 118.95
10720 44.7149 11237.60 11134.90 122.83
10721 44.7187 10955.00 11138.60 119.65
10722 44.7224 11175.80 11142.40 123.15
10723 44.7262 10985.60 11146.30 123.03
10724 44.7300 11185.70 11150.30 122.02
10725 44.7337 10825.60 11154.30 119.31
10726 44.7375 10963.50 11158.50 120.56
10727 44.7412 10835.40 11162.70 120.19
10728 44.7450 11314.10 11167.00 123.26
10729 44.7488 10936.70 11171.50 120.40
10730 44.7525 11255.20 11175.90 122.91
10731 44.7563 10998.80 11180.60 119.93
10732 44.7600 11225.20 11185.20 122.56
10733 44.7638 10852.20 11190.00 120.47
10734 44.7676 11190.20 11195.00 121.75
10735 44.7713 10915.70 11199.90 119.31
10736 44.7751 11174.00 11205.00 122.03
10737 44.7788 11114.20 11210.20 122.02
10738 44.7826 11236.80 11215.60 122.86
10739 44.7864 11075.50 11221.10 121.77
10740 44.7901 11262.90 11226.50 122.74
10741 44.7939 11035.20 11232.30 121.45
10742 44.7976 11139.50 11240.30 121.70
10743 44.8014 11035.40 11246.30 122.24
10744 44.8052 11138.90 11252.40 120.41
10745 44.8127 11188.50 11265.00 119.74
10746 44.8164 11037.30 11271.40 121.49
10747 44.8202 11049.30 11278.10 120.17
10748 44.8240 11158.20 11284.90 125.07
10749 44.8277 11398.30 11291.70 124.28
10750 44.8315 11141.80 11298.90 121.74
10751 44.8352 11130.30 11306.00 121.01
10752 44.8390 11039.90 11313.50 120.76
10753 44.8428 10992.80 11321.20 120.71
10754 44.8465 10966.80 11328.80 121.01
10755 44.8503 11269.00 11336.80 122.94
10756 44.8540 11179.30 11344.80 122.39
10757 44.8578 11414.30 11353.20 124.15
10758 44.8616 11097.70 11361.80 122.19
10759 44.8653 11367.50 11370.40 123.27
10760 44.8691 11018.80 11379.40 121.24
10761 44.8728 11403.00 11388.30 123.77
10762 44.8766 11196.00 11397.80 121.94
10763 44.8804 11224.10 11407.40 122.28
10764 44.8841 11179.30 11417.00 121.56
10765 44.8879 11244.80 11427.20 122.62
10766 44.8916 11185.80 11437.30 122.50
10767 44.8954 11459.40 11447.90 123.84
10768 44.8992 11412.90 11458.80 123.70
10769 44.9029 11499.80 11469.60 125.54
10770 44.9067 11261.30 11481.00 122.43
10771 44.9104 11373.20 11492.40 124.33
10772 44.9142 11091.70 11504.40 122.19
10773 44.9180 11210.60 11516.70 121.64
10774 44.9217 11112.00 11529.00 122.97
10775 44.9255 11444.90 11542.00 126.50
10776 44.9292 11337.00 11554.90 123.18
10777 44.9330 11437.80 11568.50 123.40
10778 44.9368 11389.90 11582.50 122.81
10779 44.9405 11395.40 11596.40 123.10
10780 44.9443 11313.60 11611.20 123.61
10781 44.9480 11434.40 11625.90 124.33
10782 44.9518 11317.00 11641.40 123.47
10783 44.9556 11657.70 11657.30 125.88
10784 44.9593 11337.20 11673.20 123.68
10785 44.9631 11588.10 11690.00 125.27
10786 44.9668 11263.50 11706.80 122.95
10787 44.9706 11565.10 11724.60 124.85
10788 44.9744 11381.90 11742.80 123.98
10789 44.9781 11613.10 11761.10 123.49
10790 44.9819 11494.20 11780.40 123.80
10791 44.9856 11734.90 11799.70 125.96
10792 44.9894 11284.60 11820.10 123.22
10793 44.9932 11750.20 11841.10 126.17
10794 44.9969 11470.20 11862.20 123.70
10795 45.0007 11789.30 11884.40 125.65
10796 45.0044 11502.90 11906.70 124.45
10797 45.0082 11656.70 11930.30 125.74
10798 45.0120 11520.00 11954.60 125.25
10799 45.0157 11835.70 11979.00 125.74
10800 45.0195 11589.10 12004.80 123.07
10801 45.0232 11863.60 12030.80 129.58
10802 45.0270 11691.00 12058.20 126.63
10803 45.0308 11886.40 12086.50 126.84
10804 45.0345 11477.50 12115.00 123.57
10805 45.0383 12083.10 12145.20 128.04
10806 45.0420 11836.70 12175.50 125.47
10807 45.0458 12120.30 12207.70 128.77
10808 45.0496 12042.50 12241.00 127.98
10809 45.0533 12019.10 12274.40 127.71
10810 45.0571 12133.80 12309.90 127.20
10811 45.0608 12221.70 12345.70 128.88
10812 45.0646 12140.50 12383.70 128.08
10813 45.0684 11995.50 12423.00 128.30
10814 45.0721 12051.00 12462.60 127.91
10815 45.0759 12389.90 12504.80 130.26
10816 45.0796 12269.80 12547.30 128.96
10817 45.0834 12448.50 12592.60 130.72
10818 45.0872 12163.90 12639.50 130.21
10819 45.0909 12304.80 12686.90 130.06
10820 45.0947 12207.20 12737.40 128.78
10821 45.0984 12570.50 12788.50 130.38
10822 45.1022 12481.30 12843.00 132.08
10823 45.1060 12427.60 12899.50 129.75
10824 45.1097 12188.70 12956.80 129.28
10825 45.1135 12485.20 13018.00 130.86
10826 45.1172 12344.00 13080.00 128.20
10827 45.1210 12744.30 13146.20 132.59
10828 45.1248 12518.60 13215.20 133.28
10829 45.1285 12911.20 13285.20 133.09
10830 45.1323 12664.20 13360.20 130.97
10831 45.1360 12843.10 13436.40 131.84
10832 45.1398 12870.80 13518.00 131.15
10833 45.1436 13109.60 13603.30 134.17
10834 45.1473 13013.00 13690.10 134.13
10835 45.1511 13130.80 13783.30 134.97
10836 45.1548 13095.80 13878.30 133.63
10837 45.1586 13283.30 13980.40 135.48
10838 45.1624 13017.10 14087.50 133.75
10839 45.1661 13381.50 14196.90 136.05
10840 45.1699 13259.40 14314.60 134.23
10841 45.1736 13665.70 14435.10 137.18
10842 45.1774 13475.50 14564.90 136.33
10843 45.1812 13817.20 14701.70 138.29
10844 45.1849 13844.00 14841.80 138.58
10845 45.1887 13939.90 14993.50 138.09
10846 45.1924 14081.30 15149.10 139.59
10847 45.1962 14130.00 15317.90 139.60
10848 45.1999 14127.50 15491.40 140.02
10849 45.2037 14561.60 15680.00 143.24
10850 45.2075 14399.30 15879.50 141.24
10851 45.2112 14732.40 16085.60 143.99
10852 45.2150 14660.70 16309.90 142.59
10853 45.2187 14969.00 16542.20 142.86
10854 45.2225 15025.50 16795.50 147.41
10855 45.2263 15347.20 17065.90 149.04
10856 45.2300 15468.80 17346.40 146.92
10857 45.2338 15865.80 17653.60 148.11
10858 45.2375 15477.00 17973.70 147.49
10859 45.2413 16326.50 18325.30 151.71
10860 45.2451 16258.80 18702.90 151.80
10861 45.2488 16711.20 19097.60 154.22
10862 45.2526 16930.40 19533.90 155.35
10863 45.2563 17620.50 19991.50 159.20
10864 45.2601 17617.50 20499.20 159.79
10865 45.2639 18325.60 21048.50 163.25
10866 45.2676 18246.30 21629.00 162.08
10867 45.2714 19453.00 22276.00 167.64
10868 45.2751 19662.70 22962.70 169.55
10869 45.2789 20786.30 23732.40 175.30
10870 45.2827 20998.10 24575.70 175.16
10871 45.2864 22315.20 25475.90 181.81
10872 45.2902 23112.00 26494.00 186.74
10873 45.2939 24629.00 27588.40 193.21
10874 45.2977 25647.40 28831.60 196.97
10875 45.3015 27485.70 30216.10 208.71
10876 45.3052 29009.30 31718.90 213.11
10877 45.3090 31281.10 33449.40 220.84
10878 45.3127 33159.60 35345.70 231.62
10879 45.3165 37159.60 37554.30 246.11
10880 45.3203 39666.40 40079.20 254.05
10881 45.3240 44985.70 42918.90 286.36
10882 45.3278 48247.90 46323.50 292.95
10883 45.3315 55154.60 50262.80 310.91
10884 45.3353 61255.70 55153.10 337.05
10885 45.3391 70838.70 61192.20 370.05
10886 45.3466 92487.40 78261.20 441.42
10887 45.3503 103562.00 90381.90 471.58
10888 45.3541 122025.00 106470.00 527.08
10889 45.3579 139681.00 127236.00 576.04
10890 45.3616 165794.00 152958.00 652.33
10891 45.3654 191871.00 186072.00 722.86
10892 45.3691 229021.00 225571.00 817.06
10893 45.3729 266522.00 273995.00 903.75
10894 45.3766 324360.00 328283.00 1044.65
10895 45.3804 379899.00 389685.00 1175.30
10896 45.3842 456794.00 453174.00 1342.45
10897 45.3879 520774.00 512074.00 1481.57
10898 45.3917 603578.00 563522.00 1659.48
10899 45.3954 641986.00 599640.00 1741.08
10900 45.3992 683066.00 618379.00 1814.64
10901 45.4030 672199.00 615783.00 1819.66
10902 45.4067 644025.00 592060.00 1735.78
10903 45.4105 570614.00 548310.00 1585.22
10904 45.4142 507913.00 492200.00 1461.63
10905 45.4180 424769.00 427737.00 1267.95
10906 45.4218 359036.00 363019.00 1113.33
10907 45.4255 300695.00 304322.00 1003.16
10908 45.4293 252171.00 250978.00 877.37
10909 45.4330 206247.00 206835.00 755.60
10910 45.4368 174402.00 169422.00 672.36
10911 45.4406 144596.00 139439.00 592.45
10912 45.4443 123991.00 116385.00 532.85
10913 45.4481 104578.00 97966.40 478.72
10914 45.4518 92827.20 84122.50 439.18
10915 45.4556 77794.20 73128.90 393.97
10916 45.4594 70176.50 64608.20 369.88
10917 45.4631 60446.70 58054.00 336.04
10918 45.4669 54567.90 52649.70 315.09
10919 45.4706 48072.10 48330.70 290.84
10920 45.4744 44106.60 44623.40 276.81
10921 45.4782 39563.60 41477.50 257.23
10922 45.4819 36376.70 38837.20 245.12
10923 45.4857 33398.50 36470.50 231.37
10924 45.4894 31238.40 34444.80 223.48
10925 45.4932 28885.00 32600.90 213.16
10926 45.4969 27452.80 31003.10 206.15
10927 45.5007 25771.50 29534.00 198.30
10928 45.5045 24858.40 28216.20 195.06
10929 45.5082 23418.40 27060.10 185.93
10930 45.5120 22855.20 25985.20 185.60
10931 45.5157 21526.70 25036.20 178.78
10932 45.5195 21148.40 24148.40 175.99
10933 45.5233 20469.90 23339.90 175.27
10934 45.5270 20332.10 22618.70 175.73
10935 45.5308 19201.90 21940.10 166.72
10936 45.5345 18927.00 21331.80 164.45
10937 45.5383 18180.80 20756.30 162.26
10938 45.5421 18352.70 20225.50 162.66
10939 45.5458 17854.70 19747.60 160.34
10940 45.5496 17902.30 19292.20 160.47
10941 45.5533 17401.70 18880.80 158.08
10942 45.5571 17085.40 18487.40 156.90
10943 45.5609 16702.40 18121.20 153.81
10944 45.5646 16815.70 17788.60 154.67
10945 45.5684 16073.00 17469.20 151.37
10946 45.5721 16057.10 17178.30 151.16
10947 45.5759 15710.80 16898.00 148.73
10948 45.5796 15804.00 16642.10 149.44
10949 45.5834 15407.90 16395.00 147.61
10950 45.5872 15448.40 16163.00 147.31
10951 45.5909 14975.20 15949.90 143.64
10952 45.5947 14934.50 15743.90 142.45
10953 45.5984 14712.50 15554.40 143.08
10954 45.6022 15015.80 15370.50 143.46
10955 45.6060 14573.40 15196.90 143.33
10956 45.6097 14674.80 15037.00 143.96
10957 45.6135 14289.10 14881.30 141.65
10958 45.6172 14365.10 14737.80 141.24
10959 45.6210 13572.30 14597.90 134.40
10960 45.6248 13978.00 14465.20 141.05
10961 45.6285 13802.80 14342.70 137.98
10962 45.6323 14152.90 14223.00 139.67
10963 45.6360 13708.40 14112.30 136.53
10964 45.6398 13872.90 14004.10 137.48
10965 45.6435 13369.50 13904.00 135.44
10966 45.6473 13703.20 13806.10 137.77
10967 45.6511 13284.70 13713.10 135.25
10968 45.6548 13275.60 13626.90 135.09
10969 45.6586 12969.00 13542.70 132.64
10970 45.6623 13150.10 13464.70 134.39
10971 45.6661 12940.70 13388.60 132.88
10972 45.6699 13224.80 13316.30 134.89
10973 45.6736 12826.40 13249.60 132.17
10974 45.6774 13228.00 13184.60 134.26
10975 45.6811 12739.70 13124.80 131.51
10976 45.6849 12881.70 13066.90 132.77
10977 45.6887 12529.90 13012.50 131.10
10978 45.6924 12808.50 12963.00 132.34
10979 45.6962 12845.00 12915.70 131.57
10980 45.6999 12782.00 12873.20 131.71
10981 45.7037 12534.70 12833.30 131.13
10982 45.7074 12843.90 12798.30 132.37
10983 45.7112 12522.40 12766.50 131.32
10984 45.7150 12729.80 12739.20 131.61
10985 45.7187 12400.10 12717.30 128.68
10986 45.7225 12678.10 12699.70 129.99
10987 45.7262 12675.70 12687.90 134.84
10988 45.7300 12824.80 12681.60 132.92
10989 45.7338 12378.80 12681.60 129.44
10990 45.7375 12518.80 12688.00 130.41
10991 45.7413 12493.80 12701.60 129.59
10992 45.7450 12894.10 12721.90 132.52
10993 45.7488 12618.30 12750.40 131.25
10994 45.7526 12793.20 12786.80 132.02
10995 45.7563 12854.60 12829.90 130.46
10996 45.7601 12743.90 12881.80 131.25
10997 45.7638 12677.40 12939.50 131.58
10998 45.7676 12903.00 13005.20 132.73
10999 45.7713 12621.60 13074.20 130.82
11000 45.7751 13151.40 13148.60 134.55
11001 45.7789 12934.20 13223.50 133.33
11002 45.7826 13154.90 13294.00 135.09
11003 45.7864 12705.40 13359.30 131.74
11004 45.7901 13338.70 13411.40 135.59
11005 45.7939 13120.40 13448.20 133.49
11006 45.7977 13468.40 13463.50 136.40
11007 45.8014 13127.70 13454.60 133.62
11008 45.8052 13367.00 13419.70 135.67
11009 45.8089 13061.40 13361.60 132.70
11010 45.8127 13071.20 13280.10 133.96
11011 45.8164 13108.10 13183.40 135.07
11012 45.8202 13160.90 13071.20 133.02
11013 45.8240 12981.90 12950.90 133.69
11014 45.8277 13198.70 12830.30 138.15
11015 45.8315 12663.60 12706.10 131.46
11016 45.8352 12860.30 12587.90 132.05
11017 45.8390 12542.40 12470.80 130.62
11018 45.8428 12485.40 12359.80 130.73
11019 45.8465 12112.40 12258.00 128.52
11020 45.8503 12265.90 12160.50 129.21
11021 45.8540 12032.30 12072.60 127.73
11022 45.8578 11771.80 11989.20 126.18
11023 45.8615 11580.00 11915.00 124.99
11024 45.8653 11702.10 11845.00 126.00
11025 45.8691 11474.90 11781.40 124.78
11026 45.8728 11487.90 11725.00 124.80
11027 45.8766 11375.90 11672.20 122.57
11028 45.8803 11404.10 11625.40 123.87
11029 45.8841 11512.80 11581.70 125.23
11030 45.8879 11297.40 11541.70 123.26
11031 45.8916 11242.80 11506.10 123.44
11032 45.8954 11426.90 11472.50 122.75
11033 45.8991 11226.60 11442.40 122.21
11034 45.9029 11340.70 11413.70 124.32
11035 45.9066 11099.30 11387.80 122.27
11036 45.9104 11102.40 11362.90 122.64
11037 45.9142 10913.70 11339.60 121.75
11038 45.9179 11164.30 11318.20 122.68
11039 45.9217 11090.60 11297.40 120.48
11040 45.9254 11206.70 11278.30 126.35
11041 45.9292 11022.10 11259.50 121.65
11042 45.9330 10967.40 11241.60 121.05
11043 45.9367 10840.80 11225.00 119.66
11044 45.9405 11204.30 11208.60 122.95
11045 45.9442 10858.10 11193.30 120.98
11046 45.9480 11244.80 11178.10 122.85
11047 45.9517 10844.30 11164.00 121.15
11048 45.9555 11067.80 11149.90 123.19
11049 45.9593 10989.40 11136.20 121.06
11050 45.9630 11092.60 11123.50 123.45
11051 45.9668 10817.60 11110.70 121.08
11052 45.9705 10944.10 11098.60 121.65
11053 45.9743 11068.50 11086.50 122.86
11054 45.9780 11100.40 11075.10 122.43
11055 45.9818 10713.60 11063.70 120.01
11056 45.9856 11169.70 11052.60 123.25
11057 45.9893 10756.30 11042.10 120.48
11058 45.9931 10983.60 11031.50 122.32
11059 45.9968 10845.20 11021.60 119.83
11060 46.0006 11054.30 11011.50 122.33
11061 46.0044 10930.30 11001.80 121.85
11062 46.0081 10896.90 10992.50 120.86
11063 46.0119 10779.10 10983.20 121.21
11064 46.0156 10877.60 10974.30 121.21
11065 46.0194 10578.80 10965.40 118.92
11066 46.0231 10754.90 10956.90 119.81
11067 46.0269 10608.50 10948.40 122.24
11068 46.0307 10948.90 10940.10 122.20
11069 46.0344 10709.50 10932.10 119.75
11070 46.0382 10927.00 10924.10 121.46
11071 46.0419 10704.20 10916.50 119.88
11072 46.0457 10672.80 10908.80 118.88
11073 46.0494 10771.40 10901.40 120.71
11074 46.0532 10979.70 10894.00 121.31
11075 46.0570 10591.70 10886.80 117.75
11076 46.0607 11011.10 10879.80 121.40
11077 46.0645 10641.60 10872.90 118.67
11078 46.0682 10795.10 10866.20 119.57
11079 46.0720 10555.70 10859.40 118.60
11080 46.0758 10999.10 10852.80 121.24
11081 46.0795 10796.10 10846.50 119.91
11082 46.0833 10829.80 10840.10 120.13
11083 46.0870 10665.40 10833.90 119.22
11084 46.0908 10808.50 10691.30 120.22
11085 46.0945 10695.60 10686.80 118.93
11086 46.0983 10759.60 10682.20 119.12
11087 46.1021 10655.00 10544.90 118.28
11088 46.1058 10964.00 10542.00 121.70
11089 46.1096 10592.80 10405.00 118.42
11090 46.1133 10938.50 10403.60 121.56
11091 46.1171 10732.20 10402.20 119.46
11092 46.1208 10688.70 10400.80 118.33
11093 46.1246 10621.00 10399.40 119.71
11094 46.1284 10751.10 10398.10 121.72
11095 46.1321 10722.70 10396.80 119.28
11096 46.1359 10801.60 10395.40 119.64
11097 46.1396 10329.60 10394.20 117.20
11098 46.1434 10851.10 10392.90 120.42
11099 46.1471 10352.20 10391.60 116.54
11100 46.1509 10659.70 10390.40 119.29
11101 46.1547 10548.60 10389.10 118.28
11102 46.1584 10611.30 10387.90 118.91
11103 46.1622 10367.50 10386.70 117.19
11104 46.1659 10871.20 10385.50 120.47
11105 46.1697 10556.70 10384.30 118.48
11106 46.1734 10702.40 10383.10 117.52
11107 46.1772 10601.70 10381.90 117.20
11108 46.1810 10761.90 10380.70 119.54
11109 46.1847 10602.60 10379.60 118.21
11110 46.1885 10559.40 10378.50 117.86
11111 46.1922 10456.90 10377.30 117.67
11112 46.1960 10441.10 10376.20 117.33
11113 46.1997 10421.20 10375.10 116.99
11114 46.2035 10680.60 10374.00 117.87
11115 46.2073 10445.50 10372.90 117.45
11116 46.2110 10733.40 10371.80 118.76
11117 46.2148 10545.80 10370.70 118.38
11118 46.2185 10636.80 10369.60 116.89
11119 46.2223 10456.60 10368.60 116.12
11120 46.2260 10706.90 10367.50 120.90
11121 46.2298 10328.30 10366.50 117.24
11122 46.2336 10536.50 10365.40 117.00
11123 46.2373 10368.80 10364.40 116.43
11124 46.2411 10407.00 10363.30 117.09
11125 46.2448 10476.60 10362.30 117.37
11126 46.2486 10432.00 10361.30 117.45
11127 46.2523 10378.80 10360.30 116.82
11128 46.2561 10574.80 10359.30 118.74
11129 46.2599 10153.50 10358.20 115.97
11130 46.2636 10513.70 10357.30 116.71
11131 46.2674 10242.00 10356.20 116.33
11132 46.2711 10301.00 10355.30 116.54
11133 46.2749 10453.00 10354.30 117.78
11134 46.2786 10732.40 10353.30 119.53
11135 46.2824 10263.60 10352.30 116.21
11136 46.2862 10528.20 10351.40 117.26
11137 46.2899 10363.70 10350.40 117.25
11138 46.2937 10517.50 10349.40 116.90
11139 46.2974 10277.30 10348.50 116.19
11140 46.3012 10570.00 10347.50 117.79
11141 46.3049 10306.60 10346.60 117.12
11142 46.3087 10314.90 10345.70 116.92
11143 46.3125 10221.40 10344.70 116.29
11144 46.3162 10245.30 10343.80 116.64
11145 46.3200 10242.50 10342.80 116.16
11146 46.3237 10401.30 10341.90 116.02
11147 46.3275 10414.90 10341.00 119.95
11148 46.3312 10454.40 10340.10 117.81
11149 46.3350 10247.70 10339.20 115.88
11150 46.3388 10256.50 10338.30 115.52
11151 46.3425 10175.30 10337.40 116.37
11152 46.3463 10401.90 10336.50 117.32
11153 46.3500 9993.17 10335.60 113.65
11154 46.3538 10420.70 10334.70 117.74
11155 46.3575 10292.80 10333.80 116.45
11156 46.3613 10592.70 10333.00 118.82
11157 46.3650 10076.80 10332.10 114.90
11158 46.3688 10384.50 10331.20 116.58
11159 46.3726 10115.10 10330.40 115.81
11160 46.3763 10358.50 10329.50 116.73
11161 46.3801 10307.00 10328.60 117.13
11162 46.3838 10439.10 10327.80 116.04
11163 46.3876 10429.10 10327.00 116.54
11164 46.3913 10520.30 10326.10 118.50
11165 46.3951 10225.70 10325.30 116.48
11166 46.3989 10307.00 10324.50 116.92
11167 46.4026 10486.90 10323.70 118.61
11168 46.4064 10491.20 10322.80 117.10
11169 46.4101 10288.50 10322.00 116.81
11170 46.4139 10546.20 10321.20 118.48
11171 46.4176 10355.40 10320.50 117.30
11172 46.4214 10453.80 10319.70 114.81
11173 46.4252 10285.60 10318.90 118.87
11174 46.4289 10340.40 10318.10 118.17
11175 46.4327 10463.40 10317.40 117.09
11176 46.4364 10310.00 10316.60 116.97
11177 46.4402 10268.10 10315.90 116.66
11178 46.4439 10110.10 10315.10 114.86
11179 46.4477 10073.90 10314.40 115.62
11180 46.4514 10449.80 10313.70 117.30
11181 46.4552 10167.20 10313.00 115.68
11182 46.4590 10584.10 10312.30 118.97
11183 46.4627 10278.60 10311.60 116.61
11184 46.4665 10230.00 10310.90 116.65
11185 46.4702 10341.50 10310.30 117.49
11186 46.4740 10357.60 10309.60 116.95
11187 46.4777 10301.40 10309.00 117.38
11188 46.4815 10464.00 10308.40 117.72
11189 46.4852 10031.10 10307.80 115.13
11190 46.4890 10407.10 10307.30 116.91
11191 46.4928 10087.80 10306.70 114.30
11192 46.4965 10469.90 10306.20 116.99
11193 46.5003 10192.00 10305.70 114.94
11194 46.5040 10506.10 10305.20 118.32
11195 46.5078 10293.50 10304.80 115.68
11196 46.5115 10594.10 10304.40 119.38
11197 46.5153 10361.90 10304.00 118.01
11198 46.5191 10566.90 10303.70 118.28
11199 46.5228 10309.40 10303.40 115.00
11200 46.5266 10513.70 10303.10 120.89
11201 46.5303 10356.40 10302.90 119.07
11202 46.5341 10471.00 10302.80 117.83
11203 46.5378 10243.80 10302.70 115.52
11204 46.5416 10393.50 10302.70 116.64
11205 46.5453 10214.10 10302.80 115.68
11206 46.5491 10581.00 10302.90 117.74
11207 46.5529 10245.30 10303.20 115.58
11208 46.5566 10531.80 10303.50 117.45
11209 46.5604 10348.80 10304.00 116.39
11210 46.5641 10520.30 10304.60 117.76
11211 46.5679 10188.10 10305.40 115.47
11212 46.5716 10691.40 10306.30 117.77
11213 46.5754 10494.80 10307.50 117.96
11214 46.5791 10467.50 10308.90 117.68
11215 46.5829 10266.10 10310.60 115.87
11216 46.5867 10372.00 10312.70 116.69
11217 46.5904 10226.20 10315.10 115.89
11218 46.5942 10427.20 10318.20 117.09
11219 46.5979 10196.00 10321.80 115.06
11220 46.6017 10476.70 10326.30 116.99
11221 46.6054 10519.20 10331.90 119.16
11222 46.6092 10657.50 10339.10 119.00
11223 46.6129 10581.30 10348.10 118.75
11224 46.6167 10606.50 10360.00 117.63
11225 46.6205 10518.30 10375.40 116.94
11226 46.6242 10573.00 10394.90 118.73
11227 46.6280 10432.60 10420.50 119.43
11228 46.6317 10587.30 10452.20 118.46
11229 46.6355 10543.20 10492.60 116.98
11230 46.6392 10773.50 10540.80 118.71
11231 46.6430 10610.20 10599.30 117.42
11232 46.6467 10475.80 10664.60 117.42
11233 46.6505 10603.40 10738.30 118.18
11234 46.6543 10670.10 10815.30 118.90
11235 46.6580 10477.40 10888.90 117.35
11236 46.6618 10795.30 10956.60 119.65
11237 46.6655 10552.00 11007.80 118.13
11238 46.6693 10765.80 11037.50 118.94
11239 46.6730 10528.30 11039.00 118.03
11240 46.6768 10741.30 11011.00 118.60
11241 46.6805 10630.90 10958.40 116.88
11242 46.6843 10890.20 10885.70 119.83
11243 46.6881 10600.30 10803.50 118.72
11244 46.6918 10474.20 10722.40 117.82
11245 46.6956 10436.70 10644.00 116.42
11246 46.6993 10548.00 10575.70 117.78
11247 46.7031 10494.40 10515.30 115.66
11248 46.7068 10542.80 10466.30 118.61
11249 46.7106 10246.90 10425.20 116.11
11250 46.7143 10576.50 10393.20 118.04
11251 46.7181 10381.10 10367.20 117.38
11252 46.7218 10435.50 10347.40 115.67
11253 46.7256 10622.70 10331.40 118.18
11254 46.7294 10756.90 10318.70 121.05
11255 46.7331 10580.40 10308.90 118.08
11256 46.7369 10566.80 10300.60 117.50
11257 46.7406 10332.00 10293.80 116.69
11258 46.7444 10489.30 10287.90 117.40
11259 46.7481 10230.80 10282.90 116.42
11260 46.7519 10522.00 10278.30 118.05
11261 46.7556 10103.70 10274.40 115.31
11262 46.7594 10454.50 10270.70 117.06
11263 46.7631 10385.10 10267.50 116.00
11264 46.7669 10396.80 10264.40 117.01
11265 46.7707 10172.50 10261.60 116.24
11266 46.7744 10491.30 10259.10 117.79
11267 46.7782 10207.50 10256.60 115.78
11268 46.7819 10266.50 10254.40 115.76
11269 46.7857 10327.10 10252.20 116.91
11270 46.7894 10392.40 10250.30 115.81
11271 46.7932 10221.80 10248.30 115.26
11272 46.7969 10488.00 10246.60 117.86
11273 46.8007 10242.80 10244.80 116.39
11274 46.8044 10373.10 10243.20 117.39
11275 46.8082 10395.10 10241.60 117.43
11276 46.8120 10177.10 10237.80 115.76
11277 46.8157 9965.21 10236.30 114.32
11278 46.8195 10283.40 10234.90 115.50
11279 46.8232 9947.24 10233.60 112.35
11280 46.8270 10528.90 10232.20 118.52
11281 46.8307 10106.60 10231.00 114.56
11282 46.8345 10366.20 10229.70 117.10
11283 46.8382 10236.30 10228.50 115.52
11284 46.8420 10264.90 10227.30 116.05
11285 46.8458 10252.10 10226.10 116.47
11286 46.8495 10249.60 10225.00 117.00
11287 46.8533 10252.80 10223.90 116.50
11288 46.8570 10409.50 10222.80 116.62
11289 46.8608 10049.10 10221.70 115.14
11290 46.8645 10355.40 10220.70 116.77
11291 46.8683 9998.03 10219.60 113.81
11292 46.8720 10200.00 10218.60 116.28
11293 46.8758 10243.20 10217.50 116.57
11294 46.8795 10294.20 10216.60 116.95
11295 46.8833 10032.20 10215.50 114.90
11296 46.8870 10332.70 10214.60 117.01
11297 46.8908 10208.50 10213.60 116.34
11298 46.8946 10254.00 10212.60 116.93
11299 46.8983 9981.78 10211.70 114.66
11300 46.9021 10286.10 10210.70 115.68
11301 46.9058 10396.70 10209.80 118.32
11302 46.9096 10250.80 10208.90 116.21
11303 46.9133 10109.00 10208.00 115.73
11304 46.9171 10411.80 10207.00 117.27
11305 46.9208 10244.60 10206.10 115.29
11306 46.9246 10154.90 10205.20 115.64
11307 46.9283 10093.00 10204.30 117.08
11308 46.9321 10201.10 10203.40 116.29
11309 46.9358 10223.20 10202.60 114.91
11310 46.9396 10050.10 10201.70 114.45
11311 46.9434 10016.00 10200.80 113.94
11312 46.9471 10193.10 10199.90 116.07
11313 46.9509 10011.40 10199.10 114.65
11314 46.9546 10202.40 10198.20 116.27
11315 46.9584 10176.30 10197.30 115.40
11316 46.9621 10236.90 10196.50 116.19
11317 46.9659 10041.50 10195.60 114.66
11318 46.9696 10166.20 10194.80 115.41
11319 46.9734 10109.10 10193.90 115.25
11320 46.9771 10278.10 10193.10 116.82
11321 46.9809 10055.30 10192.30 114.75
11322 46.9846 10132.40 10191.40 115.28
11323 46.9884 10025.80 10190.60 114.82
11324 46.9922 10307.70 10189.80 115.76
11325 46.9941 10196.90 10189.30 115.29
11326 46.9979 10013.60 10188.50 115.87
11327 47.0016 10164.50 10187.70 116.97
11328 47.0054 10368.60 10186.90 117.25
11329 47.0092 9957.34 10186.00 112.99
11330 47.0129 10350.40 10185.20 120.06
11331 47.0167 10051.10 10184.40 117.31
11332 47.0204 10277.70 10183.60 116.82
11333 47.0242 9978.41 10182.80 114.05
11334 47.0279 10187.70 10182.00 115.56
11335 47.0317 10019.80 10181.20 114.65
11336 47.0354 10269.80 10180.40 116.00
11337 47.0392 9867.07 10179.60 113.38
11338 47.0430 10243.20 10178.70 115.85
11339 47.0467 10057.80 10178.00 114.76
11340 47.0505 10355.90 10177.10 116.95
11341 47.0542 10024.80 10176.40 114.65
11342 47.0580 10237.90 10175.60 115.15
11343 47.0617 10154.40 10174.80 116.01
11344 47.0655 10034.80 10174.00 115.14
11345 47.0692 9990.66 10173.20 114.33
11346 47.0730 10301.50 10172.40 116.47
11347 47.0768 9952.12 10171.60 114.36
11348 47.0805 10065.20 10170.80 115.00
11349 47.0843 10100.90 10170.00 114.68
11350 47.0880 10139.80 10169.20 115.08
11351 47.0918 10192.40 10168.50 117.29
11352 47.0955 10356.10 10167.70 117.31
11353 47.0993 10078.50 10166.90 115.75
11354 47.1030 10193.90 10166.10 115.25
11355 47.1068 9982.63 10165.30 113.76
11356 47.1106 10271.60 10164.60 117.03
11357 47.1143 10159.60 10163.80 117.89
11358 47.1181 10137.90 10163.00 115.82
11359 47.1218 10129.30 10162.20 114.59
11360 47.1256 10188.60 10161.50 115.25
11361 47.1293 10126.40 10160.70 114.59
11362 47.1331 10249.20 10159.90 116.21
11363 47.1368 9954.91 10159.20 114.28
11364 47.1406 10020.40 10158.40 114.99
11365 47.1444 10119.00 10157.60 115.30
11366 47.1481 10185.90 10156.80 116.01
11367 47.1519 10038.90 10156.10 115.08
11368 47.1556 10208.80 10155.30 115.65
11369 47.1594 10059.00 10154.50 115.26
11370 47.1631 10041.90 10153.80 114.40
11371 47.1669 10029.10 10153.00 113.32
11372 47.1706 10176.80 10152.30 115.56
11373 47.1744 10005.80 10151.50 115.15
11374 47.1782 10331.60 10150.70 117.14
11375 47.1819 10178.90 10150.00 115.01
11376 47.1857 10142.10 10149.20 115.42
11377 47.1894 10002.90 10148.50 112.79
11378 47.1932 10226.60 10147.70 116.82
11379 47.1969 10002.50 10147.00 114.77
11380 47.2007 10262.20 10146.20 116.28
11381 47.2044 10003.70 10145.40 115.18
11382 47.2082 9958.71 10144.70 112.88
11383 47.2119 9955.75 10143.90 114.16
11384 47.2157 10241.80 10143.20 117.97
11385 47.2185 10051.80 10142.60 112.82
11386 47.2223 10142.40 10141.90 113.29
11387 47.2260 10155.20 10141.10 116.44
11388 47.2298 10264.80 10140.40 115.73
11389 47.2335 10118.70 10139.60 114.45
11390 47.2373 10277.30 10138.90 115.06
11391 47.2410 10142.80 10138.10 114.63
11392 47.2448 10105.60 10137.40 113.89
11393 47.2485 9997.38 10136.60 113.82
11394 47.2523 10254.70 10135.90 115.57
11395 47.2561 9972.11 10135.10 113.52
11396 47.2598 10132.20 10134.40 114.58
11397 47.2636 9957.69 10133.70 113.82
11398 47.2673 10320.60 10132.90 115.72
11399 47.2711 9991.66 10132.20 113.65
11400 47.2748 10357.50 10131.40 116.05
11401 47.2786 10044.50 10130.70 114.08
11402 47.2823 10338.80 10130.00 116.29
11403 47.2861 10080.30 10129.20 113.74
11404 47.2898 10243.90 10128.50 115.14
11405 47.2936 9917.82 10127.80 112.90
11406 47.2974 10240.00 10127.00 115.34
11407 47.3011 9961.69 10126.30 113.10
11408 47.3049 10317.10 10125.50 116.10
11409 47.3086 10129.40 10124.80 114.36
11410 47.3124 10185.80 10124.10 114.76
11411 47.3161 10232.80 10123.40 115.50
11412 47.3199 10265.70 10122.60 115.15
11413 47.3236 10094.90 10121.90 114.31
11414 47.3274 10154.20 10121.20 116.43
11415 47.3311 9968.72 10120.40 113.39
11416 47.3349 10309.50 10119.70 115.82
11417 47.3386 10254.00 10119.00 115.29
11418 47.3424 10441.50 10118.20 116.17
11419 47.3462 10151.20 10117.50 115.04
11420 47.3499 10269.10 10116.80 115.09
11421 47.3537 10080.10 10116.00 114.29
11422 47.3574 10144.10 10115.30 114.74
11423 47.3612 9974.80 10114.60 112.69
11424 47.3649 10225.50 10113.90 115.18
11425 47.3687 10067.50 10113.20 114.64
11426 47.3724 10129.10 10112.40 114.79
11427 47.3762 10223.60 10111.70 115.57
11428 47.3799 10188.40 10110.90 115.58
11429 47.3837 10105.60 10110.20 113.73
11430 47.3874 10329.00 10109.30 116.59
11431 47.3912 10361.40 10108.60 116.14
11432 47.3950 10215.60 10107.60 115.28
11433 47.3987 10074.90 10106.90 114.26
11434 47.4025 10330.50 10106.20 116.42
11435 47.4062 10133.10 10105.50 114.92
11436 47.4100 10295.30 10104.80 116.52
11437 47.4137 10064.90 10104.10 114.57
11438 47.4175 10176.80 10103.30 114.97
11439 47.4212 10040.80 10102.60 113.25
11440 47.4250 10347.40 10101.90 117.38
11441 47.4287 10204.10 10101.20 116.40
11442 47.4325 10195.10 10100.50 115.24
11443 47.4363 10247.10 10099.80 115.46
11444 47.4400 10133.20 10099.10 114.27
11445 47.4438 10063.90 10098.40 114.42
11446 47.4475 10118.90 10097.70 114.67
11447 47.4513 9972.90 10097.00 114.03
11448 47.4550 10293.60 10096.30 115.65
11449 47.4588 10005.90 10095.60 113.82
11450 47.4625 10072.50 10094.90 114.56
11451 47.4663 9874.26 10094.10 113.56
11452 47.4700 10102.10 10093.50 115.21
11453 47.4738 9939.12 10092.70 114.39
11454 47.4776 10080.50 10092.00 114.59
11455 47.4813 9979.55 10091.30 114.77
11456 47.4851 10146.90 10090.60 114.40
11457 47.4888 10076.30 10089.90 114.57
11458 47.4926 10235.80 10089.20 115.29
11459 47.4963 10085.70 10088.50 114.62
11460 47.5001 9997.38 10087.80 113.63
11461 47.5038 9957.17 10087.20 113.59
11462 47.5076 10059.60 10086.40 114.13
11463 47.5114 9964.58 10085.70 114.26
11464 47.5151 10155.00 10085.10 116.08
11465 47.5189 10078.30 10084.40 114.72
11466 47.5226 9989.75 10083.70 112.92
11467 47.5264 10032.80 10083.00 115.99
11468 47.5301 10048.30 10082.30 114.76
11469 47.5339 9928.23 10081.60 113.82
11470 47.5376 10233.30 10080.90 115.52
11471 47.5414 10142.90 10080.20 114.87
11472 47.5451 10108.90 10079.50 114.91
11473 47.5489 9918.64 10078.80 113.11
11474 47.5527 10244.10 10078.10 115.56
11475 47.5564 9981.80 10077.40 114.39
11476 47.5602 9985.86 10076.70 114.34
11477 47.5639 9989.92 10076.10 113.49
11478 47.5677 10000.50 10075.40 114.23
11479 47.5714 9898.73 10074.70 113.97
11480 47.5752 10186.50 10074.00 115.34
11481 47.5789 9944.83 10073.30 114.14
11482 47.5827 10190.00 10072.60 115.81
11483 47.5865 9865.72 10071.90 113.33
11484 47.5902 10180.50 10071.30 115.61
11485 47.5940 10011.00 10070.60 112.79
11486 47.5977 10177.30 10069.90 115.46
11487 47.6015 9997.56 10069.20 113.61
11488 47.6052 10231.40 10068.50 116.54
11489 47.6090 9924.42 10067.80 112.88
11490 47.6127 10205.40 10067.20 115.84
11491 47.6165 9901.69 10066.50 113.85
11492 47.6203 10151.00 10065.80 114.74
11493 47.6240 9990.15 10065.10 113.61
11494 47.6278 10274.60 10064.40 118.39
11495 47.6315 9816.52 10063.80 113.82
11496 47.6353 10021.50 10063.10 113.72
11497 47.6390 10111.10 10062.40 114.27
11498 47.6428 10036.60 10061.70 114.10
11499 47.6465 9892.21 10061.10 113.18
11500 47.6503 10021.60 10060.40 114.26
11501 47.6541 9859.43 10059.70 113.15
11502 47.6578 10209.00 10059.00 115.59
11503 47.6616 9930.87 10058.30 113.76
11504 47.6653 10047.00 10057.70 114.96
11505 47.6691 9863.19 10057.00 113.64
11506 47.6728 9905.11 10056.30 113.43
11507 47.6766 10022.70 10055.70 114.76
11508 47.6803 10163.70 10055.00 114.79
11509 47.6841 9979.64 10054.30 113.38
11510 47.6879 9890.11 10053.60 112.89
11511 47.6916 10016.10 10053.00 113.81
11512 47.6954 10048.80 10052.30 113.32
11513 47.6991 9749.96 10051.60 111.73
11514 47.7029 10041.80 10051.00 113.78
11515 47.7066 9975.79 10050.30 113.93
11516 47.7104 9868.34 10049.60 112.11
11517 47.7141 9791.44 10049.00 112.44
11518 47.7179 10060.50 10048.30 114.11
11519 47.7217 9920.95 10047.60 111.87
11520 47.7254 10047.00 10047.00 114.27
11521 47.7292 9990.12 10046.30 114.79
11522 47.7329 9986.28 10045.70 113.60
11523 47.7367 9884.96 10045.00 112.70
11524 47.7404 10053.10 10044.30 113.86
11525 47.7442 9895.75 10043.70 113.00
11526 47.7479 9981.24 10043.00 113.76
11527 47.7517 9946.59 10042.40 113.24
11528 47.7555 9879.15 10041.70 112.50
11529 47.7592 10170.70 10041.00 115.37
11530 47.7630 10120.70 10040.40 114.08
11531 47.7667 9967.06 10039.70 113.19
11532 47.7705 10270.40 10039.10 115.16
11533 47.7742 9951.61 10038.40 113.89
11534 47.7780 10016.00 10037.70 114.07
11535 47.7818 9919.86 10037.10 113.08
11536 47.7855 9977.99 10036.40 113.63
11537 47.7893 9966.19 10035.80 113.51
11538 47.7930 9978.82 10035.10 113.51
11539 47.7968 9966.22 10034.50 113.54
11540 47.8005 10080.20 10033.80 113.76
11541 47.8043 9766.59 10033.20 112.39
11542 47.8081 9937.98 10032.50 113.84
11543 47.8118 9907.72 10031.90 113.08
11544 47.8156 9979.13 10031.20 113.95
11545 47.8193 9761.19 10030.60 112.32
11546 47.8231 9774.04 10029.90 111.30
11547 47.8268 10101.10 10029.30 115.87
11548 47.8306 10130.70 10028.60 115.57
11549 47.8343 9972.57 10028.00 113.24
11550 47.8381 10037.50 10027.30 113.80
11551 47.8419 9752.33 10026.70 112.45
11552 47.8456 10086.30 10026.00 115.05
11553 47.8494 9804.90 10025.40 112.52
11554 47.8531 10103.90 10024.80 114.28
11555 47.8569 9932.17 10024.10 113.44
11556 47.8606 9924.03 10023.50 113.65
11557 47.8644 10055.40 10022.80 114.29
11558 47.8682 10075.10 10022.20 114.40
11559 47.8719 10066.60 10021.50 114.09
11560 47.8757 9961.24 10020.90 113.81
11561 47.8794 9855.02 10020.30 112.86
11562 47.8832 10102.80 10019.60 114.47
11563 47.8869 9900.48 10019.00 113.61
11564 47.8907 10084.50 10018.40 114.54
11565 47.8944 9949.52 10017.70 113.99
11566 47.8982 10183.80 10017.10 114.77
11567 47.9020 9787.88 10016.40 111.97
11568 47.9057 10190.40 10015.80 116.20
11569 47.9095 10039.10 10015.20 113.75
11570 47.9132 10257.70 10014.50 116.34
11571 47.9170 9793.34 10013.90 112.50
11572 47.9207 10036.70 10013.30 114.06
11573 47.9245 9648.50 10012.60 110.95
11574 47.9283 10152.30 10012.00 116.87
11575 47.9320 10149.50 10011.40 115.01
11576 47.9358 10232.00 10010.70 115.19
11577 47.9395 10045.60 10010.10 114.55
11578 47.9433 10011.70 10009.50 113.75
11579 47.9470 9996.94 10008.90 114.22
11580 47.9508 10185.30 10008.20 115.00
11581 47.9546 9959.91 10007.60 113.86
11582 47.9583 10014.50 10007.00 114.22
11583 47.9621 9993.38 10006.30 114.26
11584 47.9658 10143.70 10025.70 114.81
11585 47.9696 9783.42 10025.20 112.28
11586 47.9733 10125.00 10024.80 115.14
11587 47.9771 9982.37 10024.40 114.24
11588 47.9809 10125.40 10024.00 114.77
11589 47.9846 9959.27 10023.60 113.60
11590 47.9884 10075.50 10023.20 113.81
11591 47.9921 10089.90 10022.80 114.82
11592 47.9959 10030.10 10022.40 114.02
11593 47.9996 9934.87 10061.10 113.66
11594 48.0034 10153.40 10061.10 115.15
11595 48.0072 10121.00 10061.10 115.34
11596 48.0109 10015.40 10061.20 113.98
11597 48.0147 9958.33 10061.20 114.33
11598 48.0184 10039.00 10061.30 113.91
11599 48.0222 9830.66 10061.30 111.83
11600 48.0259 10264.90 10061.40 115.80
11601 48.0297 9854.94 10061.50 113.93
11602 48.0335 10206.70 10061.60 115.49
11603 48.0372 9972.72 10061.70 113.78
11604 48.0410 9976.60 10061.90 113.89
11605 48.0447 9804.84 10062.00 113.20
11606 48.0485 10197.30 10062.20 115.51
11607 48.0522 9977.77 10062.30 114.64
11608 48.0560 10046.00 10062.50 114.72
11609 48.0598 9907.09 10062.70 114.34
11610 48.0635 9834.42 10062.90 113.07
11611 48.0673 10011.50 10063.10 114.71
11612 48.0710 10054.10 10063.40 114.98
11613 48.0748 10126.30 10064.10 115.61
11614 48.0785 10306.90 10064.30 116.64
11615 48.0823 9955.37 10064.60 114.54
11616 48.0861 9973.62 10064.90 114.26
11617 48.0898 9932.73 10065.20 113.10
11618 48.0936 10168.70 10065.60 116.14
11619 48.0973 9892.27 10065.90 113.71
11620 48.1011 10022.50 10066.30 114.22
11621 48.1048 9948.12 10066.70 113.85
11622 48.1086 10115.40 10067.10 115.18
11623 48.1124 10128.90 10067.60 115.19
11624 48.1161 10219.90 10068.00 115.18
11625 48.1199 10077.60 10068.50 114.74
11626 48.1236 10016.50 10069.00 112.52
11627 48.1274 10122.60 10069.50 117.09
11628 48.1311 10131.00 10070.00 115.81
11629 48.1349 9812.44 10070.60 111.85
11630 48.1387 10070.50 10071.10 113.93
11631 48.1424 10115.30 10071.70 114.35
11632 48.1462 10118.30 10072.40 114.85
11633 48.1499 10118.60 10073.00 114.71
11634 48.1537 9939.78 10073.70 113.54
11635 48.1574 9925.13 10074.40 114.11
11636 48.1612 9974.32 10075.10 114.55
11637 48.1650 9862.85 10075.90 112.99
11638 48.1687 10107.70 10076.60 114.92
11639 48.1725 9981.40 10077.50 114.07
11640 48.1762 10147.90 10078.30 114.78
11641 48.1800 9848.36 10079.20 113.11
11642 48.1838 10100.50 10080.10 114.50
11643 48.1875 9869.95 10081.00 112.92
11644 48.1913 10189.40 10082.00 115.56
11645 48.1950 9971.34 10083.00 114.54
11646 48.1988 10139.10 10084.00 115.07
11647 48.2025 10018.00 10085.00 114.44
11648 48.2063 10170.90 10086.20 116.20
11649 48.2101 10072.10 10087.30 115.06
11650 48.2138 10066.60 10088.50 114.83
11651 48.2176 10052.60 10089.70 114.43
11652 48.2213 10102.40 10091.00 113.94
11653 48.2251 9991.46 10092.30 114.28
11654 48.2288 10128.00 10093.60 115.87
11655 48.2326 9842.68 10095.00 113.58
11656 48.2364 10019.10 10096.40 114.34
11657 48.2401 10035.50 10097.90 114.22
11658 48.2439 10142.40 10099.50 115.10
11659 48.2476 10090.90 10101.00 114.37
11660 48.2514 10071.70 10102.70 114.60
11661 48.2551 10084.00 10104.30 115.24
11662 48.2589 10108.90 10106.10 114.72
11663 48.2627 10021.70 10107.90 114.16
11664 48.2664 10185.00 10109.70 115.85
11665 48.2702 10041.60 10111.70 114.59
11666 48.2739 9918.44 10113.60 113.78
11667 48.2777 9996.66 10115.70 114.24
11668 48.2815 10111.50 10117.80 115.41
11669 48.2852 10096.90 10120.00 114.90
11670 48.2890 10020.10 10122.20 114.27
11671 48.2927 10150.50 10124.50 115.16
11672 48.2965 10126.70 10127.00 115.45
11673 48.3002 9832.27 10129.40 113.56
11674 48.3040 10056.80 10132.00 113.71
11675 48.3078 10109.50 10134.70 115.92
11676 48.3115 9758.44 10137.30 112.34
11677 48.3153 10169.10 10140.20 115.33
11678 48.3190 10242.10 10143.10 116.05
11679 48.3228 9945.42 10146.10 113.09
11680 48.3266 10039.80 10149.30 114.42
11681 48.3303 10126.60 10152.50 116.41
11682 48.3341 10346.20 10155.80 116.45
11683 48.3378 10067.50 10159.20 114.03
11684 48.3416 10177.40 10162.80 115.46
11685 48.3453 9849.20 10166.40 113.41
11686 48.3491 10104.10 10170.30 114.79
11687 48.3529 10156.70 10174.30 115.87
11688 48.3566 10213.60 10178.30 116.42
11689 48.3604 9847.72 10182.60 113.28
11690 48.3641 10380.40 10186.90 117.40
11691 48.3679 9932.18 10191.40 114.01
11692 48.3716 10224.30 10196.10 115.90
11693 48.3754 10042.60 10201.00 114.33
11694 48.3792 10093.10 10206.10 114.34
11695 48.3829 9962.76 10211.20 114.32
11696 48.3867 10024.00 10216.70 114.20
11697 48.3904 9850.30 10222.20 113.76
11698 48.3942 10107.70 10228.10 114.56
11699 48.3980 10047.10 10234.20 114.62
11700 48.4017 10234.10 10240.30 116.10
11701 48.4055 10102.30 10246.90 115.68
11702 48.4092 10220.20 10253.50 115.57
11703 48.4130 10110.20 10260.60 115.54
11704 48.4168 10196.80 10268.00 115.40
11705 48.4205 10098.90 10275.50 114.96
11706 48.4243 10251.20 10283.40 114.90
11707 48.4280 10160.80 10291.50 117.68
11708 48.4318 10263.90 10300.10 116.50
11709 48.4355 10138.60 10308.90 115.05
11710 48.4393 10348.60 10318.20 116.59
11711 48.4431 10198.30 10328.00 116.13
11712 48.4468 10354.00 10337.90 116.92
11713 48.4506 10301.90 10348.50 116.61
11714 48.4543 10303.20 10359.20 116.58
11715 48.4581 10287.10 10370.80 116.11
11716 48.4619 10500.80 10382.90 118.21
11717 48.4656 10215.50 10395.10 115.47
11718 48.4694 10262.40 10408.30 116.12
11719 48.4731 10343.00 10421.70 116.26
11720 48.4769 10287.20 10436.20 116.87
11721 48.4806 10391.60 10450.90 117.30
11722 48.4844 10564.50 10466.70 117.45
11723 48.4882 10324.80 10483.30 116.59
11724 48.4919 10503.00 10500.30 117.85
11725 48.4957 10414.20 10518.60 117.60
11726 48.4994 10388.10 10537.40 116.93
11727 48.5032 10217.70 10557.60 115.94
11728 48.5070 10459.30 10578.90 117.96
11729 48.5107 10259.50 10600.80 116.64
11730 48.5145 10606.70 10624.50 118.30
11731 48.5182 10604.40 10648.80 118.56
11732 48.5220 10361.60 10675.10 115.42
11733 48.5257 10616.10 10702.30 119.95
11734 48.5295 10857.80 10731.80 121.26
11735 48.5333 10684.60 10763.00 119.41
11736 48.5370 10885.30 10795.30 120.13
11737 48.5408 10655.90 10830.50 119.26
11738 48.5445 10936.00 10866.90 119.95
11739 48.5483 10699.40 10906.60 118.76
11740 48.5521 11013.00 10949.00 121.13
11741 48.5558 10791.60 10993.10 119.94
11742 48.5596 11123.30 11041.40 120.89
11743 48.5633 10895.60 11091.60 120.37
11744 48.5671 11199.00 11147.00 121.72
11745 48.5708 11012.40 11204.70 121.74
11746 48.5746 11443.30 11268.50 123.93
11747 48.5784 11329.50 11337.30 122.79
11748 48.5821 11656.10 11409.40 125.04
11749 48.5859 11471.40 11489.50 123.93
11750 48.5896 12110.70 11573.90 126.18
11751 48.5934 11889.60 11667.90 127.15
11752 48.5972 12310.60 11770.30 129.21
11753 48.6009 12375.50 11879.00 129.79
11754 48.6047 12789.60 12000.90 131.79
11755 48.6084 12600.30 12131.10 131.35
11756 48.6122 13208.90 12277.80 134.25
11757 48.6160 13160.10 12439.90 133.89
11758 48.6197 13665.90 12614.50 137.64
11759 48.6235 13997.00 12813.80 136.81
11760 48.6272 14400.30 13030.30 142.69
11761 48.6310 14733.40 13280.30 144.24
11762 48.6348 15458.00 13563.60 147.26
11763 48.6385 15364.60 13879.40 146.74
11764 48.6423 16434.40 14254.60 150.98
11765 48.6460 16742.40 14683.00 153.10
11766 48.6498 17876.40 15207.80 158.71
11767 48.6535 18467.30 15826.40 162.03
11768 48.6573 19182.30 16605.30 165.69
11769 48.6611 19957.10 17575.10 169.09
11770 48.6648 21012.10 18753.30 174.78
11771 48.6686 22434.00 20261.40 180.41
11772 48.6723 23907.60 22086.30 188.25
11773 48.6761 25075.00 24387.60 193.07
11774 48.6799 27217.60 27187.00 202.99
11775 48.6836 28746.00 30432.30 210.67
11776 48.6874 30925.00 34324.10 219.18
11777 48.6911 33367.30 38630.60 230.46
11778 48.6949 36614.60 43496.00 241.73
11779 48.6987 39616.90 48600.00 254.72
11780 48.7024 43718.10 53503.60 269.08
11781 48.7062 48426.70 58099.00 290.50
11782 48.7099 54471.10 61895.90 311.92
11783 48.7137 60776.20 65120.90 333.94
11784 48.7174 68269.00 67885.60 358.03
11785 48.7212 74318.10 70726.00 378.82
11786 48.7250 80865.30 73818.30 397.36
11787 48.7287 84615.60 77033.50 417.82
11788 48.7325 88428.80 80128.40 423.53
11789 48.7362 86386.90 82235.80 414.47
11790 48.7400 85064.40 82605.90 410.34
11791 48.7438 79631.00 80551.70 395.10
11792 48.7475 75158.80 76219.00 380.00
11793 48.7513 67311.40 69957.10 356.46
11794 48.7550 61488.20 62926.80 335.97
11795 48.7588 53857.20 55514.30 308.20
11796 48.7626 48950.30 48467.60 291.19
11797 48.7663 42965.40 42250.00 268.91
11798 48.7701 38832.80 36681.30 252.46
11799 48.7738 33875.30 32089.90 231.79
11800 48.7776 31111.40 28183.60 219.98
11801 48.7814 27695.70 25031.50 205.34
11802 48.7851 25715.20 22579.20 197.38
11803 48.7889 23258.30 20591.80 186.02
11804 48.7926 21610.90 19068.20 177.43
11805 48.7964 19893.50 17836.20 167.78
11806 48.8002 18935.20 16859.10 163.97
11807 48.8039 17535.30 16093.20 157.25
11808 48.8077 17103.90 15448.30 156.07
11809 48.8114 15911.60 14925.00 147.26
11810 48.8152 15496.50 14468.70 146.89
11811 48.8189 14574.50 14086.50 141.24
11812 48.8227 14443.00 13744.10 139.00
11813 48.8265 13634.20 13443.50 135.78
11814 48.8302 13580.20 13183.50 137.79
11815 48.8340 12776.30 12945.10 130.52
11816 48.8377 12773.80 12737.40 130.55
11817 48.8415 12455.30 12544.80 128.78
11818 48.8453 12484.00 12371.20 128.82
11819 48.8490 11936.40 12217.70 126.36
11820 48.8528 11928.10 12074.40 126.10
11821 48.8565 11671.70 11946.90 124.76
11822 48.8603 11853.70 11827.20 124.93
11823 48.8641 11702.00 11717.50 125.32
11824 48.8678 11649.30 11619.30 124.17
11825 48.8716 11325.70 11526.30 122.62
11826 48.8753 11562.20 11442.80 124.29
11827 48.8791 11039.20 11363.30 120.57
11828 48.8829 11251.40 11289.70 121.83
11829 48.8866 10888.80 11223.10 119.62
11830 48.8904 11064.40 11159.50 120.28
11831 48.8941 10956.80 11101.80 120.48
11832 48.8979 11034.70 11046.30 120.86
11833 48.9017 10937.90 10994.60 119.63
11834 48.9054 10784.00 10947.40 119.57
11835 48.9092 10974.80 10902.00 120.05
11836 48.9129 10845.40 10860.50 119.30
11837 48.9167 10683.60 10820.40 118.78
11838 48.9205 10835.50 10782.70 118.90
11839 48.9242 10462.20 10748.10 115.21
11840 48.9280 10619.30 10714.50 120.51
11841 48.9317 10331.60 10683.70 117.34
11842 48.9355 10312.80 10653.70 116.18
11843 48.9392 10525.60 10626.20 117.51
11844 48.9430 10490.20 10599.30 117.48
11845 48.9468 10347.70 10573.90 116.86
11846 48.9505 10527.80 10550.40 117.70
11847 48.9543 10162.50 10527.50 114.79
11848 48.9580 10444.60 10506.30 117.68
11849 48.9618 10449.60 10485.60 117.49
11850 48.9656 10515.80 10465.90 117.75
11851 48.9693 10333.50 10447.60 116.01
11852 48.9731 10592.80 10429.80 118.17
11853 48.9768 10276.10 10413.20 116.52
11854 48.9806 10422.10 10397.00 117.11
11855 48.9844 10236.60 10381.50 116.03
11856 48.9881 10177.10 10367.20 115.62
11857 48.9919 10333.90 10353.10 116.73
11858 48.9956 10339.00 10340.00 116.47
11859 48.9994 10307.80 10327.20 114.90
11860 49.0032 10459.80 10315.00 117.34
11861 49.0069 10308.10 10303.60 117.12
11862 49.0107 10272.10 10292.50 115.96
11863 49.0144 10085.60 10282.10 115.21
11864 49.0182 10355.30 10272.00 117.28
11865 49.0220 10147.10 10262.40 115.35
11866 49.0257 10479.50 10253.40 116.96
11867 49.0295 10153.70 10244.70 117.71
11868 49.0332 10370.20 10236.70 117.52
11869 49.0370 10213.10 10229.00 116.23
11870 49.0408 10194.50 10221.60 115.89
11871 49.0445 10257.80 10215.00 116.28
11872 49.0483 10151.90 10208.60 115.78
11873 49.0520 10123.70 10202.80 115.43
11874 49.0558 10055.20 10197.40 115.11
11875 49.0596 9999.43 10192.50 115.23
11876 49.0633 10323.80 10188.30 117.13
11877 49.0671 10222.40 10184.50 115.71
11878 49.0708 10309.90 10181.50 117.11
11879 49.0746 10135.40 10179.00 116.01
11880 49.0784 10392.90 10177.30 117.42
11881 49.0821 10215.80 10176.30 116.30
11882 49.0859 10164.20 10176.20 115.95
11883 49.0896 9892.16 10176.90 114.03
11884 49.0934 10426.40 10178.50 117.20
11885 49.0972 9951.60 10181.20 114.68
11886 49.1009 10191.50 10184.80 115.77
11887 49.1047 10133.00 10189.60 115.79
11888 49.1084 10253.70 10195.40 116.73
11889 49.1122 9896.55 10202.50 114.02
11890 49.1159 10113.00 10210.60 115.65
11891 49.1197 10123.20 10220.10 115.81
11892 49.1235 10190.10 10230.60 115.68
11893 49.1272 10245.40 10241.90 117.74
11894 49.1310 10444.40 10254.40 117.48
11895 49.1347 10142.70 10267.10 115.44
11896 49.1385 10103.40 10280.40 114.89
11897 49.1423 10063.00 10293.70 114.39
11898 49.1460 10300.90 10305.80 116.44
11899 49.1498 9901.54 10317.00 113.85
11900 49.1535 10209.00 10325.90 115.87
11901 49.1573 10131.90 10332.20 114.69
11902 49.1611 10354.90 10335.20 117.33
11903 49.1648 10284.50 10334.30 116.38
11904 49.1686 10294.30 10329.40 116.62
11905 49.1723 10174.70 10320.90 115.41
11906 49.1761 10090.00 10308.50 114.94
11907 49.1799 10243.20 10293.20 116.32
11908 49.1836 10155.10 10276.10 115.81
11909 49.1874 10145.60 10256.90 115.67
11910 49.1911 10099.30 10237.40 115.79
11911 49.1949 10062.70 10217.00 115.08
11912 49.1987 10247.80 10196.70 116.28
11913 49.2024 9949.96 10177.50 114.15
11914 49.2062 10403.70 10158.40 117.59
11915 49.2099 9922.83 10140.80 114.34
11916 49.2137 10174.80 10123.70 115.97
11917 49.2175 9938.63 10107.70 113.71
11918 49.2212 10073.70 10093.10 114.63
11919 49.2250 9848.15 10079.30 112.67
11920 49.2287 10014.60 10066.90 116.81
11921 49.2325 9769.24 10055.10 113.16
11922 49.2363 10106.00 10044.30 114.76
11923 49.2400 9786.37 10034.60 113.00
11924 49.2438 9883.70 10025.50 113.77
11925 49.2475 9748.63 10017.40 112.36
11926 49.2513 9944.28 10009.80 114.53
11927 49.2551 9857.09 10002.80 114.08
11928 49.2588 9922.05 9996.58 114.47
11929 49.2626 9764.21 9990.66 113.08
11930 49.2663 10032.00 9985.34 114.95
11931 49.2701 9835.75 9980.27 113.44
11932 49.2739 9875.50 9975.57 113.49
11933 49.2776 9808.05 9971.29 113.80
11934 49.2814 9939.16 9967.17 114.24
11935 49.2851 9630.73 9963.40 112.64
11936 49.2889 9899.90 9959.75 114.24
11937 49.2927 9773.70 9956.29 112.57
11938 49.2964 9951.11 9953.08 113.74
11939 49.3002 9733.27 9949.95 112.79
11940 49.3039 9767.71 9947.03 113.32
11941 49.3077 9707.67 9944.15 113.21
11942 49.3115 10005.30 9941.39 114.61
11943 49.3152 9773.18 9938.80 112.86
11944 49.3190 10020.50 9936.23 114.27
11945 49.3227 9562.31 9933.82 110.93
11946 49.3265 9886.58 9931.42 114.26
11947 49.3303 9652.27 9929.10 114.04
11948 49.3340 9710.62 9926.90 112.19
11949 49.3378 9596.54 9924.71 111.81
11950 49.3415 9845.07 9922.64 113.44
11951 49.3453 9895.80 9920.57 114.01
11952 49.3491 10004.10 9918.56 114.72
11953 49.3528 9853.81 9916.64 113.34
11954 49.3566 10078.50 9914.73 113.76
11955 49.3603 9720.29 9912.91 112.92
11956 49.3641 9915.09 9911.08 113.99
11957 49.3679 9506.72 9909.30 111.32
11958 49.3716 9969.84 9907.60 114.03
11959 49.3754 9714.18 9905.89 113.20
11960 49.3791 9744.52 9904.26 113.14
11961 49.3829 9619.39 9902.63 111.13
11962 49.3867 10110.80 9901.02 115.33
11963 49.3904 9541.64 9899.49 111.72
11964 49.3942 9785.51 9897.95 113.38
11965 49.3979 9765.85 9896.47 113.56
11966 49.4017 9870.13 9894.99 113.82
11967 49.4055 9816.73 9893.53 113.07
11968 49.4092 9884.04 9892.14 114.57
11969 49.4130 9534.13 9890.73 111.87
11970 49.4167 9689.12 9889.38 112.98
11971 49.4205 9771.64 9888.02 113.04
11972 49.4243 9790.81 9886.68 112.24
11973 49.4280 9838.07 9885.40 115.65
11974 49.4318 9815.13 9884.10 114.34
11975 49.4355 9615.11 9882.86 112.33
11976 49.4393 9885.30 9881.60 113.73
11977 49.4431 9835.16 9880.36 113.78
11978 49.4468 9840.47 9879.18 114.06
11979 49.4506 9823.11 9877.97 114.40
11980 49.4543 9874.86 9856.97 114.22
11981 49.4581 9555.21 9856.00 111.45
11982 49.4619 9764.17 9855.05 113.40
11983 49.4656 9824.47 9854.13 113.94
11984 49.4694 9970.08 9853.20 114.39
11985 49.4731 9644.67 9852.31 112.64
11986 49.4769 9933.50 9851.40 115.22
11987 49.4807 9707.28 9850.50 112.80
11988 49.4844 9920.59 9849.65 114.53
11989 49.4882 9718.20 9810.01 112.73
11990 49.4919 9832.04 9809.55 113.90
11991 49.4957 9803.80 9809.08 113.77
11992 49.4995 9898.67 9808.62 113.99
11993 49.5032 9602.78 9808.17 111.57
11994 49.5070 9919.54 9807.72 114.88
11995 49.5107 9674.34 9807.28 112.44
11996 49.5145 9785.82 9806.83 113.61
11997 49.5183 9674.18 9806.38 113.18
11998 49.5220 9920.38 9805.95 114.10
11999 49.5258 9612.04 9805.52 111.39
12000 49.5295 9942.09 9805.09 116.42
12001 49.5333 9582.11 9804.66 112.66
12002 49.5371 9874.67 9804.23 114.33
12003 49.5408 9658.58 9803.82 112.38
12004 49.5446 10036.50 9803.39 115.18
12005 49.5483 9755.12 9804.72 113.64
12006 49.5521 9921.16 9804.32 114.30
12007 49.5559 9709.45 9803.92 113.45
12008 49.5596 9824.59 9805.53 113.88
12009 49.5634 9730.38 9805.16 113.21
12010 49.5671 9891.44 9804.80 113.56
12011 49.5709 9625.88 9807.78 112.84
12012 49.5747 9755.34 9807.44 113.13
12013 49.5784 9584.74 9810.96 112.54
12014 49.5822 9872.03 9810.68 114.18
12015 49.5859 9744.59 9810.41 113.50
12016 49.5897 9817.26 9810.13 114.12
12017 49.5935 9840.00 9809.86 113.85
12018 49.5972 9797.52 9809.59 113.46
12019 49.6010 9610.37 9809.33 112.78
12020 49.6047 9799.04 9809.07 112.53
12021 49.6085 9689.62 9808.82 112.76
12022 49.6123 9951.98 9808.56 113.47
12023 49.6160 9663.35 9808.32 112.56
12024 49.6198 9627.97 9808.07 111.79
12025 49.6235 9527.09 9807.84 111.25
12026 49.6273 9817.93 9807.59 112.76
12027 49.6311 9740.13 9807.36 114.47
12028 49.6348 9739.36 9807.14 112.48
12029 49.6386 9745.83 9806.91 111.74
12030 49.6423 9666.19 9806.69 111.67
12031 49.6461 9749.21 9806.47 112.38
12032 49.6499 9679.84 9806.26 111.23
12033 49.6536 9742.30 9806.07 112.26
12034 49.6574 9783.95 9805.86 112.84
12035 49.6611 9737.58 9805.67 112.44
12036 49.6649 9758.86 9805.47 112.44
12037 49.6687 9402.28 9805.27 109.82
12038 49.6724 9767.18 9805.09 112.00
12039 49.6762 9730.94 9804.91 112.51
12040 49.6799 9663.09 9804.73 111.47
12041 49.6837 9555.57 9804.56 111.02
12042 49.6875 9842.97 9804.38 113.08
12043 49.6912 9748.16 9804.23 112.20
12044 49.6950 9915.12 9804.06 114.17
12045 49.6987 9824.48 9803.91 112.92
12046 49.7025 9606.18 9803.76 111.07
12047 49.7063 9566.12 9803.62 110.49
12048 49.7100 9896.53 9803.48 113.53
12049 49.7138 9529.99 9803.34 110.82
12050 49.7175 9838.93 9803.22 113.22
12051 49.7213 9750.32 9803.10 112.53
12052 49.7251 9790.32 9802.98 112.11
12053 49.7288 9721.00 9802.87 112.22
12054 49.7326 9787.19 9802.76 113.94
12055 49.7363 9764.43 9802.66 112.41
12056 49.7401 9837.44 9802.57 112.95
12057 49.7439 9619.91 9802.48 111.51
12058 49.7476 9781.02 9802.40 111.99
12059 49.7514 9605.32 9802.32 111.45
12060 49.7551 9761.38 9802.26 112.65
12061 49.7589 9762.16 9802.19 112.66
12062 49.7627 9786.43 9802.14 112.41
12063 49.7664 9568.39 9802.09 111.35
12064 49.7702 9850.97 9802.06 112.99
12065 49.7739 9504.91 9802.03 111.18
12066 49.7777 9725.44 9802.01 112.18
12067 49.7815 9627.59 9801.99 111.87
12068 49.7852 9689.98 9801.99 111.74
12069 49.7890 9451.12 9802.00 110.74
12070 49.7927 9697.01 9802.01 111.81
12071 49.7965 9702.66 9802.04 112.13
12072 49.8003 9607.08 9802.07 111.41
12073 49.8040 9633.05 9802.12 110.98
12074 49.8078 9827.58 9802.18 113.33
12075 49.8115 9688.17 9802.25 111.74
12076 49.8153 9782.84 9802.33 112.92
12077 49.8191 9524.24 9802.43 110.73
12078 49.8228 9880.84 9802.54 112.98
12079 49.8266 9617.42 9802.67 109.93
12080 49.8303 10051.50 9802.82 116.25
12081 49.8341 9713.18 9802.98 112.74
12082 49.8379 9901.98 9803.16 113.26
12083 49.8416 9630.16 9803.36 111.41
12084 49.8454 9754.31 9803.59 112.78
12085 49.8491 9543.59 9803.84 111.03
12086 49.8529 9609.18 9804.12 111.43
12087 49.8566 9622.62 9804.43 111.75
12088 49.8604 9798.28 9804.77 111.91
12089 49.8642 9828.43 9805.16 111.18
12090 49.8679 9809.09 9805.59 112.81
12091 49.8717 9505.09 9806.08 111.17
12092 49.8754 9680.98 9806.64 111.97
12093 49.8792 9678.47 9807.30 112.42
12094 49.8830 9614.78 9808.07 111.72
12095 49.8867 9632.33 9808.98 111.40
12096 49.8905 9766.74 9810.11 112.76
12097 49.8943 9670.56 9811.50 111.50
12098 49.8980 9704.12 9813.18 112.56
12099 49.9018 9654.95 9815.30 112.22
12100 49.9055 9743.94 9817.83 112.41
12101 49.9093 9815.11 9820.98 113.54
12102 49.9130 9773.40 9824.64 112.90
12103 49.9168 9805.24 9829.03 113.25
12104 49.9206 9823.19 9834.02 113.77
12105 49.9243 9673.16 9839.36 111.20
12106 49.9281 9642.74 9845.10 112.48
12107 49.9318 9763.02 9850.56 114.27
12108 49.9356 9814.25 9855.45 112.84
12109 49.9394 9671.37 9858.90 111.91
12110 49.9431 9760.73 9860.30 112.05
12111 49.9469 9768.71 9859.51 112.44
12112 49.9506 9932.53 9856.86 113.95
12113 49.9544 9848.45 9852.85 113.26
12114 49.9582 9762.06 9848.24 112.88
12115 49.9619 9650.36 9843.71 111.52
12116 49.9657 9794.71 9839.37 113.43
12117 49.9694 9610.31 9835.66 112.30
12118 49.9732 9953.66 9832.48 114.59
12119 49.9770 9834.39 9829.95 114.07
12120 49.9807 9646.42 9828.08 112.59
12121 49.9845 9819.04 9826.72 113.36
12122 49.9882 10026.50 9825.87 114.56
12123 49.9920 9693.53 9825.41 113.07
12124 49.9958 9876.39 9825.29 113.79
12125 49.9995 9788.90 9825.45 114.10
12126 50.0033 9717.87 9825.82 112.55
12127 50.0070 9709.10 9826.36 112.75
12128 50.0108 9821.20 9827.07 113.38
12129 50.0146 9692.03 9827.90 112.44
12130 50.0183 9827.59 9828.81 113.31
12131 50.0221 9826.33 9829.85 111.43
12132 50.0258 9806.82 9830.95 111.88
12133 50.0296 9793.31 9832.17 115.40
12134 50.0334 9747.42 9833.48 113.65
12135 50.0371 9745.37 9834.84 113.56
12136 50.0409 9754.95 9836.33 113.25
12137 50.0446 9681.98 9837.87 112.75
12138 50.0484 9726.18 9839.54 113.34
12139 50.0522 9581.76 9841.30 112.33
12140 50.0559 9714.12 9843.11 112.74
12141 50.0597 9740.70 9845.07 113.39
12142 50.0634 9657.74 9847.08 113.01
12143 50.0672 9701.36 9849.26 113.14
12144 50.0710 9909.24 9851.56 114.40
12145 50.0747 9877.12 9853.91 114.55
12146 50.0785 9734.22 9856.45 113.89
12147 50.0822 9640.67 9859.05 112.57
12148 50.0860 10097.00 9861.87 115.33
12149 50.0898 9657.78 9864.84 112.88
12150 50.0935 9823.37 9867.88 114.10
12151 50.0973 9803.21 9871.17 113.41
12152 50.1010 10073.50 9874.55 115.20
12153 50.1048 9798.76 9878.21 113.53
12154 50.1086 9743.89 9882.08 113.56
12155 50.1123 9836.22 9886.05 113.13
12156 50.1161 9702.58 9890.36 113.12
12157 50.1198 9653.50 9894.80 111.23
12158 50.1236 10054.10 9899.62 114.42
12159 50.1274 9878.90 9904.73 113.28
12160 50.1311 10190.30 9909.99 117.59
12161 50.1349 9746.77 9915.73 113.48
12162 50.1386 10001.50 9921.65 114.02
12163 50.1424 9698.20 9928.11 112.43
12164 50.1462 10017.40 9934.98 115.11
12165 50.1499 9803.17 9942.11 112.99
12166 50.1537 9787.17 9949.90 113.23
12167 50.1574 9719.96 9957.99 112.97
12168 50.1612 9946.76 9966.87 114.43
12169 50.1650 9754.46 9976.37 113.11
12170 50.1687 9902.61 9986.27 113.74
12171 50.1725 9878.19 9997.17 114.18
12172 50.1762 9884.67 10008.60 113.64
12173 50.1800 9808.14 10021.20 113.36
12174 50.1837 9963.59 10034.40 114.10
12175 50.1875 9724.55 10049.00 113.17
12176 50.1913 9970.49 10064.80 114.34
12177 50.1950 9927.74 10081.50 113.96
12178 50.1988 10112.10 10100.10 115.35
12179 50.2025 10097.60 10119.70 114.99
12180 50.2063 10234.30 10141.80 115.85
12181 50.2101 9932.14 10165.80 115.07
12182 50.2138 10100.90 10191.50 114.55
12183 50.2176 10073.30 10220.50 115.49
12184 50.2213 10319.10 10251.50 116.57
12185 50.2251 10200.70 10286.80 115.43
12186 50.2289 10360.40 10325.90 116.69
12187 50.2326 10339.40 10368.40 118.72
12188 50.2364 10493.70 10417.30 117.74
12189 50.2401 10235.30 10471.10 115.41
12190 50.2439 10616.10 10533.90 117.31
12191 50.2477 10566.60 10606.20 118.39
12192 50.2514 10922.70 10688.00 120.58
12193 50.2552 10855.20 10787.10 119.84
12194 50.2589 11369.00 10901.60 122.66
12195 50.2627 11478.10 11044.20 124.05
12196 50.2665 11771.40 11218.60 124.94
12197 50.2702 11629.50 11427.80 124.07
12198 50.2740 12273.50 11693.40 128.99
12199 50.2777 12387.90 12013.10 129.57
12200 50.2815 12650.50 12418.40 131.08
12201 50.2853 12882.60 12916.10 131.68
12202 50.2890 13800.30 13504.90 136.98
12203 50.2928 14033.10 14227.60 138.99
12204 50.2965 15081.70 15055.40 144.88
12205 50.3003 15629.80 16029.20 147.83
12206 50.3041 16676.40 17114.90 153.51
12207 50.3078 17698.10 18248.80 158.81
12208 50.3116 19056.50 19453.50 165.77
12209 50.3153 20406.40 20623.70 172.74
12210 50.3191 22542.10 21784.20 181.70
12211 50.3229 23698.80 22850.80 188.92
12212 50.3266 25221.50 23736.60 193.24
12213 50.3304 25943.30 24409.30 202.10
12214 50.3341 26748.50 24748.40 204.16
12215 50.3379 25432.10 24697.50 196.06
12216 50.3416 25177.10 24224.30 195.34
12217 50.3454 23521.40 23328.70 187.21
12218 50.3492 21910.70 22111.70 180.22
12219 50.3529 19964.10 20742.70 171.22
12220 50.3567 18824.10 19283.00 164.77
12221 50.3604 17531.60 17907.50 158.45
12222 50.3642 16444.70 16612.70 152.32
12223 50.3680 15192.70 15470.10 145.79
12224 50.3717 14680.30 14517.00 142.73
12225 50.3755 13688.20 13696.10 136.29
12226 50.3792 13305.30 13041.20 134.97
12227 50.3830 12542.30 12495.90 131.18
12228 50.3868 12401.80 12061.40 129.77
12229 50.3905 11807.40 11725.40 125.95
12230 50.3943 11712.20 11451.10 125.97
12231 50.3980 11088.00 11238.30 121.76
12232 50.4018 11248.30 11062.10 122.69
12233 50.4056 10749.60 10918.90 119.15
12234 50.4093 10919.00 10803.20 121.07
12235 50.4131 10558.40 10703.30 118.46
12236 50.4168 10735.50 10620.00 120.11
12237 50.4206 10505.70 10546.00 117.48
12238 50.4244 10446.60 10481.20 117.98
12239 50.4281 10472.20 10425.50 117.54
12240 50.4319 10416.70 10374.60 119.27
12241 50.4356 10378.50 10330.30 117.63
12242 50.4394 10164.40 10289.20 115.81
12243 50.4431 10231.30 10253.30 115.86
12244 50.4469 10147.70 10219.70 115.60
12245 50.4507 10040.70 10189.20 115.02
12246 50.4544 10192.90 10162.20 116.46
12247 50.4582 9843.48 10136.90 113.22
12248 50.4619 10146.90 10114.20 116.11
12249 50.4657 10042.60 10092.80 114.69
12250 50.4695 10005.50 10073.20 115.33
12251 50.4732 9842.63 10055.50 114.10
12252 50.4770 9766.61 10038.70 114.01
12253 50.4807 9873.01 10023.50 114.06
12254 50.4845 10177.70 10009.10 115.75
12255 50.4883 9713.00 9995.65 112.63
12256 50.4920 9848.94 9983.46 112.93
12257 50.4958 9781.38 9971.76 113.29
12258 50.4995 9923.85 9961.12 114.14
12259 50.5033 9966.40 9950.87 114.43
12260 50.5071 10248.10 9941.27 116.01
12261 50.5108 9922.10 9932.50 115.33
12262 50.5146 9934.63 9924.03 114.80
12263 50.5183 9804.05 9916.26 114.65
12264 50.5221 9806.17 9908.73 113.79
12265 50.5258 9716.86 9901.82 111.73
12266 50.5296 9975.21 9895.10 115.76
12267 50.5334 9851.02 9888.76 115.53
12268 50.5371 9886.39 9882.90 113.97
12269 50.5409 9608.51 9877.20 111.98
12270 50.5446 10078.10 9871.93 115.36
12271 50.5484 9962.97 9866.79 114.84
12272 50.5522 9860.79 9861.90 113.97
12273 50.5559 9571.29 9857.37 112.40
12274 50.5597 9757.12 9852.94 113.71
12275 50.5634 9962.89 9848.82 114.70
12276 50.5672 9867.37 9844.79 114.09
12277 50.5710 9654.75 9840.94 112.24
12278 50.5747 9766.89 9837.35 113.50
12279 50.5785 9767.19 9833.83 112.97
12280 50.5822 9815.41 9830.56 113.70
12281 50.5860 9513.37 9827.33 111.42
12282 50.5898 9711.67 9824.24 113.06
12283 50.5935 9724.87 9821.35 113.14
12284 50.5973 9878.60 9818.50 113.81
12285 50.6010 9828.92 9815.84 113.31
12286 50.6048 9717.43 9813.22 112.94
12287 50.6085 9870.64 9810.76 114.22
12288 50.6123 10078.20 9808.33 115.57
12289 50.6161 9737.21 9805.99 112.75
12290 50.6198 9841.23 9803.80 113.77
12291 50.6236 9711.53 9801.63 112.45
12292 50.6273 9776.28 9799.60 112.09
12293 50.6311 9808.10 9797.58 115.04
12294 50.6349 9812.03 9795.64 114.32
12295 50.6386 9692.64 9793.81 112.89
12296 50.6424 9769.59 9792.01 112.42
12297 50.6461 9616.03 9790.31 111.69
12298 50.6499 9712.84 9788.62 112.56
12299 50.6537 9844.54 9786.99 113.78
12300 50.6574 9667.47 9785.46 112.88
12301 50.6612 9892.19 9783.95 114.04
12302 50.6649 9765.19 9782.52 112.60
12303 50.6687 9685.92 9781.11 112.60
12304 50.6724 9802.84 9779.78 113.14
12305 50.6762 9680.61 9778.46 112.88
12306 50.6800 9851.10 9777.20 113.72
12307 50.6837 9606.31 9776.01 112.03
12308 50.6875 9678.14 9774.84 112.37
12309 50.6912 9510.34 9773.75 111.40
12310 50.6950 9843.06 9772.67 113.34
12311 50.6988 9615.79 9771.64 112.21
12312 50.7025 9881.87 9770.68 113.60
12313 50.7063 9785.35 9769.72 113.40
12314 50.7100 9922.36 9768.86 114.99
12315 50.7138 9685.38 9768.02 112.55
12316 50.7175 9950.59 9767.25 114.87
12317 50.7213 9626.01 9766.51 112.24
12318 50.7251 9781.71 9765.82 112.45
12319 50.7288 9721.37 9765.20 112.25
12320 50.7326 9831.94 9764.61 115.48
12321 50.7363 9628.71 9764.08 112.26
12322 50.7401 9825.55 9763.59 113.29
12323 50.7439 9660.25 9763.14 112.05
12324 50.7476 9711.59 9762.73 112.91
12325 50.7514 9846.04 9762.35 114.06
12326 50.7551 9722.77 9762.01 113.00
12327 50.7589 9692.65 9761.67 113.15
12328 50.7626 9669.70 9761.34 112.58
12329 50.7664 9523.80 9760.99 111.31
12330 50.7702 9908.97 9760.60 114.18
12331 50.7739 9893.89 9760.18 114.13
12332 50.7777 9717.88 9759.68 113.41
12333 50.7814 9648.66 9759.12 111.99
12334 50.7852 9664.50 9758.46 112.81
12335 50.7890 9498.79 9757.71 110.66
12336 50.7927 9710.15 9756.90 112.90
12337 50.7965 9680.85 9755.99 112.65
12338 50.8002 9900.54 9755.05 114.32
12339 50.8040 9672.09 9754.04 112.57
12340 50.8077 9907.34 9753.04 113.39
12341 50.8115 9733.19 9752.00 113.21
12342 50.8153 9757.55 9750.97 112.78
12343 50.8190 9540.65 9749.97 112.37
12344 50.8228 9847.52 9748.97 113.38
12345 50.8265 9323.51 9748.03 109.16
12346 50.8303 9672.92 9747.08 113.23
12347 50.8341 9783.00 9746.18 115.27
12348 50.8378 9808.75 9745.33 113.37
12349 50.8416 9746.49 9744.49 113.32
12350 50.8453 9703.45 9743.71 112.68
12351 50.8491 9696.36 9742.94 112.91
12352 50.8528 9735.52 9742.23 113.31
12353 50.8566 9505.69 9741.52 111.64
12354 50.8604 9862.46 9740.85 112.69
12355 50.8641 9714.15 9740.22 113.35
12356 50.8679 9846.31 9739.60 114.36
12357 50.8716 9876.03 9739.02 113.93
12358 50.8754 9839.46 9738.44 113.96
12359 50.8792 9646.45 9737.89 112.09
12360 50.8829 9804.92 9737.37 113.49
12361 50.8867 9401.32 9736.85 110.94
12362 50.8904 10038.30 9736.36 114.95
12363 50.8942 9679.07 9735.88 113.11
12364 50.8979 9858.51 9735.42 114.02
12365 50.9017 9606.53 9734.96 112.37
12366 50.9055 9705.69 9734.51 113.06
12367 50.9092 9677.12 9734.08 113.72
12368 50.9130 9747.52 9733.66 113.20
12369 50.9167 9642.78 9733.25 112.34
12370 50.9205 9789.82 9732.84 113.26
12371 50.9242 9630.00 9732.45 111.25
12372 50.9280 9762.62 9732.06 113.47
12373 50.9318 9502.73 9731.67 113.61
12374 50.9355 9791.27 9731.30 113.78
12375 50.9393 9596.75 9730.93 111.98
12376 50.9430 9929.00 9730.57 114.26
12377 50.9468 9689.93 9730.21 113.29
12378 50.9506 9882.86 9729.86 113.73
12379 50.9543 9732.42 9729.52 113.41
12380 50.9581 9696.27 9729.18 113.41
12381 50.9618 9736.06 9728.85 113.58
12382 50.9656 9734.96 9728.52 113.01
12383 50.9693 9653.22 9728.20 113.13
12384 50.9731 9796.13 9727.88 113.87
12385 50.9769 9679.21 9727.56 112.98
12386 50.9806 9970.70 9727.26 115.33
12387 50.9844 9569.19 9726.95 112.26
12388 50.9881 10031.20 9726.65 114.92
12389 50.9919 9648.45 9726.35 113.01
12390 50.9956 9766.11 9726.06 114.06
12391 50.9994 9598.16 9725.77 112.58
12392 51.0032 9781.33 9725.48 113.42
12393 51.0069 9582.74 9725.21 112.27
12394 51.0107 9752.43 9724.92 114.32
12395 51.0144 9715.14 9724.65 112.65
12396 51.0182 9984.37 9724.38 115.40
12397 51.0220 9691.22 9724.11 113.08
12398 51.0257 9803.03 9723.85 113.49
12399 51.0295 9849.76 9723.58 113.31
12400 51.0332 9921.12 9723.33 116.41
12401 51.0370 9850.25 9723.07 114.61
12402 51.0407 9831.50 9722.82 113.84
12403 51.0445 9731.17 9722.57 113.80
12404 51.0483 9838.98 9722.32 114.14
12405 51.0520 9738.17 9722.08 113.42
12406 51.0558 9928.92 9721.84 114.68
12407 51.0595 9731.47 9721.61 113.23
12408 51.0633 9825.41 9721.37 114.12
12409 51.0670 9663.42 9721.14 112.84
12410 51.0708 9778.94 9720.91 113.35
12411 51.0746 9975.08 9720.68 114.91
12412 51.0783 10048.80 9720.46 115.79
12413 51.0821 9960.70 9718.52 114.83
12414 51.0858 9936.97 9718.32 114.08
12415 51.0896 9969.62 9756.76 114.95
12416 51.0933 9844.03 9756.92 114.59
12417 51.0971 9854.99 9755.13 113.99
12418 51.1009 9854.00 9755.34 113.74
12419 51.1046 9960.57 9791.93 114.88
12420 51.1084 9987.70 9792.57 115.05
12421 51.1121 9732.54 9789.39 113.23
12422 51.1159 9810.91 9790.09 114.15
12423 51.1197 9835.20 9872.94 114.04
12424 51.1234 9904.51 9894.31 114.28
12425 51.1272 9786.24 9896.05 112.19
12426 51.1309 9851.19 9897.77 116.25
12427 51.1347 9732.63 9899.57 113.46
12428 51.1384 9982.25 9901.35 113.27
12429 51.1422 9519.75 9903.21 111.22
12430 51.1459 10161.50 9905.04 116.06
12431 51.1497 9899.33 9906.96 114.57
12432 51.1535 9801.55 9908.91 113.86
12433 51.1572 9844.95 9910.84 114.21
12434 51.1610 9802.56 9912.85 113.86
12435 51.1647 9722.69 9914.84 113.30
12436 51.1685 9941.87 9916.92 114.32
12437 51.1723 9658.69 9919.04 112.99
12438 51.1760 9785.86 9921.13 113.42
12439 51.1798 9655.34 9923.32 112.53
12440 51.1835 9837.86 9925.48 114.13
12441 51.1873 9787.82 9927.74 113.49
12442 51.1910 9969.28 9929.97 115.32
12443 51.1948 9756.46 9933.34 113.76
12444 51.1985 9864.72 9935.65 113.70
12445 51.2023 9709.83 9938.08 112.93
12446 51.2061 9845.42 9940.54 113.65
12447 51.2098 9905.09 9942.98 114.87
12448 51.2136 9878.56 9945.53 113.71
12449 51.2173 9792.42 9948.05 113.43
12450 51.2211 9965.85 9950.69 115.00
12451 51.2248 9852.57 9953.30 113.29
12452 51.2286 9908.38 9956.04 113.06
12453 51.2324 9995.77 9958.82 116.94
12454 51.2361 9992.66 9961.58 115.69
12455 51.2399 9734.22 9964.45 113.15
12456 51.2436 10255.90 9967.31 116.15
12457 51.2474 9749.61 9970.29 113.26
12458 51.2511 9824.49 9973.25 113.65
12459 51.2549 9782.30 9976.34 113.98
12460 51.2587 10005.60 9979.49 114.94
12461 51.2624 9682.61 9982.62 111.71
12462 51.2662 9968.46 9985.88 114.49
12463 51.2699 9910.67 9989.12 114.03
12464 51.2737 9913.93 9992.51 114.50
12465 51.2774 9856.62 9995.87 114.01
12466 51.2812 9978.20 9999.39 114.52
12467 51.2850 9892.53 10003.00 113.94
12468 51.2887 10046.50 10006.50 115.47
12469 51.2925 9896.20 10010.30 114.39
12470 51.2962 10054.60 10013.90 115.15
12471 51.3000 9814.41 10017.80 113.30
12472 51.3037 9982.89 10021.70 114.31
12473 51.3075 9887.27 10025.70 113.57
12474 51.3113 10200.50 10029.80 116.82
12475 51.3150 10114.80 10033.80 116.24
12476 51.3188 10017.90 10038.10 114.78
12477 51.3225 9652.97 10042.30 112.64
12478 51.3263 10036.40 10046.80 114.66
12479 51.3300 9784.70 10051.20 112.92
12480 51.3338 9985.87 10055.80 116.70
12481 51.3376 9944.43 10060.50 114.97
12482 51.3413 10075.00 10065.20 115.24
12483 51.3451 9929.42 10070.10 114.16
12484 51.3488 10017.80 10075.00 114.57
12485 51.3526 9680.65 10080.10 112.54
12486 51.3563 10055.50 10085.20 115.65
12487 51.3601 9969.58 10090.50 114.79
12488 51.3638 9916.47 10095.90 114.03
12489 51.3676 10082.70 10101.40 115.36
12490 51.3714 10118.40 10107.10 115.58
12491 51.3751 10093.20 10112.80 115.67
12492 51.3789 10195.00 10118.70 115.73
12493 51.3826 9910.60 10124.60 113.84
12494 51.3864 10358.00 10130.90 117.58
12495 51.3901 10129.60 10137.00 115.98
12496 51.3939 10096.10 10143.50 115.83
12497 51.3977 10069.20 10150.20 115.44
12498 51.4014 10113.30 10156.80 116.16
12499 51.4052 10009.60 10163.70 114.98
12500 51.4089 10100.70 10170.70 116.12
12501 51.4127 10174.10 10178.00 114.78
12502 51.4164 10105.80 10185.20 115.94
12503 51.4202 9824.34 10192.90 114.52
12504 51.4239 10204.40 10200.50 116.30
12505 51.4277 10006.40 10208.50 113.62
12506 51.4315 10171.30 10216.70 118.15
12507 51.4352 10392.30 10224.80 117.73
12508 51.4390 10269.50 10233.50 116.21
12509 51.4427 10071.00 10242.10 114.82
12510 51.4465 10228.70 10251.10 115.09
12511 51.4502 10376.10 10260.10 117.19
12512 51.4540 10373.60 10269.60 117.31
12513 51.4578 10089.80 10279.40 115.35
12514 51.4615 10290.80 10289.20 116.91
12515 51.4653 10223.20 10299.40 115.72
12516 51.4690 10340.90 10309.70 117.13
12517 51.4728 10246.90 10320.50 116.77
12518 51.4765 10384.60 10331.40 117.41
12519 51.4803 10183.40 10342.80 116.33
12520 51.4840 10469.40 10354.20 117.84
12521 51.4878 10296.80 10366.20 117.46
12522 51.4916 10406.40 10378.60 116.80
12523 51.4953 10246.20 10391.10 117.27
12524 51.4991 10364.70 10404.20 117.62
12525 51.5028 10293.30 10417.30 116.80
12526 51.5066 10384.40 10431.20 116.79
12527 51.5103 10298.40 10445.10 115.93
12528 51.5141 10294.50 10459.80 117.04
12529 51.5178 10203.50 10474.50 116.52
12530 51.5216 10485.40 10490.10 118.42
12531 51.5254 10454.00 10506.10 117.74
12532 51.5291 10361.90 10522.30 116.70
12533 51.5329 10566.80 10539.30 118.93
12534 51.5366 10472.70 10556.50 117.97
12535 51.5404 10319.30 10574.60 116.47
12536 51.5441 10672.00 10592.80 117.08
12537 51.5479 10445.80 10612.20 117.12
12538 51.5516 10609.30 10631.60 118.45
12539 51.5554 10347.10 10652.20 116.71
12540 51.5592 10736.90 10673.60 119.29
12541 51.5629 10632.20 10695.00 118.63
12542 51.5667 10672.30 10717.80 119.08
12543 51.5704 10567.30 10740.80 118.29
12544 51.5742 10553.90 10765.20 117.95
12545 51.5779 10723.90 10789.70 118.34
12546 51.5817 10678.50 10815.90 118.25
12547 51.5854 10451.80 10842.30 117.33
12548 51.5892 10962.30 10870.40 119.34
12549 51.5930 10717.60 10899.50 119.07
12550 51.5967 10881.40 10928.90 120.33
12551 51.6005 10674.70 10960.30 118.70
12552 51.6042 10972.80 10992.00 120.34
12553 51.6080 10847.30 11025.80 119.64
12554 51.6117 11066.30 11060.10 121.83
12555 51.6155 10863.70 11096.60 119.31
12556 51.6192 11019.80 11133.70 121.08
12557 51.6230 10940.40 11173.20 119.73
12558 51.6268 11150.30 11214.50 120.88
12559 51.6305 11002.70 11256.40 120.80
12560 51.6343 11174.80 11301.20 123.34
12561 51.6380 10954.20 11346.70 120.41
12562 51.6418 11082.00 11395.60 120.45
12563 51.6455 11029.90 11445.20 118.64
12564 51.6493 11303.80 11498.60 122.87
12565 51.6530 11324.50 11552.80 121.84
12566 51.6568 11352.40 11611.20 122.53
12567 51.6606 11442.10 11672.40 122.28
12568 51.6643 11540.60 11734.80 123.70
12569 51.6681 11482.00 11802.00 123.40
12570 51.6718 11523.40 11870.70 121.37
12571 51.6756 11526.70 11944.90 123.57
12572 51.6793 11723.10 12020.80 124.27
12573 51.6831 11818.70 12102.80 124.35
12574 51.6868 12067.60 12186.90 126.26
12575 51.6906 11829.70 12278.00 123.99
12576 51.6943 12172.70 12371.60 127.47
12577 51.6981 11912.90 12473.10 125.62
12578 51.7019 12171.80 12580.40 127.00
12579 51.7056 12045.10 12691.10 126.29
12580 51.7094 12442.30 12811.50 128.01
12581 51.7131 12505.50 12935.90 130.08
12582 51.7169 12675.20 13071.50 128.11
12583 51.7206 12808.50 13212.00 130.45
12584 51.7244 13083.40 13365.80 131.03
12585 51.7281 12874.70 13524.90 130.69
12586 51.7319 13313.30 13699.90 132.94
12587 51.7357 13311.30 13886.70 135.18
12588 51.7394 13467.70 14081.80 135.51
12589 51.7432 13581.30 14296.30 134.70
12590 51.7469 14370.80 14520.90 139.06
12591 51.7507 14476.90 14768.90 140.07
12592 51.7544 14786.30 15029.40 142.02
12593 51.7582 15137.70 15318.10 143.83
12594 51.7619 15684.60 15622.50 147.42
12595 51.7657 15912.30 15961.20 148.24
12596 51.7694 16583.60 16320.00 151.97
12597 51.7732 16909.50 16721.00 154.34
12598 51.7770 17958.10 17159.80 159.64
12599 51.7807 18173.00 17627.40 159.72
12600 51.7845 19105.50 18155.20 164.62
12601 51.7882 19604.40 18721.70 167.40
12602 51.7920 21201.00 19364.50 175.91
12603 51.7957 21862.90 20060.70 177.18
12604 51.7995 23420.30 20859.30 186.39
12605 51.8032 24352.10 21732.90 190.24
12606 51.8070 26135.20 22750.30 198.54
12607 51.8107 27617.70 23883.90 203.13
12608 51.8145 30000.20 25229.30 215.63
12609 51.8183 31895.60 26809.70 221.77
12610 51.8220 34612.60 28634.20 235.54
12611 51.8258 37014.10 30886.90 245.89
12612 51.8295 40808.40 33548.40 256.89
12613 51.8333 44037.70 36897.10 274.84
12614 51.8370 48538.40 40904.60 289.57
12615 51.8408 53120.90 45975.80 305.13
12616 51.8445 59356.00 52040.00 326.63
12617 51.8483 64405.80 59631.20 342.11
12618 51.8520 73243.70 68575.30 370.45
12619 51.8558 80894.30 79525.90 396.72
12620 51.8595 91006.50 92059.20 432.52
12621 51.8633 101695.00 106841.00 462.14
12622 51.8671 117105.00 123414.00 509.27
12623 51.8708 131220.00 140834.00 546.97
12624 51.8746 151263.00 159396.00 607.99
12625 51.8783 171675.00 177263.00 662.44
12626 51.8821 198059.00 194666.00 723.70
12627 51.8858 219116.00 210094.00 774.20
12628 51.8896 243492.00 223932.00 845.45
12629 51.8933 260909.00 234965.00 876.96
12630 51.8971 274326.00 243217.00 918.05
12631 51.9008 274430.00 247516.00 919.73
12632 51.9046 270877.00 247148.00 913.30
12633 51.9084 252565.00 241002.00 860.86
12634 51.9121 236283.00 229183.00 827.54
12635 51.9159 212487.00 211817.00 767.96
12636 51.9196 191931.00 191505.00 704.84
12637 51.9234 166454.00 169152.00 648.09
12638 51.9271 146963.00 147643.00 587.91
12639 51.9309 127228.00 126978.00 539.95
12640 51.9346 112855.00 108916.00 502.48
12641 51.9384 97309.80 92740.40 448.03
12642 51.9421 85900.60 79347.20 415.20
12643 51.9459 74958.30 67862.10 380.71
12644 51.9496 66742.50 58686.50 352.37
12645 51.9534 57879.50 51033.40 321.74
12646 51.9572 52435.70 44909.90 305.57
12647 51.9609 46863.70 40130.40 284.64
12648 51.9647 41976.80 36197.00 261.90
12649 51.9684 37766.00 33111.90 249.00
12650 51.9722 34959.40 30529.70 237.56
12651 51.9759 31658.10 28457.00 220.55
12652 51.9797 29456.90 26673.30 211.46
12653 51.9834 27116.50 25198.50 201.94
12654 51.9872 25421.20 23892.70 194.27
12655 51.9892 24072.40 23276.60 191.09
12656 51.9929 23128.40 22242.60 185.68
12657 51.9967 21690.60 21302.70 178.32
12658 52.0004 20797.40 20488.10 175.67
12659 52.0042 19717.80 19737.90 170.36
12660 52.0079 18974.00 19080.10 166.72
12661 52.0117 18067.00 18469.80 161.38
12662 52.0155 17670.30 17916.80 158.69
12663 52.0192 16946.50 17427.30 156.11
12664 52.0230 16624.70 16968.20 153.91
12665 52.0267 15976.50 16559.50 149.75
12666 52.0305 15741.30 16174.30 146.45
12667 52.0342 15223.90 15829.70 145.45
12668 52.0380 15138.80 15503.40 145.35
12669 52.0417 14847.70 15210.20 143.64
12670 52.0455 14680.00 14931.40 142.84
12671 52.0493 14181.60 14673.50 140.04
12672 52.0530 14176.00 14440.10 140.24
12673 52.0568 13828.00 14217.30 138.10
12674 52.0605 13994.60 14015.00 138.76
12675 52.0643 13519.70 13821.10 135.26
12676 52.0680 13592.50 13644.80 135.90
12677 52.0718 13326.70 13475.20 134.96
12678 52.0756 13241.70 13316.40 133.13
12679 52.0793 13284.20 13171.30 134.79
12680 52.0831 13075.40 13031.30 133.83
12681 52.0868 12959.90 12902.90 132.78
12682 52.0906 12723.60 12778.90 131.15
12683 52.0943 12425.60 12664.90 129.47
12684 52.0981 12631.20 12554.60 131.59
12685 52.1018 12279.30 12452.90 128.15
12686 52.1056 12419.10 12354.20 129.83
12687 52.1094 12036.40 12260.80 126.64
12688 52.1131 12183.30 12174.70 127.36
12689 52.1169 12017.70 12090.80 127.25
12690 52.1206 12250.00 12013.10 130.20
12691 52.1244 12007.50 11937.50 127.09
12692 52.1281 11877.10 11867.40 125.52
12693 52.1319 11554.50 11799.10 122.05
12694 52.1356 11789.70 11735.60 126.09
12695 52.1394 11492.10 11673.60 123.10
12696 52.1431 11757.30 11615.90 125.24
12697 52.1469 11499.40 11559.60 122.86
12698 52.1507 11515.70 11505.70 123.79
12699 52.1544 11516.60 11455.80 123.85
12700 52.1582 11469.50 11406.60 121.29
12701 52.1619 11356.30 11361.00 122.77
12702 52.1657 11358.70 11316.20 122.30
12703 52.1694 11170.80 11274.50 120.67
12704 52.1732 11164.10 11233.50 121.04
12705 52.1769 11266.30 11195.30 120.84
12706 52.1807 11160.20 11157.70 121.58
12707 52.1844 11119.40 11122.70 121.04
12708 52.1882 11123.60 11088.30 120.91
12709 52.1920 11058.80 11055.40 120.55
12710 52.1957 11281.80 11024.80 121.32
12711 52.1995 10979.80 10994.60 121.05
12712 52.2032 11233.70 10966.50 119.85
12713 52.2070 10758.80 10938.90 118.38
12714 52.2107 11115.40 10913.30 119.66
12715 52.2145 10827.80 10888.10 118.68
12716 52.2181 10960.10 10865.30 120.81
12717 52.2219 10896.40 10842.40 120.39
12718 52.2257 10693.30 10820.70 118.64
12719 52.2294 10704.80 10800.50 119.41
12720 52.2332 10957.50 10781.00 122.76
12721 52.2369 10944.40 10763.00 120.99
12722 52.2407 10706.10 10745.70 118.76
12723 52.2444 11007.10 10729.90 121.94
12724 52.2482 10678.50 10715.00 119.68
12725 52.2519 10983.30 10701.50 119.96
12726 52.2557 10839.60 10688.90 120.94
12727 52.2594 10862.00 10678.20 120.79
12728 52.2632 10662.30 10668.30 119.80
12729 52.2669 10726.80 10660.00 119.39
12730 52.2707 10598.10 10653.10 119.70
12731 52.2745 10695.10 10647.80 119.49
12732 52.2782 10815.00 10644.40 120.11
12733 52.2820 10765.30 10642.60 120.16
12734 52.2857 10655.40 10642.80 119.43
12735 52.2895 10867.80 10645.10 119.79
12736 52.2932 10598.60 10649.40 118.98
12737 52.2970 11016.30 10656.10 121.68
12738 52.3007 10662.80 10664.90 118.92
12739 52.3045 11032.70 10676.30 121.08
12740 52.3082 10815.90 10689.90 120.00
12741 52.3120 10875.50 10706.30 121.44
12742 52.3157 10592.50 10724.70 119.00
12743 52.3195 10865.70 10746.10 121.13
12744 52.3233 10886.70 10769.70 120.52
12745 52.3270 10943.90 10794.70 120.20
12746 52.3308 11054.40 10821.90 121.82
12747 52.3345 11013.60 10849.60 123.33
12748 52.3383 10952.10 10878.30 121.47
12749 52.3420 11065.60 10905.90 119.93
12750 52.3458 10847.10 10932.60 120.42
12751 52.3495 11067.90 10955.80 121.69
12752 52.3533 10973.00 10975.40 121.15
12753 52.3570 11129.50 10989.00 122.01
12754 52.3608 10934.50 10996.10 121.29
12755 52.3646 11132.70 10995.30 122.04
12756 52.3683 10751.10 10986.60 119.58
12757 52.3721 11184.10 10969.30 123.08
12758 52.3758 10991.80 10945.10 121.43
12759 52.3796 11023.80 10913.50 121.46
12760 52.3833 10842.90 10877.40 120.19
12761 52.3871 11017.80 10836.20 121.75
12762 52.3908 10904.10 10793.50 121.42
12763 52.3946 11136.00 10748.00 122.61
12764 52.3983 10866.30 10703.30 120.56
12765 52.4021 10974.60 10657.80 120.89
12766 52.4059 10584.00 10613.40 118.86
12767 52.4096 10653.50 10571.70 119.61
12768 52.4134 10638.40 10530.80 118.82
12769 52.4171 10491.80 10493.00 117.53
12770 52.4209 10406.60 10456.40 117.88
12771 52.4246 10392.60 10423.00 117.95
12772 52.4284 10099.90 10391.00 113.71
12773 52.4321 10606.20 10362.00 121.33
12774 52.4359 10210.30 10334.40 117.21
12775 52.4396 10184.50 10309.50 116.13
12776 52.4434 10178.80 10286.00 116.33
12777 52.4472 10370.30 10264.20 117.52
12778 52.4509 10175.50 10244.70 115.97
12779 52.4547 10153.00 10226.30 116.56
12780 52.4584 10115.40 10209.70 115.77
12781 52.4622 10171.00 10194.10 116.72
12782 52.4659 10102.10 10180.00 116.03
12783 52.4697 10216.40 10166.60 116.66
12784 52.4734 10045.40 10154.50 114.74
12785 52.4772 10350.90 10142.90 117.95
12786 52.4809 10006.90 10132.40 114.47
12787 52.4847 10147.30 10122.40 116.25
12788 52.4885 9962.81 10112.90 115.08
12789 52.4922 10094.20 10104.30 115.92
12790 52.4960 9907.91 10095.90 115.03
12791 52.4997 10244.70 10088.20 116.05
12792 52.5035 9758.32 10080.70 113.44
12793 52.5072 9976.72 10073.80 114.78
12794 52.5110 9922.29 10067.00 115.76
12795 52.5147 10150.20 10060.60 116.32
12796 52.5185 9911.63 10054.40 115.29
12797 52.5223 10099.50 10048.40 116.17
12798 52.5260 9958.55 10042.80 114.20
12799 52.5298 9909.51 10037.20 115.17
12800 52.5335 10058.70 10032.00 116.86
12801 52.5373 10213.70 10026.90 116.75
12802 52.5410 9754.07 10022.00 113.73
12803 52.5448 10032.50 10017.20 115.21
12804 52.5485 9802.58 10012.60 114.15
12805 52.5523 10000.90 10008.10 115.14
12806 52.5561 9949.60 10003.70 114.72
12807 52.5598 9837.78 9999.55 114.27
12808 52.5636 10042.60 9995.41 116.15
12809 52.5673 9958.27 9991.49 114.89
12810 52.5711 9855.46 9987.57 114.37
12811 52.5748 9914.29 9983.86 115.06
12812 52.5786 9760.79 9980.16 113.62
12813 52.5823 10066.40 9976.63 116.00
12814 52.5861 9759.84 9973.12 113.80
12815 52.5898 10222.30 9969.77 117.60
12816 52.5936 9952.96 9966.42 114.95
12817 52.5974 10044.80 9963.16 115.49
12818 52.6011 9816.56 9960.05 114.21
12819 52.6049 10080.70 9956.94 115.41
12820 52.6086 10026.20 9953.98 115.47
12821 52.6124 10022.60 9951.01 116.20
12822 52.6161 9951.66 9948.20 114.05
12823 52.6199 9973.48 9945.36 115.48
12824 52.6237 9679.92 9942.58 112.61
12825 52.6274 9967.05 9939.94 114.08
12826 52.6349 10225.40 9934.75 117.96
12827 52.6387 9743.13 9932.20 113.68
12828 52.6424 10130.90 9929.78 115.80
12829 52.6462 9568.26 9927.33 112.38
12830 52.6499 9901.45 9925.01 114.82
12831 52.6537 9819.96 9922.66 114.41
12832 52.6574 10006.80 9920.42 114.99
12833 52.6612 9679.29 9918.17 113.80
12834 52.6650 9998.42 9915.96 114.98
12835 52.6687 9768.02 9913.86 113.98
12836 52.6725 9988.96 9873.30 115.78
12837 52.6762 9798.10 9871.63 114.21
12838 52.6800 10114.00 9869.95 115.14
12839 52.6837 10007.70 9828.69 113.94
12840 52.6875 9974.08 9827.45 113.91
12841 52.6913 9810.65 9826.24 113.04
12842 52.6950 9900.98 9825.08 111.28
12843 52.7025 10227.30 9721.57 112.71
12844 52.7100 10086.30 9721.29 115.52
12845 52.7138 9617.10 9721.16 111.13
12846 52.7175 10018.40 9721.04 114.43
12847 52.7213 9837.27 9720.94 112.82
12848 52.7251 9692.87 9720.83 112.05
12849 52.7288 9620.55 9720.74 110.04
12850 52.7326 10082.50 9720.66 116.30
12851 52.7363 9681.02 9720.59 112.58
12852 52.7401 10134.80 9720.52 114.12
12853 52.7438 9673.76 9720.46 111.09
12854 52.7476 9835.60 9720.41 112.04
12855 52.7514 9777.19 9720.37 112.21
12856 52.7551 9835.85 9720.33 112.97
12857 52.7589 9631.78 9720.30 111.34
12858 52.7626 9925.09 9720.29 113.43
12859 52.7664 9698.41 9720.27 112.32
12860 52.7701 9895.39 9720.27 113.39
12861 52.7739 9854.60 9720.27 113.54
12862 52.7776 9881.68 9720.28 113.50
12863 52.7814 9802.90 9720.29 112.89
12864 52.7852 10002.40 9720.31 113.80
12865 52.7889 9798.86 9720.35 113.13
12866 52.7927 9885.96 9720.39 113.65
12867 52.7964 9922.84 9720.43 113.96
12868 52.8002 9811.33 9720.48 112.81
12869 52.8039 9898.14 9720.55 113.71
12870 52.8077 9858.35 9720.62 113.32
12871 52.8115 9771.61 9720.69 113.58
12872 52.8152 9952.17 9720.78 113.63
12873 52.8190 9673.85 9720.87 112.28
12874 52.8227 9805.04 9720.98 113.11
12875 52.8265 9689.33 9721.09 111.75
12876 52.8302 9973.14 9721.21 112.91
12877 52.8340 9462.97 9721.34 113.14
12878 52.8377 9905.18 9721.48 114.72
12879 52.8415 9832.48 9721.63 113.05
12880 52.8453 10037.80 9721.80 113.80
12881 52.8490 9622.82 9721.96 111.59
12882 52.8528 10111.20 9722.15 114.74
12883 52.8565 9789.79 9722.35 112.88
12884 52.8603 9831.64 9722.56 113.62
12885 52.8640 9809.82 9722.79 113.14
12886 52.8678 9982.40 9723.03 114.70
12887 52.8716 9959.20 9723.29 114.11
12888 52.8753 9844.75 9723.56 113.27
12889 52.8791 9777.92 9723.86 113.27
12890 52.8828 9891.93 9724.16 113.85
12891 52.8866 9827.73 9724.50 113.33
12892 52.8903 9915.40 9724.85 113.84
12893 52.8941 9870.53 9725.24 113.46
12894 52.8979 9971.40 9725.65 113.93
12895 52.9016 9923.76 9726.08 113.65
12896 52.9054 10021.10 9726.55 113.52
12897 52.9091 9838.27 9727.04 113.76
12898 52.9129 9869.13 9727.59 113.27
12899 52.9166 9828.72 9728.16 113.48
12900 52.9204 9848.45 9728.79 113.94
12901 52.9242 9715.64 9729.48 112.67
12902 52.9279 9814.63 9730.20 111.58
12903 52.9317 9995.46 9731.00 116.87
12904 52.9354 10001.80 9731.85 115.25
12905 52.9392 9767.21 9732.81 112.94
12906 52.9429 9919.37 9733.82 113.44
12907 52.9467 9910.67 9734.96 112.51
12908 52.9504 9985.52 9736.17 114.60
12909 52.9542 9995.17 9737.55 114.43
12910 52.9580 10055.50 9739.07 114.89
12911 52.9617 9935.41 9740.72 114.27
12912 52.9655 10081.30 9742.62 114.52
12913 52.9692 9772.62 9744.70 113.18
12914 52.9730 10005.10 9747.13 114.63
12915 52.9767 10054.20 9749.83 115.36
12916 52.9805 10182.00 9753.06 115.77
12917 52.9843 9836.94 9756.85 113.21
12918 52.9880 10134.80 9761.25 115.72
12919 52.9918 9728.08 9766.68 113.11
12920 52.9955 10091.30 9773.14 115.10
12921 52.9993 9849.00 9781.28 113.15
12922 53.0031 9898.55 9791.38 113.78
12923 53.0068 9905.58 9803.54 113.73
12924 53.0106 10222.40 9818.96 116.37
12925 53.0143 9953.12 9837.37 113.50
12926 53.0181 10131.20 9860.26 115.34
12927 53.0218 10073.60 9886.93 113.87
12928 53.0256 10250.40 9919.02 115.85
12929 53.0293 9943.30 9954.87 112.77
12930 53.0331 10123.20 9995.83 117.72
12931 53.0369 10174.00 10040.00 116.33
12932 53.0406 10271.70 10084.30 116.17
12933 53.0444 9967.46 10128.90 114.04
12934 53.0481 10267.10 10168.20 116.07
12935 53.0519 10011.80 10201.20 113.99
12936 53.0557 10246.50 10223.00 114.96
12937 53.0594 10089.70 10230.40 115.64
12938 53.0632 10525.20 10222.20 118.18
12939 53.0669 10145.40 10199.10 115.53
12940 53.0707 10377.40 10162.60 116.70
12941 53.0744 10089.70 10119.00 115.15
12942 53.0782 10179.50 10070.60 115.81
12943 53.0820 9932.19 10022.60 114.35
12944 53.0857 10187.90 9978.67 115.91
12945 53.0895 10126.50 9938.06 115.22
12946 53.0932 10260.10 9903.44 116.03
12947 53.0970 9927.87 9873.15 113.97
12948 53.1007 10292.50 9848.46 116.56
12949 53.1045 10028.50 9827.63 114.83
12950 53.1083 10035.30 9810.76 115.06
12951 53.1120 9980.89 9797.57 115.43
12952 53.1158 10234.30 9786.74 115.35
12953 53.1195 10076.50 9778.31 115.57
12954 53.1233 10177.10 9771.36 116.18
12955 53.1270 9947.99 9765.87 112.74
12956 53.1308 10266.90 9761.26 116.53
12957 53.1346 9787.05 9757.43 115.42
12958 53.1383 10192.70 9754.29 115.84
12959 53.1421 9878.33 9751.53 112.95
12960 53.1458 10006.50 9749.21 114.56
12961 53.1496 9901.23 9747.13 114.31
12962 53.1533 9963.48 9745.34 114.88
12963 53.1571 9742.19 9743.72 113.60
12964 53.1609 9784.14 9742.28 113.58
12965 53.1646 9707.07 9741.02 113.54
12966 53.1684 9995.45 9739.87 115.37
12967 53.1721 9983.50 9738.86 115.81
12968 53.1759 10177.30 9737.92 116.63
12969 53.1797 9806.98 9737.08 113.64
12970 53.1834 9899.84 9736.33 114.18
12971 53.1872 9763.80 9735.64 114.10
12972 53.1909 10014.40 9735.04 114.94
12973 53.1947 9869.16 9734.47 114.45
12974 53.1984 10172.60 9733.97 116.26
12975 53.2022 9722.03 9733.51 111.93
12976 53.2060 9962.33 9733.08 114.30
12977 53.2097 9750.40 9732.71 114.10
12978 53.2135 10026.70 9732.36 115.66
12979 53.2172 9738.04 9732.05 113.82
12980 53.2210 9988.51 9731.77 115.18
12981 53.2247 9760.57 9731.52 113.83
12982 53.2285 9886.46 9731.28 112.88
12983 53.2323 9935.46 9731.08 116.63
12984 53.2360 9946.68 9730.89 116.09
12985 53.2398 9667.61 9730.72 113.02
12986 53.2435 10010.50 9730.58 114.44
12987 53.2473 9887.36 9730.45 114.28
12988 53.2511 9952.19 9730.33 114.82
12989 53.2548 9809.79 9730.24 113.78
12990 53.2586 9887.10 9730.15 114.05
12991 53.2623 9884.87 9730.08 114.64
12992 53.2661 9963.61 9730.03 115.28
12993 53.2698 9604.76 9729.98 111.11
12994 53.2736 9777.12 9729.95 113.53
12995 53.2774 9687.56 9729.93 112.44
12996 53.2811 9882.62 9729.92 114.18
12997 53.2849 9672.71 9729.92 112.98
12998 53.2886 9826.92 9729.93 113.68
12999 53.2924 9694.50 9729.96 113.06
13000 53.2961 9805.45 9729.99 113.25
13001 53.2999 9733.70 9730.04 112.28
13002 53.3037 9831.21 9730.09 114.03
13003 53.3074 9722.33 9730.16 113.33
13004 53.3112 10020.10 9730.24 115.34
13005 53.3149 9697.76 9730.33 111.52
13006 53.3187 10104.10 9730.44 116.14
13007 53.3225 9659.46 9730.56 113.24
13008 53.3262 9949.30 9730.69 114.30
13009 53.3300 9630.27 9730.84 111.01
13010 53.3337 10026.30 9731.01 118.36
13011 53.3375 9704.63 9731.20 113.70
13012 53.3412 9880.70 9731.40 113.90
13013 53.3450 9803.86 9731.64 112.23
13014 53.3488 9896.31 9731.92 113.11
13015 53.3525 9743.02 9732.22 113.27
13016 53.3563 9875.47 9732.58 113.41
13017 53.3600 9690.17 9732.99 113.30
13018 53.3638 9934.34 9733.49 113.60
13019 53.3676 9851.91 9734.10 112.79
13020 53.3713 9977.24 9734.82 114.85
13021 53.3751 9732.10 9735.72 113.21
13022 53.3788 9871.99 9736.81 113.69
13023 53.3826 9691.42 9738.19 112.74
13024 53.3863 9756.60 9739.84 113.15
13025 53.3901 9738.34 9741.91 113.56
13026 53.3939 9884.34 9744.39 114.46
13027 53.3976 9751.93 9747.24 112.58
13028 53.4014 9787.55 9750.63 113.89
13029 53.4051 9939.52 9754.35 114.47
13030 53.4089 10090.30 9758.52 115.51
13031 53.4127 9697.58 9762.87 113.79
13032 53.4164 9825.74 9767.01 114.12
13033 53.4202 9821.75 9770.78 114.00
13034 53.4239 10004.40 9773.55 114.12
13035 53.4277 9818.96 9775.10 112.20
13036 53.4314 10031.30 9775.18 116.64
13037 53.4352 9851.02 9773.89 115.92
13038 53.4390 9965.37 9771.47 112.93
13039 53.4427 9781.33 9768.34 112.75
13040 53.4465 9905.27 9764.64 114.00
13041 53.4502 9538.94 9760.83 111.65
13042 53.4540 9913.29 9756.96 114.57
13043 53.4578 9819.89 9753.31 113.61
13044 53.4615 9693.35 9750.10 113.36
13045 53.4653 9838.70 9747.22 113.53
13046 53.4690 9800.69 9744.82 113.54
13047 53.4728 9625.06 9742.77 112.72
13048 53.4765 9913.49 9741.14 114.80
13049 53.4803 9625.96 9739.79 112.38
13050 53.4841 9847.16 9738.72 114.15
13051 53.4878 9743.42 9737.90 113.20
13052 53.4916 10102.20 9737.24 115.32
13053 53.4953 9754.19 9736.74 112.19
13054 53.4991 9836.15 9736.35 114.18
13055 53.5029 9806.76 9736.04 113.82
13056 53.5066 9880.28 9735.81 114.07
13057 53.5104 9870.48 9735.63 114.19
13058 53.5141 9815.35 9735.49 113.63
13059 53.5179 9784.34 9735.39 113.70
13060 53.5217 9826.25 9735.31 112.48
13061 53.5254 9651.88 9735.25 112.84
13062 53.5292 9795.18 9735.22 111.43
13063 53.5329 9877.82 9735.20 116.49
13064 53.5367 9860.70 9735.20 115.13
13065 53.5404 9662.29 9735.21 113.00
13066 53.5442 9843.31 9734.20 113.94
13067 53.5480 9682.62 9734.24 113.07
13068 53.5517 9899.85 9734.28 113.68
13069 53.5555 9542.93 9734.33 111.34
13070 53.5592 9802.90 9734.39 113.81
13071 53.5630 9489.94 9734.46 111.30
13072 53.5668 9918.42 9734.53 115.16
13073 53.5705 9790.54 9734.60 113.77
13074 53.5743 10157.70 9734.69 115.89
13075 53.5780 9808.44 9734.77 113.80
13076 53.5818 9705.10 9734.86 113.32
13077 53.5856 9782.85 9734.96 113.98
13078 53.5893 10001.20 9735.05 115.41
13079 53.5931 9847.46 9735.15 114.17
13080 53.5968 10116.00 9735.26 114.82
13081 53.6006 9684.49 9735.37 113.25
13082 53.6043 9891.50 9735.47 114.45
13083 53.6081 9729.51 9735.59 113.47
13084 53.6119 9701.30 9735.71 113.08
13085 53.6156 9769.94 9735.82 113.81
13086 53.6194 10048.10 9735.94 114.04
13087 53.6231 9710.48 9736.07 113.42
13088 53.6269 9689.58 9736.19 113.51
13089 53.6307 9497.55 9736.32 110.03
13090 53.6344 10050.70 9736.45 118.02
13091 53.6382 9761.83 9736.58 115.12
13092 53.6419 9998.54 9736.72 114.49
13093 53.6457 9754.09 9736.85 112.11
13094 53.6495 9916.44 9736.99 114.08
13095 53.6532 9658.28 9737.13 112.39
13096 53.6570 10011.60 9737.28 114.25
13097 53.6607 9768.76 9737.42 112.69
13098 53.6645 9987.36 9737.57 114.61
13099 53.6683 9630.64 9737.72 112.16
13100 53.6720 9892.50 9737.87 114.17
13101 53.6758 9639.46 9738.03 111.35
13102 53.6795 9866.42 9738.18 113.42
13103 53.6833 9673.71 9738.35 111.86
13104 53.6870 9777.30 9738.51 113.03
13105 53.6908 9914.28 9738.67 113.46
13106 53.6946 9702.84 9738.84 112.31
13107 53.6983 9606.10 9739.01 111.79
13108 53.7021 9947.99 9739.19 114.41
13109 53.7058 9533.25 9739.37 111.55
13110 53.7096 9742.63 9739.55 112.35
13111 53.7134 9835.66 9739.74 114.09
13112 53.7171 9783.56 9739.92 112.64
13113 53.7209 9717.74 9740.12 113.01
13114 53.7246 9828.86 9740.31 113.60
13115 53.7284 9651.17 9740.52 111.32
13116 53.7322 10003.50 9740.73 113.77
13117 53.7359 9696.96 9740.94 114.77
13118 53.7397 9796.24 9741.16 112.71
13119 53.7434 9499.63 9741.38 110.73
13120 53.7472 9898.89 9741.61 112.94
13121 53.7510 9683.81 9741.86 112.01
13122 53.7547 9654.98 9742.10 111.72
13123 53.7585 9679.64 9742.36 112.44
13124 53.7622 9719.16 9742.62 112.07
13125 53.7660 9625.88 9742.90 111.97
13126 53.7698 9720.00 9743.19 112.53
13127 53.7735 9685.88 9743.48 110.83
13128 53.7773 9746.88 9743.81 111.92
13129 53.7810 9518.20 9744.13 111.34
13130 53.7848 9853.85 9744.49 113.61
13131 53.7885 9779.39 9744.86 112.96
13132 53.7923 9914.98 9745.26 114.22
13133 53.7961 9719.59 9745.69 112.98
13134 53.7998 9903.00 9746.13 113.84
13135 53.8036 9711.70 9746.63 112.25
13136 53.8073 9899.91 9747.15 113.70
13137 53.8111 9733.81 9747.72 112.77
13138 53.8149 9804.68 9748.35 113.45
13139 53.8186 9747.44 9749.01 113.04
13140 53.8224 9900.89 9749.75 113.01
13141 53.8261 9608.77 9750.53 111.77
13142 53.8299 9784.06 9751.40 111.64
13143 53.8337 9838.05 9752.35 114.85
13144 53.8374 10077.00 9753.36 116.04
13145 53.8412 9871.27 9754.48 113.70
13146 53.8449 9856.10 9755.67 112.57
13147 53.8487 9681.02 9756.96 112.17
13148 53.8525 9935.79 9758.39 114.25
13149 53.8562 9868.31 9759.88 113.85
13150 53.8600 9900.95 9761.42 113.07
13151 53.8637 9695.54 9763.12 112.76
13152 53.8675 9948.67 9764.98 114.43
13153 53.8713 9693.84 9766.70 112.73
13154 53.8750 10059.20 9768.69 115.19
13155 53.8788 9840.50 9770.79 113.64
13156 53.8825 10039.10 9772.88 115.07
13157 53.8863 9879.66 9775.04 114.11
13158 53.8901 9888.72 9777.15 114.58
13159 53.8938 9862.59 9779.13 114.46
13160 53.8976 9916.55 9781.01 114.25
13161 53.9013 9646.04 9782.64 112.24
13162 53.9051 9846.64 9784.02 113.33
13163 53.9088 9607.78 9785.04 112.26
13164 53.9126 9947.86 9785.70 115.01
13165 53.9164 9866.98 9785.93 113.51
13166 53.9201 9864.44 9785.74 114.02
13167 53.9239 9678.25 9785.14 112.89
13168 53.9276 9942.60 9784.20 114.07
13169 53.9314 9703.92 9782.93 111.41
13170 53.9352 9938.64 9781.41 117.27
13171 53.9389 9686.16 9779.76 113.53
13172 53.9427 9843.23 9777.95 113.58
13173 53.9464 9790.31 9776.13 113.09
13174 53.9502 9732.95 9774.25 113.15
13175 53.9540 9782.56 9772.41 113.68
13176 53.9577 10009.00 9770.66 115.35
13177 53.9615 9907.05 9768.95 114.15
13178 53.9652 9988.12 9767.37 114.32
13179 53.9690 9669.91 9765.85 112.38
13180 53.9728 10161.70 9764.44 116.43
13181 53.9765 9922.46 9763.17 114.66
13182 53.9803 9923.24 9761.97 114.32
13183 53.9840 9992.18 9760.91 115.43
13184 53.9878 10141.90 9759.92 115.68
13185 53.9916 9767.62 9759.03 113.40
13186 53.9953 10027.70 9758.25 115.25
13187 53.9991 9906.75 9757.54 114.20
13188 54.0028 10015.70 9756.92 115.07
13189 54.0066 9709.41 9756.36 112.86
13190 54.0104 10023.20 9755.87 114.56
13191 54.0141 9775.74 9755.45 114.31
13192 54.0179 9943.64 9755.07 113.63
13193 54.0216 9823.41 9754.76 114.59
13194 54.0254 9906.53 9754.48 114.66
13195 54.0292 9711.71 9754.24 112.35
13196 54.0329 10055.10 9754.05 116.15
13197 54.0367 9902.05 9753.88 116.86
13198 54.0404 10100.60 9753.74 115.70
13199 54.0442 9813.98 9753.62 113.22
13200 54.0480 10002.90 9753.53 114.88
13201 54.0517 9713.21 9753.46 113.19
13202 54.0555 10080.90 9753.40 115.22
13203 54.0592 9871.91 9753.36 114.43
13204 54.0630 9943.07 9753.33 114.96
13205 54.0668 10060.90 9753.32 114.67
13206 54.0705 9903.45 9753.32 114.51
13207 54.0743 9704.81 9753.32 113.21
13208 54.0780 10027.60 9753.34 115.76
13209 54.0818 9942.28 9753.36 114.93
13210 54.0856 10059.30 9800.31 114.75
13211 54.0893 9916.56 9800.77 113.93
13212 54.0931 10238.80 9801.25 115.92
13213 54.0968 9817.38 9801.73 113.79
13214 54.1006 10079.90 9802.23 115.48
13215 54.1044 9801.73 9802.75 113.90
13216 54.1081 10080.10 9849.43 114.85
13217 54.1119 9754.81 9850.40 113.47
13218 54.1156 10011.00 9897.27 115.54
13219 54.1194 9741.75 9898.69 114.15
13220 54.1232 9933.15 9900.13 115.19
13221 54.1269 10005.40 9901.55 114.79
13222 54.1307 9833.25 9903.03 112.37
13223 54.1344 9913.46 9904.50 116.26
13224 54.1382 10255.80 9906.02 117.86
13225 54.1420 9605.03 9907.57 112.43
13226 54.1457 9914.25 9909.11 112.97
13227 54.1495 10052.80 9910.71 114.88
13228 54.1532 9991.28 9912.29 115.14
13229 54.1570 9846.04 9913.93 113.47
13230 54.1608 10018.30 9915.60 114.54
13231 54.1645 9786.91 9917.25 113.16
13232 54.1683 10107.10 9918.97 115.31
13233 54.1720 9824.77 9920.67 113.91
13234 54.1758 10100.70 9922.44 115.23
13235 54.1796 9908.75 9925.31 114.43
13236 54.1833 9863.13 9927.09 113.70
13237 54.1871 9913.43 9928.95 112.94
13238 54.1908 10019.80 9930.78 114.78
13239 54.1946 9895.51 9932.70 113.57
13240 54.1984 10080.30 9934.64 115.45
13241 54.2021 9784.11 9936.56 112.92
13242 54.2059 10133.40 9938.56 115.35
13243 54.2096 9815.36 9940.54 112.88
13244 54.2134 10110.90 9942.60 116.18
13245 54.2172 9830.24 9944.69 113.79
13246 54.2209 10215.10 9946.76 116.33
13247 54.2247 10031.30 9948.92 114.86
13248 54.2284 9863.22 9951.05 112.56
13249 54.2322 9690.53 9953.27 111.46
13250 54.2359 10262.40 9955.47 118.79
13251 54.2397 9912.80 9957.74 113.86
13252 54.2435 9974.50 9960.07 113.53
13253 54.2472 9851.77 9962.38 113.08
13254 54.2510 9944.30 9964.78 113.78
13255 54.2548 10062.10 9967.23 114.40
13256 54.2585 9899.98 9969.64 114.03
13257 54.2623 9969.78 9972.16 114.73
13258 54.2660 10080.50 9974.65 114.90
13259 54.2698 9770.65 9977.26 113.48
13260 54.2736 10163.00 9979.91 115.15
13261 54.2773 9721.26 9982.52 113.06
13262 54.2811 10044.90 9985.26 114.94
13263 54.2848 9945.04 9987.97 114.30
13264 54.2886 9936.77 9990.80 114.13
13265 54.2923 9859.95 9993.60 113.00
13266 54.2961 10218.30 9996.52 116.01
13267 54.2999 10102.70 9999.49 114.94
13268 54.3036 10147.00 10002.40 115.60
13269 54.3074 9741.82 10005.50 112.26
13270 54.3111 10072.70 10008.60 113.85
13271 54.3149 9964.30 10011.80 114.92
13272 54.3187 9875.27 10015.00 113.47
13273 54.3224 9848.93 10018.20 114.38
13274 54.3262 10100.30 10021.60 115.12
13275 54.3300 9877.08 10025.00 113.19
13276 54.3337 10134.10 10028.40 115.79
13277 54.3375 9985.62 10031.90 116.72
13278 54.3412 10085.60 10035.40 115.61
13279 54.3450 10022.40 10039.10 114.43
13280 54.3487 10180.30 10042.70 115.77
13281 54.3525 9969.03 10046.60 114.79
13282 54.3563 10197.40 10050.40 115.73
13283 54.3600 9837.93 10054.30 113.83
13284 54.3638 10072.70 10058.30 115.07
13285 54.3675 9878.46 10062.30 113.55
13286 54.3713 10304.90 10066.50 116.77
13287 54.3751 10028.90 10070.80 115.22
13288 54.3788 10088.50 10075.10 115.69
13289 54.3826 9902.98 10079.50 113.85
13290 54.3864 10037.60 10084.00 114.88
13291 54.3901 10122.90 10088.50 115.29
13292 54.3939 9967.84 10093.30 114.13
13293 54.3976 9974.00 10097.90 114.19
13294 54.4014 10169.80 10102.90 115.88
13295 54.4051 10234.30 10107.70 116.40
13296 54.4089 10228.20 10112.90 115.76
13297 54.4127 10102.60 10118.10 115.15
13298 54.4164 10108.30 10123.30 115.86
13299 54.4202 10026.40 10128.80 115.34
13300 54.4239 10134.60 10134.20 116.03
13301 54.4277 10009.20 10139.90 113.85
13302 54.4315 10207.30 10145.70 115.06
13303 54.4352 9956.48 10151.50 117.16
13304 54.4390 10253.70 10157.60 117.18
13305 54.4428 9970.31 10163.80 114.59
13306 54.4465 10090.50 10170.00 115.45
13307 54.4503 10297.40 10176.50 115.43
13308 54.4540 10222.00 10182.90 116.18
13309 54.4578 10045.30 10189.70 115.27
13310 54.4616 10294.00 10196.70 115.74
13311 54.4653 10200.20 10203.60 115.26
13312 54.4691 10409.20 10210.90 117.73
13313 54.4728 10099.50 10218.20 116.16
13314 54.4766 10202.60 10225.90 116.18
13315 54.4804 10148.30 10233.70 115.73
13316 54.4841 10350.90 10241.50 116.68
13317 54.4879 10245.50 10249.80 115.54
13318 54.4916 10124.10 10258.00 116.01
13319 54.4954 10031.90 10266.60 115.03
13320 54.4992 10298.30 10275.50 116.94
13321 54.5029 10232.00 10284.40 116.52
13322 54.5067 10312.30 10293.70 117.05
13323 54.5104 10228.30 10303.00 115.93
13324 54.5142 10490.50 10312.90 118.88
13325 54.5180 10272.50 10323.00 116.48
13326 54.5217 10281.70 10333.10 117.00
13327 54.5255 10266.60 10343.70 116.56
13328 54.5292 10211.80 10354.40 114.64
13329 54.5330 10239.90 10365.60 117.83
13330 54.5368 10392.70 10377.20 118.17
13331 54.5405 10357.00 10388.80 117.00
13332 54.5443 10245.40 10401.00 114.93
13333 54.5480 10304.00 10413.20 116.35
13334 54.5518 10502.50 10426.20 118.22
13335 54.5556 10241.90 10439.50 116.86
13336 54.5593 10487.90 10452.90 117.60
13337 54.5631 10241.00 10467.00 116.42
13338 54.5668 10429.90 10481.20 117.97
13339 54.5706 10297.40 10496.20 116.46
13340 54.5744 10485.40 10511.70 118.47
13341 54.5781 10398.40 10527.30 115.86
13342 54.5819 10666.20 10543.80 119.65
13343 54.5856 10469.60 10560.30 117.86
13344 54.5894 10380.40 10577.90 117.42
13345 54.5932 10172.90 10596.00 115.46
13346 54.5969 10437.50 10614.20 117.93
13347 54.6007 10686.80 10633.60 120.16
13348 54.6044 10627.60 10653.10 118.96
13349 54.6082 10476.30 10673.80 117.38
13350 54.6120 10541.20 10695.30 118.22
13351 54.6157 10595.90 10716.80 119.04
13352 54.6195 10465.10 10739.80 117.99
13353 54.6232 10631.40 10763.00 119.44
13354 54.6270 10703.20 10787.70 120.00
13355 54.6308 10499.50 10813.30 117.51
13356 54.6345 10758.50 10839.10 120.09
13357 54.6383 10675.00 10866.60 121.94
13358 54.6420 10858.90 10894.50 121.31
13359 54.6458 10587.50 10924.20 118.39
13360 54.6496 10966.20 10955.10 120.99
13361 54.6533 10724.00 10986.40 119.21
13362 54.6571 10693.70 11019.80 119.37
13363 54.6608 10796.90 11053.60 119.66
13364 54.6646 11107.40 11089.90 121.88
13365 54.6684 10880.60 11127.60 121.14
13366 54.6721 10971.00 11166.00 120.76
13367 54.6759 10806.10 11207.10 119.99
13368 54.6796 11225.60 11248.90 123.46
13369 54.6834 10961.00 11293.80 121.13
13370 54.6872 11234.80 11340.70 122.98
13371 54.6909 11027.30 11388.40 120.54
13372 54.6947 11036.20 11439.80 121.90
13373 54.6984 11187.20 11492.10 123.30
13374 54.7022 11369.80 11548.50 123.14
13375 54.7060 11258.30 11607.70 123.62
13376 54.7097 11515.30 11668.20 124.29
13377 54.7135 11465.20 11733.40 124.97
13378 54.7172 11604.30 11800.30 123.32
13379 54.7210 11219.60 11872.60 122.78
13380 54.7248 11561.20 11948.80 125.36
13381 54.7285 11509.20 12027.00 123.79
13382 54.7323 11737.00 12111.80 124.10
13383 54.7360 11648.00 12199.10 127.99
13384 54.7398 12018.70 12293.90 126.31
13385 54.7436 11624.10 12394.40 125.07
13386 54.7473 12094.50 12498.00 127.80
13387 54.7511 12293.40 12611.00 129.15
13388 54.7548 12463.80 12727.80 130.49
13389 54.7586 12273.50 12855.50 128.26
13390 54.7624 12485.70 12991.40 129.83
13391 54.7661 12556.50 13132.80 130.20
13392 54.7699 12992.60 13287.80 131.22
13393 54.7736 12889.30 13449.30 131.87
13394 54.7774 13296.50 13626.80 134.37
13395 54.7812 13371.60 13817.70 134.92
13396 54.7849 13692.90 14017.20 137.31
13397 54.7887 14110.70 14238.10 140.21
13398 54.7924 14258.40 14469.90 139.58
13399 54.7962 14409.60 14727.30 142.27
13400 54.8000 14928.50 15006.70 144.70
13401 54.8037 15305.30 15301.50 145.99
13402 54.8075 15734.30 15631.10 147.82
13403 54.8112 16132.80 15980.90 148.23
13404 54.8150 16798.00 16373.80 156.43
13405 54.8188 17167.80 16805.00 156.13
13406 54.8225 18046.10 17267.40 162.18
13407 54.8263 18506.80 17791.40 162.40
13408 54.8300 19498.10 18358.30 167.49
13409 54.8338 19935.80 19007.10 169.28
13410 54.8376 21780.30 19737.80 184.71
13411 54.8413 22500.90 20543.00 183.88
13412 54.8451 24058.80 21489.10 190.31
13413 54.8488 24981.90 22553.00 195.33
13414 54.8526 27140.30 23831.50 204.84
13415 54.8564 28625.50 25349.00 211.10
13416 54.8601 31048.70 27111.80 220.37
13417 54.8639 33283.30 29302.80 232.87
13418 54.8676 36596.80 31890.40 244.65
13419 54.8714 38546.90 35132.10 253.85
13420 54.8752 43297.30 39089.40 271.80
13421 54.8789 46226.40 43774.20 281.21
13422 54.8827 51445.40 49573.70 303.33
13423 54.8864 55345.20 56333.30 316.78
13424 54.8902 62329.90 64527.20 342.39
13425 54.8940 68083.60 74093.50 361.17
13426 54.8977 77152.00 84727.50 393.10
13427 54.9015 84963.30 96912.70 417.09
13428 54.9052 97044.40 109720.00 455.12
13429 54.9090 107411.00 123362.00 483.09
13430 54.9128 123230.00 136788.00 532.21
13431 54.9165 136652.00 148993.00 572.18
13432 54.9203 154736.00 160121.00 617.20
13433 54.9240 168222.00 169381.00 657.74
13434 54.9278 183949.00 177347.00 696.17
13435 54.9316 191174.00 183631.00 702.43
13436 54.9353 202096.00 187741.00 761.01
13437 54.9391 195711.00 189130.00 735.97
13438 54.9428 192032.00 186955.00 712.71
13439 54.9466 177483.00 180654.00 679.82
13440 54.9504 165629.00 170405.00 649.85
13441 54.9541 148391.00 157436.00 603.48
13442 54.9579 135146.00 142226.00 564.68
13443 54.9616 117711.00 126786.00 520.74
13444 54.9654 105458.00 111272.00 481.66
13445 54.9692 91273.50 96825.50 438.58
13446 54.9729 81500.70 84136.80 407.51
13447 54.9767 71011.30 72715.30 372.78
13448 54.9804 64355.50 63150.00 346.52
13449 54.9842 55935.50 54851.60 321.07
13450 54.9880 50821.20 47975.20 302.09
13451 54.9917 44900.70 42460.00 277.07
13452 54.9955 41632.80 37841.60 266.94
13453 54.9992 36816.70 34182.90 246.13
13454 55.0030 33927.70 31133.40 233.58
13455 55.0068 30872.90 28651.20 222.70
13456 55.0105 28716.90 26667.00 212.62
13457 55.0143 26109.90 24974.20 201.62
13458 55.0180 24730.80 23590.10 194.35
13459 55.0218 22741.40 22379.00 183.96
13460 55.0256 22328.10 21337.80 183.31
13461 55.0293 20289.00 20452.50 172.37
13462 55.0331 19721.90 19652.50 166.80
13463 55.0368 18875.40 18959.90 169.20
13464 55.0406 18473.10 18323.80 164.11
13465 55.0444 17156.90 17752.60 156.83
13466 55.0481 16889.10 17250.00 154.82
13467 55.0519 16026.00 16782.40 150.93
13468 55.0556 15960.70 16367.50 150.41
13469 55.0594 15372.50 15979.00 147.28
13470 55.0632 15219.30 15623.50 146.75
13471 55.0669 14492.10 15306.20 143.13
13472 55.0707 14386.90 15006.20 142.01
13473 55.0744 13816.90 14737.10 139.16
13474 55.0782 13936.00 14481.70 139.18
13475 55.0820 13366.20 14245.80 137.14
13476 55.0857 13565.00 14032.50 137.59
13477 55.0895 13190.70 13829.30 135.13
13478 55.0932 13269.70 13645.00 135.94
13479 55.0970 13172.10 13468.70 135.11
13480 55.1008 12893.80 13304.20 132.13
13481 55.1045 12600.10 13154.60 131.76
13482 55.1083 12896.70 13010.60 132.84
13483 55.1120 12552.70 12879.20 131.33
13484 55.1158 12416.30 12752.60 130.41
13485 55.1196 12115.30 12633.70 128.74
13486 55.1233 12344.50 12524.80 129.59
13487 55.1271 12143.10 12419.30 129.25
13488 55.1308 12183.00 12322.60 127.35
13489 55.1346 12169.00 12228.70 131.33
13490 55.1384 12106.10 12140.10 130.16
13491 55.1421 11961.10 12058.40 127.39
13492 55.1459 11827.30 11979.10 126.57
13493 55.1496 11910.30 11905.80 126.96
13494 55.1534 11848.30 11834.40 127.13
13495 55.1571 11563.70 11768.40 125.06
13496 55.1609 11657.80 11704.10 125.67
13497 55.1647 11272.50 11642.90 123.97
13498 55.1684 11623.20 11586.30 124.31
13499 55.1722 11454.80 11530.90 124.40
13500 55.1759 11364.80 11479.50 124.17
13501 55.1797 11219.20 11429.20 123.35
13502 55.1835 11590.70 11381.30 125.06
13503 55.1872 11068.00 11336.70 121.67
13504 55.1910 11378.60 11293.00 122.49
13505 55.1947 11049.30 11252.40 122.20
13506 55.1985 11146.50 11212.40 122.01
13507 55.2023 11006.50 11174.50 121.37
13508 55.2060 11055.60 11139.00 122.49
13509 55.2098 11100.30 11104.00 122.20
13510 55.2135 11257.40 11071.50 123.60
13511 55.2173 10991.20 11039.40 121.85
13512 55.2211 11117.70 11008.80 122.38
13513 55.2248 10829.10 10980.20 120.76
13514 55.2286 10746.90 10952.00 120.25
13515 55.2323 10787.60 10925.80 118.68
13516 55.2361 11058.80 10899.90 124.52
13517 55.2399 10823.00 10875.20 121.36
13518 55.2436 10793.90 10852.10 119.62
13519 55.2474 10642.50 10829.40 118.02
13520 55.2511 10860.00 10808.20 120.56
13521 55.2549 10545.70 10787.30 117.76
13522 55.2587 10912.00 10767.40 121.16
13523 55.2624 10651.00 10748.90 119.52
13524 55.2662 10755.00 10730.70 119.99
13525 55.2699 10367.50 10713.80 117.43
13526 55.2737 10852.50 10697.20 119.78
13527 55.2775 10580.50 10681.50 119.20
13528 55.2812 10805.80 10666.90 120.12
13529 55.2850 10406.70 10652.80 117.85
13530 55.2887 10524.90 10639.80 118.49
13531 55.2925 10557.10 10627.20 118.57
13532 55.2963 10825.20 10615.50 119.82
13533 55.3000 10546.40 10604.90 117.70
13534 55.3038 10601.60 10594.80 119.21
13535 55.3075 10595.40 10585.90 118.72
13536 55.3113 10773.30 10577.60 118.65
13537 55.3151 10550.40 10570.30 119.52
13538 55.3188 10635.40 10564.20 118.85
13539 55.3226 10401.50 10559.00 117.56
13540 55.3263 10556.60 10555.10 118.94
13541 55.3301 10746.00 10552.20 120.03
13542 55.3339 10710.20 10550.60 118.79
13543 55.3376 10759.70 10550.40 123.42
13544 55.3414 10916.70 10551.70 120.64
13545 55.3451 10591.90 10554.40 118.60
13546 55.3489 10901.40 10558.90 120.31
13547 55.3526 10423.80 10565.00 117.75
13548 55.3564 10710.10 10573.00 119.37
13549 55.3602 10678.60 10583.00 119.48
13550 55.3639 10757.90 10594.80 119.65
13551 55.3677 10463.30 10608.90 117.25
13552 55.3714 10670.20 10624.70 119.55
13553 55.3752 10501.50 10643.20 117.60
13554 55.3790 10645.00 10663.80 119.22
13555 55.3827 10802.40 10686.00 120.29
13556 55.3865 10771.40 10710.80 119.74
13557 55.3902 10661.20 10736.80 119.14
13558 55.3940 10897.00 10765.10 120.27
13559 55.3978 10684.60 10794.70 119.69
13560 55.4015 10965.10 10824.40 120.87
13561 55.4053 10438.10 10854.90 117.66
13562 55.4090 10822.10 10884.10 120.45
13563 55.4128 10796.50 10912.50 120.21
13564 55.4166 10974.60 10938.20 120.51
13565 55.4203 10678.40 10959.40 120.16
13566 55.4241 11081.50 10976.20 122.67
13567 55.4278 10612.10 10986.70 119.41
13568 55.4316 10880.70 10990.50 118.39
13569 55.4354 10607.40 10986.80 122.19
13570 55.4391 10934.10 10975.80 121.74
13571 55.4429 10614.80 10957.20 117.80
13572 55.4466 10956.10 10932.70 120.95
13573 55.4504 10681.60 10901.90 119.53
13574 55.4542 10883.20 10866.60 119.77
13575 55.4579 10741.00 10828.80 120.28
13576 55.4617 10835.80 10787.90 120.47
13577 55.4654 10729.70 10746.90 120.46
13578 55.4692 10778.40 10704.50 120.08
13579 55.4729 10319.00 10663.50 117.95
13580 55.4767 10477.60 10622.40 119.07
13581 55.4805 10335.80 10582.60 117.46
13582 55.4842 10694.80 10545.60 118.39
13583 55.4880 10429.50 10509.30 117.94
13584 55.4917 10555.70 10476.00 119.66
13585 55.4955 10304.60 10443.70 117.94
13586 55.4993 10259.00 10413.60 116.28
13587 55.5030 10381.80 10386.20 118.65
13588 55.5068 10330.40 10360.00 117.36
13589 55.5105 10306.20 10336.30 116.99
13590 55.5143 10369.80 10313.80 118.08
13591 55.5181 10227.60 10293.10 116.54
13592 55.5218 10366.00 10274.40 118.52
13593 55.5256 10240.00 10256.70 115.51
13594 55.5293 10391.20 10240.80 117.67
13595 55.5331 10158.30 10225.70 114.99
13596 55.5369 10209.00 10211.80 119.71
13597 55.5406 9985.79 10201.70 115.20
13598 55.5444 10270.00 10189.90 116.59
13599 55.5481 10047.20 10179.20 114.83
13600 55.5519 10489.30 10169.10 118.88
13601 55.5557 10097.40 10159.60 115.61
13602 55.5594 10493.30 10151.10 119.32
13603 55.5632 9891.35 10145.40 115.49
13604 55.5669 10309.40 10140.40 116.64
13605 55.5707 10150.90 10133.20 115.38
13606 55.5744 10324.70 10126.60 116.77
13607 55.5782 10037.70 10120.20 114.50
13608 55.5820 10079.90 10114.10 115.32
13609 55.5857 10079.00 10108.50 115.39
13610 55.5895 10261.20 10103.10 116.29
13611 55.5932 10039.10 10098.00 115.04
13612 55.5970 10056.60 10093.00 114.96
13613 55.6008 10220.90 10088.30 116.29
13614 55.6045 10126.30 10083.80 114.92
13615 55.6083 10255.00 10079.40 115.80
13616 55.6120 10123.60 10075.30 114.48
13617 55.6158 10090.80 10071.30 115.39
13618 55.6196 10097.50 10067.40 114.72
13619 55.6233 9957.37 10063.70 114.64
13620 55.6271 10116.30 10060.10 115.70
13621 55.6308 10024.10 10056.70 114.33
13622 55.6346 10143.00 10053.30 114.25
13623 55.6383 10032.10 10050.10 116.83
13624 55.6421 10219.50 10046.90 116.51
13625 55.6459 10006.70 10043.80 114.10
13626 55.6496 10297.50 10040.90 115.17
13627 55.6534 10092.00 10038.00 114.36
13628 55.6571 10224.60 10035.20 116.18
13629 55.6609 9967.10 10032.50 113.86
13630 55.6647 10177.40 10029.90 115.44
13631 55.6684 10016.60 10027.40 113.42
13632 55.6722 10097.00 10024.90 114.83
13633 55.6759 9764.87 10022.50 112.35
13634 55.6797 10155.00 10020.10 115.14
13635 55.6835 9894.30 10017.80 113.90
13636 55.6872 10035.50 10015.60 113.13
13637 55.6910 9974.03 10013.40 113.68
13638 55.6947 10093.60 10011.40 114.45
13639 55.6985 9762.43 10009.30 113.00
13640 55.7022 10078.80 10007.30 114.72
13641 55.7060 10060.80 10005.40 114.36
13642 55.7098 9996.30 10003.50 114.05
13643 55.7135 9822.75 10001.60 112.75
13644 55.7173 9889.27 9999.82 114.08
13645 55.7210 9925.61 9998.09 112.84
13646 55.7248 9993.04 9996.37 114.76
13647 55.7286 9970.21 9994.68 114.20
13648 55.7323 9998.63 9993.08 113.37
13649 55.7361 9980.22 9991.48 115.02
13650 55.7398 10162.40 9989.96 116.97
13651 55.7436 9757.85 9988.43 111.98
13652 55.7474 10146.70 9986.95 114.93
13653 55.7511 9770.76 9985.54 111.74
13654 55.7549 9947.30 9937.60 112.74
13655 55.7586 9780.75 9936.67 112.81
13656 55.7624 10116.10 9935.74 114.85
13657 55.7661 9810.60 9934.87 112.52
13658 55.7699 10090.00 9934.00 114.81
13659 55.7737 9777.86 9933.16 112.75
13660 55.7774 9921.40 9886.50 114.18
13661 55.7812 9877.79 9886.13 113.46
13662 55.7849 10043.00 9840.14 114.48
13663 55.7887 9807.74 9840.22 112.94
13664 55.7925 10351.20 9840.32 116.40
13665 55.7962 9955.94 9840.42 114.07
13666 55.8000 10022.60 9840.55 113.92
13667 55.8037 9806.18 9840.69 112.55
13668 55.8075 10039.00 9840.85 114.49
13669 55.8112 9902.80 9841.02 113.64
13670 55.8150 9888.97 9841.21 113.34
13671 55.8188 9895.48 9841.42 113.35
13672 55.8225 10028.50 9841.64 113.65
13673 55.8263 9971.47 9841.88 114.89
13674 55.8300 10019.20 9842.13 114.36
13675 55.8338 9865.52 9842.41 112.37
13676 55.8376 10206.50 9842.70 117.94
13677 55.8413 9726.63 9843.01 113.34
13678 55.8451 9890.82 9843.34 113.37
13679 55.8488 9878.62 9843.68 113.04
13680 55.8526 9930.87 9844.06 113.47
13681 55.8563 9715.99 9844.44 112.44
13682 55.8601 9926.79 9844.86 114.43
13683 55.8639 9982.62 9845.30 113.76
13684 55.8676 10066.60 9845.76 115.02
13685 55.8714 9817.25 9846.25 112.83
13686 55.8751 10079.60 9846.76 115.32
13687 55.8789 9784.19 9847.30 113.23
13688 55.8827 9981.14 9847.89 114.43
13689 55.8864 10032.20 9848.49 114.81
13690 55.8902 10191.70 9849.14 115.39
13691 55.8939 9945.33 9849.81 114.57
13692 55.8977 9972.73 9850.54 114.17
13693 55.9014 9873.61 9851.29 113.46
13694 55.9052 9972.72 9852.11 114.22
13695 55.9090 9925.41 9852.99 113.87
13696 55.9127 10057.40 9853.90 114.96
13697 55.9165 9992.46 9854.89 114.87
13698 55.9202 9929.64 9855.92 113.74
13699 55.9240 9909.56 9857.06 114.86
13700 55.9277 10129.30 9858.25 115.75
13701 55.9315 9861.57 9859.56 112.29
13702 55.9353 10086.00 9860.98 115.36
13703 55.9390 10040.40 9862.47 117.91
13704 55.9428 10005.60 9864.13 115.16
13705 55.9465 9906.63 9865.90 113.90
13706 55.9503 10069.40 9867.88 114.32
13707 55.9541 9994.17 9870.06 114.59
13708 55.9578 10204.00 9872.43 116.39
13709 55.9616 10058.50 9875.14 114.89
13710 55.9653 10133.70 9878.13 115.37
13711 55.9691 10045.90 9881.62 114.80
13712 55.9728 10004.70 9885.56 115.29
13713 55.9766 9881.78 9890.28 114.21
13714 55.9804 10172.40 9895.88 115.85
13715 55.9841 10045.50 9902.39 115.26
13716 55.9879 10120.40 9910.43 115.88
13717 55.9916 9977.13 9919.88 114.14
13718 55.9954 10250.20 9931.64 116.10
13719 55.9992 10022.20 9945.85 115.07
13720 56.0029 10038.00 9962.49 115.24
13721 56.0067 10096.90 9982.79 115.71
13722 56.0104 10000.80 10006.10 115.18
13723 56.0142 10188.50 10033.70 115.64
13724 56.0179 10332.00 10064.30 117.46
13725 56.0217 10219.70 10099.00 115.76
13726 56.0255 10240.10 10136.30 116.27
13727 56.0292 10141.30 10173.60 115.88
13728 56.0330 10235.60 10211.30 115.37
13729 56.0367 10083.50 10245.60 117.52
13730 56.0405 10276.40 10276.40 118.33
13731 56.0442 10086.30 10300.10 115.42
13732 56.0480 10275.10 10315.70 116.82
13733 56.0518 10188.60 10320.10 116.36
13734 56.0555 10209.50 10312.40 116.11
13735 56.0593 10242.60 10292.10 116.38
13736 56.0630 10431.90 10262.70 117.43
13737 56.0668 10235.30 10225.70 116.64
13738 56.0705 10443.80 10186.90 117.63
13739 56.0743 10183.20 10147.00 116.32
13740 56.0781 10263.50 10109.30 117.10
13741 56.0818 10207.00 10075.90 115.49
13742 56.0856 10404.50 10045.70 117.16
13743 56.0893 10170.30 10020.40 116.19
13744 56.0931 9982.22 9998.51 114.61
13745 56.0968 10066.60 9980.92 115.60
13746 56.1006 10242.80 9966.24 116.34
13747 56.1044 10221.80 9954.57 116.54
13748 56.1081 10392.40 9945.61 116.99
13749 56.1119 10195.60 9938.49 114.95
13750 56.1156 10146.50 9933.17 116.25
13751 56.1194 9984.29 9929.05 115.18
13752 56.1232 10130.90 9926.01 115.73
13753 56.1269 10046.10 9923.88 115.09
13754 56.1307 10151.20 9922.37 115.74
13755 56.1344 9969.71 9921.45 111.90
13756 56.1382 10425.40 9920.95 118.18
13757 56.1419 9905.19 9920.85 115.27
13758 56.1457 10047.80 9921.09 114.30
13759 56.1495 9885.60 9921.62 113.54
13760 56.1532 10128.20 9922.41 115.67
13761 56.1570 10106.70 9923.48 115.67
13762 56.1607 10114.20 9924.75 114.99
13763 56.1645 9948.77 9926.28 114.20
13764 56.1682 10256.50 9927.99 116.79
13765 56.1720 9737.26 9929.96 112.72
13766 56.1758 10182.80 9932.16 115.87
13767 56.1795 9975.22 9934.51 114.32
13768 56.1833 10180.60 9937.14 116.34
13769 56.1870 9851.85 9939.92 114.17
13770 56.1908 10006.80 9943.00 115.13
13771 56.1945 9918.64 9946.23 114.15
13772 56.1983 10109.20 9949.80 115.66
13773 56.2021 10072.30 9953.62 115.65
13774 56.2058 10211.60 9957.60 116.68
13775 56.2096 9955.27 9961.97 114.21
13776 56.2133 10088.60 9966.53 115.31
13777 56.2171 10163.90 9971.51 116.19
13778 56.2208 10162.30 9976.70 115.69
13779 56.2246 9884.92 9982.38 114.65
13780 56.2284 10103.00 9988.46 115.83
13781 56.2321 10003.60 9994.77 114.53
13782 56.2359 9901.26 10001.70 113.51
13783 56.2396 9922.32 10008.90 116.34
13784 56.2434 10193.90 10016.90 116.13
13785 56.2471 9983.07 10025.20 114.26
13786 56.2509 10103.60 10034.30 115.01
13787 56.2547 10125.90 10044.10 115.78
13788 56.2584 10243.10 10054.40 116.47
13789 56.2622 10081.50 10065.80 115.66
13790 56.2659 10227.50 10077.70 114.82
13791 56.2697 10126.90 10091.00 115.82
13792 56.2734 10307.90 10104.90 117.17
13793 56.2772 10121.10 10120.40 115.83
13794 56.2810 10256.30 10137.30 117.07
13795 56.2847 10071.90 10155.20 115.29
13796 56.2885 10451.60 10175.30 117.64
13797 56.2922 10091.10 10196.70 115.33
13798 56.2960 10246.70 10220.80 116.23
13799 56.2997 10523.70 10246.60 118.75
13800 56.3035 10469.10 10275.90 117.24
13801 56.3073 10525.10 10308.50 118.77
13802 56.3110 10668.70 10343.90 118.73
13803 56.3148 10601.60 10384.90 118.48
13804 56.3185 10687.60 10430.10 119.95
13805 56.3223 10844.20 10483.30 120.55
13806 56.3260 10941.80 10543.10 121.26
13807 56.3298 10954.50 10615.10 120.89
13808 56.3335 11264.90 10697.70 121.28
13809 56.3373 11333.20 10799.30 124.17
13810 56.3411 11512.60 10921.60 126.16
13811 56.3448 11554.80 11065.60 124.34
13812 56.3486 11764.60 11245.20 125.34
13813 56.3523 12060.90 11456.90 127.24
13814 56.3561 12576.60 11719.80 130.80
13815 56.3598 12663.40 12027.00 131.93
13816 56.3636 13194.10 12402.90 135.23
13817 56.3674 13402.80 12845.80 134.82
13818 56.3711 13947.90 13346.80 139.25
13819 56.3749 14286.00 13932.60 140.10
13820 56.3786 14968.10 14568.20 144.46
13821 56.3824 15750.70 15272.60 148.01
13822 56.3861 16886.60 15986.40 155.12
13823 56.3899 17313.20 16713.70 156.32
13824 56.3937 18777.10 17402.20 164.49
13825 56.3974 19481.10 18007.00 168.62
13826 56.4012 20687.50 18548.10 174.27
13827 56.4049 20948.10 18988.80 176.84
13828 56.4087 21782.20 19336.80 178.71
13829 56.4124 22072.10 19543.40 180.02
13830 56.4162 21830.60 19575.40 179.47
13831 56.4199 20633.60 19394.00 174.02
13832 56.4237 20294.00 18979.20 173.91
13833 56.4275 19009.80 18359.10 167.12
13834 56.4312 18482.40 17615.00 162.47
13835 56.4350 16907.10 16774.80 153.73
13836 56.4387 16381.10 15944.70 156.36
13837 56.4425 15281.20 15125.60 147.77
13838 56.4462 14788.70 14390.50 143.25
13839 56.4500 13791.70 13714.40 137.49
13840 56.4538 13543.30 13124.50 136.34
13841 56.4575 12750.60 12632.30 132.21
13842 56.4613 12328.20 12205.30 129.69
13843 56.4650 12105.80 11859.10 127.97
13844 56.4688 11957.40 11565.50 127.24
13845 56.4725 11577.50 11331.90 124.54
13846 56.4763 11246.80 11135.70 122.68
13847 56.4800 11077.50 10980.00 121.53
13848 56.4838 10838.90 10848.90 120.67
13849 56.4876 10549.40 10741.10 118.64
13850 56.4913 10861.10 10653.40 120.84
13851 56.4951 10469.70 10577.50 118.00
13852 56.4988 10678.80 10514.30 118.87
13853 56.5026 10246.10 10458.20 116.57
13854 56.5063 10494.10 10410.40 117.52
13855 56.5101 10124.50 10367.10 115.63
13856 56.5138 10394.40 10329.60 117.01
13857 56.5176 10232.00 10295.10 116.14
13858 56.5214 10332.70 10264.10 117.72
13859 56.5251 10091.70 10236.80 116.08
13860 56.5289 10300.40 10211.30 116.97
13861 56.5326 10171.40 10188.60 114.34
13862 56.5364 10293.60 10167.40 118.05
13863 56.5401 10228.10 10148.50 117.84
13864 56.5439 10066.30 10130.60 114.75
13865 56.5477 9949.22 10114.20 114.16
13866 56.5514 10124.70 10099.50 115.25
13867 56.5552 10018.00 10085.40 114.75
13868 56.5589 10098.40 10072.80 115.25
13869 56.5627 9848.54 10060.80 113.46
13870 56.5664 10061.50 10049.90 115.09
13871 56.5702 9791.78 10039.50 113.48
13872 56.5739 9867.87 10030.00 114.15
13873 56.5777 9900.87 10020.90 114.35
13874 56.5815 10037.80 10012.50 114.67
13875 56.5852 9881.96 10004.70 113.77
13876 56.5890 9991.59 9997.29 114.30
13877 56.5927 9958.20 9990.47 114.66
13878 56.5965 10048.90 9983.90 114.51
13879 56.6002 10133.90 9977.87 115.22
13880 56.6040 10142.20 9972.03 115.16
13881 56.6077 9772.11 9966.67 112.92
13882 56.6115 9922.09 9961.46 114.16
13883 56.6153 9874.13 9956.54 113.53
13884 56.6190 9968.26 9952.01 115.31
13885 56.6228 9982.37 9947.60 114.86
13886 56.6265 10011.40 9943.53 114.88
13887 56.6303 10023.30 9939.56 115.04
13888 56.6340 9843.16 9935.89 111.27
13889 56.6378 9762.96 9932.31 113.95
13890 56.6415 10057.90 9928.99 117.02
13891 56.6453 9855.22 9925.75 113.44
13892 56.6491 9769.53 9922.65 112.65
13893 56.6528 9830.77 9919.78 113.62
13894 56.6566 9957.76 9916.97 113.94
13895 56.6603 9829.98 9914.35 113.63
13896 56.6641 9765.98 9911.78 113.14
13897 56.6678 9554.49 9909.39 111.79
13898 56.6716 9907.64 9907.04 114.28
13899 56.6753 9921.95 9904.85 113.73
13900 56.6791 9983.28 9902.70 113.73
13901 56.6828 9720.68 9900.69 112.65
13902 56.6866 9893.52 9898.71 113.62
13903 56.6904 9774.96 9896.81 113.25
13904 56.6941 10025.90 9893.96 114.93
13905 56.6979 9682.50 9892.21 112.52
13906 56.7016 9921.35 9890.58 112.39
13907 56.7054 9921.06 9888.97 113.52
13908 56.7091 9901.49 9887.46 114.49
13909 56.7129 9676.03 9885.97 112.26
13910 56.7166 10021.20 9884.58 115.50
13911 56.7204 9651.19 9883.20 112.80
13912 56.7242 9838.71 9881.87 113.99
13913 56.7279 9666.59 9880.62 112.64
13914 56.7317 9768.69 9879.39 112.09
13915 56.7354 9627.21 9878.23 110.82
13916 56.7392 9986.50 9877.08 116.58
13917 56.7429 9868.27 9876.00 113.37
13918 56.7467 9821.45 9874.94 112.94
13919 56.7504 9909.49 9873.93 113.42
13920 56.7542 9736.42 9872.94 112.67
13921 56.7579 9628.80 9872.00 112.01
13922 56.7617 9827.13 9871.08 113.40
13923 56.7655 9713.09 9870.18 112.23
13924 56.7692 9889.21 9869.34 113.69
13925 56.7730 9767.34 9868.51 113.19
13926 56.7767 9855.32 9867.73 113.46
13927 56.7805 9853.57 9866.95 114.32
13928 56.7842 9898.56 9866.23 112.16
13929 56.7880 9748.37 9865.51 113.13
13930 56.7917 9754.53 9864.83 112.80
13931 56.7955 9828.20 9864.16 113.46
13932 56.7992 9946.41 9863.54 113.64
13933 56.8030 9739.59 9862.92 112.59
13934 56.8068 9812.76 9862.33 113.67
13935 56.8105 9828.46 9861.78 113.26
13936 56.8143 9884.69 9861.24 113.30
13937 56.8180 9628.85 9860.73 112.91
13938 56.8218 9854.77 9860.25 113.08
13939 56.8255 9749.49 9859.79 112.35
13940 56.8293 9763.52 9859.36 113.25
13941 56.8330 9739.92 9858.96 111.78
13942 56.8368 9851.88 9858.57 112.69
13943 56.8405 9867.48 9858.23 115.51
13944 56.8443 9827.47 9857.90 114.11
13945 56.8481 9573.45 9857.60 110.75
13946 56.8518 9823.24 9857.34 112.84
13947 56.8556 9868.78 9857.10 113.06
13948 56.8593 10033.10 9856.90 114.94
13949 56.8631 9658.93 9856.72 111.96
13950 56.8668 9666.10 9856.57 112.86
13951 56.8706 9853.14 9856.45 114.07
13952 56.8743 9816.66 9856.36 113.36
13953 56.8781 9752.78 9856.30 113.17
13954 56.8818 9996.33 9856.26 114.53
13955 56.8856 9788.45 9856.25 113.07
13956 56.8894 9756.19 9856.17 113.32
13957 56.8931 9870.78 9856.19 113.42
13958 56.8969 9921.64 9856.21 114.73
13959 56.9006 9932.14 9856.22 113.79
13960 56.9044 9955.24 9856.23 114.86
13961 56.9081 9766.24 9856.06 113.08
13962 56.9119 9846.89 9855.95 113.90
13963 56.9156 9505.43 9855.87 111.92
13964 56.9194 9897.13 9855.74 112.39
13965 56.9231 9941.14 9855.54 114.63
13966 56.9269 10026.50 9855.28 114.81
13967 56.9306 9726.43 9854.95 113.03
13968 56.9344 9745.05 9854.54 111.60
13969 56.9382 9819.69 9854.08 114.97
13970 56.9419 9797.68 9853.57 113.60
13971 56.9457 9755.83 9853.01 112.95
13972 56.9494 9918.31 9852.44 113.88
13973 56.9532 9799.07 9851.82 113.43
13974 56.9569 10115.70 9851.21 115.02
13975 56.9607 9837.51 9850.59 113.98
13976 56.9644 9934.02 9849.98 114.24
13977 56.9682 9852.21 9849.37 113.35
13978 56.9719 10125.20 9848.79 115.48
13979 56.9757 9804.66 9848.21 113.15
13980 56.9794 9982.85 9847.67 114.00
13981 56.9832 9826.99 9898.26 114.01
13982 56.9870 9844.88 9898.20 113.57
13983 56.9889 9923.41 9923.17 114.71
13984 56.9927 9984.06 9923.37 114.49
13985 56.9964 9820.47 9923.59 113.88
13986 57.0002 9826.56 9923.84 113.58
13987 57.0040 9945.66 9924.13 114.52
13988 57.0077 9974.98 9924.44 115.63
13989 57.0115 9744.68 9924.79 114.04
13990 57.0152 9892.50 9925.15 114.56
13991 57.0190 9707.06 9925.55 111.59
13992 57.0227 10005.00 9925.97 116.40
13993 57.0265 9718.18 9926.42 114.72
13994 57.0302 9809.11 9926.89 113.31
13995 57.0340 9706.73 9927.39 112.81
13996 57.0378 10114.00 9927.91 115.41
13997 57.0415 9795.25 9928.44 113.53
13998 57.0453 9849.92 9929.01 113.87
13999 57.0490 9874.75 9929.58 113.86
14000 57.0528 9955.50 9930.19 114.63
14001 57.0565 9664.03 9931.24 112.87
14002 57.0603 9891.96 9931.89 114.53
14003 57.0640 9651.59 9932.54 112.94
14004 57.0678 9996.67 9933.23 114.63
14005 57.0716 9833.92 9933.93 113.68
14006 57.0753 9882.21 9934.63 113.81
14007 57.0791 9948.31 9935.37 114.82
14008 57.0828 9947.24 9936.11 114.08
14009 57.0866 9954.95 9936.88 114.29
14010 57.0903 9999.78 9937.66 114.47
14011 57.0941 9973.44 9938.47 114.44
14012 57.0978 9795.44 9939.27 113.56
14013 57.1016 9782.27 9940.12 113.16
14014 57.1054 10044.80 9940.98 116.03
14015 57.1091 9737.60 9941.84 113.49
14016 57.1129 9841.33 9942.74 114.00
14017 57.1166 9909.59 9943.64 114.53
14018 57.1204 9687.53 9944.58 110.49
14019 57.1241 9913.14 9945.50 115.16
14020 57.1279 10136.50 9946.48 117.77
14021 57.1316 9632.91 9947.45 112.21
14022 57.1354 10062.00 9948.47 114.77
14023 57.1392 9720.68 9949.50 113.13
14024 57.1429 9853.60 9950.53 113.49
14025 57.1467 9873.16 9951.60 114.14
14026 57.1504 9920.67 9952.67 114.36
14027 57.1542 9658.91 9953.79 112.69
14028 57.1579 9972.39 9954.90 114.93
14029 57.1617 9823.57 9956.06 113.32
14030 57.1654 9889.15 9957.21 113.35
14031 57.1692 9851.70 9958.42 113.72
14032 57.1729 9559.57 9959.62 111.67
14033 57.1767 9787.64 9960.87 113.56
14034 57.1805 9939.83 9962.14 114.59
14035 57.1842 9818.57 9963.41 113.63
14036 57.1880 9879.05 9964.74 112.34
14037 57.1917 9632.94 9966.05 111.87
14038 57.1955 10012.00 9967.43 115.43
14039 57.1992 9826.74 9968.80 113.46
14040 57.2030 10010.20 9970.23 115.66
14041 57.2067 9732.11 9971.65 113.55
14042 57.2105 10042.10 9973.13 115.54
14043 57.2143 9762.56 9974.65 113.49
14044 57.2172 9992.04 9975.82 112.69
14045 57.2210 10245.50 9977.39 113.86
14046 57.2247 9887.17 9978.95 111.86
14047 57.2285 10069.10 9980.58 112.91
14048 57.2322 9862.14 9982.19 110.73
14049 57.2360 10069.10 9983.89 112.85
14050 57.2397 9961.38 9985.57 114.26
14051 57.2435 10148.90 9987.33 113.26
14052 57.2472 9948.05 9989.08 111.22
14053 57.2510 10093.40 9990.91 111.92
14054 57.2547 9855.54 9990.40 111.07
14055 57.2585 9925.56 9992.33 111.15
14056 57.2623 9818.26 9994.29 111.21
14057 57.2660 10064.30 9996.24 112.64
14058 57.2698 9727.42 9998.28 110.41
14059 57.2735 9890.49 10000.30 111.59
14060 57.2773 9736.44 9999.91 110.00
14061 57.2810 10003.20 9999.56 112.36
14062 57.2848 9837.06 10001.80 111.36
14063 57.2885 10117.00 10004.10 111.86
14064 57.2923 10003.90 10006.40 111.95
14065 57.2960 10079.00 10008.70 112.43
14066 57.2998 9791.19 10011.20 110.89
14067 57.3035 9938.55 10013.60 111.88
14068 57.3073 9766.74 10016.10 110.38
14069 57.3110 9938.23 10018.70 110.76
14070 57.3148 9871.01 10021.30 112.39
14071 57.3186 10044.90 10024.00 111.48
14072 57.3223 9825.09 10026.70 111.61
14073 57.3261 10116.10 10029.50 112.85
14074 57.3298 10016.30 10032.30 111.96
14075 57.3336 10091.60 10035.20 111.33
14076 57.3373 10158.90 10038.20 115.64
14077 57.3411 10281.90 10041.20 114.63
14078 57.3448 9843.14 10044.30 110.84
14079 57.3486 10293.80 10047.50 113.46
14080 57.3523 9946.80 10050.70 111.23
14081 57.3561 10031.10 10054.00 112.67
14082 57.3598 10167.40 10057.30 113.74
14083 57.3636 10019.90 10060.90 113.01
14084 57.3674 9837.48 10064.40 111.47
14085 57.3711 10184.20 10068.00 113.44
14086 57.3749 10001.90 10071.70 112.76
14087 57.3786 10080.00 10075.50 112.84
14088 57.3824 10173.50 10079.40 113.13
14089 57.3861 10212.50 10083.30 113.75
14090 57.3899 10202.80 10087.40 113.36
14091 57.3936 10115.00 10091.50 113.41
14092 57.3974 10135.80 10095.80 112.75
14093 57.4011 10278.50 10100.20 114.00
14094 57.4049 10138.90 10104.70 113.05
14095 57.4086 9979.42 10109.20 111.79
14096 57.4124 9837.52 10114.00 110.90
14097 57.4162 10476.70 10118.90 115.57
14098 57.4199 10187.30 10123.70 113.98
14099 57.4237 10166.30 10128.90 113.53
14100 57.4274 10276.80 10134.00 115.03
14101 57.4312 10258.10 10139.40 114.06
14102 57.4349 9965.68 10144.80 111.60
14103 57.4387 10224.00 10150.50 116.02
14104 57.4424 9980.40 10156.20 112.43
14105 57.4462 10258.40 10162.20 113.74
14106 57.4499 10027.80 10168.20 111.98
14107 57.4537 10200.50 10174.60 113.60
14108 57.4574 10231.50 10180.90 113.39
14109 57.4612 10271.20 10187.60 114.44
14110 57.4650 10093.60 10194.50 113.48
14111 57.4687 10191.30 10201.40 114.11
14112 57.4725 10068.20 10208.70 112.49
14113 57.4762 10319.40 10216.10 114.24
14114 57.4800 10269.70 10223.80 113.71
14115 57.4837 10114.80 10231.60 113.54
14116 57.4875 10081.90 10239.80 112.86
14117 57.4912 10141.90 10248.00 112.96
14118 57.4950 10276.20 10256.70 113.85
14119 57.4987 10217.80 10265.50 114.07
14120 57.5025 10330.60 10274.70 114.45
14121 57.5063 10406.10 10284.30 115.68
14122 57.5100 10379.00 10293.90 114.81
14123 57.5138 10425.90 10304.10 115.84
14124 57.5175 10271.50 10314.30 114.13
14125 57.5213 10474.00 10325.20 115.39
14126 57.5250 10146.10 10336.10 113.64
14127 57.5288 10369.90 10347.70 114.89
14128 57.5325 10052.10 10359.40 110.66
14129 57.5363 10513.30 10371.80 117.79
14130 57.5400 10508.40 10384.40 116.65
14131 57.5438 10614.90 10397.60 116.35
14132 57.5476 10406.70 10411.40 114.01
14133 57.5513 10389.30 10425.30 114.58
14134 57.5551 10361.20 10440.20 114.93
14135 57.5588 10432.40 10455.10 115.08
14136 57.5626 10142.80 10471.00 113.62
14137 57.5663 10609.40 10487.10 116.67
14138 57.5701 10224.50 10504.30 113.73
14139 57.5738 10591.00 10521.70 115.54
14140 57.5776 10382.00 10540.20 115.23
14141 57.5813 10605.40 10559.00 116.79
14142 57.5851 10503.10 10579.00 115.95
14143 57.5889 10425.40 10599.90 115.49
14144 57.5926 10374.90 10621.10 113.89
14145 57.5964 10712.00 10643.70 116.61
14146 57.6001 10403.40 10666.70 115.54
14147 57.6039 10836.20 10691.40 117.42
14148 57.6076 10377.10 10716.40 114.45
14149 57.6114 10372.10 10743.40 113.88
14150 57.6151 10409.30 10770.70 116.16
14151 57.6226 10402.90 10830.00 115.04
14152 57.6264 10730.30 10862.20 117.46
14153 57.6302 10469.00 10896.10 115.63
14154 57.6339 10518.60 10930.50 113.94
14155 57.6377 10819.60 10967.70 119.73
14156 57.6414 10682.70 11005.70 117.57
14157 57.6452 10407.00 11046.80 115.04
14158 57.6489 10830.10 11088.80 116.99
14159 57.6527 10700.50 11134.30 115.96
14160 57.6564 10763.40 11180.90 116.60
14161 57.6602 10623.10 11231.60 116.99
14162 57.6640 11021.10 11284.90 118.81
14163 57.6677 10637.00 11340.00 116.40
14164 57.6715 10998.70 11399.70 119.04
14165 57.6752 10746.50 11461.30 117.53
14166 57.6790 11052.10 11528.30 120.60
14167 57.6827 10883.10 11597.70 118.76
14168 57.6865 11118.90 11673.30 120.51
14169 57.6902 11012.20 11751.70 119.94
14170 57.6940 11242.50 11837.40 121.25
14171 57.6978 11060.70 11929.10 120.15
14172 57.7015 11358.00 12024.20 122.45
14173 57.7053 11142.00 12128.90 120.74
14174 57.7090 11500.10 12238.10 122.37
14175 57.7128 11327.00 12358.30 121.35
14176 57.7165 11857.50 12484.10 125.09
14177 57.7203 11541.70 12623.20 122.85
14178 57.7240 12150.10 12769.30 126.96
14179 57.7278 11917.00 12931.30 125.48
14180 57.7316 12050.20 13106.80 125.67
14181 57.7353 12094.10 13292.40 125.76
14182 57.7391 12469.60 13499.40 130.17
14183 57.7428 12604.10 13719.20 129.63
14184 57.7466 12880.20 13965.50 130.09
14185 57.7503 13039.60 14228.40 132.18
14186 57.7541 13725.20 14524.60 135.44
14187 57.7578 13950.60 14842.90 136.73
14188 57.7616 14493.50 15204.10 140.09
14189 57.7654 14776.40 15606.90 141.10
14190 57.7691 15440.50 16044.20 145.21
14191 57.7729 15910.50 16551.00 147.95
14192 57.7766 17311.90 17109.40 155.12
14193 57.7804 17982.60 17768.20 159.32
14194 57.7841 19154.80 18510.80 165.16
14195 57.7879 20008.30 19404.10 168.68
14196 57.7916 21621.70 20437.60 176.61
14197 57.7954 23153.60 21710.80 184.31
14198 57.7992 25455.40 23258.50 192.97
14199 57.8029 26924.30 25101.00 201.57
14200 57.8067 29820.10 27417.80 214.45
14201 57.8104 32399.40 30185.70 224.86
14202 57.8142 35920.00 33659.60 238.57
14203 57.8179 39515.20 37749.00 254.56
14204 57.8217 44252.60 42799.50 272.25
14205 57.8254 49070.40 48605.60 291.08
14206 57.8292 56578.40 55569.00 316.26
14207 57.8330 63750.00 63526.40 337.04
14208 57.8367 75057.60 72187.40 382.77
14209 57.8405 84491.00 81822.70 418.30
14210 57.8442 97943.70 91624.50 450.92
14211 57.8480 107558.00 101562.00 478.44
14212 57.8517 121078.00 110405.00 518.35
14213 57.8555 126142.00 117701.00 532.61
14214 57.8592 133084.00 122226.00 553.66
14215 57.8630 130389.00 123592.00 547.23
14216 57.8668 129230.00 121473.00 542.73
14217 57.8705 117195.00 116392.00 508.65
14218 57.8743 109086.00 108744.00 484.85
14219 57.8780 96665.60 99785.20 448.39
14220 57.8818 85563.20 89879.80 414.73
14221 57.8855 73179.90 80193.80 373.96
14222 57.8893 65505.30 70719.80 348.57
14223 57.8931 56044.50 62024.70 315.88
14224 57.8968 50341.20 54455.30 297.56
14225 57.9006 43631.80 47676.20 270.80
14226 57.9043 39418.70 42013.40 254.46
14227 57.9081 35030.00 37112.70 236.25
14228 57.9118 31986.90 33133.90 223.32
14229 57.9156 28439.20 29767.80 209.15
14230 57.9193 26510.70 27080.20 200.61
14231 57.9231 24495.20 24825.40 192.04
14232 57.9269 22939.20 22992.10 184.87
14233 57.9306 21037.70 21526.60 174.62
14234 57.9344 19885.80 20284.50 166.46
14235 57.9381 18625.90 19274.30 166.06
14236 57.9419 17948.30 18399.60 160.11
14237 57.9456 16827.20 17671.30 153.03
14238 57.9494 16280.40 17025.40 149.79
14239 57.9532 15435.10 16462.00 146.30
14240 57.9569 14996.10 15977.50 143.18
14241 57.9607 14407.60 15535.40 141.16
14242 57.9644 14315.40 15149.70 139.53
14243 57.9682 13441.20 14793.50 135.76
14244 57.9719 13410.90 14479.50 135.17
14245 57.9757 12844.80 14187.10 131.63
14246 57.9794 12921.40 13927.50 131.83
14247 57.9832 12434.50 13684.20 128.48
14248 57.9870 12318.90 13461.30 128.59
14249 57.9907 12120.50 13262.50 126.61
14250 57.9945 12242.20 13074.10 127.98
14251 57.9982 11909.80 12905.10 126.60
14252 58.0020 12030.30 12744.80 126.33
14253 58.0057 11767.10 12600.20 125.92
14254 58.0095 11578.10 12462.60 123.32
14255 58.0133 11389.60 12334.70 122.17
14256 58.0170 11469.20 12219.00 123.91
14257 58.0208 11230.90 12107.90 121.62
14258 58.0245 11405.40 12007.20 123.74
14259 58.0283 11338.80 11910.30 122.87
14260 58.0320 11469.80 11822.10 122.86
14261 58.0358 11047.40 11737.00 120.52
14262 58.0396 11326.40 11657.30 125.70
14263 58.0433 11104.60 11584.30 122.13
14264 58.0471 11326.50 11513.70 122.17
14265 58.0508 10871.50 11449.00 119.11
14266 58.0546 11168.50 11386.40 121.72
14267 58.0583 10900.80 11328.70 119.81
14268 58.0621 10944.30 11272.70 120.39
14269 58.0658 10824.60 11221.20 119.59
14270 58.0696 10821.90 11170.90 119.54
14271 58.0734 10663.20 11123.40 118.89
14272 58.0771 10739.70 11079.50 119.34
14273 58.0809 10643.90 11036.70 119.22
14274 58.0846 10809.80 10997.00 119.49
14275 58.0884 10711.70 10958.30 118.19
14276 58.0921 10669.20 10922.40 118.35
14277 58.0959 10614.90 10887.30 118.50
14278 58.0997 10670.80 10853.80 118.42
14279 58.1034 10477.50 10822.70 116.75
14280 58.1072 10886.40 10792.30 119.52
14281 58.1109 10373.80 10763.90 115.68
14282 58.1147 10833.80 10736.10 118.76
14283 58.1184 10506.30 10710.20 117.64
14284 58.1222 10569.50 10684.70 117.97
14285 58.1260 10411.00 10660.30 117.24
14286 58.1297 10451.10 10637.60 117.29
14287 58.1335 10373.80 10615.20 115.42
14288 58.1372 10621.40 10594.30 118.02
14289 58.1410 10321.40 10573.70 117.83
14290 58.1447 10523.30 10554.50 117.58
14291 58.1485 10424.80 10535.50 116.53
14292 58.1523 10549.60 10517.30 117.04
14293 58.1560 10367.40 10500.30 116.86
14294 58.1598 10466.30 10483.50 116.68
14295 58.1635 10343.30 10467.70 115.48
14296 58.1673 10426.80 10452.20 116.00
14297 58.1710 10212.00 10437.60 114.86
14298 58.1748 10376.10 10423.20 115.43
14299 58.1786 10253.40 10409.30 115.23
14300 58.1823 10493.40 10396.40 116.92
14301 58.1861 10188.30 10383.50 114.94
14302 58.1898 10257.20 10371.50 114.54
14303 58.1936 10268.60 10359.60 115.28
14304 58.1973 10474.50 10348.50 116.57
14305 58.2011 10115.90 10337.50 114.53
14306 58.2049 10421.90 10326.90 116.43
14307 58.2086 10173.40 10316.90 114.99
14308 58.2124 10316.10 10307.10 115.04
14309 58.2161 10182.90 10298.00 113.84
14310 58.2199 10450.10 10288.90 116.46
14311 58.2236 10224.20 10280.50 114.85
14312 58.2274 10386.50 10272.10 116.43
14313 58.2312 10097.00 10264.20 113.62
14314 58.2349 10102.10 10256.80 113.07
14315 58.2387 10202.20 10249.50 115.65
14316 58.2424 10375.70 10242.80 117.09
14317 58.2462 10022.00 10236.20 113.30
14318 58.2499 10246.10 10230.10 114.00
14319 58.2537 10237.80 10224.30 114.48
14320 58.2575 10349.30 10218.80 115.14
14321 58.2612 10107.00 10213.80 114.31
14322 58.2650 10060.90 10209.10 113.81
14323 58.2687 10017.50 10204.90 113.01
14324 58.2725 10129.90 10201.00 114.54
14325 58.2762 10140.40 10197.60 114.98
14326 58.2800 10174.90 10194.70 114.20
14327 58.2838 10111.40 10192.20 113.76
14328 58.2875 10344.00 10190.20 115.63
14329 58.2913 9988.00 10188.80 113.32
14330 58.2950 10287.10 10187.90 115.10
14331 58.2988 10062.00 10187.60 113.26
14332 58.3025 10303.10 10188.00 114.40
14333 58.3063 10013.50 10189.00 113.33
14334 58.3101 10233.60 10190.80 114.20
14335 58.3138 10246.30 10193.10 114.38
14336 58.3176 10250.40 10196.40 114.85
14337 58.3213 10075.20 10200.20 113.87
14338 58.3251 10276.50 10205.00 115.10
14339 58.3289 9979.99 10210.70 113.97
14340 58.3326 10078.30 10216.90 113.88
14341 58.3364 10034.50 10224.20 111.73
14342 58.3401 10500.70 10232.00 118.84
14343 58.3439 10126.50 10240.70 114.65
14344 58.3476 10306.20 10249.90 114.67
14345 58.3514 10272.10 10260.00 114.73
14346 58.3552 10377.80 10270.50 115.77
14347 58.3589 10073.90 10280.90 113.73
14348 58.3627 10214.90 10291.80 115.11
14349 58.3664 10006.80 10302.10 113.16
14350 58.3702 10284.90 10312.10 115.54
14351 58.3739 10123.90 10320.90 114.42
14352 58.3777 10410.90 10328.70 116.49
14353 58.3815 10137.90 10334.70 114.68
14354 58.3852 10309.40 10338.40 115.79
14355 58.3890 10205.50 10339.90 114.48
14356 58.3927 10552.40 10338.70 117.23
14357 58.3965 10267.60 10334.80 114.72
14358 58.4002 10471.70 10328.30 116.62
14359 58.4040 10151.60 10319.10 114.88
14360 58.4078 10496.60 10307.70 116.44
14361 58.4115 10257.20 10294.60 115.20
14362 58.4153 10352.40 10279.70 115.04
14363 58.4190 10231.10 10264.10 115.71
14364 58.4228 10241.50 10247.40 115.02
14365 58.4266 10150.50 10230.30 114.54
14366 58.4303 10494.70 10213.50 117.22
14367 58.4341 10148.20 10196.50 113.27
14368 58.4378 10203.20 10180.20 115.71
14369 58.4416 10199.80 10164.00 117.34
14370 58.4453 10276.30 10148.80 115.73
14371 58.4491 10087.10 10133.80 113.48
14372 58.4529 10096.10 10119.60 114.48
14373 58.4566 9905.28 10106.40 113.24
14374 58.4604 10064.90 10093.70 114.48
14375 58.4641 9959.60 10082.00 113.27
14376 58.4679 10110.50 10070.70 114.29
14377 58.4717 9866.59 10060.20 113.04
14378 58.4754 10167.30 10050.60 114.96
14379 58.4792 9941.45 10041.40 112.88
14380 58.4829 10062.40 10033.00 114.16
14381 58.4867 10075.50 10025.00 114.54
14382 58.4904 10107.30 10017.80 114.61
14383 58.4942 10005.50 10010.80 113.83
14384 58.4980 10053.80 10004.30 114.71
14385 58.5017 10121.80 9998.44 114.55
14386 58.5055 10128.10 9992.79 115.29
14387 58.5092 9966.30 9987.65 113.80
14388 58.5130 10048.60 9982.70 113.29
14389 58.5167 10104.00 9978.17 113.34
14390 58.5205 10004.40 9973.80 113.81
14391 58.5243 9894.56 9969.68 113.33
14392 58.5280 10118.60 9965.90 114.57
14393 58.5318 9841.29 9962.21 112.91
14394 58.5355 9941.08 9958.81 111.57
14395 58.5393 9819.37 9955.47 115.15
14396 58.5431 9795.91 9952.30 112.74
14397 58.5468 9848.83 9949.35 112.85
14398 58.5506 9925.13 9946.45 112.29
14399 58.5543 10025.00 9943.73 113.43
14400 58.5581 10057.70 9941.05 114.47
14401 58.5618 9846.04 9938.54 112.47
14402 58.5656 10031.70 9936.05 113.12
14403 58.5694 9754.33 9933.65 111.31
14404 58.5731 9849.25 9931.38 113.38
14405 58.5769 9885.59 9929.13 113.22
14406 58.5806 10121.90 9927.00 112.92
14407 58.5844 10038.80 9924.88 114.26
14408 58.5882 10025.90 9922.81 113.93
14409 58.5919 9958.51 9920.86 114.20
14410 58.5957 9935.70 9918.91 113.20
14411 58.5994 9886.50 9917.06 113.04
14412 58.6032 10094.40 9915.21 113.79
14413 58.6069 9853.54 9913.45 112.84
14414 58.6107 10020.40 9911.68 114.12
14415 58.6145 9866.29 9909.96 112.84
14416 58.6182 10017.10 9908.32 114.11
14417 58.6220 9825.06 9906.68 112.99
14418 58.6257 10070.10 9905.12 114.70
14419 58.6295 9842.54 9903.54 113.26
14420 58.6333 9907.04 9902.01 112.90
14421 58.6370 9685.08 9900.54 110.43
14422 58.6408 10055.80 9899.07 117.56
14423 58.6445 10024.00 9897.66 114.35
14424 58.6483 9903.82 9896.25 113.09
14425 58.6520 9704.30 9894.90 109.91
14426 58.6558 9961.05 9893.54 113.37
14427 58.6596 9948.90 9892.20 112.76
14428 58.6633 9821.66 9890.93 112.34
14429 58.6671 9762.75 9889.65 112.32
14430 58.6708 9905.22 9888.42 113.30
14431 58.6746 9739.84 9887.19 112.13
14432 58.6784 10007.30 9885.98 112.15
14433 58.6821 9918.36 9884.82 113.51
14434 58.6859 9807.38 9883.65 112.66
14435 58.6896 9772.08 9882.54 112.81
14436 58.6934 9875.38 9881.41 113.34
14437 58.6971 9449.56 9880.34 109.97
14438 58.7009 9994.08 9879.26 113.67
14439 58.7047 9651.41 9878.19 111.58
14440 58.7084 10043.00 9877.18 114.65
14441 58.7122 9813.52 9876.16 112.36
14442 58.7159 9832.09 9875.17 112.82
14443 58.7197 9754.66 9874.19 112.18
14444 58.7235 9839.38 9873.22 113.15
14445 58.7272 9856.94 9872.30 113.05
14446 58.7310 9968.74 9871.37 113.91
14447 58.7347 9770.11 9870.48 110.60
14448 58.7385 9844.29 9869.59 113.42
14449 58.7423 9697.34 9818.08 113.27
14450 58.7460 9887.40 9817.67 113.19
14451 58.7498 9650.09 9792.21 111.07
14452 58.7535 9816.75 9792.04 112.05
14453 58.7573 9726.40 9791.87 110.77
14454 58.7610 9958.77 9791.72 113.11
14455 58.7648 9760.08 9791.59 112.38
14456 58.7686 9983.82 9791.46 112.93
14457 58.7723 9869.38 9791.35 112.88
14458 58.7761 9816.60 9791.26 112.15
14459 58.7798 9893.46 9791.18 113.15
14460 58.7836 9871.60 9791.12 112.39
14461 58.7874 9803.83 9791.08 112.71
14462 58.7911 9984.03 9791.06 113.45
14463 58.7949 9523.88 9791.07 111.03
14464 58.7986 9969.29 9791.10 112.67
14465 58.8024 9776.20 9791.15 112.48
14466 58.8061 10106.50 9791.23 114.73
14467 58.8099 9667.29 9791.35 111.77
14468 58.8137 10089.30 9791.51 114.49
14469 58.8174 9805.87 9791.70 110.76
14470 58.8212 10038.10 9791.93 114.03
14471 58.8249 9760.91 9792.22 112.18
14472 58.8287 9967.01 9792.56 114.01
14473 58.8325 9619.93 9792.98 110.87
14474 58.8362 9797.75 9793.45 111.00
14475 58.8400 9778.62 9794.04 113.84
14476 58.8437 10018.10 9794.70 114.87
14477 58.8475 9921.83 9795.51 113.46
14478 58.8513 9873.13 9796.47 112.82
14479 58.8550 9822.83 9797.59 112.03
14480 58.8588 10126.50 9798.95 114.18
14481 58.8625 9699.91 9800.53 111.79
14482 58.8663 9865.44 9802.47 112.85
14483 58.8700 9695.22 9804.74 112.14
14484 58.8738 9982.06 9807.53 112.61
14485 58.8776 9746.12 9810.89 112.07
14486 58.8813 10024.40 9814.81 113.72
14487 58.8851 9765.63 9819.63 112.04
14488 58.8888 9824.24 9825.22 112.67
14489 58.8926 9673.99 9832.04 111.91
14490 58.8964 10034.40 9840.07 113.36
14491 58.9001 9760.21 9849.18 112.29
14492 58.9039 10029.60 9859.89 114.02
14493 58.9076 9873.23 9871.71 112.83
14494 58.9114 10005.00 9885.24 113.81
14495 58.9152 9695.54 9900.22 111.10
14496 58.9189 9933.50 9916.21 114.00
14497 58.9227 10034.10 9934.02 113.30
14498 58.9264 10044.70 9952.60 114.18
14499 58.9302 9850.53 9972.40 112.68
14500 58.9339 10181.30 9991.50 114.20
14501 58.9377 9769.45 10009.40 112.35
14502 58.9415 10098.20 10023.60 117.15
14503 58.9452 10020.80 10031.80 114.35
14504 58.9490 9967.23 10033.00 112.90
14505 58.9527 9960.06 10026.60 113.24
14506 58.9565 10109.60 10013.10 114.48
14507 58.9603 9984.98 9994.36 114.03
14508 58.9640 10136.10 9973.19 115.28
14509 58.9678 10064.30 9950.29 113.89
14510 58.9715 9994.81 9928.34 113.89
14511 58.9753 9884.91 9907.04 113.06
14512 58.9791 9751.01 9887.65 112.13
14513 58.9828 9970.67 9870.81 114.52
14514 58.9866 10120.00 9855.72 114.56
14515 58.9903 9801.90 9843.09 112.05
14516 58.9941 10029.70 9832.10 114.05
14517 58.9979 9776.43 9822.91 112.15
14518 59.0016 9999.76 9815.48 113.65
14519 59.0054 9766.23 9809.16 112.30
14520 59.0091 10148.10 9804.08 114.96
14521 59.0129 9963.51 9799.75 113.82
14522 59.0166 9986.45 9796.24 113.52
14523 59.0204 9874.90 9793.21 114.15
14524 59.0242 10045.50 9790.63 114.14
14525 59.0279 9843.70 9788.46 113.54
14526 59.0317 10031.20 9786.51 114.78
14527 59.0354 9720.47 9784.84 111.01
14528 59.0392 9766.80 9783.30 113.44
14529 59.0430 9913.44 9781.91 115.09
14530 59.0467 9923.01 9780.67 114.04
14531 59.0505 9841.29 9779.51 112.59
14532 59.0542 9911.07 9778.46 112.86
14533 59.0580 9721.97 9777.46 112.68
14534 59.0618 9937.52 9776.53 113.47
14535 59.0655 9838.93 9775.68 113.29
14536 59.0693 9973.57 9774.86 114.51
14537 59.0730 9746.20 9774.11 112.77
14538 59.0768 10255.00 9773.38 115.58
14539 59.0805 9648.49 9772.70 111.87
14540 59.0843 9815.28 9772.04 112.53
14541 59.0881 9992.56 9771.41 114.47
14542 59.0918 10014.10 9770.82 113.90
14543 59.0956 9778.98 9770.24 112.63
14544 59.0993 9828.79 9769.70 113.20
14545 59.1031 9689.62 9769.17 111.98
14546 59.1069 9906.82 9768.65 114.10
14547 59.1106 9750.94 9768.16 112.91
14548 59.1144 9864.92 9767.67 112.65
14549 59.1181 9843.54 9767.21 114.63
14550 59.1219 10045.50 9766.75 113.73
14551 59.1257 9753.08 9766.31 112.64
14552 59.1294 9976.65 9765.88 113.05
14553 59.1332 9818.54 9765.46 112.45
14554 59.1369 10052.80 9765.05 112.84
14555 59.1407 9822.97 9764.64 115.51
14556 59.1445 10045.60 9764.25 114.50
14557 59.1482 9589.31 9763.86 110.68
14558 59.1520 9794.11 9763.47 111.35
14559 59.1557 9709.82 9763.11 110.61
14560 59.1595 10096.50 9762.73 113.66
14561 59.1633 9764.05 9762.36 111.82
14562 59.1670 9986.50 9762.01 114.03
14563 59.1708 9754.63 9761.65 112.34
14564 59.1745 9848.98 9761.30 112.20
14565 59.1783 9867.96 9760.96 112.88
14566 59.1821 9897.66 9760.61 112.89
14567 59.1858 9871.32 9760.28 113.25
14568 59.1896 9900.78 9759.94 113.36
14569 59.1933 9679.59 9759.61 112.19
14570 59.1971 10077.40 9759.28 114.18
14571 59.2008 9864.54 9758.95 112.01
14572 59.2046 9935.97 9758.62 113.68
14573 59.2084 9673.55 9758.30 111.90
14574 59.2121 9930.80 9757.98 113.13
14575 59.2159 9732.50 9757.66 112.35
14576 59.2196 9972.49 9757.35 113.75
14577 59.2234 9794.80 9757.03 111.61
14578 59.2272 9713.71 9756.72 112.28
14579 59.2309 9746.97 9756.41 111.72
14580 59.2347 9986.35 9756.10 113.97
14581 59.2384 9875.73 9755.80 111.75
14582 59.2422 10124.30 9755.48 116.71
14583 59.2460 9635.76 9755.18 111.37
14584 59.2497 9813.29 9754.88 112.38
14585 59.2535 9621.22 9754.57 111.36
14586 59.2572 10174.40 9754.27 114.75
14587 59.2610 9791.79 9753.97 111.85
14588 59.2648 9823.46 9753.67 112.98
14589 59.2685 9810.88 9753.37 112.20
14590 59.2723 9787.47 9753.07 112.09
14591 59.2760 9750.34 9752.78 111.92
14592 59.2798 9831.43 9752.47 112.68
14593 59.2836 9646.46 9752.18 111.45
14594 59.2873 9797.65 9751.88 112.06
14595 59.2911 9746.75 9751.58 112.14
14596 59.2948 9878.56 9751.29 113.13
14597 59.2986 9580.01 9751.00 111.02
14598 59.3023 9821.17 9750.71 112.56
14599 59.3061 9547.56 9750.41 111.20
14600 59.3099 9819.81 9750.11 111.98
14601 59.3136 9737.64 9749.83 111.76
14602 59.3174 9943.91 9749.53 113.23
14603 59.3211 9658.28 9749.24 111.64
14604 59.3249 9770.74 9748.95 112.44
14605 59.3287 9419.80 9748.65 110.22
14606 59.3324 9799.20 9748.37 112.08
14607 59.3362 9572.73 9748.07 109.11
14608 59.3399 9773.47 9747.78 114.55
14609 59.3437 9538.68 9747.49 112.47
14610 59.3475 9855.12 9747.19 112.22
14611 59.3512 9624.32 9746.91 111.45
14612 59.3550 9916.95 9746.61 113.81
14613 59.3587 9728.77 9746.33 111.73
14614 59.3625 9787.25 9746.03 112.99
14615 59.3663 9827.32 9745.74 112.72
14616 59.3700 9813.94 9745.46 111.84
14617 59.3738 9955.30 9745.16 113.04
14618 59.3775 9889.38 9744.87 112.94
14619 59.3813 9865.55 9744.58 113.10
14620 59.3851 9801.06 9744.29 113.17
14621 59.3888 9830.06 9744.00 112.25
14622 59.3926 9821.17 9743.71 112.55
14623 59.3963 9617.38 9743.42 111.82
14624 59.4001 9883.43 9743.13 113.20
14625 59.4039 9678.18 9742.83 111.36
14626 59.4076 9751.96 9742.54 112.02
14627 59.4114 9693.08 9742.25 111.25
14628 59.4151 9828.50 9741.96 112.29
14629 59.4189 9822.17 9741.67 112.99
14630 59.4226 9848.59 9741.38 113.27
14631 59.4264 9469.34 9741.09 111.43
14632 59.4302 9781.12 9740.79 113.00
14633 59.4339 9738.56 9740.50 112.17
14634 59.4377 9654.27 9740.21 109.83
14635 59.4414 9745.22 9739.92 114.93
14636 59.4452 10069.80 9739.62 115.04
14637 59.4490 9845.72 9739.33 113.07
14638 59.4527 9983.61 9739.04 112.29
14639 59.4565 9697.55 9738.75 111.48
14640 59.4602 9805.84 9738.46 112.53
14641 59.4640 9804.64 9738.16 112.38
14642 59.4678 9723.71 9737.86 112.35
14643 59.4715 9768.83 9737.57 112.45
14644 59.4753 9873.85 9737.28 113.39
14645 59.4790 9722.73 9736.99 112.57
14646 59.4828 9833.83 9736.69 113.31
14647 59.4866 9488.56 9736.39 110.53
14648 59.4903 9946.75 9736.10 113.84
14649 59.4941 9816.26 9735.80 113.61
14650 59.4978 9822.63 9735.51 113.25
14651 59.5016 9675.40 9735.21 112.37
14652 59.5054 9903.67 9734.91 113.89
14653 59.5091 9882.68 9734.62 113.86
14654 59.5129 9673.97 9734.32 111.57
14655 59.5166 9891.93 9734.03 113.15
14656 59.5204 10124.30 9733.73 115.28
14657 59.5242 9657.25 9733.42 112.47
14658 59.5279 9930.71 9733.13 113.82
14659 59.5317 9626.20 9732.83 111.59
14660 59.5354 9940.87 9732.54 112.25
14661 59.5392 9943.48 9732.23 115.27
14662 59.5430 9946.29 9731.93 115.59
14663 59.5467 9606.45 9731.64 111.08
14664 59.5505 9805.47 9731.33 112.29
14665 59.5542 9926.80 9731.04 113.65
14666 59.5580 9972.79 9730.73 113.77
14667 59.5617 9671.20 9730.44 112.31
14668 59.5655 10026.10 9730.14 114.40
14669 59.5693 9798.24 9729.83 112.78
14670 59.5730 10006.60 9729.53 113.93
14671 59.5768 9974.74 9729.23 113.85
14672 59.5805 9843.62 9728.93 112.86
14673 59.5843 9711.55 9728.63 112.77
14674 59.5881 9928.58 9728.32 113.36
14675 59.5918 9652.29 9728.02 112.26
14676 59.5956 10028.70 9727.71 114.47
14677 59.5993 9858.24 9727.42 113.47
14678 59.6031 9925.05 9727.11 114.31
14679 59.6069 9715.38 9726.80 112.91
14680 59.6106 9894.71 9726.50 114.15
14681 59.6144 9831.28 9726.19 112.62
14682 59.6181 10052.80 9725.89 114.77
14683 59.6219 9838.08 9725.58 112.73
14684 59.6257 9944.42 9725.27 113.62
14685 59.6294 9838.59 9724.97 113.02
14686 59.6332 9731.58 9724.66 112.37
14687 59.6369 9769.84 9724.36 111.09
14688 59.6407 9864.15 9724.05 115.59
14689 59.6445 9735.89 9723.74 113.18
14690 59.6482 9897.67 9723.43 113.10
14691 59.6520 9619.31 9723.12 111.50
14692 59.6557 9818.75 9722.82 112.86
14693 59.6595 9938.68 9722.50 113.87
14694 59.6633 9984.27 9722.19 114.01
14695 59.6670 9687.89 9721.89 112.29
14696 59.6708 9779.69 9721.57 112.35
14697 59.6745 9870.20 9721.27 113.29
14698 59.6783 9830.69 9720.95 112.55
14699 59.6821 9877.21 9720.64 113.22
14700 59.6858 9850.39 9720.33 111.41
14701 59.6896 9676.94 9720.01 111.39
14702 59.6933 9775.83 9719.71 111.85
14703 59.6971 9695.19 9719.39 112.10
14704 59.7008 9826.99 9719.08 112.68
14705 59.7046 9515.06 9718.76 110.94
14706 59.7084 9755.04 9718.45 112.53
14707 59.7121 9517.25 9718.14 110.72
14708 59.7159 9868.33 9717.82 112.97
14709 59.7196 9776.75 9717.51 113.50
14710 59.7234 9808.75 9717.19 112.38
14711 59.7272 9642.02 9716.87 111.84
14712 59.7309 9845.38 9716.56 112.83
14713 59.7347 9940.72 9715.79 113.57
14714 59.7384 9798.36 9715.49 110.90
14715 59.7422 9668.51 9715.17 113.85
14716 59.7460 9841.16 9714.85 112.79
14717 59.7497 9641.37 9714.54 111.11
14718 59.7535 9993.97 9714.22 113.59
14719 59.7572 9717.09 9713.91 111.85
14720 59.7610 9825.04 9743.08 112.87
14721 59.7648 9635.36 9743.01 111.10
14722 59.7685 9867.95 9742.93 112.31
14723 59.7723 9802.91 9742.86 112.46
14724 59.7760 9731.83 9742.80 112.22
14725 59.7798 9786.23 9742.73 112.90
14726 59.7836 9872.23 9800.98 112.81
14727 59.7873 9690.67 9801.39 112.00
14728 59.7911 9768.70 9801.82 112.37
14729 59.7948 9554.60 9802.25 110.77
14730 59.7986 9947.78 9802.70 113.75
14731 59.8024 9689.50 9803.16 111.40
14732 59.8061 9984.86 9803.62 114.20
14733 59.8099 9645.82 9804.08 110.67
14734 59.8136 9902.22 9804.56 113.37
14735 59.8174 9810.66 9805.06 112.34
14736 59.8212 10013.40 9805.57 115.06
14737 59.8249 9766.80 9806.07 112.54
14738 59.8287 9951.13 9806.60 113.78
14739 59.8324 9695.23 9807.13 112.51
14740 59.8362 9755.13 9807.68 110.53
14741 59.8399 9795.35 9808.23 113.33
14742 59.8437 10125.20 9809.49 116.98
14743 59.8475 9881.78 9809.97 112.70
14744 59.8512 9818.91 9810.56 112.19
14745 59.8550 9750.27 9811.17 111.46
14746 59.8587 9873.58 9811.78 112.22
14747 59.8625 9813.04 9812.42 112.78
14748 59.8663 9844.47 9813.08 113.06
14749 59.8700 9751.85 9813.72 112.72
14750 59.8738 10030.70 9814.40 113.84
14751 59.8775 9803.47 9815.08 113.13
14752 59.8813 9960.97 9815.78 114.37
14753 59.8851 9791.59 9816.50 112.96
14754 59.8888 9800.64 9817.22 112.30
14755 59.8926 9836.24 9817.97 113.04
14756 59.8963 9876.60 9818.71 113.88
14757 59.9001 9758.35 9819.49 112.37
14758 59.9039 9927.41 9820.28 113.74
14759 59.9076 9962.83 9821.07 113.71
14760 59.9114 9970.61 9821.90 113.43
14761 59.9151 9779.50 9822.72 112.59
14762 59.9189 10074.30 9823.57 114.40
14763 59.9227 9817.18 9824.45 112.81
14764 59.9264 9815.97 9825.32 112.19
14765 59.9302 9800.51 9826.23 113.02
14766 59.9339 9925.39 9827.14 114.06
14767 59.9377 9811.00 9828.08 111.92
14768 59.9415 10147.50 9829.05 118.28
14769 59.9452 9797.99 9830.01 113.90
14770 59.9490 9859.38 9831.01 113.03
14771 59.9527 9805.99 9832.01 112.58
14772 59.9565 10036.20 9833.05 114.32
14773 59.9602 9888.68 9834.09 113.60
14774 59.9640 10059.10 9835.17 114.09
14775 59.9678 9888.47 9836.28 113.55
14776 59.9715 9894.65 9837.38 113.07
14777 59.9753 9739.39 9838.53 112.36
14778 59.9790 10046.00 9839.68 114.59
14779 59.9828 9907.14 9840.88 113.79
14780 59.9866 10087.50 9842.10 114.75
14781 59.9903 9841.70 9843.31 113.67
14782 59.9941 9969.60 9844.58 113.91
14783 59.9978 9884.58 9845.85 113.55
14784 60.0016 9812.09 9847.17 111.97
14785 60.0054 9927.01 9848.53 112.68
14786 60.0091 9795.83 9849.87 113.14
14787 60.0129 9738.21 9851.27 112.28
14788 60.0166 10052.70 9852.67 114.71
14789 60.0204 9900.25 9854.13 115.07
14790 60.0242 9919.62 9855.63 113.97
14791 60.0279 9922.89 9857.11 114.12
14792 60.0317 10072.60 9858.67 114.96
14793 60.0354 9645.84 9860.21 112.24
14794 60.0392 9981.07 9861.83 113.73
14795 60.0430 9843.40 9863.49 116.51
14796 60.0467 9933.09 9865.13 114.08
14797 60.0505 9706.67 9866.85 112.18
14798 60.0542 10061.80 9868.57 114.14
14799 60.0580 9818.78 9870.36 111.84
14800 60.0617 9842.82 9872.15 114.05
14801 60.0655 9660.86 9874.02 112.43
14802 60.0693 9914.67 9875.93 114.41
14803 60.0730 9943.39 9877.83 114.28
14804 60.0768 9939.60 9879.82 114.01
14805 60.0805 9922.47 9881.80 114.33
14806 60.0843 9977.06 9883.88 114.59
14807 60.0881 9889.82 9886.00 113.91
14808 60.0918 10160.40 9888.12 115.73
14809 60.0956 9593.95 9890.33 112.11
14810 60.0993 10136.50 9892.54 114.94
14811 60.1031 10011.30 9894.85 115.03
14812 60.1069 10037.60 9897.21 114.83
14813 60.1106 9754.86 9899.57 112.69
14814 60.1144 10169.90 9902.03 115.86
14815 60.1181 9956.41 9904.49 113.93
14816 60.1219 10078.70 9907.07 115.24
14817 60.1257 9810.92 9909.71 112.83
14818 60.1294 9774.89 9912.33 112.97
14819 60.1332 9793.39 9915.09 113.04
14820 60.1369 10034.80 9917.83 114.47
14821 60.1407 9677.37 9920.71 113.06
14822 60.1444 9965.93 9923.58 116.21
14823 60.1482 9678.76 9926.59 111.86
14824 60.1520 10000.50 9929.67 112.78
14825 60.1557 9800.85 9932.75 112.48
14826 60.1595 9983.75 9935.97 114.18
14827 60.1632 9805.33 9939.19 112.68
14828 60.1670 10115.70 9942.57 114.84
14829 60.1708 9808.35 9946.03 113.42
14830 60.1745 10125.60 9949.48 115.23
14831 60.1783 9820.17 9953.11 113.37
14832 60.1820 10123.90 9956.72 114.86
14833 60.1858 10132.80 9960.52 114.97
14834 60.1896 10113.90 9964.41 115.10
14835 60.1933 9929.62 9968.30 114.54
14836 60.1971 10236.60 9972.38 115.47
14837 60.2008 10053.80 9976.46 113.82
14838 60.2046 10053.50 9980.75 114.64
14839 60.2084 9896.15 9985.14 113.56
14840 60.2121 9967.12 9989.53 114.46
14841 60.2159 9977.82 9994.15 113.54
14842 60.2196 10004.60 9998.76 114.05
14843 60.2234 9859.72 10003.60 114.33
14844 60.2271 10205.40 10008.50 113.96
14845 60.2309 10029.60 10013.60 113.96
14846 60.2347 10059.10 10018.80 114.18
14847 60.2384 9935.00 10024.10 112.67
14848 60.2422 10014.20 10029.60 115.15
14849 60.2459 9949.66 10035.10 114.75
14850 60.2497 9981.37 10040.90 114.30
14851 60.2535 10074.20 10046.90 113.99
14852 60.2572 10033.00 10052.90 114.44
14853 60.2610 9890.02 10059.20 112.78
14854 60.2647 9972.96 10065.50 113.94
14855 60.2685 10053.30 10072.20 114.43
14856 60.2723 10135.20 10079.00 114.84
14857 60.2760 9977.24 10085.80 114.28
14858 60.2798 9849.25 10093.10 113.32
14859 60.2835 10049.20 10100.30 114.11
14860 60.2873 10120.60 10108.00 114.99
14861 60.2911 10135.70 10115.90 114.46
14862 60.2948 10026.20 10123.70 114.97
14863 60.2986 10017.90 10132.10 114.07
14864 60.3023 10114.80 10140.50 115.52
14865 60.3061 9995.00 10149.30 113.47
14866 60.3098 10013.70 10158.20 114.07
14867 60.3136 10019.20 10167.60 113.86
14868 60.3174 10126.60 10177.20 115.12
14869 60.3211 9980.88 10187.00 113.86
14870 60.3249 10072.30 10197.30 114.93
14871 60.3286 10050.80 10207.60 114.98
14872 60.3324 10118.30 10218.50 115.48
14873 60.3362 10185.20 10229.80 115.19
14874 60.3399 10296.10 10241.20 113.25
14875 60.3437 10256.00 10253.30 118.28
14876 60.3474 10370.70 10265.40 116.48
14877 60.3512 10111.10 10278.30 114.33
14878 60.3550 10268.10 10291.60 114.28
14879 60.3587 10199.10 10305.00 115.28
14880 60.3625 10130.90 10319.20 114.90
14881 60.3662 10141.90 10333.50 115.47
14882 60.3700 10397.10 10348.80 116.35
14883 60.3737 10142.60 10364.10 115.13
14884 60.3775 10235.10 10380.50 115.65
14885 60.3813 10254.20 10397.40 115.43
14886 60.3850 10360.40 10414.50 116.18
14887 60.3888 10174.80 10432.80 115.53
14888 60.3925 10468.90 10451.10 117.81
14889 60.3963 10474.30 10470.80 117.38
14890 60.4001 10430.30 10491.10 117.09
14891 60.4038 10311.40 10511.70 116.39
14892 60.4076 10389.60 10533.70 116.00
14893 60.4113 10350.80 10556.00 115.62
14894 60.4151 10368.40 10579.80 116.39
14895 60.4188 10462.50 10603.90 116.62
14896 60.4226 10541.30 10629.60 118.04
14897 60.4264 10519.60 10656.50 117.82
14898 60.4301 10551.80 10683.80 116.95
14899 60.4339 10471.50 10713.00 117.21
14900 60.4376 10563.90 10742.70 116.96
14901 60.4414 10496.20 10774.50 118.04
14902 60.4452 10608.60 10807.70 118.79
14903 60.4489 10465.60 10841.60 117.78
14904 60.4527 10857.70 10877.90 119.56
14905 60.4564 10323.60 10915.00 116.25
14906 60.4602 10591.80 10954.90 117.44
14907 60.4640 10595.00 10996.70 118.63
14908 60.4677 10844.70 11039.40 120.19
14909 60.4715 10792.10 11085.50 119.97
14910 60.4752 10761.20 11132.50 119.27
14911 60.4790 10526.30 11183.40 118.23
14912 60.4827 11007.10 11235.40 121.09
14913 60.4865 10648.50 11291.80 117.94
14914 60.4903 10872.70 11351.10 120.18
14915 60.4940 10834.50 11412.20 119.40
14916 60.4978 11041.20 11478.30 121.43
14917 60.5015 11183.90 11546.40 122.01
14918 60.5053 11174.70 11620.30 121.46
14919 60.5091 11183.10 11698.80 119.70
14920 60.5128 11359.60 11779.60 123.06
14921 60.5166 11097.30 11867.90 121.12
14922 60.5203 11457.60 11959.20 123.93
14923 60.5241 11077.90 12058.90 119.68
14924 60.5278 11680.80 12162.40 125.54
14925 60.5316 11601.30 12275.60 124.28
14926 60.5354 11754.60 12396.60 125.08
14927 60.5391 11718.10 12522.80 122.42
14928 60.5429 12183.80 12661.40 131.09
14929 60.5466 12092.70 12806.40 128.19
14930 60.5504 12294.00 12966.20 127.15
14931 60.5542 12215.50 13138.60 127.15
14932 60.5579 12669.60 13319.60 130.05
14933 60.5617 12958.80 13520.10 133.05
14934 60.5654 13513.40 13731.70 135.65
14935 60.5692 13264.10 13967.20 133.55
14936 60.5730 13844.20 14223.50 137.40
14937 60.5767 14191.40 14495.80 139.17
14938 60.5805 14524.70 14801.20 140.98
14939 60.5842 14963.80 15127.60 143.18
14940 60.5880 15661.20 15496.30 145.39
14941 60.5917 15837.80 15893.60 148.42
14942 60.5955 16836.40 16346.70 153.23
14943 60.5993 17192.20 16855.20 154.74
14944 60.6030 18267.20 17411.70 160.68
14945 60.6068 18643.20 18062.60 161.44
14946 60.6105 19931.70 18787.30 168.58
14947 60.6143 20911.20 19651.00 173.79
14948 60.6181 22414.70 20660.50 181.78
14949 60.6218 23747.60 21820.70 187.08
14950 60.6256 25543.60 23234.60 192.98
14951 60.6293 27006.70 24881.30 203.44
14952 60.6331 29426.20 26910.70 212.99
14953 60.6368 31813.90 29276.20 222.70
14954 60.6406 34806.50 32194.80 232.63
14955 60.6444 37443.80 35680.40 253.04
14956 60.6481 41087.60 39710.00 262.28
14957 60.6519 44245.20 44570.50 272.46
14958 60.6556 48980.50 50080.90 289.66
14959 60.6594 54249.10 56566.40 309.80
14960 60.6631 61092.20 63698.30 333.28
14961 60.6669 67208.90 71777.40 353.59
14962 60.6707 75766.90 80468.30 382.18
14963 60.6744 84343.20 89268.20 409.14
14964 60.6782 95358.80 98261.20 442.86
14965 60.6819 105080.00 106581.00 473.36
14966 60.6857 115870.00 114258.00 507.85
14967 60.6895 124105.00 120696.00 527.65
14968 60.6932 132021.00 125519.00 551.88
14969 60.6970 134137.00 128685.00 556.23
14970 60.7007 135529.00 129705.00 561.23
14971 60.7045 130484.00 128309.00 547.60
14972 60.7082 124844.00 124434.00 529.79
14973 60.7120 114888.00 118072.00 501.41
14974 60.7158 105103.00 109824.00 472.42
14975 60.7195 93822.10 100660.00 438.32
14976 60.7233 84993.60 90810.70 412.98
14977 60.7270 74690.40 81327.30 379.69
14978 60.7308 66448.00 72119.90 352.31
14979 60.7346 58789.00 63670.00 324.48
14980 60.7383 52140.20 56321.80 297.39
14981 60.7421 46381.00 49676.00 284.53
14982 60.7458 42460.90 44094.80 269.57
14983 60.7496 37576.30 39191.10 246.27
14984 60.7533 34709.80 35164.80 234.68
14985 60.7571 31095.80 31708.80 219.46
14986 60.7609 29094.70 28837.30 211.62
14987 60.7646 26529.80 26526.50 200.03
14988 60.7684 24928.00 24555.90 192.32
14989 60.7721 22727.70 22966.80 182.70
14990 60.7759 21633.30 21601.10 175.45
14991 60.7796 20083.40 20485.30 169.46
14992 60.7834 19187.40 19509.90 165.44
14993 60.7872 18000.90 18676.10 158.73
14994 60.7909 17445.90 17971.40 156.35
14995 60.7947 16610.90 17338.20 150.39
14996 60.7984 16005.60 16792.60 148.52
14997 60.8022 15057.30 16293.90 143.99
14998 60.8060 15527.50 15847.20 144.68
14999 60.8097 14704.70 15454.40 139.43
15000 60.8135 14191.30 15088.50 138.47
15001 60.8172 13701.60 14764.40 136.42
15002 60.8210 13645.20 14460.90 136.34
15003 60.8247 13236.10 14189.80 133.97
15004 60.8285 13182.40 13934.50 133.00
15005 60.8323 12691.90 13699.80 130.22
15006 60.8360 12571.30 13488.60 129.30
15007 60.8398 12261.40 13288.40 125.81
15008 60.8435 12652.30 13107.60 132.27
15009 60.8473 12039.90 12935.50 126.90
15010 60.8510 12077.80 12779.60 126.69
15011 60.8548 11844.30 12630.60 123.95
15012 60.8586 11801.20 12491.80 124.26
15013 60.8623 11701.00 12365.40 124.22
15014 60.8661 11530.60 12244.10 123.66
15015 60.8698 11455.90 12133.30 122.84
15016 60.8736 11689.60 12026.80 123.79
15017 60.8773 11449.40 11929.20 122.94
15018 60.8811 11379.60 11834.90 122.35
15019 60.8849 11280.90 11746.30 121.90
15020 60.8886 11243.80 11664.90 122.33
15021 60.8924 11138.50 11586.10 121.22
15022 60.8961 11335.10 11513.60 122.64
15023 60.8999 10928.20 11443.20 120.00
15024 60.9037 11045.80 11376.50 119.92
15025 60.9074 11008.20 11315.10 119.45
15026 60.9112 10978.40 11255.10 118.85
15027 60.9149 10916.30 11199.80 119.73
15028 60.9187 11033.50 11145.80 120.51
15029 60.9224 10837.50 11095.80 120.18
15030 60.9262 10859.00 11046.90 119.67
15031 60.9300 10866.90 11000.40 119.64
15032 60.9337 10879.70 10957.20 119.49
15033 60.9375 10713.70 10915.00 117.88
15034 60.9412 10821.40 10875.70 118.72
15035 60.9450 10912.10 10837.10 120.72
15036 60.9487 10814.10 10801.30 119.59
15037 60.9525 10617.40 10766.00 116.94
15038 60.9563 10546.80 10732.30 116.79
15039 60.9600 10574.50 10700.90 117.93
15040 60.9638 10539.40 10670.00 117.52
15041 60.9675 10602.00 10641.20 118.45
15042 60.9713 10617.50 10612.80 118.10
15043 60.9750 10339.90 10586.30 116.43
15044 60.9788 10507.40 10560.10 117.12
15045 60.9826 10435.50 10535.10 117.20
15046 60.9863 10349.80 10511.60 116.54
15047 60.9901 10330.30 10488.40 115.99
15048 60.9938 10569.20 10466.70 117.65
15049 60.9976 10318.60 10445.30 115.98
15050 61.0013 10379.20 10425.20 117.12
15051 61.0051 10246.80 10405.30 115.56
15052 61.0089 10294.90 10386.20 115.83
15053 61.0126 10238.10 10368.30 115.81
15054 61.0164 10341.20 10350.60 116.40
15055 61.0201 10158.00 10334.00 114.46
15056 61.0239 10408.70 10317.60 117.48
15057 61.0276 10360.00 10302.10 116.62
15058 61.0314 10395.60 10286.90 116.39
15059 61.0352 10216.00 10272.20 115.86
15060 61.0389 10091.40 10258.40 113.56
15061 61.0427 10202.60 10244.70 117.38
15062 61.0464 10514.30 10231.90 118.64
15063 61.0502 10347.30 10219.20 116.40
15064 61.0539 10487.40 10207.30 116.18
15065 61.0577 10168.90 10195.60 114.98
15066 61.0615 10399.10 10184.30 116.36
15067 61.0652 10079.50 10173.60 115.14
15068 61.0690 10319.40 10163.20 116.59
15069 61.0727 10231.20 10153.40 114.55
15070 61.0765 10235.60 10143.80 115.53
15071 61.0802 10226.50 10134.80 113.74
15072 61.0840 10381.70 10125.90 116.46
15073 61.0878 10085.30 10117.50 114.86
15074 61.0915 10444.00 10109.60 116.50
15075 61.0953 10134.70 10101.90 115.15
15076 61.0990 10068.60 10094.90 114.40
15077 61.1028 10260.30 10088.00 115.71
15078 61.1065 10192.00 10081.70 115.23
15079 61.1103 10158.20 10076.00 114.40
15080 61.1141 10106.70 10070.40 114.91
15081 61.1178 9978.25 10065.40 113.00
15082 61.1216 10206.30 10060.70 116.40
15083 61.1253 9717.62 10056.60 111.94
15084 61.1291 9970.56 10053.70 113.89
15085 61.1328 10010.30 10050.60 114.72
15086 61.1366 10307.90 10048.10 115.69
15087 61.1404 10030.00 10047.00 112.88
15088 61.1441 10280.30 10045.70 118.59
15089 61.1479 10084.30 10045.10 114.93
15090 61.1516 9995.46 10045.10 113.62
15091 61.1554 10202.90 10047.10 114.37
15092 61.1591 10435.10 10048.70 117.03
15093 61.1629 10008.50 10051.10 114.19
15094 61.1666 10158.70 10054.40 114.74
15095 61.1704 10110.60 10058.70 114.52
15096 61.1742 10130.20 10064.00 114.55
15097 61.1779 10032.40 10070.10 114.95
15098 61.1817 10025.90 10077.40 113.50
15099 61.1854 9974.42 10085.70 114.24
15100 61.1892 10237.40 10095.30 115.55
15101 61.1929 10168.70 10105.70 114.58
15102 61.1967 10178.50 10117.60 115.11
15103 61.2005 10205.40 10130.60 115.01
15104 61.2042 10228.60 10144.40 115.24
15105 61.2080 9999.29 10159.60 113.62
15106 61.2117 10279.20 10175.30 115.51
15107 61.2155 10232.60 10192.30 115.54
15108 61.2192 10157.30 10209.50 113.73
15109 61.2230 10006.00 10227.70 114.94
15110 61.2268 10237.80 10246.00 115.64
15111 61.2305 10115.50 10263.70 115.29
15112 61.2343 10256.30 10281.30 115.77
15113 61.2380 10048.80 10297.30 112.92
15114 61.2418 10093.90 10312.10 113.70
15115 61.2455 10223.70 10324.50 117.73
15116 61.2493 10276.90 10334.40 115.92
15117 61.2530 10078.50 10340.90 114.60
15118 61.2568 10369.70 10344.00 116.24
15119 61.2606 10168.60 10343.00 114.38
15120 61.2643 10412.30 10338.20 116.19
15121 61.2681 10270.40 10329.20 115.65
15122 61.2718 10370.30 10316.80 116.51
15123 61.2756 10222.30 10300.70 115.17
15124 61.2793 10312.80 10282.10 115.99
15125 61.2831 10455.30 10260.70 117.03
15126 61.2869 10243.40 10237.40 114.67
15127 61.2906 10054.20 10213.50 114.60
15128 61.2944 10415.20 10188.10 116.86
15129 61.2981 10356.90 10163.10 116.06
15130 61.3019 10144.80 10137.40 114.97
15131 61.3056 10073.70 10112.80 114.00
15132 61.3094 10062.50 10088.00 113.88
15133 61.3131 9985.95 10064.60 113.22
15134 61.3169 10179.50 10041.50 115.07
15135 61.3207 10160.00 10019.40 114.94
15136 61.3244 10001.10 9998.88 114.22
15137 61.3282 9832.02 9978.89 113.46
15138 61.3319 9896.62 9960.44 113.38
15139 61.3357 9857.19 9942.60 113.19
15140 61.3394 10028.60 9926.25 112.17
15141 61.3432 9983.69 9910.49 116.30
15142 61.3470 9987.40 9895.74 115.01
15143 61.3507 9768.10 9882.29 112.32
15144 61.3545 9787.36 9869.39 112.41
15145 61.3582 9661.28 9857.65 111.01
15146 61.3620 9913.44 9846.39 113.20
15147 61.3657 9533.73 9836.18 110.85
15148 61.3695 9725.73 9826.38 112.24
15149 61.3732 9794.81 9817.48 112.43
15150 61.3770 9752.05 9808.95 112.64
15151 61.3808 9786.14 9800.98 112.39
15152 61.3845 9892.78 9793.71 112.88
15153 61.3883 9707.07 9786.72 111.67
15154 61.3920 9673.15 9780.33 112.26
15155 61.3958 9709.92 9774.16 112.45
15156 61.3995 10027.90 9768.49 113.56
15157 61.4033 9841.96 9763.00 112.01
15158 61.4070 9882.52 9757.94 113.35
15159 61.4108 9874.61 9753.02 113.19
15160 61.4146 9888.14 9748.34 112.75
15161 61.4183 9701.12 9744.01 112.17
15162 61.4221 9847.34 9739.76 113.37
15163 61.4258 9546.65 9735.81 111.15
15164 61.4296 9816.30 9731.92 112.93
15165 61.4333 9957.67 9728.28 113.69
15166 61.4371 9863.60 9724.69 113.30
15167 61.4408 9582.57 9721.33 109.42
15168 61.4446 10022.30 9718.00 116.77
15169 61.4484 9930.86 9714.79 114.73
15170 61.4521 9642.65 9711.77 111.40
15171 61.4559 9743.65 9708.76 111.67
15172 61.4596 9940.19 9705.93 113.71
15173 61.4634 9780.25 9703.10 112.66
15174 61.4671 9845.40 9700.44 113.38
15175 61.4709 9778.36 9697.78 112.79
15176 61.4746 9754.33 9695.26 112.96
15177 61.4784 9826.13 9692.75 113.41
15178 61.4822 9815.30 9690.31 113.35
15179 61.4859 9645.04 9687.99 112.11
15180 61.4897 9894.62 9685.67 113.87
15181 61.4934 9800.55 9683.47 112.70
15182 61.4972 9796.81 9681.28 113.00
15183 61.5009 9574.16 9679.19 111.94
15184 61.5047 9739.60 9677.10 112.35
15185 61.5084 9728.20 9675.12 112.64
15186 61.5122 9770.78 9673.13 112.87
15187 61.5160 9580.31 9671.19 111.39
15188 61.5197 9730.56 9669.35 112.22
15189 61.5235 9707.35 9667.51 113.06
15190 61.5272 9830.73 9665.76 113.85
15191 61.5310 9765.10 9664.01 113.32
15192 61.5347 9854.45 9662.34 113.85
15193 61.5385 9535.01 9660.67 109.93
15194 61.5422 9835.13 9659.09 114.50
15195 61.5460 9776.70 9657.51 113.96
15196 61.5497 9657.65 9656.01 111.47
15197 61.5535 9624.63 9654.51 110.69
15198 61.5573 9707.81 9653.05 111.38
15199 61.5610 9711.33 9651.68 112.52
15200 61.5648 9842.91 9650.30 113.06
15201 61.5685 9888.42 9649.01 113.70
15202 61.5723 9629.88 9647.72 110.03
15203 61.5760 9906.58 9646.51 113.36
15204 61.5798 9863.94 9645.31 113.43
15205 61.5835 9622.97 9644.18 112.29
15206 61.5873 9712.59 9643.07 112.11
15207 61.5911 9517.88 9642.01 111.53
15208 61.5948 9728.60 9641.03 111.67
15209 61.5986 9769.85 9640.07 112.09
15210 61.6023 9784.74 9639.19 112.93
15211 61.6061 9687.83 9638.35 112.45
15212 61.6098 9775.80 9608.04 112.58
15213 61.6136 9575.00 9607.56 111.98
15214 61.6173 10021.40 9607.16 114.04
15215 61.6211 9783.33 9606.81 112.74
15216 61.6248 9827.41 9606.56 113.28
15217 61.6286 9815.04 9606.38 113.81
15218 61.6324 9912.60 9548.18 114.04
15219 61.6361 9596.34 9548.65 111.28
15220 61.6399 9812.34 9549.26 111.54
15221 61.6436 9824.17 9549.96 114.62
15222 61.6474 9890.13 9550.84 113.54
15223 61.6511 9745.82 9551.85 112.54
15224 61.6549 9829.93 9553.10 110.87
15225 61.6586 9815.68 9554.55 112.83
15226 61.6624 9796.10 9556.34 112.39
15227 61.6662 9679.32 9558.49 111.50
15228 61.6699 9910.47 9561.03 113.35
15229 61.6737 9863.75 9564.20 113.82
15230 61.6774 9824.11 9567.96 112.80
15231 61.6812 9684.38 9572.67 111.60
15232 61.6849 9601.43 9578.27 111.11
15233 61.6887 9795.13 9585.28 112.06
15234 61.6924 9663.14 9593.52 111.99
15235 61.6962 9900.79 9603.73 112.95
15236 61.6999 9743.78 9615.55 112.59
15237 61.7037 9959.60 9629.89 113.08
15238 61.7074 9759.78 9646.09 112.56
15239 61.7112 9732.01 9665.18 111.04
15240 61.7150 9770.36 9686.62 111.90
15241 61.7187 9821.12 9709.58 111.82
15242 61.7225 9904.90 9734.74 113.85
15243 61.7262 9696.52 9760.01 111.81
15244 61.7300 9862.40 9785.53 113.36
15245 61.7337 9837.09 9808.53 113.15
15246 61.7375 9958.46 9828.49 113.43
15247 61.7412 9869.52 9842.59 111.33
15248 61.7450 9818.73 9850.14 115.06
15249 61.7487 9837.92 9849.77 113.49
15250 61.7525 9871.57 9841.34 113.25
15251 61.7563 9657.49 9825.65 111.16
15252 61.7600 9941.07 9804.94 113.19
15253 61.7638 9699.45 9780.13 111.75
15254 61.7675 9813.19 9754.37 112.95
15255 61.7713 9808.76 9727.93 113.51
15256 61.7750 9885.57 9703.27 113.17
15257 61.7788 9843.73 9679.88 112.30
15258 61.7825 9920.42 9659.32 113.99
15259 61.7863 9834.04 9640.69 113.41
15260 61.7900 9686.98 9624.95 111.87
15261 61.7938 9805.64 9611.14 112.29
15262 61.7975 9911.11 9599.80 113.35
15263 61.8013 9725.33 9590.11 112.45
15264 61.8051 9798.11 9582.12 112.51
15265 61.8088 9729.54 9575.77 112.27
15266 61.8126 9819.71 9570.46 112.25
15267 61.8163 9853.84 9566.29 112.70
15268 61.8201 9757.15 9562.85 112.61
15269 61.8238 9919.12 9560.16 114.48
15270 61.8276 9802.72 9557.97 112.44
15271 61.8313 9759.40 9556.29 113.20
15272 61.8351 9641.77 9554.95 111.80
15273 61.8388 9538.79 9553.96 109.94
15274 61.8426 9827.09 9553.23 113.05
15275 61.8463 9799.42 9552.76 114.54
15276 61.8501 9874.00 9552.50 113.79
15277 61.8539 9731.24 9552.44 111.80
15278 61.8576 9727.12 9552.57 110.98
15279 61.8614 9578.39 9552.88 111.17
15280 61.8651 9922.96 9553.36 113.86
15281 61.8689 9902.71 9554.02 113.86
15282 61.8726 9904.01 9554.83 113.45
15283 61.8764 9769.46 9555.84 112.68
15284 61.8801 9872.78 9556.98 113.35
15285 61.8839 9532.08 9558.34 111.11
15286 61.8876 9882.66 9559.83 113.01
15287 61.8914 9652.44 9561.56 111.89
15288 61.8951 9605.35 9563.43 111.52
15289 61.8989 9787.25 9565.56 113.14
15290 61.9027 9940.89 9567.91 113.98
15291 61.9064 9779.67 9570.42 112.69
15292 61.9102 9972.41 9573.25 114.28
15293 61.9139 9774.74 9576.26 113.74
15294 61.9177 9825.25 9579.63 113.28
15295 61.9214 9731.58 9583.21 113.15
15296 61.9252 9742.61 9587.22 113.49
15297 61.9289 9700.71 9591.47 112.63
15298 61.9327 9803.65 9596.22 113.23
15299 61.9364 9689.89 9601.27 112.10
15300 61.9402 9594.28 9606.91 110.47
15301 61.9439 9724.43 9612.91 114.32
15302 61.9477 9665.22 9619.62 113.15
15303 61.9514 9946.61 9626.79 114.19
15304 61.9552 9713.53 9634.83 111.60
15305 61.9590 9871.72 9643.68 113.75
15306 61.9627 10083.50 9653.13 115.10
15307 61.9665 9783.79 9663.86 112.39
15308 61.9702 9707.22 9675.42 112.93
15309 61.9740 9691.16 9688.59 112.88
15310 61.9777 9779.11 9702.93 112.05
15311 61.9815 9799.93 9719.45 113.20
15312 61.9852 10070.70 9737.65 113.95
15313 61.9873 9910.58 9749.04 114.36
15314 61.9910 9978.65 9771.36 114.12
15315 61.9948 9925.34 9797.74 114.14
15316 61.9985 10107.20 9827.60 115.26
15317 62.0023 10295.70 9863.42 116.22
15318 62.0061 10244.90 9905.75 115.75
15319 62.0098 10238.00 9954.35 116.72
15320 62.0136 10407.40 10013.70 117.80
15321 62.0173 10350.60 10082.40 117.33
15322 62.0211 10430.80 10165.90 117.78
15323 62.0248 10352.60 10262.30 115.37
15324 62.0286 10667.40 10378.90 120.10
15325 62.0323 10637.10 10511.70 119.74
15326 62.0361 10898.10 10669.80 119.57
15327 62.0399 10914.50 10851.30 119.06
15328 62.0436 11055.50 11051.10 120.09
15329 62.0474 11287.80 11278.90 122.73
15330 62.0511 11457.40 11520.70 123.43
15331 62.0549 11650.00 11785.00 124.98
15332 62.0586 11918.50 12052.90 124.36
15333 62.0624 12147.10 12330.70 127.47
15334 62.0661 12560.00 12595.70 130.31
15335 62.0699 12655.00 12850.80 131.37
15336 62.0736 13194.10 13072.00 133.62
15337 62.0774 13321.50 13259.50 135.20
15338 62.0812 13364.50 13397.80 133.96
15339 62.0849 13485.90 13477.90 134.84
15340 62.0887 13808.90 13500.60 137.58
15341 62.0924 13424.90 13462.60 135.56
15342 62.0962 13369.90 13362.40 134.71
15343 62.0999 12755.50 13206.90 131.98
15344 62.1037 12690.40 12993.20 130.62
15345 62.1074 12524.20 12741.40 129.91
15346 62.1112 12090.60 12452.20 127.62
15347 62.1150 11873.80 12147.60 126.99
15348 62.1187 11561.30 11852.30 124.65
15349 62.1225 11242.40 11560.90 121.92
15350 62.1262 11233.20 11298.10 120.62
15351 62.1300 11130.40 11053.00 123.23
15352 62.1337 10817.60 10841.40 119.66
15353 62.1375 10517.80 10650.90 117.71
15354 62.1412 10650.90 10491.00 116.23
15355 62.1450 10437.50 10350.30 117.03
15356 62.1487 10433.40 10234.40 116.68
15357 62.1525 10230.80 10133.90 115.26
15358 62.1562 10349.80 10051.90 116.38
15359 62.1600 10040.10 9981.38 115.18
15360 62.1638 10138.80 9922.28 115.05
15361 62.1675 9965.35 9873.98 113.63
15362 62.1713 10074.30 9831.89 114.38
15363 62.1750 10049.90 9797.04 113.92
15364 62.1788 10038.10 9766.17 114.64
15365 62.1825 9689.28 9740.14 111.81
15366 62.1863 9718.58 9716.64 112.64
15367 62.1900 9799.67 9696.46 112.27
15368 62.1938 9672.95 9677.92 112.22
15369 62.1975 9668.62 9661.74 110.85
15370 62.2013 9631.11 9646.68 111.22
15371 62.2051 9596.42 9633.03 110.59
15372 62.2088 9797.85 9620.87 113.38
15373 62.2126 9740.11 9609.44 112.31
15374 62.2163 9557.87 9599.18 110.56
15375 62.2201 9756.01 9589.47 112.78
15376 62.2238 9785.87 9580.70 114.21
15377 62.2276 9672.07 9572.36 112.00
15378 62.2313 9510.85 9564.80 111.94
15379 62.2351 9531.04 9557.57 111.93
15380 62.2388 9720.68 9550.99 112.31
15381 62.2426 9674.78 9544.65 113.50
15382 62.2463 9760.30 9538.89 115.00
15383 62.2501 9721.77 9533.31 112.93
15384 62.2538 9599.11 9528.21 112.18
15385 62.2576 9594.46 9523.26 112.29
15386 62.2613 9496.13 9518.72 109.43
15387 62.2651 9836.15 9514.30 113.36
15388 62.2689 9541.97 9510.13 112.06
15389 62.2726 9909.95 9506.27 114.06
15390 62.2764 9619.18 9502.50 111.74
15391 62.2801 9554.29 9499.01 111.14
15392 62.2839 9778.65 9495.60 112.93
15393 62.2876 9627.78 9492.43 112.47
15394 62.2914 9545.20 9489.32 112.25
15395 62.2951 9604.55 9486.42 111.89
15396 62.2989 9503.32 9483.57 111.77
15397 62.3026 9673.72 9480.91 112.72
15398 62.3064 9602.62 9478.29 112.04
15399 62.3101 9656.67 9475.83 112.69
15400 62.3139 9608.93 9473.41 112.09
15401 62.3176 9609.46 9471.14 111.47
15402 62.3214 9526.07 9468.88 110.84
15403 62.3251 9663.42 9466.77 111.85
15404 62.3289 9565.58 9464.68 112.51
15405 62.3327 9651.04 9462.65 113.25
15406 62.3364 9549.95 9460.74 111.34
15407 62.3402 9557.66 9458.84 110.47
15408 62.3439 9804.45 9457.05 115.95
15409 62.3477 9579.12 9455.27 112.64
15410 62.3514 9394.78 9453.58 110.81
15411 62.3552 9621.07 9451.90 111.76
15412 62.3589 9450.01 9450.30 110.33
15413 62.3627 9523.89 9448.71 111.58
15414 62.3664 9456.27 9447.20 111.24
15415 62.3702 9647.54 9445.68 111.98
15416 62.3739 9495.69 9444.25 111.26
15417 62.3777 9738.33 9442.81 113.04
15418 62.3814 9409.72 9441.44 110.74
15419 62.3852 9602.86 9440.07 112.08
15420 62.3890 9524.06 9438.72 111.40
15421 62.3927 9389.11 9437.45 110.79
15422 62.3965 9656.98 9436.16 112.59
15423 62.4002 9779.90 9434.93 113.54
15424 62.4040 9552.33 9433.70 112.07
15425 62.4077 9780.47 9432.52 112.65
15426 62.4115 9455.12 9431.33 110.93
15427 62.4152 9636.33 9430.20 112.44
15428 62.4190 9437.98 9429.05 110.67
15429 62.4227 9565.65 9427.96 112.31
15430 62.4265 9419.37 9426.85 110.63
15431 62.4302 9609.82 9425.79 113.02
15432 62.4340 9487.97 9424.73 111.14
15433 62.4378 9635.41 9423.67 112.42
15434 62.4415 9556.59 9422.66 111.11
15435 62.4453 9390.48 9421.65 112.47
15436 62.4490 9499.79 9420.67 111.27
15437 62.4528 9468.16 9419.68 111.12
15438 62.4565 9561.26 9418.73 110.68
15439 62.4603 9644.98 9434.89 112.39
15440 62.4640 9491.13 9434.09 111.23
15441 62.4678 9702.81 9433.29 111.76
15442 62.4715 9479.25 9432.52 111.56
15443 62.4753 9613.07 9464.73 112.67
15444 62.4790 9547.66 9464.24 111.09
15445 62.4828 9576.81 9463.76 111.94
15446 62.4865 9415.18 9463.30 110.81
15447 62.4903 9777.92 9497.92 113.41
15448 62.4941 9532.85 9497.76 112.07
15449 62.4978 9502.33 9497.62 111.32
15450 62.5016 9662.86 9548.57 113.36
15451 62.5053 9668.78 9565.73 112.31
15452 62.5091 9491.56 9566.19 111.62
15453 62.5128 9561.79 9566.65 111.87
15454 62.5166 9697.89 9567.15 113.23
15455 62.5203 9670.61 9567.67 112.43
15456 62.5241 9488.59 9568.22 111.93
15457 62.5278 9506.83 9568.78 111.82
15458 62.5316 9475.28 9569.38 111.38
15459 62.5354 9525.61 9570.01 111.04
15460 62.5391 9338.34 9570.65 109.36
15461 62.5429 9578.09 9571.34 113.22
15462 62.5466 9573.77 9572.03 113.69
15463 62.5504 9666.67 9573.68 112.59
15464 62.5541 9566.48 9574.44 111.48
15465 62.5579 9495.46 9575.24 111.62
15466 62.5616 9601.95 9576.05 111.91
15467 62.5654 9585.11 9576.91 111.53
15468 62.5691 9787.80 9577.78 113.25
15469 62.5729 9727.17 9578.71 112.50
15470 62.5766 9607.83 9579.64 112.13
15471 62.5804 9703.13 9580.63 112.04
15472 62.5842 9772.59 9581.65 113.33
15473 62.5879 9611.76 9582.69 112.01
15474 62.5917 9572.36 9583.78 112.19
15475 62.5954 9601.48 9584.87 111.14
15476 62.5992 9461.85 9586.04 110.43
15477 62.6029 9778.02 9587.20 113.09
15478 62.6067 9486.66 9588.44 111.21
15479 62.6104 9837.31 9589.68 113.56
15480 62.6142 9672.25 9590.98 112.47
15481 62.6179 9689.46 9592.29 111.43
15482 62.6217 9434.46 9593.66 110.26
15483 62.6255 9642.43 9595.07 111.88
15484 62.6292 9505.02 9596.47 111.53
15485 62.6330 9567.27 9597.93 111.68
15486 62.6367 9612.02 9599.38 110.87
15487 62.6405 9742.45 9600.89 111.49
15488 62.6442 9683.06 9602.37 113.16
15489 62.6480 9701.99 9603.90 114.21
15490 62.6517 9429.45 9605.40 110.85
15491 62.6555 9563.52 9606.95 110.05
15492 62.6593 9528.89 9608.49 111.12
15493 62.6630 9484.97 9609.99 110.24
15494 62.6668 9691.41 9611.52 112.03
15495 62.6705 9668.44 9613.01 112.71
15496 62.6743 9564.55 9614.54 111.88
15497 62.6780 9638.78 9615.98 112.47
15498 62.6818 9385.73 9616.78 110.71
15499 62.6855 9680.32 9618.28 112.49
15500 62.6893 9589.04 9619.75 111.56
15501 62.6930 9662.21 9621.29 112.03
15502 62.6968 9618.08 9622.81 111.98
15503 62.7006 9718.79 9624.46 112.58
15504 62.7043 9573.24 9626.09 111.68
15505 62.7081 9776.05 9627.81 112.69
15506 62.7118 9624.85 9629.53 111.78
15507 62.7156 9592.19 9631.34 112.32
15508 62.7193 9620.57 9633.15 111.60
15509 62.7231 9653.60 9635.05 112.63
15510 62.7268 9595.31 9636.96 111.83
15511 62.7306 9687.71 9638.98 113.06
15512 62.7343 9629.83 9640.99 111.27
15513 62.7381 9495.00 9643.12 110.78
15514 62.7419 9799.70 9645.30 112.03
15515 62.7456 9775.80 9647.48 115.09
15516 62.7494 9667.27 9649.78 111.74
15517 62.7531 9568.80 9652.08 111.47
15518 62.7569 9474.28 9654.49 110.58
15519 62.7606 9625.89 9656.90 111.61
15520 62.7644 9571.87 9659.44 111.17
15521 62.7681 9625.10 9661.97 112.28
15522 62.7719 9642.49 9664.63 112.35
15523 62.7757 9846.06 9667.36 113.20
15524 62.7794 9845.95 9670.07 113.47
15525 62.7832 9736.31 9672.93 113.16
15526 62.7869 9676.71 9675.77 113.01
15527 62.7907 9679.57 9678.75 112.67
15528 62.7944 9637.46 9681.72 112.36
15529 62.7982 9677.74 9684.84 112.71
15530 62.8019 9684.38 9687.94 112.58
15531 62.8057 9621.71 9691.20 111.90
15532 62.8095 9690.44 9694.54 112.71
15533 62.8132 9428.95 9697.85 111.04
15534 62.8170 9676.77 9701.33 112.12
15535 62.8207 9536.86 9704.79 110.91
15536 62.8245 9807.59 9708.42 113.96
15537 62.8282 9641.81 9712.03 112.14
15538 62.8320 9776.09 9715.83 113.64
15539 62.8357 9603.70 9719.59 111.92
15540 62.8395 9964.17 9723.55 114.17
15541 62.8433 9594.73 9727.59 111.35
15542 62.8470 9684.63 9731.62 114.22
15543 62.8508 9688.03 9735.85 111.71
15544 62.8545 9738.95 9740.04 111.92
15545 62.8583 9899.11 9744.46 113.93
15546 62.8620 9650.01 9748.83 111.96
15547 62.8658 9812.60 9753.45 113.61
15548 62.8695 9753.34 9758.02 113.03
15549 62.8733 9922.92 9762.83 114.39
15550 62.8771 9740.83 9767.75 113.25
15551 62.8808 9923.36 9772.64 114.50
15552 62.8846 9752.81 9777.77 113.75
15553 62.8883 9816.79 9782.88 113.86
15554 62.8921 9836.24 9788.25 114.31
15555 62.8958 9720.64 9793.60 112.84
15556 62.8996 9670.00 9799.20 112.76
15557 62.9033 10001.70 9804.79 115.36
15558 62.9071 9742.97 9810.66 111.89
15559 62.9109 9869.84 9816.66 113.94
15560 62.9146 9665.46 9822.65 112.28
15561 62.9184 9822.11 9828.93 113.60
15562 62.9221 9879.78 9835.19 114.43
15563 62.9259 9974.58 9841.78 115.26
15564 62.9296 9761.12 9848.33 113.85
15565 62.9334 9779.84 9855.23 113.88
15566 62.9371 9809.10 9862.10 113.64
15567 62.9409 9816.17 9869.32 112.45
15568 62.9447 9855.50 9876.71 116.24
15569 62.9484 10057.00 9884.09 116.33
15570 62.9522 10086.40 9891.84 115.72
15571 62.9559 9857.86 9899.58 113.62
15572 62.9597 9898.52 9907.71 113.99
15573 62.9634 10023.30 9915.83 114.96
15574 62.9672 9876.40 9924.37 114.06
15575 62.9709 9907.67 9932.90 114.81
15576 62.9747 9950.65 9941.87 113.16
15577 62.9785 9750.98 9951.06 113.86
15578 62.9822 9891.01 9960.25 113.83
15579 62.9860 10030.50 9969.92 115.55
15580 62.9897 9865.07 9979.58 114.23
15581 62.9935 10202.50 9989.77 115.96
15582 62.9972 9991.29 9999.92 113.63
15583 63.0010 10010.30 10010.60 114.62
15584 63.0048 9988.87 10021.60 114.07
15585 63.0085 10091.50 10032.40 115.97
15586 63.0123 10120.70 10044.00 115.52
15587 63.0160 10159.20 10055.60 115.69
15588 63.0198 10017.60 10067.80 113.75
15589 63.0235 10191.40 10079.20 117.00
15590 63.0273 9978.24 10092.10 115.09
15591 63.0310 10333.80 10105.00 118.09
15592 63.0348 10154.60 10117.70 116.46
15593 63.0386 10134.20 10131.80 115.44
15594 63.0423 10037.60 10145.80 114.71
15595 63.0461 10319.00 10160.60 120.34
15596 63.0498 10178.20 10175.50 116.78
15597 63.0536 10367.00 10190.00 117.62
15598 63.0573 10104.80 10205.70 114.58
15599 63.0611 10145.70 10222.40 116.04
15600 63.0649 10321.40 10239.50 117.63
15601 63.0686 10427.00 10256.70 118.11
15602 63.0724 10358.30 10274.90 115.70
15603 63.0761 10396.00 10293.10 117.60
15604 63.0799 10204.20 10312.40 116.55
15605 63.0836 10319.20 10331.80 117.66
15606 63.0874 10495.30 10352.40 118.34
15607 63.0911 10294.00 10372.90 117.30
15608 63.0949 10199.00 10394.80 115.05
15609 63.0987 10389.00 10417.40 117.55
15610 63.1024 10421.20 10440.10 117.54
15611 63.1062 10436.40 10464.10 118.18
15612 63.1099 10316.80 10488.30 116.79
15613 63.1137 10547.90 10514.00 118.04
15614 63.1174 10401.80 10539.90 117.62
15615 63.1212 10395.60 10567.30 117.83
15616 63.1250 10542.10 10595.70 119.39
15617 63.1287 10528.10 10624.40 118.83
15618 63.1325 10493.10 10654.90 118.11
15619 63.1362 10511.90 10685.50 118.49
15620 63.1400 10536.80 10718.30 116.99
15621 63.1437 10668.00 10751.20 121.03
15622 63.1475 10783.10 10786.30 121.76
15623 63.1513 10737.00 10822.80 120.14
15624 63.1550 10600.20 10859.60 118.30
15625 63.1588 10933.40 10898.80 120.64
15626 63.1625 10707.10 10938.60 118.48
15627 63.1663 10878.90 10980.90 120.00
15628 63.1700 10760.90 11023.80 119.46
15629 63.1738 11139.50 11069.60 121.41
15630 63.1775 10950.10 11116.10 121.00
15631 63.1813 11127.20 11165.70 121.31
15632 63.1851 11176.90 11217.50 121.79
15633 63.1888 11060.90 11270.00 120.70
15634 63.1926 11165.60 11326.30 121.58
15635 63.1963 11221.30 11383.30 121.76
15636 63.2001 11100.40 11444.70 121.76
15637 63.2038 11219.60 11506.90 121.07
15638 63.2076 11252.20 11573.90 122.00
15639 63.2114 11263.80 11643.90 122.15
15640 63.2151 11313.30 11715.30 122.44
15641 63.2189 11504.50 11792.10 123.15
15642 63.2226 11582.20 11870.50 122.47
15643 63.2264 11736.80 11955.00 125.61
15644 63.2301 11650.10 12041.20 124.99
15645 63.2339 11753.70 12134.40 125.82
15646 63.2377 11686.10 12232.20 124.82
15647 63.2414 11989.50 12332.60 124.64
15648 63.2452 12029.60 12441.10 127.78
15649 63.2489 12303.20 12552.50 129.70
15650 63.2527 12406.10 12673.10 129.10
15651 63.2564 12397.80 12797.20 128.28
15652 63.2602 12311.50 12931.80 127.53
15653 63.2640 12705.60 13074.40 130.93
15654 63.2677 12580.90 13221.50 130.26
15655 63.2715 12743.70 13381.90 131.07
15656 63.2752 13099.80 13547.30 133.34
15657 63.2790 13429.00 13728.20 134.50
15658 63.2827 13552.30 13915.30 135.87
15659 63.2865 13971.60 14120.40 137.90
15660 63.2903 14044.10 14339.20 138.29
15661 63.2940 14474.70 14567.00 140.90
15662 63.2978 14489.80 14817.00 140.96
15663 63.3015 14850.70 15078.20 142.84
15664 63.3053 15207.20 15365.80 145.65
15665 63.3090 15735.70 15667.30 148.40
15666 63.3128 16111.90 16000.30 150.22
15667 63.3166 16610.50 16360.20 152.15
15668 63.3203 17005.80 16739.50 154.33
15669 63.3241 17990.50 17161.40 161.38
15670 63.3278 18009.20 17608.40 159.50
15671 63.3316 18991.80 18108.30 165.51
15672 63.3353 19539.40 18641.30 167.47
15673 63.3391 20598.10 19241.80 170.25
15674 63.3429 21421.60 19906.30 176.07
15675 63.3466 22996.10 20623.60 188.89
15676 63.3504 23785.80 21444.70 188.45
15677 63.3541 24677.80 22343.70 191.98
15678 63.3579 26006.30 23387.30 197.77
15679 63.3616 28091.10 24547.20 207.17
15680 63.3654 29702.00 25914.20 214.82
15681 63.3692 31432.40 27502.30 222.51
15682 63.3729 33655.10 29299.20 232.91
15683 63.3767 36054.40 31465.90 242.20
15684 63.3804 38815.10 33940.20 251.91
15685 63.3842 41697.60 36942.30 263.36
15686 63.3879 44607.30 40379.80 274.73
15687 63.3917 48833.20 44546.80 291.31
15688 63.3955 52841.60 49439.20 307.70
15689 63.3992 57997.30 55008.10 323.72
15690 63.4030 62663.30 61633.00 342.57
15691 63.4067 69195.50 69054.80 362.78
15692 63.4105 75357.90 77721.70 384.06
15693 63.4142 83655.20 87151.70 410.70
15694 63.4180 92406.20 97843.30 435.68
15695 63.4218 102990.00 109374.00 463.71
15696 63.4255 114961.00 121237.00 508.64
15697 63.4293 129431.00 133778.00 539.28
15698 63.4330 144047.00 146066.00 591.23
15699 63.4368 160600.00 158395.00 635.56
15700 63.4406 175129.00 170062.00 666.71
15701 63.4443 192974.00 180397.00 712.14
15702 63.4481 206915.00 189521.00 767.53
15703 63.4518 216415.00 196595.00 780.37
15704 63.4556 222405.00 201636.00 787.80
15705 63.4593 222588.00 204091.00 784.78
15706 63.4631 217511.00 203819.00 779.98
15707 63.4669 208385.00 200515.00 758.33
15708 63.4706 196189.00 194304.00 730.02
15709 63.4744 181420.00 185000.00 690.56
15710 63.4781 165390.00 173559.00 649.17
15711 63.4819 150218.00 160008.00 606.04
15712 63.4856 135339.00 145893.00 564.56
15713 63.4894 122096.00 131242.00 528.01
15714 63.4932 108619.00 117052.00 488.59
15715 63.4969 98607.30 104087.00 458.11
15716 63.5007 87988.70 91933.60 423.24
15717 63.5044 79205.10 81320.80 397.54
15718 63.5082 70749.90 71723.70 366.04
15719 63.5119 64530.90 63585.10 348.13
15720 63.5157 57558.10 56401.60 324.81
15721 63.5195 52850.60 50279.40 306.17
15722 63.5232 48400.70 45246.10 291.30
15723 63.5270 43435.70 40881.30 271.05
15724 63.5307 40005.70 37321.20 257.08
15725 63.5345 37112.20 34244.10 245.67
15726 63.5382 33863.80 31726.60 233.78
15727 63.5420 31082.80 29545.30 219.27
15728 63.5458 29912.20 27692.50 221.43
15729 63.5495 27321.20 26151.50 206.21
15730 63.5533 25740.20 24780.80 197.86
15731 63.5570 24370.60 23620.40 191.42
15732 63.5608 23154.50 22569.60 184.16
15733 63.5646 21970.70 21640.90 180.56
15734 63.5683 20979.50 20831.90 175.88
15735 63.5721 19947.70 20085.40 168.70
15736 63.5758 19119.70 19427.30 166.10
15737 63.5796 18360.30 18813.70 161.27
15738 63.5833 17807.90 18267.90 159.81
15739 63.5871 17329.20 17755.20 157.92
15740 63.5909 16770.70 17284.90 154.32
15741 63.5946 16251.10 16862.80 151.28
15742 63.5984 15825.40 16463.10 148.72
15743 63.6021 15415.20 16102.70 147.06
15744 63.6059 15088.70 15760.00 144.69
15745 63.6096 14636.70 15449.90 142.84
15746 63.6134 14579.80 15153.40 142.60
15747 63.6172 14452.00 14878.00 141.64
15748 63.6209 13939.30 14627.40 137.24
15749 63.6247 13971.10 14387.20 139.68
15750 63.6284 13606.00 14168.00 136.16
15751 63.6322 13464.40 13957.20 136.58
15752 63.6360 13029.90 13759.50 134.29
15753 63.6397 13174.30 13578.50 133.10
15754 63.6435 12764.10 13403.70 130.24
15755 63.6472 12917.40 13243.20 134.95
15756 63.6510 12455.90 13087.70 129.38
15757 63.6547 12350.90 12945.00 127.82
15758 63.6585 12182.60 12806.20 126.69
15759 63.6623 12033.90 12675.20 125.86
15760 63.6660 12149.00 12554.30 126.95
15761 63.6698 12084.70 12436.70 126.97
15762 63.6735 11981.50 12327.90 126.88
15763 63.6773 11757.90 12221.90 124.33
15764 63.6811 11803.00 12121.10 125.34
15765 63.6848 11863.40 12027.90 125.49
15766 63.6886 11434.70 11936.60 122.52
15767 63.6923 11689.30 11852.10 124.60
15768 63.6961 11572.10 11769.10 121.35
15769 63.6998 11307.10 11692.20 122.13
15770 63.7036 11362.40 11616.60 122.32
15771 63.7074 11389.90 11544.50 120.93
15772 63.7111 11094.00 11477.40 120.46
15773 63.7149 11393.70 11411.40 122.33
15774 63.7186 11262.40 11349.90 121.59
15775 63.7224 11166.40 11289.50 120.33
15776 63.7261 10778.30 11233.00 119.05
15777 63.7299 11109.10 11177.40 121.10
15778 63.7337 10834.00 11124.10 119.22
15779 63.7374 10732.20 11074.20 118.74
15780 63.7412 10918.00 11025.00 118.43
15781 63.7449 10996.10 10979.00 120.82
15782 63.7487 11010.80 10933.60 121.95
15783 63.7525 10703.90 10889.90 118.56
15784 63.7562 10863.40 10849.00 119.04
15785 63.7600 10770.10 10808.50 118.28
15786 63.7637 10451.30 10770.60 116.98
15787 63.7675 10747.70 10733.10 116.74
15788 63.7712 10667.30 10697.80 118.51
15789 63.7750 10716.70 10662.90 118.02
15790 63.7788 10514.10 10629.30 116.80
15791 63.7825 10479.40 10597.70 116.70
15792 63.7863 10545.30 10566.40 117.16
15793 63.7900 10542.70 10537.00 116.79
15794 63.7938 10402.00 10507.80 116.59
15795 63.7976 10298.10 10479.70 115.46
15796 63.8013 10435.50 10453.20 116.90
15797 63.8051 10396.40 10426.90 115.77
15798 63.8088 10311.90 10402.20 114.69
15799 63.8126 10340.00 10377.60 116.14
15800 63.8163 10177.40 10354.50 115.04
15801 63.8201 10248.80 10331.60 115.09
15802 63.8239 10337.50 10309.40 114.93
15803 63.8276 10360.90 10288.60 116.37
15804 63.8314 10304.50 10267.90 116.50
15805 63.8351 10166.60 10248.40 114.32
15806 63.8389 10286.30 10229.10 114.82
15807 63.8427 9965.58 10210.40 111.74
15808 63.8464 10366.10 10192.90 117.75
15809 63.8502 10245.20 10175.40 116.34
15810 63.8539 10040.60 10159.10 113.05
15811 63.8577 10020.50 10142.90 113.31
15812 63.8614 10187.50 10127.60 113.26
15813 63.8652 10173.50 10112.60 114.91
15814 63.8690 10022.60 10098.00 114.49
15815 63.8727 10320.50 10084.50 116.44
15816 63.8765 9931.56 10071.10 113.58
15817 63.8802 10120.70 10058.70 114.81
15818 63.8840 10110.90 10046.40 114.53
15819 63.8878 9891.11 10034.70 113.31
15820 63.8915 10016.10 10023.90 114.71
15821 63.8953 10072.70 10013.40 114.47
15822 63.8990 10016.90 10003.70 113.43
15823 63.9028 10036.50 9994.31 114.80
15824 63.9065 10126.60 9985.80 115.53
15825 63.9103 10140.20 9977.71 114.82
15826 63.9141 10028.70 9970.27 114.66
15827 63.9178 10036.90 9963.72 114.72
15828 63.9216 10103.00 9957.69 114.54
15829 63.9253 10274.50 9952.56 117.12
15830 63.9291 10045.60 9948.07 113.29
15831 63.9329 10285.20 9944.41 116.61
15832 63.9366 10073.80 9941.69 114.60
15833 63.9404 10009.70 9939.80 113.18
15834 63.9441 10236.90 9938.89 117.21
15835 63.9479 10245.30 9938.95 117.70
15836 63.9517 9812.77 9940.07 113.33
15837 63.9554 10087.00 9942.21 114.24
15838 63.9592 10028.40 9945.54 114.04
15839 63.9629 10119.40 9949.94 115.03
15840 63.9667 10056.00 9955.66 114.32
15841 63.9704 10015.40 9962.46 114.51
15842 63.9742 10020.50 9970.73 114.61
15843 63.9780 10092.90 9980.31 114.78
15844 63.9817 10072.10 9990.94 113.70
15845 63.9855 10312.60 10003.20 115.45
15846 63.9892 10134.70 10016.30 115.23
15847 63.9930 10085.80 10031.10 114.86
15848 63.9968 9938.34 10047.20 114.23
15849 64.0005 10100.10 10063.80 115.02
15850 64.0043 10117.60 10081.90 114.98
15851 64.0080 10137.40 10100.30 115.18
15852 64.0118 10072.00 10119.60 115.03
15853 64.0155 10086.40 10138.80 113.94
15854 64.0193 10186.70 10158.20 115.52
15855 64.0231 10190.90 10177.10 115.09
15856 64.0268 9928.77 10194.50 114.25
15857 64.0306 10159.30 10210.70 115.60
15858 64.0343 10207.00 10224.40 116.16
15859 64.0381 10303.30 10235.60 116.11
15860 64.0419 10167.20 10243.40 114.44
15861 64.0456 10423.00 10247.20 119.15
15862 64.0494 10159.80 10247.00 116.33
15863 64.0531 10130.40 10242.40 115.73
15864 64.0569 10026.60 10233.20 114.42
15865 64.0607 10247.40 10219.70 116.11
15866 64.0644 10247.20 10202.60 116.19
15867 64.0682 10185.20 10181.30 115.55
15868 64.0719 10089.80 10157.60 115.43
15869 64.0757 10242.00 10130.80 116.10
15870 64.0795 10165.80 10102.00 115.26
15871 64.0832 10093.10 10072.50 114.82
15872 64.0870 10002.80 10041.50 114.57
15873 64.0907 9989.14 10010.90 113.36
15874 64.0945 10194.30 9979.38 115.99
15875 64.0982 10292.50 9949.14 115.22
15876 64.1020 9910.51 9918.60 114.03
15877 64.1058 10057.60 9888.89 115.29
15878 64.1095 9894.64 9860.97 113.74
15879 64.1133 9901.18 9833.29 114.44
15880 64.1170 9641.52 9807.48 112.64
15881 64.1208 9852.39 9782.20 112.64
15882 64.1246 9969.72 9758.15 113.60
15883 64.1283 9831.79 9735.88 112.96
15884 64.1321 9667.51 9714.25 112.18
15885 64.1358 9846.25 9694.31 113.85
15886 64.1396 9754.54 9675.01 112.40
15887 64.1433 9747.25 9657.26 110.63
15888 64.1471 9693.50 9640.13 114.14
15889 64.1509 9842.01 9624.01 114.30
15890 64.1546 9484.58 9609.23 110.63
15891 64.1584 9557.45 9594.98 110.82
15892 64.1621 9507.06 9581.92 110.45
15893 64.1659 9559.04 9569.32 111.18
15894 64.1697 9523.43 9557.45 111.10
15895 64.1734 9614.37 9546.60 111.78
15896 64.1772 9440.65 9536.07 109.52
15897 64.1809 9517.77 9526.42 109.82
15898 64.1847 9580.60 9517.03 111.26
15899 64.1885 9419.29 9508.18 110.13
15900 64.1922 9502.16 9500.00 111.11
15901 64.1960 9461.95 9492.04 109.97
15902 64.1997 9346.99 9484.66 109.98
15903 64.2035 9452.58 9477.45 110.49
15904 64.2073 9528.10 9470.57 110.90
15905 64.2110 9475.60 9464.16 110.73
15906 64.2148 9255.98 9457.87 109.04
15907 64.2185 9401.26 9451.98 109.71
15908 64.2223 9335.31 9446.15 109.34
15909 64.2260 9507.42 9440.72 111.20
15910 64.2298 9508.48 9435.31 110.60
15911 64.2336 9555.36 9430.10 110.71
15912 64.2373 9349.27 9425.20 109.06
15913 64.2411 9483.11 9420.33 110.37
15914 64.2448 9320.77 9415.72 108.16
15915 64.2486 9569.58 9411.13 113.46
15916 64.2524 9405.79 9406.68 110.85
15917 64.2561 9446.13 9402.45 109.67
15918 64.2599 9444.32 9398.23 109.43
15919 64.2636 9269.73 9394.22 108.84
15920 64.2674 9207.13 9390.22 108.17
15921 64.2711 9377.72 9386.41 109.35
15922 64.2749 9301.79 9382.59 108.69
15923 64.2787 9324.76 9378.85 109.17
15924 64.2824 9405.58 9375.30 110.41
15925 64.2862 9492.51 9371.74 110.71
15926 64.2899 9314.85 9368.34 108.82
15927 64.2937 9272.95 9364.93 109.25
15928 64.2975 9379.33 9361.58 109.87
15929 64.3012 9315.84 9358.40 109.31
15930 64.3050 9140.45 9355.19 107.89
15931 64.3087 9248.07 9352.13 108.48
15932 64.3125 9364.27 9349.06 109.53
15933 64.3163 9244.11 9346.04 108.73
15934 64.3200 9211.53 9343.16 108.74
15935 64.3238 9241.22 9340.27 108.97
15936 64.3275 9322.60 9337.50 109.40
15937 64.3313 9253.90 9334.71 109.26
15938 64.3351 9515.56 9331.99 111.21
15939 64.3388 9268.54 9329.38 109.57
15940 64.3426 9276.87 9326.76 107.87
15941 64.3463 9464.58 9324.26 110.69
15942 64.3501 9214.54 9321.74 109.64
15943 64.3538 9291.49 9319.36 109.63
15944 64.3576 9177.76 9316.94 108.33
15945 64.3614 9317.14 9314.60 108.78
15946 64.3651 9295.54 9312.37 108.92
15947 64.3689 9342.20 9310.15 109.53
15948 64.3726 9254.79 9308.04 109.35
15949 64.3764 9361.34 9305.95 109.55
15950 64.3802 9268.75 9303.94 109.01
15951 64.3839 9356.98 9302.06 109.76
15952 64.3877 9361.84 9300.23 109.70
15953 64.3914 9378.10 9298.55 110.18
15954 64.3952 9118.86 9296.95 108.32
15955 64.3990 9230.59 9295.50 108.63
15956 64.4027 9312.98 9277.15 109.06
15957 64.4065 9254.29 9276.20 108.76
15958 64.4102 9261.70 9275.49 109.48
15959 64.4140 9298.91 9275.03 108.94
15960 64.4178 9302.97 9241.86 108.37
15961 64.4215 9484.50 9242.30 110.20
15962 64.4253 9236.64 9243.12 108.83
15963 64.4290 9221.65 9209.33 109.22
15964 64.4328 9239.75 9211.26 109.84
15965 64.4365 9248.01 9213.57 108.97
15966 64.4403 9327.83 9216.35 109.31
15967 64.4441 9145.28 9168.40 106.17
15968 64.4478 9294.22 9155.38 112.01
15969 64.4516 9359.90 9159.49 109.26
15970 64.4553 9276.12 9163.50 108.82
15971 64.4591 9636.24 9167.45 111.01
15972 64.4629 9146.58 9171.02 108.19
15973 64.4666 9256.19 9173.95 109.27
15974 64.4704 9112.43 9176.13 108.60
15975 64.4741 9303.03 9177.22 109.28
15976 64.4779 9235.98 9177.06 108.72
15977 64.4816 9323.55 9175.52 110.07
15978 64.4854 9248.28 9172.54 109.23
15979 64.4892 9355.81 9168.33 109.04
15980 64.4929 9271.87 9163.31 109.04
15981 64.4967 9250.47 9157.56 109.34
15982 64.5004 9289.87 9151.68 108.99
15983 64.5042 9345.75 9145.64 109.91
15984 64.5080 9142.40 9139.81 108.53
15985 64.5117 9090.56 9134.45 107.62
15986 64.5155 9235.04 9129.38 109.11
15987 64.5192 9310.03 9124.90 109.97
15988 64.5230 9177.74 9120.76 107.99
15989 64.5268 9241.09 9117.08 109.78
15990 64.5305 9286.07 9113.92 108.75
15991 64.5343 9097.45 9111.05 108.81
15992 64.5380 9287.29 9108.59 109.13
15993 64.5418 9068.86 9106.36 107.39
15994 64.5456 9125.13 9104.40 108.05
15995 64.5493 9152.37 9102.69 110.77
15996 64.5531 9150.06 9101.12 108.31
15997 64.5568 9155.95 9099.73 108.15
15998 64.5606 8985.77 9098.43 106.75
15999 64.5644 9293.66 9097.22 109.10
16000 64.5681 8955.80 9096.13 107.53
16001 64.5719 8943.19 9095.08 106.79
16002 64.5756 9188.06 9094.11 107.41
16003 64.5794 9166.82 9093.17 108.76
16004 64.5832 9214.88 9092.26 108.80
16005 64.5869 9071.32 9091.41 108.22
16006 64.5907 9059.43 9090.57 107.59
16007 64.5944 9191.67 9089.78 108.61
16008 64.5982 9245.41 9088.99 109.84
16009 64.6019 9244.44 9088.25 109.57
16010 64.6057 9076.46 9087.50 108.01
16011 64.6095 9195.98 9086.78 108.59
16012 64.6132 9147.34 9086.10 108.56
16013 64.6170 9178.85 9085.41 108.43
16014 64.6207 9193.43 9084.76 107.91
16015 64.6245 9175.84 9084.11 108.53
16016 64.6283 9318.63 9083.47 109.98
16017 64.6320 9156.35 9082.87 109.06
16018 64.6358 9136.76 9082.26 108.73
16019 64.6395 8945.87 9081.69 106.89
16020 64.6433 9160.43 9081.12 107.04
16021 64.6471 9137.74 9080.57 110.97
16022 64.6508 9126.17 9080.04 108.02
16023 64.6546 9091.60 9079.53 108.14
16024 64.6583 9108.55 9079.04 107.70
16025 64.6621 9094.12 9078.55 107.74
16026 64.6658 9001.26 9078.10 107.68
16027 64.6696 9014.08 9077.67 107.92
16028 64.6734 9072.37 9077.25 108.28
16029 64.6771 9280.50 9076.87 109.68
16030 64.6809 9092.77 9076.51 108.46
16031 64.6846 9054.36 9076.18 108.01
16032 64.6884 9046.30 9075.88 107.88
16033 64.6922 9030.02 9075.62 107.81
16034 64.6959 9046.48 9075.41 107.81
16035 64.6997 9223.10 9075.24 108.77
16036 64.7034 9170.00 9075.13 108.70
16037 64.7072 9143.44 9075.09 108.72
16038 64.7110 9209.22 9075.13 109.46
16039 64.7147 9048.96 9075.25 107.71
16040 64.7185 9256.32 9075.49 109.15
16041 64.7222 9064.89 9075.85 107.96
16042 64.7260 9110.48 9076.38 108.84
16043 64.7297 9172.89 9077.08 109.12
16044 64.7335 8941.54 9078.02 107.55
16045 64.7373 9093.75 9079.22 108.46
16046 64.7410 9110.74 9080.69 108.46
16047 64.7448 9028.97 9082.55 106.56
16048 64.7485 9063.49 9084.76 110.42
16049 64.7523 9216.22 9087.49 109.82
16050 64.7561 9079.48 9090.74 108.13
16051 64.7598 9256.03 9094.46 107.21
16052 64.7636 9166.82 9098.88 108.69
16053 64.7673 9212.94 9103.79 108.35
16054 64.7711 9213.83 9109.45 109.58
16055 64.7749 9279.91 9115.68 109.28
16056 64.7786 9207.70 9122.21 109.46
16057 64.7824 9249.46 9129.30 109.36
16058 64.7861 9211.14 9136.49 108.87
16059 64.7899 9144.35 9144.15 108.71
16060 64.7937 9099.68 9152.02 108.30
16061 64.7974 9347.16 9159.86 108.40
16062 64.8012 9280.87 9167.94 109.71
16063 64.8049 9249.58 9175.58 108.60
16064 64.8087 9245.63 9182.77 109.70
16065 64.8125 9335.55 9188.74 110.61
16066 64.8162 9221.06 9192.82 109.47
16067 64.8200 9203.11 9194.66 109.15
16068 64.8237 9210.52 9193.75 108.98
16069 64.8275 9159.56 9189.86 108.93
16070 64.8312 9342.57 9183.32 109.93
16071 64.8350 9216.70 9174.26 109.42
16072 64.8388 9256.31 9163.51 108.61
16073 64.8425 9148.01 9152.17 107.32
16074 64.8463 9241.63 9140.25 110.22
16075 64.8500 9279.98 9128.93 111.73
16076 64.8538 9196.38 9117.90 109.03
16077 64.8576 9087.94 9107.73 108.01
16078 64.8613 9218.54 9098.75 109.13
16079 64.8651 9243.87 9090.52 109.41
16080 64.8688 9044.44 9083.44 108.20
16081 64.8726 9048.23 9077.07 108.23
16082 64.8763 8863.20 9071.68 106.69
16083 64.8801 9147.87 9066.90 108.48
16084 64.8839 9063.09 9062.78 106.90
16085 64.8876 9153.34 9059.31 109.36
16086 64.8914 9072.17 9056.22 108.15
16087 64.8951 9079.63 9053.60 108.61
16088 64.8989 9157.88 9051.25 107.97
16089 64.9027 9043.22 9049.16 107.36
16090 64.9064 9140.21 9047.34 108.88
16091 64.9102 9118.67 9045.65 108.94
16092 64.9139 9212.77 9044.14 109.13
16093 64.9177 8948.05 9042.72 107.03
16094 64.9215 9053.00 9041.39 108.21
16095 64.9252 9186.05 9040.17 108.88
16096 64.9290 9028.07 9039.00 108.74
16097 64.9327 9221.29 9037.90 109.19
16098 64.9365 9106.86 9036.83 109.04
16099 64.9403 9194.88 9035.80 109.74
16100 64.9440 9052.42 9034.84 106.77
16101 64.9478 9091.42 9033.89 110.12
16102 64.9515 9156.66 9032.99 109.15
16103 64.9553 9254.37 9032.09 109.32
16104 64.9591 9007.22 9031.22 107.99
16105 64.9628 9117.67 9030.39 108.63
16106 64.9666 9072.71 9029.56 108.12
16107 64.9703 9105.99 9028.77 108.54
16108 64.9741 9117.96 9027.97 108.31
16109 64.9778 9393.71 9027.21 110.05
16110 64.9816 8985.41 9026.44 108.10
16111 64.9854 9146.24 9025.69 109.67
16112 64.9891 9138.96 9024.96 108.92
16113 64.9929 9210.31 9024.23 109.70
16114 64.9966 8939.10 9023.53 108.16
16115 65.0004 9180.45 9022.82 109.06
16116 65.0042 9139.20 9022.11 108.75
16117 65.0079 9301.46 9021.44 109.38
16118 65.0117 9036.99 9020.75 108.63
16119 65.0154 9156.70 9020.08 109.50
16120 65.0192 8937.99 9019.41 107.77
16121 65.0229 8991.22 9018.76 107.60
16122 65.0267 9166.85 9018.09 110.31
16123 65.0305 9099.59 9017.44 108.64
16124 65.0342 9065.64 9016.80 109.03
16125 65.0380 9079.94 9016.15 108.53
16126 65.0417 8980.21 9015.53 106.90
16127 65.0455 8982.67 9014.88 107.40
16128 65.0493 8920.78 9014.25 110.04
16129 65.0530 9161.13 9013.63 109.67
16130 65.0568 9198.10 9013.01 109.49
16131 65.0605 8984.35 9012.40 108.03
16132 65.0643 9055.35 9011.78 107.29
16133 65.0681 9082.96 9011.16 108.40
16134 65.0718 9174.60 9010.56 108.83
16135 65.0756 8968.67 9009.95 108.22
16136 65.0793 9024.23 9009.35 109.13
16137 65.0831 9136.05 9008.75 108.37
16138 65.0869 8986.41 9008.14 107.52
16139 65.0906 9002.19 9007.55 107.71
16140 65.0944 9031.97 9006.96 106.88
16141 65.0981 9163.08 9006.37 108.58
16142 65.1019 9041.90 9005.78 107.72
16143 65.1056 8940.07 9005.20 107.02
16144 65.1094 8943.94 9004.61 107.47
16145 65.1132 9078.10 9004.02 107.78
16146 65.1169 9174.94 9003.45 108.15
16147 65.1207 9037.59 9002.87 107.48
16148 65.1244 9034.85 9002.30 107.47
16149 65.1282 9238.27 9001.72 109.71
16150 65.1320 8977.63 9001.14 107.37
16151 65.1357 8903.93 9000.58 107.15
16152 65.1395 9102.24 9000.01 107.54
16153 65.1432 9057.23 8999.45 106.56
16154 65.1470 8926.97 8998.88 108.45
16155 65.1507 9197.34 8998.32 109.85
16156 65.1545 9054.42 8997.75 107.82
16157 65.1583 9048.70 8997.19 107.27
16158 65.1620 9030.59 8996.65 107.13
16159 65.1658 8936.74 8996.08 106.87
16160 65.1695 8991.47 8995.54 107.50
16161 65.1733 9023.81 8994.98 107.41
16162 65.1771 9040.63 8994.43 108.05
16163 65.1808 9010.57 8993.89 107.12
16164 65.1846 8837.74 8993.34 105.95
16165 65.1883 8990.48 8992.81 107.46
16166 65.1921 9008.40 8992.26 107.73
16167 65.1959 9232.72 8991.72 109.09
16168 65.1996 8992.86 8991.20 107.51
16169 65.2034 9269.79 8990.66 109.12
16170 65.2071 8915.46 8990.14 106.79
16171 65.2109 9013.08 8989.61 107.67
16172 65.2146 8992.61 8989.09 107.35
16173 65.2184 9054.43 8988.57 106.82
16174 65.2222 9122.40 8988.05 108.28
16175 65.2259 8935.48 8987.54 106.78
16176 65.2297 9138.63 8987.03 107.21
16177 65.2334 9080.63 8986.54 107.22
16178 65.2372 8956.07 8986.03 107.45
16179 65.2410 8961.29 8985.53 106.76
16180 65.2447 8837.44 8985.05 105.04
16181 65.2485 8945.35 8984.56 109.08
16182 65.2522 8965.01 8984.10 108.57
16183 65.2560 9040.47 8983.62 107.89
16184 65.2597 8935.82 8983.17 106.00
16185 65.2635 8919.50 8982.71 106.31
16186 65.2673 9026.32 8982.26 107.50
16187 65.2710 8958.42 8981.83 106.71
16188 65.2748 8996.50 8981.40 107.03
16189 65.2785 9057.48 8981.00 107.95
16190 65.2823 8846.03 8980.59 106.38
16191 65.2861 8978.74 8980.20 107.36
16192 65.2898 9022.26 8979.84 107.79
16193 65.2936 8979.36 8979.48 107.42
16194 65.2973 9039.63 8979.15 107.83
16195 65.3011 9053.47 8978.83 107.55
16196 65.3049 8956.18 8978.52 107.05
16197 65.3086 9007.07 8978.25 106.45
16198 65.3124 8918.61 8978.00 105.76
16199 65.3161 9017.46 8977.78 107.30
16200 65.3199 9083.14 8977.58 107.81
16201 65.3236 8952.61 8977.41 106.31
16202 65.3274 8886.56 8977.27 107.42
16203 65.3312 8970.76 8977.17 105.98
16204 65.3349 8802.59 8977.10 106.27
16205 65.3387 8933.70 8977.06 107.26
16206 65.3424 8961.38 8977.05 106.68
16207 65.3462 8960.00 8977.09 107.32
16208 65.3500 9200.71 8977.16 110.73
16209 65.3537 8916.40 8977.27 106.62
16210 65.3575 9019.21 8977.42 107.15
16211 65.3612 9011.22 8977.60 106.82
16212 65.3650 8911.93 8977.82 107.12
16213 65.3687 8835.86 8978.07 106.25
16214 65.3725 9032.55 8978.35 107.30
16215 65.3763 8958.82 8978.65 107.19
16216 65.3800 8936.98 8978.97 107.26
16217 65.3838 8936.52 8979.30 107.16
16218 65.3875 8920.77 8979.61 107.43
16219 65.3913 8863.01 8979.92 106.70
16220 65.3951 8853.06 8980.19 106.87
16221 65.3988 8899.93 8980.41 106.49
16222 65.4026 9020.03 8980.57 107.92
16223 65.4063 9073.13 8980.64 108.22
16224 65.4101 9108.10 8980.61 107.75
16225 65.4138 8908.76 8980.46 107.14
16226 65.4176 8887.65 8980.17 106.88
16227 65.4214 9103.69 8979.74 108.23
16228 65.4251 8966.10 8979.17 107.26
16229 65.4289 9075.21 8978.45 108.97
16230 65.4326 9109.26 8977.60 108.63
16231 65.4364 8931.73 8976.59 107.29
16232 65.4402 8838.04 8975.47 106.65
16233 65.4439 9237.12 8974.29 108.07
16234 65.4477 9117.89 8972.98 109.42
16235 65.4514 9001.57 8971.65 109.07
16236 65.4552 8998.43 8970.25 107.38
16237 65.4589 9016.16 8968.84 107.39
16238 65.4627 9122.50 8967.39 108.29
16239 65.4665 9042.40 8965.95 107.91
16240 65.4702 8934.58 8964.52 107.02
16241 65.4740 9115.33 8963.10 108.86
16242 65.4777 8917.82 8961.73 107.74
16243 65.4815 8919.99 8960.36 107.55
16244 65.4853 9015.73 8959.03 107.72
16245 65.4890 8994.27 8957.76 107.31
16246 65.4928 9013.77 8956.50 107.29
16247 65.4965 9065.93 8955.31 107.78
16248 65.5003 9019.64 8954.12 108.07
16249 65.5040 8934.59 8953.00 107.01
16250 65.5078 8781.15 8951.89 106.56
16251 65.5116 8995.58 8950.82 108.08
16252 65.5153 8959.81 8949.80 107.22
16253 65.5191 9077.26 8948.80 108.13
16254 65.5228 9000.44 8947.85 106.93
16255 65.5266 9045.11 8946.90 108.80
16256 65.5303 8863.72 8946.01 106.41
16257 65.5341 8987.71 8945.12 108.59
16258 65.5379 8899.27 8944.26 106.84
16259 65.5416 9118.41 8943.44 108.05
16260 65.5454 8837.25 8942.62 105.74
16261 65.5491 9131.54 8941.84 111.21
16262 65.5529 9090.62 8941.06 109.09
16263 65.5567 8864.13 8939.38 106.45
16264 65.5604 9035.15 8938.66 108.56
16265 65.5642 9034.62 8937.93 107.70
16266 65.5679 8997.77 8937.24 107.67
16267 65.5717 9132.58 8936.54 108.61
16268 65.5754 8951.03 8935.86 107.12
16269 65.5792 8829.11 8935.18 106.35
16270 65.5830 9110.53 8934.51 108.52
16271 65.5867 9051.21 8933.87 107.27
16272 65.5905 8825.31 8933.21 106.42
16273 65.5942 8943.80 8932.59 107.44
16274 65.5980 9069.68 8931.95 108.48
16275 65.6018 9067.19 8931.31 108.26
16276 65.6055 9145.36 8930.70 108.84
16277 65.6093 9055.51 8930.08 108.15
16278 65.6130 9046.01 8929.47 108.16
16279 65.6168 8940.72 8928.86 106.26
16280 65.6205 8813.60 8928.26 106.21
16281 65.6243 9000.16 8927.65 107.28
16282 65.6281 8943.19 8927.05 107.86
16283 65.6318 8931.15 8926.46 106.69
16284 65.6356 8890.75 8925.86 107.21
16285 65.6393 9027.94 8925.28 108.01
16286 65.6431 8882.24 8924.69 106.14
16287 65.6468 8976.26 8924.11 106.07
16288 65.6506 8949.12 8923.53 109.25
16289 65.6544 8827.62 8922.94 106.47
16290 65.6581 8990.78 8922.37 106.44
16291 65.6619 8923.77 8921.79 106.88
16292 65.6656 8909.42 8921.22 106.47
16293 65.6694 8924.42 8920.64 106.52
16294 65.6731 8981.97 8920.08 107.55
16295 65.6769 8925.68 8919.50 106.87
16296 65.6807 8809.14 8918.93 106.58
16297 65.6844 8888.64 8918.37 106.89
16298 65.6882 8771.76 8917.79 105.82
16299 65.6919 8875.83 8917.24 106.88
16300 65.6957 8901.71 8916.67 106.29
16301 65.6995 8753.85 8916.10 105.62
16302 65.7032 8750.23 8915.54 105.63
16303 65.7070 8810.27 8914.98 106.14
16304 65.7107 8831.36 8914.43 106.53
16305 65.7145 8824.21 8913.86 105.93
16306 65.7182 8688.88 8913.31 105.36
16307 65.7220 8876.95 8912.75 106.90
16308 65.7258 8812.69 8912.18 106.04
16309 65.7295 8959.68 8911.64 107.65
16310 65.7333 8661.00 8911.08 105.51
16311 65.7370 8899.76 8910.53 105.94
16312 65.7408 8820.65 8909.97 106.14
16313 65.7445 8788.36 8909.43 104.78
16314 65.7483 8776.17 8908.87 107.47
16315 65.7521 8962.44 8908.31 106.28
16316 65.7558 8823.99 8907.77 106.48
16317 65.7596 8937.15 8907.21 106.79
16318 65.7633 8795.93 8906.67 105.39
16319 65.7671 8874.30 8906.11 106.94
16320 65.7708 8679.18 8905.57 105.04
16321 65.7746 8957.27 8905.02 107.11
16322 65.7784 8889.51 8904.46 106.98
16323 65.7821 8794.20 8903.91 106.20
16324 65.7859 8749.13 8903.36 106.17
16325 65.7896 8816.26 8902.82 106.33
16326 65.7934 8723.17 8902.27 105.68
16327 65.7971 9063.16 8901.73 107.78
16328 65.8009 8775.78 8901.18 106.07
16329 65.8047 8825.80 8900.63 106.00
16330 65.8084 8927.74 8900.06 106.95
16331 65.8122 9014.29 8899.51 108.09
16332 65.8159 8778.37 8898.98 106.03
16333 65.8197 8851.24 8898.43 105.79
16334 65.8235 8826.48 8897.81 106.15
16335 65.8272 8960.30 8897.28 106.24
16336 65.8310 8934.19 8896.73 107.44
16337 65.8347 9038.22 8896.20 108.49
16338 65.8385 8909.45 8895.65 107.17
16339 65.8422 8862.57 8895.12 106.34
16340 65.8460 8752.46 8894.57 104.45
16341 65.8498 8909.12 8894.03 109.27
16342 65.8535 8841.29 8893.50 107.28
16343 65.8573 8839.70 8892.95 106.51
16344 65.8610 8998.95 8892.42 107.26
16345 65.8648 8943.01 8891.88 106.92
16346 65.8685 8959.74 8891.35 107.53
16347 65.8723 9043.11 8890.80 108.32
16348 65.8761 8918.85 8890.26 107.25
16349 65.8798 8960.76 8889.73 107.91
16350 65.8836 9089.22 8889.18 108.51
16351 65.8873 9026.18 8888.66 107.72
16352 65.8911 8760.82 8888.11 104.83
16353 65.8948 8963.11 8887.58 106.58
16354 65.8986 8912.41 8887.04 107.45
16355 65.9023 8780.59 8886.51 105.81
16356 65.9061 8843.55 8885.97 106.89
16357 65.9099 9033.29 8885.43 108.21
16358 65.9136 8824.38 8884.90 106.31
16359 65.9174 8958.70 8884.36 106.94
16360 65.9211 8839.11 8883.83 106.78
16361 65.9249 8862.33 8883.29 106.46
16362 65.9287 9027.46 8882.75 108.42
16363 65.9324 8989.99 8882.22 107.54
16364 65.9362 8840.13 8881.68 107.10
16365 65.9399 8952.68 8881.16 107.60
16366 65.9437 8944.53 8880.62 106.17
16367 65.9474 9105.33 8880.09 109.63
16368 65.9512 8855.19 8879.55 108.24
16369 65.9550 8951.64 8879.01 107.90
16370 65.9587 8813.50 8878.49 106.21
16371 65.9625 8827.21 8877.95 107.59
16372 65.9662 8921.84 8877.42 107.32
16373 65.9700 8977.00 8876.88 107.02
16374 65.9737 8799.75 8876.36 106.15
16375 65.9775 8937.37 8875.82 107.92
16376 65.9813 8935.95 8875.29 107.39
16377 65.9850 9049.02 8874.76 108.26
16378 65.9888 8917.42 8874.22 107.85
16379 65.9925 8858.48 8873.70 106.78
16380 65.9963 8908.30 8873.16 107.36
16381 66.0000 9082.35 8872.64 108.44
16382 66.0038 8940.90 8872.10 107.60
16383 66.0076 9049.62 8871.56 108.05
16384 66.0113 8953.49 8871.04 108.12
16385 66.0151 8807.14 8870.50 106.88
16386 66.0188 8755.75 8869.98 106.03
16387 66.0226 9139.30 8869.45 109.14
16388 66.0263 8678.47 8868.92 105.43
16389 66.0301 9035.27 8868.39 108.34
16390 66.0338 8952.85 8867.87 108.42
16391 66.0376 8974.56 8867.33 108.04
16392 66.0414 8898.32 8866.79 107.84
16393 66.0451 8919.10 8866.27 106.20
16394 66.0489 8942.22 8865.74 110.29
16395 66.0526 8941.48 8865.22 109.35
16396 66.0564 8908.42 8864.68 107.38
16397 66.0601 8880.99 8864.16 107.39
16398 66.0639 9082.47 8863.63 107.88
16399 66.0677 8956.44 8863.09 107.80
16400 66.0714 8860.02 8862.57 107.62
16401 66.0752 9095.96 8862.04 109.82
16402 66.0789 8933.52 8861.52 108.13
16403 66.0827 9114.14 8860.98 109.52
16404 66.0864 8678.08 8860.46 105.17
16405 66.0902 9013.93 8859.93 109.10
16406 66.0940 8837.72 8859.39 107.34
16407 66.0977 8851.58 8858.90 107.62
16408 66.1015 8888.86 8858.37 106.43
16409 66.1052 9010.14 8857.85 108.96
16410 66.1090 8887.25 8857.32 106.83
16411 66.1127 8894.88 8856.80 107.79
16412 66.1165 8781.37 8856.26 107.36
16413 66.1202 8830.67 8855.80 107.74
16414 66.1240 8765.77 8855.27 106.79
16415 66.1278 8893.28 8854.74 108.49
16416 66.1315 8987.00 8854.22 108.55
16417 66.1353 8921.63 8853.69 108.62
16418 66.1390 8834.27 8853.18 107.21
16419 66.1428 8688.60 8852.65 106.22
16420 66.1465 8821.83 8852.13 105.83
16421 66.1503 9047.80 8851.60 111.67
16422 66.1541 8817.49 8851.07 108.81
16423 66.1578 9037.77 8850.55 107.82
16424 66.1616 8694.38 8850.02 106.21
16425 66.1653 8885.86 8849.50 106.69
16426 66.1691 8917.92 8848.97 108.02
16427 66.1728 8837.47 8848.46 106.92
16428 66.1766 8756.97 8847.93 106.93
16429 66.1803 8982.82 8847.41 108.01
16430 66.1841 9039.42 8846.88 109.47
16431 66.1879 8833.57 8846.35 107.25
16432 66.1916 8914.73 8845.84 108.06
16433 66.1954 9067.64 8845.31 109.07
16434 66.1991 8938.73 8844.79 107.77
16435 66.2029 8737.51 8844.26 105.52
16436 66.2066 8968.36 8843.75 106.63
16437 66.2104 8941.15 8843.22 107.66
16438 66.2142 8837.31 8842.69 107.31
16439 66.2179 8891.09 8842.18 106.83
16440 66.2217 8725.16 8841.65 106.49
16441 66.2254 8941.95 8841.13 107.11
16442 66.2292 8951.71 8840.60 108.72
16443 66.2329 8803.59 8840.09 106.57
16444 66.2367 8897.50 8839.56 107.94
16445 66.2404 8940.64 8839.05 107.85
16446 66.2442 8965.90 8838.52 107.88
16447 66.2480 8657.34 8838.00 104.88
16448 66.2517 8928.57 8837.48 110.60
16449 66.2555 8932.78 8836.95 107.96
16450 66.2592 8691.55 8836.44 105.95
16451 66.2630 8786.07 8835.91 106.33
16452 66.2667 8792.38 8835.40 106.56
16453 66.2705 8905.43 8834.88 107.32
16454 66.2742 8825.77 8834.36 107.11
16455 66.2780 8964.39 8833.83 108.31
16456 66.2818 8753.17 8833.31 105.93
16457 66.2855 8649.53 8832.80 105.82
16458 66.2893 8838.79 8832.27 107.42
16459 66.2930 8775.48 8831.76 106.40
16460 66.2968 8811.61 8831.23 105.74
16461 66.3005 8717.27 8830.72 105.74
16462 66.3043 8649.57 8830.20 105.23
16463 66.3081 8829.08 8829.67 106.99
16464 66.3118 8859.94 8829.16 107.13
16465 66.3156 8701.85 8828.63 104.37
16466 66.3193 8849.35 8828.12 107.26
16467 66.3231 8761.62 8827.60 106.07
16468 66.3268 8882.11 8827.09 107.62
16469 66.3306 8950.37 8826.56 106.97
16470 66.3343 8750.53 8826.05 107.07
16471 66.3381 8743.42 8825.53 105.91
16472 66.3418 8976.52 8825.02 108.47
16473 66.3456 8765.97 8824.50 105.58
16474 66.3494 9027.90 8823.97 108.89
16475 66.3531 8979.28 8823.46 109.79
16476 66.3569 8723.70 8822.94 106.45
16477 66.3606 8855.24 8822.43 105.94
16478 66.3644 8780.91 8821.91 106.04
16479 66.3681 8923.42 8821.40 107.84
16480 66.3719 8692.00 8820.87 106.09
16481 66.3756 8908.43 8820.36 108.37
16482 66.3794 8612.14 8819.84 105.25
16483 66.3832 8774.84 8819.32 107.14
16484 66.3869 8918.37 8818.81 107.80
16485 66.3907 8915.02 8818.29 106.90
16486 66.3944 8879.38 8817.78 107.64
16487 66.3982 8919.78 8817.26 107.28
16488 66.4019 8823.89 8816.75 107.01
16489 66.4057 8740.79 8816.23 107.30
16490 66.4094 8824.80 8815.72 107.05
16491 66.4132 8902.59 8815.96 108.06
16492 66.4170 8745.70 8815.44 106.84
16493 66.4207 8949.10 8814.94 107.30
16494 66.4245 8774.16 8814.42 106.70
16495 66.4282 9132.62 8815.12 110.01
16496 66.4320 8827.89 8814.61 107.47
16497 66.4357 8967.47 8814.12 108.72
16498 66.4395 8809.43 8815.00 107.69
16499 66.4432 8876.15 8814.53 107.72
16500 66.4470 8842.84 8814.03 105.99
16501 66.4508 8862.40 8815.36 110.10
16502 66.4545 8940.53 8815.43 108.65
16503 66.4583 8833.29 8814.96 107.58
16504 66.4620 8762.91 8814.50 106.36
16505 66.4658 8949.41 8814.02 107.01
16506 66.4695 8720.13 8813.56 106.05
16507 66.4733 8780.20 8813.09 107.49
16508 66.4770 8693.19 8812.63 105.77
16509 66.4808 8949.99 8812.16 108.08
16510 66.4845 8712.28 8811.70 106.25
16511 66.4883 8857.71 8811.23 107.19
16512 66.4921 8793.61 8810.76 106.61
16513 66.4958 8864.55 8810.32 107.62
16514 66.4996 8775.58 8809.85 106.99
16515 66.5033 8766.11 8809.39 106.29
16516 66.5071 8757.45 8808.93 106.87
16517 66.5108 8766.87 8808.47 106.82
16518 66.5146 8807.12 8808.01 106.93
16519 66.5183 8795.57 8807.56 106.95
16520 66.5221 8840.14 8807.09 107.92
16521 66.5259 8877.66 8806.63 107.31
16522 66.5296 8698.15 8806.18 106.92
16523 66.5334 8895.92 8805.72 107.50
16524 66.5371 8873.93 8805.27 107.67
16525 66.5409 8728.17 8804.81 106.38
16526 66.5446 8932.04 8804.36 107.21
16527 66.5484 8917.17 8803.91 107.51
16528 66.5521 8852.73 8803.46 108.91
16529 66.5559 8654.21 8803.00 106.31
16530 66.5596 8752.81 8802.56 105.94
16531 66.5634 8835.31 8802.11 106.44
16532 66.5672 8771.71 8801.65 106.20
16533 66.5709 8855.51 8801.21 107.02
16534 66.5747 8784.60 8800.76 105.14
16535 66.5784 8756.84 8800.32 106.12
16536 66.5822 8843.06 8799.87 107.16
16537 66.5859 8749.28 8799.43 106.54
16538 66.5897 8870.92 8798.99 106.97
16539 66.5934 8761.22 8798.55 106.28
16540 66.5972 8803.88 8798.11 105.55
16541 66.6010 8855.06 8797.66 106.35
16542 66.6047 8813.34 8797.23 106.98
16543 66.6085 8829.22 8796.79 107.09
16544 66.6122 8982.76 8796.36 108.01
16545 66.6160 8827.95 8795.92 106.93
16546 66.6197 8730.48 8795.49 105.42
16547 66.6235 8894.95 8795.05 107.35
16548 66.6272 8687.95 8794.63 105.30
16549 66.6310 8858.40 8794.19 106.20
16550 66.6347 8776.81 8793.77 106.70
16551 66.6385 8921.73 8793.34 107.44
16552 66.6422 8762.18 8792.92 106.67
16553 66.6460 8728.37 8792.49 103.86
16554 66.6498 8805.98 8792.06 108.39
16555 66.6535 8731.84 8791.64 107.52
16556 66.6573 8902.21 8791.22 107.45
16557 66.6610 8802.70 8790.80 106.00
16558 66.6648 8851.68 8790.38 106.56
16559 66.6685 8857.55 8789.97 106.92
16560 66.6723 8891.11 8789.55 107.38
16561 66.6760 8712.67 8789.14 105.65
16562 66.6798 8790.94 8788.72 106.65
16563 66.6835 8841.41 8788.32 106.42
16564 66.6873 8747.08 8787.90 106.63
16565 66.6911 8729.74 8787.49 106.38
16566 66.6948 8747.52 8787.09 106.00
16567 66.6986 8823.72 8786.68 105.10
16568 66.7023 8819.35 8786.29 105.64
16569 66.7061 8871.93 8785.88 106.89
16570 66.7098 8866.39 8785.49 107.18
16571 66.7136 8738.61 8785.08 106.04
16572 66.7173 8831.32 8784.70 106.88
16573 66.7211 8792.66 8784.30 106.56
16574 66.7248 8678.95 8783.91 105.93
16575 66.7286 8709.43 8783.52 105.99
16576 66.7323 8811.83 8783.14 106.76
16577 66.7361 8710.96 8782.75 106.44
16578 66.7399 8904.68 8782.36 107.07
16579 66.7436 8863.69 8781.98 107.40
16580 66.7474 8788.59 8781.60 105.57
16581 66.7511 8927.44 8781.23 108.84
16582 66.7549 8825.67 8780.85 107.58
16583 66.7586 8755.55 8780.48 106.51
16584 66.7624 8798.90 8780.11 106.19
16585 66.7661 8837.46 8779.74 106.26
16586 66.7699 8735.97 8779.37 106.72
16587 66.7736 8862.91 8779.02 107.05
16588 66.7774 8773.38 8778.65 104.86
16589 66.7811 8891.83 8778.30 107.98
16590 66.7849 8843.25 8777.94 106.56
16591 66.7886 8671.12 8777.59 105.65
16592 66.7924 8763.82 8777.24 106.37
16593 66.7962 8715.87 8776.89 104.86
16594 66.7999 8654.11 8776.55 105.70
16595 66.8037 8768.25 8776.21 106.26
16596 66.8074 8958.51 8775.88 106.70
16597 66.8112 8810.34 8775.54 106.36
16598 66.8149 8930.10 8775.21 108.03
16599 66.8187 8602.29 8774.88 105.45
16600 66.8224 8604.07 8774.57 105.17
16601 66.8262 8855.68 8774.24 106.40
16602 66.8299 8844.22 8773.93 107.64
16603 66.8337 8753.61 8773.62 105.92
16604 66.8374 8826.13 8773.31 107.13
16605 66.8412 8674.19 8773.00 105.79
16606 66.8450 8607.03 8772.70 105.12
16607 66.8487 8731.09 8772.41 105.58
16608 66.8525 8739.86 8772.12 108.24
16609 66.8562 8720.40 8771.83 106.96
16610 66.8600 8994.62 8771.55 108.18
16611 66.8637 8782.66 8771.27 106.47
16612 66.8675 8932.27 8771.00 107.44
16613 66.8712 8790.88 8770.74 107.25
16614 66.8750 8703.74 8770.47 105.65
16615 66.8787 8717.39 8770.22 106.51
16616 66.8825 8940.09 8769.96 108.11
16617 66.8862 8796.02 8769.72 107.06
16618 66.8900 8806.10 8769.48 107.06
16619 66.8937 8873.66 8769.25 107.83
16620 66.8975 8752.83 8769.02 107.36
16621 66.9013 8929.28 8768.80 107.93
16622 66.9050 8801.42 8768.59 107.44
16623 66.9088 8710.33 8768.38 106.78
16624 66.9125 8732.27 8768.18 106.58
16625 66.9163 8935.67 8767.99 107.35
16626 66.9200 8930.88 8767.81 107.34
16627 66.9238 8762.96 8767.63 105.38
16628 66.9275 8942.40 8767.47 107.99
16629 66.9313 8768.66 8767.31 107.96
16630 66.9350 8887.21 8767.16 107.86
16631 66.9388 8914.08 8767.02 107.77
16632 66.9425 8975.88 8766.90 108.84
16633 66.9463 8854.84 8766.78 106.59
16634 66.9500 8907.57 8766.67 108.60
16635 66.9538 8977.50 8766.58 108.88
16636 66.9575 8849.05 8766.50 108.05
16637 66.9613 8747.49 8766.43 105.85
16638 66.9650 8659.56 8766.37 105.88
16639 66.9688 9000.76 8766.30 108.49
16640 66.9725 8877.20 8766.27 107.73
16641 66.9763 8962.09 8766.26 108.37
16642 66.9801 8903.57 8766.27 106.22
16643 66.9838 8857.13 8766.29 107.15
16644 66.9859 8904.40 8766.31 108.08
16645 66.9897 8707.18 8766.37 106.10
16646 66.9934 8969.49 8766.44 108.53
16647 66.9972 8895.45 8766.54 107.90
16648 67.0009 8948.77 8766.66 108.11
16649 67.0047 8856.37 8766.81 107.58
16650 67.0084 8798.91 8766.98 107.85
16651 67.0122 9018.42 8767.19 108.47
16652 67.0160 8929.82 8767.43 108.72
16653 67.0197 9041.94 8767.69 108.70
16654 67.0235 8901.63 8768.01 108.07
16655 67.0272 9010.83 8768.36 108.51
16656 67.0310 8937.20 8768.76 107.45
16657 67.0347 9142.60 8769.21 109.25
16658 67.0385 9080.11 8769.73 110.69
16659 67.0422 8804.12 8770.31 107.55
16660 67.0460 8915.98 8770.98 107.25
16661 67.0497 8890.98 8771.73 107.02
16662 67.0535 8919.26 8772.62 107.41
16663 67.0573 8954.66 8773.63 107.90
16664 67.0610 8870.13 8774.78 105.92
16665 67.0648 8788.19 8776.14 106.55
16666 67.0685 8928.27 8777.69 107.95
16667 67.0723 8990.71 8779.54 108.39
16668 67.0760 8951.92 8781.64 107.73
16669 67.0798 8945.19 8784.16 107.74
16670 67.0835 8871.03 8787.03 106.21
16671 67.0873 8930.62 8790.44 107.07
16672 67.0910 8939.86 8794.28 108.05
16673 67.0948 8968.95 8798.82 108.25
16674 67.0986 8982.81 8803.99 108.22
16675 67.1023 8914.99 8809.67 107.74
16676 67.1061 8875.84 8816.17 106.61
16677 67.1098 8974.21 8823.12 108.10
16678 67.1136 8659.35 8830.81 105.31
16679 67.1173 8696.23 8838.70 105.31
16680 67.1211 8712.23 8846.99 106.47
16681 67.1248 8953.79 8855.01 107.87
16682 67.1286 8855.16 8862.90 107.51
16683 67.1323 8911.06 8869.99 105.28
16684 67.1361 8970.17 8876.44 109.74
16685 67.1399 8825.76 8881.83 108.38
16686 67.1436 8803.12 8885.85 106.99
16687 67.1474 9026.04 8888.46 107.71
16688 67.1511 9042.12 8889.24 108.05
16689 67.1549 8871.27 8888.06 107.22
16690 67.1586 8937.12 8884.98 107.90
16691 67.1624 8872.62 8880.07 106.94
16692 67.1661 8957.37 8873.98 107.99
16693 67.1699 8757.61 8866.90 106.06
16694 67.1736 8989.91 8859.69 108.49
16695 67.1774 8875.03 8852.36 107.58
16696 67.1812 8952.94 8845.43 107.60
16697 67.1849 8769.87 8839.28 104.95
16698 67.1887 8979.10 8833.66 106.92
16699 67.1924 9098.07 8828.98 108.63
16700 67.1962 8984.82 8824.93 108.19
16701 67.1999 9071.56 8821.75 108.49
16702 67.2037 8877.06 8819.22 107.40
16703 67.2074 8895.51 8817.42 107.47
16704 67.2112 9076.80 8816.19 108.84
16705 67.2149 8769.69 8815.55 106.61
16706 67.2153 8799.99 8815.52 105.25
16707 67.2190 8763.88 8815.42 105.07
16708 67.2228 8729.33 8815.78 104.62
16709 67.2265 8747.67 8816.52 105.07
16710 67.2303 8737.99 8817.65 106.08
16711 67.2340 8886.69 8819.07 106.17
16712 67.2378 8732.93 8820.83 105.85
16713 67.2415 8727.04 8822.83 105.53
16714 67.2453 8571.53 8825.16 103.44
16715 67.2490 8852.44 8827.67 107.17
16716 67.2528 8856.44 8830.53 107.67
16717 67.2565 8691.57 8833.55 105.18
16718 67.2603 8588.42 8836.93 103.59
16719 67.2640 8620.64 8840.48 103.85
16720 67.2678 8668.82 8844.41 105.03
16721 67.2716 8868.85 8848.63 105.90
16722 67.2753 8690.07 8853.05 104.87
16723 67.2791 8883.28 8857.91 106.60
16724 67.2828 8666.88 8862.98 104.67
16725 67.2866 8891.72 8868.55 106.61
16726 67.2903 8782.59 8874.37 105.86
16727 67.2941 8816.96 8880.75 106.50
16728 67.2978 8539.73 8887.42 103.94
16729 67.3016 8843.24 8894.77 105.83
16730 67.3053 8712.68 8902.41 105.50
16731 67.3091 8834.90 8910.86 106.09
16732 67.3128 8693.18 8919.68 105.12
16733 67.3166 8964.93 8929.40 106.99
16734 67.3203 8830.88 8939.60 106.08
16735 67.3241 8926.84 8950.86 106.54
16736 67.3278 8901.57 8962.70 107.07
16737 67.3316 8979.73 8975.82 106.99
16738 67.3354 8883.72 8990.05 106.47
16739 67.3391 9032.56 9005.02 107.39
16740 67.3429 8861.95 9021.76 106.18
16741 67.3466 8799.18 9039.46 104.84
16742 67.3504 9120.38 9059.34 110.04
16743 67.3541 8992.63 9080.50 107.93
16744 67.3579 9078.40 9104.43 108.32
16745 67.3616 9164.51 9130.09 108.30
16746 67.3654 9004.49 9159.41 105.91
16747 67.3691 9125.25 9191.16 108.48
16748 67.3729 9083.39 9227.87 107.62
16749 67.3766 9369.59 9268.13 109.83
16750 67.3804 9284.08 9315.29 109.21
16751 67.3842 9308.10 9369.29 109.42
16752 67.3879 9379.71 9429.93 110.21
16753 67.3917 9578.56 9502.00 111.32
16754 67.3954 9753.51 9583.77 112.65
16755 67.3992 9718.77 9681.73 112.50
16756 67.4029 9659.78 9793.43 111.62
16757 67.4067 10090.30 9927.55 114.68
16758 67.4104 10071.80 10080.40 114.70
16759 67.4142 10210.60 10263.20 115.48
16760 67.4179 10175.80 10470.00 114.29
16761 67.4217 10622.10 10714.80 118.06
16762 67.4255 10751.00 10995.60 118.31
16763 67.4292 11174.80 11306.00 121.94
16764 67.4330 11112.30 11663.00 120.78
16765 67.4367 11420.90 12047.40 123.65
16766 67.4405 11751.70 12475.80 124.89
16767 67.4442 12195.10 12920.40 127.06
16768 67.4480 12604.40 13395.10 129.44
16769 67.4517 13252.40 13865.30 136.65
16770 67.4555 13683.70 14343.80 136.59
16771 67.4592 14323.20 14788.00 139.71
16772 67.4630 14578.60 15212.00 140.26
16773 67.4667 15018.10 15573.40 143.43
16774 67.4705 15595.30 15876.70 146.79
16775 67.4742 16166.20 16087.70 150.13
16776 67.4780 16003.00 16203.10 150.12
16777 67.4818 15678.60 16202.30 147.40
16778 67.4855 15420.20 16083.60 146.01
16779 67.4893 15253.00 15842.90 145.48
16780 67.4930 14644.60 15503.50 142.06
16781 67.4968 14137.60 15068.30 139.11
16782 67.5005 13423.80 14584.60 135.41
16783 67.5043 13270.80 14055.20 134.26
16784 67.5080 12485.50 13531.40 129.68
16785 67.5118 12387.60 13006.80 128.75
16786 67.5155 11753.60 12522.20 125.22
16787 67.5193 11376.60 12062.20 123.20
16788 67.5231 10884.70 11645.10 119.72
16789 67.5268 10886.80 11281.60 119.60
16790 67.5306 10516.20 10952.30 117.40
16791 67.5343 10294.90 10672.00 116.46
16792 67.5381 10166.70 10423.10 116.06
16793 67.5418 10119.50 10214.50 114.60
16794 67.5456 9869.18 10031.70 112.02
16795 67.5493 9877.31 9879.96 115.79
16796 67.5531 9702.95 9747.71 113.23
16797 67.5569 9543.30 9635.39 111.14
16798 67.5606 9438.73 9542.54 109.28
16799 67.5644 9400.75 9460.84 110.15
16800 67.5681 9290.54 9392.69 110.17
16801 67.5719 9344.96 9332.01 110.37
16802 67.5756 9183.69 9280.67 108.90
16803 67.5794 9321.70 9234.25 110.13
16804 67.5831 9117.70 9194.35 108.46
16805 67.5869 9016.85 9157.72 108.03
16806 67.5906 8931.47 9125.77 106.98
16807 67.5944 8923.80 9096.06 107.11
16808 67.5982 9101.04 9069.16 108.60
16809 67.6019 9133.77 9045.22 108.90
16810 67.6057 8839.29 9022.67 106.80
16811 67.6094 9139.59 9002.54 108.47
16812 67.6132 8909.33 8983.41 107.49
16813 67.6169 9095.25 8966.20 107.86
16814 67.6207 8897.86 8949.83 106.93
16815 67.6244 8850.86 8935.00 106.51
16816 67.6282 8845.02 8920.84 106.83
16817 67.6319 9042.02 8907.96 107.44
16818 67.6357 8898.32 8895.62 107.09
16819 67.6395 8792.84 8884.07 106.03
16820 67.6432 8917.77 8873.51 106.83
16821 67.6470 8862.19 8863.33 105.32
16822 67.6507 8665.88 8854.02 107.78
16823 67.6545 8785.20 8845.00 106.78
16824 67.6582 8799.71 8836.73 105.81
16825 67.6620 8878.43 8828.69 105.60
16826 67.6657 8931.74 8821.30 106.85
16827 67.6695 8807.75 8814.11 106.01
16828 67.6733 8786.93 8807.30 106.35
16829 67.6770 8835.13 8801.00 105.74
16830 67.6808 8585.29 8794.86 104.84
16831 67.6845 8828.17 8789.17 105.67
16832 67.6883 8781.95 8783.61 105.76
16833 67.6920 8869.70 8778.44 106.72
16834 67.6958 8739.37 8773.37 105.52
16835 67.6995 8754.28 8768.66 105.65
16836 67.7033 8600.35 8764.04 104.68
16837 67.7071 8832.69 8783.59 106.02
16838 67.7108 8732.99 8779.63 105.38
16839 67.7146 8712.38 8775.74 105.29
16840 67.7183 8726.00 8772.11 105.33
16841 67.7221 8896.80 8768.54 106.02
16842 67.7258 8627.38 8765.21 104.56
16843 67.7296 8728.50 8761.92 106.43
16844 67.7333 8636.67 8758.85 104.82
16845 67.7371 8795.92 8755.82 106.27
16846 67.7409 8511.53 8776.18 104.04
16847 67.7446 8777.18 8796.76 105.15
16848 67.7484 8838.68 8794.40 105.08
16849 67.7521 8900.01 8792.20 109.04
16850 67.7559 8740.87 8790.04 105.78
16851 67.7596 8642.68 8788.02 104.31
16852 67.7634 8565.30 8786.04 104.35
16853 67.7671 8738.08 8784.20 105.31
16854 67.7709 8895.27 8782.38 106.99
16855 67.7746 8803.29 8780.69 105.92
16856 67.7784 8512.71 8779.03 104.13
16857 67.7822 8873.21 8777.88 106.18
16858 67.7859 8827.16 8776.39 105.92
16859 67.7897 8734.92 8774.93 105.98
16860 67.7934 8680.15 8773.57 105.00
16861 67.7972 8780.41 8772.24 105.92
16862 67.8009 8687.14 8770.99 105.50
16863 67.8047 8714.26 8769.77 105.17
16864 67.8084 8723.30 8768.63 105.37
16865 67.8122 8672.83 8767.52 105.38
16866 67.8160 8742.33 8766.45 105.52
16867 67.8197 8677.51 8765.46 105.09
16868 67.8235 8667.59 8764.48 104.71
16869 67.8272 8798.72 8763.58 105.57
16870 67.8310 8849.05 8762.69 106.78
16871 67.8347 8735.78 8761.87 105.63
16872 67.8385 8675.51 8761.07 105.73
16873 67.8423 8730.21 8760.31 105.84
16874 67.8460 8447.15 8759.61 102.51
16875 67.8498 8604.75 8758.92 105.78
16876 67.8535 8777.72 8758.29 107.78
16877 67.8573 8684.64 8757.68 106.13
16878 67.8610 8774.88 8757.11 105.17
16879 67.8648 8718.20 8756.57 105.14
16880 67.8685 8723.08 8756.08 105.84
16881 67.8723 8749.69 8755.60 105.61
16882 67.8761 8653.58 8755.15 105.48
16883 67.8798 8880.71 8754.75 106.84
16884 67.8836 8831.61 8754.37 106.74
16885 67.8873 8921.37 8754.03 107.60
16886 67.8911 8580.49 8753.70 104.69
16887 67.8948 8802.14 8753.42 106.34
16888 67.8986 8704.40 8753.16 106.18
16889 67.9023 8839.35 8752.93 106.63
16890 67.9061 8774.86 8752.72 106.22
16891 67.9099 8789.63 8752.55 106.51
16892 67.9136 8732.96 8752.40 105.85
16893 67.9174 8791.67 8752.28 106.74
16894 67.9211 8756.89 8752.19 106.22
16895 67.9249 8717.04 8752.13 105.48
16896 67.9286 8835.80 8752.09 107.48
16897 67.9324 8851.31 8752.08 106.57
16898 67.9362 8657.90 8752.10 105.51
16899 67.9399 8819.48 8752.15 107.32
16900 67.9437 8801.44 8752.22 106.12
16901 67.9474 8739.44 8752.32 104.08
16902 67.9512 8713.25 8752.45 108.29
16903 67.9549 8595.66 8752.60 105.92
16904 67.9587 8682.26 8752.79 105.26
16905 67.9624 8912.85 8753.00 106.35
16906 67.9662 8723.98 8753.24 105.78
16907 67.9700 8834.50 8753.52 106.84
16908 67.9737 8743.77 8753.82 105.99
16909 67.9775 8641.09 8754.16 105.51
16910 67.9812 8810.46 8754.51 107.18
16911 67.9850 8917.82 8754.92 107.19
16912 67.9887 8890.34 8755.34 107.55
16913 67.9925 8889.61 8755.81 107.16
16914 67.9963 8871.53 8756.31 107.64
16915 68.0000 8767.61 8756.84 106.43
16916 68.0038 8805.15 8757.42 107.17
16917 68.0075 8710.34 8758.01 106.10
16918 68.0113 8673.38 8758.67 105.98
16919 68.0150 8799.26 8759.34 107.04
16920 68.0188 8917.99 8760.07 107.89
16921 68.0226 8765.40 8760.85 106.49
16922 68.0263 8797.91 8761.64 106.78
16923 68.0301 8880.93 8762.50 107.58
16924 68.0338 8731.47 8763.39 106.23
16925 68.0376 8907.04 8764.34 107.66
16926 68.0413 8609.82 8765.31 105.71
16927 68.0451 8994.79 8766.35 107.27
16928 68.0488 8666.10 8767.41 105.22
16929 68.0526 9027.74 8768.54 110.22
16930 68.0564 8749.06 8769.73 106.64
16931 68.0601 8627.03 8770.92 105.29
16932 68.0639 8811.11 8772.19 106.51
16933 68.0676 9019.62 8773.48 108.20
16934 68.0714 8875.62 8774.83 106.96
16935 68.0751 8792.92 8776.19 106.95
16936 68.0789 8667.47 8777.62 106.19
16937 68.0827 8711.40 8779.08 106.17
16938 68.0864 8940.77 8780.52 107.11
16939 68.0902 8789.46 8782.02 106.43
16940 68.0939 8654.38 8783.49 105.47
16941 68.0977 9005.88 8785.00 108.28
16942 68.1014 8870.43 8786.46 107.52
16943 68.1052 8920.67 8787.95 107.69
16944 68.1090 8640.68 8789.40 105.82
16945 68.1127 8831.77 8790.80 107.29
16946 68.1165 9168.25 8792.19 109.40
16947 68.1202 8905.70 8793.51 107.24
16948 68.1240 8749.47 8794.81 106.07
16949 68.1277 8636.47 8796.06 105.36
16950 68.1315 8716.01 8797.29 106.59
16951 68.1353 8778.29 8798.50 106.29
16952 68.1390 8861.42 8799.66 107.23
16953 68.1428 8720.60 8800.83 106.55
16954 68.1465 8871.38 8801.98 106.47
16955 68.1503 8993.40 8803.16 108.59
16956 68.1540 8879.46 8804.33 109.02
16957 68.1578 8774.08 8805.56 106.64
16958 68.1616 8943.74 8806.83 106.78
16959 68.1653 8666.66 8808.08 104.91
16960 68.1691 8768.61 8809.44 106.76
16961 68.1728 8877.90 8810.82 107.19
16962 68.1766 8742.37 8812.29 106.70
16963 68.1803 8767.89 8813.79 105.94
16964 68.1841 8620.12 8815.40 104.76
16965 68.1878 8819.83 8817.03 106.49
16966 68.1916 8703.15 8818.72 104.93
16967 68.1954 8965.91 8820.54 107.15
16968 68.1991 8805.35 8822.38 106.84
16969 68.2029 9076.57 8824.36 108.30
16970 68.2066 8947.07 8826.35 107.34
16971 68.2104 8929.08 8828.48 107.51
16972 68.2142 8887.74 8830.69 107.09
16973 68.2179 8824.73 8832.92 106.60
16974 68.2217 8776.15 8835.30 105.38
16975 68.2254 8881.28 8837.68 106.41
16976 68.2292 8641.44 8840.23 105.66
16977 68.2329 8787.27 8842.78 106.34
16978 68.2367 8783.14 8845.49 106.30
16979 68.2405 8927.92 8848.28 107.44
16980 68.2442 8947.98 8851.09 107.32
16981 68.2480 8712.89 8854.06 104.44
16982 68.2517 8821.58 8857.04 108.11
16983 68.2555 9053.11 8860.19 108.44
16984 68.2592 8735.46 8863.35 105.29
16985 68.2630 8830.68 8866.69 105.89
16986 68.2668 9022.11 8870.12 107.59
16987 68.2705 8803.98 8873.57 106.73
16988 68.2743 8739.71 8877.20 105.24
16989 68.2780 8827.96 8880.84 106.68
16990 68.2818 8779.37 8884.68 105.87
16991 68.2855 8934.51 8888.53 107.13
16992 68.2893 8759.70 8892.58 106.28
16993 68.2931 8755.52 8896.76 105.37
16994 68.2968 8753.67 8900.92 104.84
16995 68.3006 8833.78 8905.33 106.43
16996 68.3043 8922.18 8909.73 107.10
16997 68.3081 8911.01 8914.39 106.78
16998 68.3118 8870.60 8919.03 106.70
16999 68.3156 8900.24 8923.95 106.56
17000 68.3194 8906.25 8928.99 106.96
17001 68.3231 8876.30 8934.04 106.10
17002 68.3269 8848.80 8939.37 106.25
17003 68.3306 8968.23 8944.70 107.68
17004 68.3344 8909.23 8950.33 106.53
17005 68.3381 8968.11 8955.96 107.41
17006 68.3419 8898.23 8961.91 106.53
17007 68.3457 8830.59 8968.02 106.07
17008 68.3494 8915.70 8974.15 104.68
17009 68.3532 9159.63 8980.62 110.89
17010 68.3569 8934.78 8987.10 107.89
17011 68.3607 8976.88 8993.95 107.16
17012 68.3644 8912.24 9000.81 106.01
17013 68.3682 8801.29 9008.05 105.70
17014 68.3720 8867.46 9015.53 106.05
17015 68.3757 8933.47 9023.00 106.48
17016 68.3795 8969.11 9030.93 107.72
17017 68.3832 9038.18 9038.85 107.83
17018 68.3870 8915.39 9047.25 106.96
17019 68.3908 9015.74 9055.90 106.21
17020 68.3945 9014.42 9064.58 107.67
17021 68.3983 9053.15 9073.76 108.31
17022 68.4020 8961.74 9082.99 107.12
17023 68.4058 9075.74 9092.75 108.17
17024 68.4095 9113.85 9102.56 108.61
17025 68.4133 9156.05 9112.94 108.52
17026 68.4171 8978.65 9123.66 107.88
17027 68.4208 9194.38 9134.45 109.11
17028 68.4246 9092.86 9145.87 108.08
17029 68.4283 8960.58 9157.37 107.03
17030 68.4321 9066.05 9169.55 108.36
17031 68.4359 9088.12 9182.17 108.92
17032 68.4396 9188.74 9194.83 109.15
17033 68.4434 9245.38 9208.33 109.50
17034 68.4471 9086.02 9221.90 107.29
17035 68.4509 9437.79 9236.30 111.15
17036 68.4546 9169.98 9250.82 110.13
17037 68.4584 9216.29 9266.24 109.18
17038 68.4621 9355.88 9281.81 109.43
17039 68.4659 9317.35 9298.35 108.96
17040 68.4697 9091.89 9315.50 107.39
17041 68.4734 9172.76 9332.83 108.77
17042 68.4772 9080.27 9351.27 108.72
17043 68.4809 9239.76 9369.92 109.30
17044 68.4847 9298.51 9389.76 109.74
17045 68.4885 9262.71 9410.38 109.53
17046 68.4922 9256.42 9431.26 109.45
17047 68.4960 9333.39 9452.76 110.16
17048 68.4997 9496.19 9475.33 111.10
17049 68.5035 9442.11 9499.40 111.07
17050 68.5072 9138.78 9523.82 108.34
17051 68.5110 9528.06 9548.70 110.42
17052 68.5148 9270.40 9575.93 110.03
17053 68.5185 9387.72 9603.55 110.52
17054 68.5223 9371.23 9631.70 110.11
17055 68.5260 9448.03 9661.76 110.08
17056 68.5298 9702.21 9692.12 112.99
17057 68.5336 9613.03 9725.76 112.11
17058 68.5373 9676.95 9759.49 113.07
17059 68.5411 9589.73 9796.26 111.87
17060 68.5448 9613.71 9833.76 112.40
17061 68.5486 9666.68 9874.04 110.72
17062 68.5523 9781.32 9915.18 115.91
17063 68.5561 9875.51 9959.44 114.70
17064 68.5599 9905.46 10005.90 113.69
17065 68.5636 9818.91 10053.40 113.13
17066 68.5674 9868.33 10104.70 113.43
17067 68.5711 10078.70 10157.20 114.99
17068 68.5749 10275.70 10214.20 116.27
17069 68.5786 10193.90 10272.20 115.45
17070 68.5824 10375.50 10335.50 117.03
17071 68.5862 10358.50 10402.10 116.61
17072 68.5899 10293.30 10470.60 116.47
17073 68.5937 10649.00 10544.90 118.47
17074 68.5974 10476.10 10621.60 117.84
17075 68.6012 10883.10 10705.00 120.17
17076 68.6050 10644.20 10793.50 118.49
17077 68.6087 11132.80 10885.10 121.68
17078 68.6125 10944.10 10985.00 120.52
17079 68.6162 11377.30 11088.70 122.92
17080 68.6200 11257.20 11202.10 122.01
17081 68.6238 11470.30 11323.40 123.41
17082 68.6275 11438.80 11449.40 122.68
17083 68.6313 11919.60 11588.20 126.68
17084 68.6350 12039.50 11732.80 127.68
17085 68.6388 12327.00 11892.70 128.29
17086 68.6425 12309.70 12059.80 128.51
17087 68.6463 12868.50 12245.30 131.30
17088 68.6501 12844.40 12445.70 130.71
17089 68.6538 13545.90 12657.50 138.03
17090 68.6576 13684.40 12893.60 135.26
17091 68.6613 13808.30 13144.80 136.44
17092 68.6651 14202.60 13427.00 137.99
17093 68.6689 14947.80 13738.00 142.99
17094 68.6726 15251.00 14073.50 143.44
17095 68.6764 15774.30 14456.60 148.03
17096 68.6801 16194.20 14874.90 150.27
17097 68.6839 16953.50 15358.80 154.29
17098 68.6876 17879.80 15894.40 160.17
17099 68.6914 18683.10 16522.10 163.54
17100 68.6952 18924.40 17244.80 163.98
17101 68.6989 20102.10 18058.20 170.08
17102 68.7027 21092.10 19028.90 175.64
17103 68.7064 22159.10 20119.70 179.30
17104 68.7102 23253.20 21429.30 186.25
17105 68.7140 25039.60 22947.40 193.89
17106 68.7177 26008.80 24661.10 198.39
17107 68.7215 27672.70 26689.30 206.57
17108 68.7252 29070.10 28958.90 211.23
17109 68.7290 31117.50 31615.40 219.82
17110 68.7327 33283.70 34547.70 228.91
17111 68.7365 35269.10 37923.40 238.37
17112 68.7403 37113.60 41674.40 245.93
17113 68.7440 40369.90 45676.30 257.69
17114 68.7478 42613.90 50091.20 263.24
17115 68.7515 46717.70 54619.00 283.43
17116 68.7553 50244.00 59373.90 300.01
17117 68.7591 54678.60 64094.70 312.12
17118 68.7628 58889.80 68482.50 323.68
17119 68.7666 64787.30 72663.10 344.88
17120 68.7703 69576.20 76328.80 362.07
17121 68.7741 75889.90 79704.20 383.69
17122 68.7779 80672.50 82737.10 396.18
17123 68.7816 87523.30 85444.00 414.17
17124 68.7854 90535.90 87993.80 429.86
17125 68.7891 93788.80 90200.00 438.76
17126 68.7929 94537.30 92011.80 442.34
17127 68.7966 94447.50 93095.80 441.41
17128 68.8004 91473.70 93226.30 434.16
17129 68.8042 88891.30 92126.90 418.01
17130 68.8079 83369.20 89766.40 407.51
17131 68.8117 79658.80 86083.20 396.32
17132 68.8154 73163.70 81470.70 374.01
17133 68.8192 67821.70 76001.80 356.38
17134 68.8230 62560.60 70114.60 339.76
17135 68.8267 57877.80 64297.60 322.40
17136 68.8305 52845.00 58432.00 301.76
17137 68.8342 48249.30 53044.10 286.68
17138 68.8380 44200.40 47878.90 273.77
17139 68.8417 41050.00 43315.10 261.46
17140 68.8455 37057.50 39094.60 243.56
17141 68.8493 34084.60 35362.40 229.95
17142 68.8530 31890.40 32167.60 228.34
17143 68.8568 29664.90 29314.80 215.01
17144 68.8605 27259.20 26912.30 200.87
17145 68.8643 25355.80 24795.30 194.42
17146 68.8681 23720.40 22988.60 186.71
17147 68.8718 22467.40 21486.30 180.92
17148 68.8756 20954.90 20172.70 174.79
17149 68.8793 19920.70 19079.90 169.73
17150 68.8831 18911.00 18120.30 165.27
17151 68.8869 18157.80 17295.20 160.67
17152 68.8906 17308.10 16601.70 156.40
17153 68.8944 16528.60 15979.60 151.50
17154 68.8981 15612.70 15449.20 147.41
17155 68.9019 15264.70 14966.10 145.46
17156 68.9056 14661.50 14547.90 142.36
17157 68.9094 14350.50 14161.70 139.80
17158 68.9132 13723.40 13814.00 137.67
17159 68.9169 13599.50 13506.40 137.16
17160 68.9207 13177.70 13218.60 133.80
17161 68.9244 12768.30 12961.70 130.92
17162 68.9282 12213.00 12719.50 128.01
17163 68.9320 12316.40 12496.50 129.23
17164 68.9357 11605.70 12295.60 124.38
17165 68.9395 11783.20 12104.70 125.44
17166 68.9432 11499.80 11932.00 124.36
17167 68.9470 11382.50 11767.30 121.81
17168 68.9508 11188.70 11613.70 120.94
17169 68.9545 11189.30 11474.40 124.00
17170 68.9583 11020.70 11340.20 119.65
17171 68.9620 10779.00 11218.70 119.42
17172 68.9658 10666.30 11100.90 118.46
17173 68.9695 10705.90 10993.80 118.11
17174 68.9733 10523.60 10890.20 115.86
17175 68.9771 10418.20 10792.90 117.18
17176 68.9808 10429.50 10703.60 116.97
17177 68.9846 10386.40 10617.10 117.65
17178 68.9883 10105.60 10537.60 115.29
17179 68.9921 10237.00 10460.40 115.92
17180 68.9959 10140.00 10387.50 115.28
17181 68.9996 10015.30 10320.20 115.07
17182 69.0034 9935.42 10254.70 114.05
17183 69.0071 9951.91 10194.10 114.29
17184 69.0109 9874.23 10135.00 114.14
17185 69.0147 9881.88 10078.90 113.28
17186 69.0184 9769.68 10027.00 113.24
17187 69.0222 9926.37 9976.06 113.89
17188 69.0259 9851.81 9928.94 113.72
17189 69.0297 10001.20 9882.69 114.60
17190 69.0335 9632.38 9838.65 112.60
17191 69.0372 9849.72 9797.64 114.29
17192 69.0410 9755.83 9757.44 113.31
17193 69.0447 9634.05 9719.96 112.17
17194 69.0485 9578.64 9683.15 110.32
17195 69.0522 9737.72 9648.80 114.80
17196 69.0560 9484.08 9615.03 111.92
17197 69.0598 9304.26 9582.67 109.87
17198 69.0635 9427.50 9552.40 110.32
17199 69.0673 9530.57 9522.60 111.11
17200 69.0710 9494.40 9494.70 111.13
17201 69.0748 9504.12 9467.19 111.31
17202 69.0786 9399.71 9440.71 110.63
17203 69.0823 9422.88 9415.96 110.38
17204 69.0861 9210.20 9391.40 109.24
17205 69.0898 9559.89 9368.52 112.19
17206 69.0936 9138.19 9345.74 108.65
17207 69.0974 9316.09 9323.87 109.82
17208 69.1011 9214.35 9303.32 109.61
17209 69.1049 9329.00 9282.98 109.41
17210 69.1086 9030.40 9263.85 107.87
17211 69.1124 9260.83 9244.91 109.98
17212 69.1161 9157.62 9227.07 109.22
17213 69.1199 9228.33 9209.39 108.99
17214 69.1237 9328.41 9192.32 109.51
17215 69.1274 9239.46 9176.23 108.35
17216 69.1312 9375.22 9160.26 110.62
17217 69.1349 9028.08 9145.21 107.14
17218 69.1387 9205.42 9130.26 108.55
17219 69.1425 8985.30 9115.77 107.29
17220 69.1462 9000.63 9102.15 107.00
17221 69.1500 8958.57 9088.56 107.10
17222 69.1537 9241.51 9075.78 109.84
17223 69.1575 8979.68 9063.02 107.91
17224 69.1613 9036.30 9050.69 106.91
17225 69.1650 9045.00 9039.03 106.84
17226 69.1688 8964.95 9027.44 107.30
17227 69.1725 8850.44 9016.48 106.48
17228 69.1763 9042.66 9005.58 108.09
17229 69.1801 9064.51 8995.00 108.02
17230 69.1838 8867.05 8985.00 106.26
17231 69.1876 9041.09 8975.05 107.43
17232 69.1913 8874.75 8965.63 106.95
17233 69.1951 9045.56 8956.25 108.01
17234 69.1989 8974.08 8947.14 107.16
17235 69.2026 8994.71 8938.55 107.53
17236 69.2064 8787.27 8929.98 106.29
17237 69.2101 9001.49 8921.89 107.43
17238 69.2139 8906.30 8913.80 107.09
17239 69.2176 8941.08 8906.21 107.38
17240 69.2214 8904.15 8898.59 107.12
17241 69.2252 8947.85 8891.24 106.51
17242 69.2289 8850.50 8884.29 105.88
17243 69.2327 9004.92 8877.39 108.31
17244 69.2364 8814.39 8870.87 105.94
17245 69.2402 8850.82 8864.40 106.50
17246 69.2440 8922.33 8858.14 106.75
17247 69.2477 8862.48 8852.24 105.92
17248 69.2515 8711.61 8846.40 104.61
17249 69.2552 9084.29 8840.91 110.06
17250 69.2590 8924.42 8835.49 106.72
17251 69.2628 8772.64 8830.27 105.15
17252 69.2665 8752.38 8825.40 105.32
17253 69.2703 8805.52 8820.60 106.15
17254 69.2740 8872.65 8816.14 106.51
17255 69.2778 9032.85 8811.78 107.84
17256 69.2816 8792.08 8807.65 106.26
17257 69.2853 8761.19 8803.84 105.18
17258 69.2891 8805.79 8800.17 106.28
17259 69.2928 8672.80 8796.83 103.74
17260 69.2966 8882.18 8793.65 106.35
17261 69.3004 8928.23 8790.73 107.01
17262 69.3041 8711.91 8788.14 104.81
17263 69.3079 8604.76 8785.77 104.94
17264 69.3116 8805.57 8783.75 106.45
17265 69.3154 8779.01 8781.97 105.85
17266 69.3192 8638.09 8780.51 105.35
17267 69.3229 8778.78 8779.42 105.97
17268 69.3267 8765.62 8778.65 105.47
17269 69.3304 8825.12 8778.24 106.96
17270 69.3342 8834.20 8778.21 106.15
17271 69.3380 8712.76 8778.58 105.89
17272 69.3417 8769.84 8779.33 106.44
17273 69.3455 8798.87 8780.54 105.64
17274 69.3492 8817.99 8782.14 105.13
17275 69.3530 8870.42 8784.24 108.58
17276 69.3567 8718.52 8786.75 106.26
17277 69.3605 8783.95 8789.80 106.40
17278 69.3643 8798.19 8793.36 105.96
17279 69.3680 8914.50 8797.31 106.96
17280 69.3718 8862.11 8801.87 106.58
17281 69.3755 8698.72 8806.80 104.97
17282 69.3793 8807.67 8812.37 106.26
17283 69.3831 8825.47 8818.44 106.47
17284 69.3868 8892.72 8824.80 106.28
17285 69.3906 8941.15 8831.77 107.40
17286 69.3943 8720.75 8838.95 105.84
17287 69.3981 8823.35 8846.67 106.83
17288 69.4019 8819.52 8854.67 106.69
17289 69.4056 8838.59 8862.65 106.50
17290 69.4094 8885.08 8870.92 107.11
17291 69.4131 8869.20 8878.94 106.78
17292 69.4169 8981.44 8886.96 108.12
17293 69.4207 8828.59 8894.62 106.67
17294 69.4244 8829.59 8901.54 106.93
17295 69.4282 8835.14 8907.89 105.95
17296 69.4319 8636.12 8913.13 105.81
17297 69.4357 8832.88 8917.35 106.32
17298 69.4395 8953.23 8920.21 107.61
17299 69.4432 9011.35 8921.51 107.18
17300 69.4470 8947.32 8921.21 107.32
17301 69.4507 8817.20 8919.26 105.54
17302 69.4545 8825.58 8915.53 109.38
17303 69.4582 8813.04 8910.26 107.04
17304 69.4620 8955.26 8903.22 107.00
17305 69.4658 8940.31 8894.70 105.91
17306 69.4695 8908.91 8885.12 107.21
17307 69.4733 9248.69 8874.19 109.32
17308 69.4770 8627.06 8862.65 105.63
17309 69.4808 8777.32 8850.10 106.41
17310 69.4846 8819.02 8837.04 106.72
17311 69.4883 8774.79 8823.99 106.11
17312 69.4921 8933.92 8810.43 107.16
17313 69.4958 8911.20 8797.20 107.40
17314 69.4996 8691.69 8783.69 105.71
17315 69.5034 8796.60 8770.41 106.93
17316 69.5071 8829.60 8757.74 106.42
17317 69.5109 8797.67 8745.07 106.95
17318 69.5146 8657.28 8733.10 105.33
17319 69.5184 8565.25 8721.25 105.02
17320 69.5222 8777.26 8709.84 106.56
17321 69.5259 8735.68 8699.18 105.47
17322 69.5297 8697.49 8688.70 105.87
17323 69.5334 8657.82 8678.95 105.77
17324 69.5372 8716.88 8669.41 106.36
17325 69.5410 8497.60 8660.33 104.89
17326 69.5447 8806.96 8651.92 106.53
17327 69.5485 8515.49 8643.73 103.53
17328 69.5522 8700.16 8636.16 107.02
17329 69.5560 8719.57 8628.79 106.94
17330 69.5598 8588.03 8621.80 105.16
17331 69.5635 8467.70 8615.38 103.88
17332 69.5673 8622.00 8609.11 105.86
17333 69.5710 8710.75 8603.35 105.94
17334 69.5748 8755.14 8597.74 105.98
17335 69.5786 8590.96 8592.43 105.81
17336 69.5823 8631.75 8587.53 105.48
17337 69.5861 8495.14 8582.76 104.29
17338 69.5898 8527.09 8578.36 104.95
17339 69.5936 8555.86 8574.06 104.82
17340 69.5973 8435.16 8570.09 104.74
17341 69.6011 8652.30 8566.21 105.88
17342 69.6049 8397.63 8562.53 103.30
17343 69.6086 8683.26 8559.11 104.72
17344 69.6124 8446.21 8555.75 103.51
17345 69.6161 8902.62 8552.64 106.89
17346 69.6199 8586.71 8549.58 104.42
17347 69.6237 8621.32 8546.66 104.73
17348 69.6274 8439.09 8543.94 103.23
17349 69.6312 8653.91 8541.27 105.56
17350 69.6349 8538.28 8538.77 104.11
17351 69.6387 8645.72 8536.32 104.91
17352 69.6425 8537.11 8533.97 104.19
17353 69.6462 8442.61 8531.78 103.17
17354 69.6500 8447.29 8529.63 102.28
17355 69.6537 8667.49 8527.63 107.52
17356 69.6575 8500.93 8525.68 104.36
17357 69.6613 8562.28 8523.82 104.15
17358 69.6650 8593.51 8522.11 103.82
17359 69.6688 8584.30 8520.46 104.45
17360 69.6725 8428.85 8518.96 103.53
17361 69.6763 8542.64 8517.54 104.06
17362 69.6801 8459.06 8516.25 103.76
17363 69.6838 8553.81 8515.15 104.32
17364 69.6876 8461.79 8514.19 103.65
17365 69.6913 8565.42 8513.44 104.16
17366 69.6951 8382.12 8512.90 102.63
17367 69.6989 8477.32 8512.62 103.81
17368 69.7026 8498.06 8512.65 103.53
17369 69.7064 8353.17 8513.03 102.68
17370 69.7101 8506.98 8513.79 104.33
17371 69.7139 8606.53 8515.03 103.70
17372 69.7176 8418.26 8516.73 103.47
17373 69.7214 8444.43 8519.04 103.12
17374 69.7252 8541.95 8521.97 103.54
17375 69.7289 8384.93 8525.44 102.44
17376 69.7327 8550.65 8529.69 104.07
17377 69.7364 8496.50 8534.47 103.34
17378 69.7402 8479.21 8540.01 103.52
17379 69.7440 8527.32 8546.09 103.74
17380 69.7477 8561.94 8552.37 103.23
17381 69.7515 8469.43 8558.98 103.37
17382 69.7552 8416.64 8565.25 105.18
17383 69.7590 8538.55 8571.12 104.20
17384 69.7628 8467.76 8576.00 102.85
17385 69.7665 8392.62 8579.46 102.62
17386 69.7703 8473.18 8581.38 103.76
17387 69.7740 8613.80 8581.53 104.02
17388 69.7778 8445.74 8579.89 103.58
17389 69.7816 8630.45 8576.46 104.72
17390 69.7853 8532.02 8571.50 104.18
17391 69.7891 8432.07 8564.93 103.32
17392 69.7928 8555.60 8557.33 104.34
17393 69.7966 8435.90 8548.65 102.84
17394 69.8004 8455.91 8539.48 103.64
17395 69.8041 8503.07 8530.39 103.78
17396 69.8079 8405.72 8521.23 103.15
17397 69.8116 8619.26 8512.67 104.75
17398 69.8154 8504.94 8504.41 104.02
17399 69.8192 8488.45 8496.78 103.58
17400 69.8229 8263.21 8489.96 102.47
17401 69.8267 8412.03 8483.62 103.37
17402 69.8304 8352.95 8478.05 102.78
17403 69.8342 8564.43 8449.10 104.81
17404 69.8379 8455.60 8444.79 102.99
17405 69.8417 8600.55 8440.83 104.68
17406 69.8455 8439.02 8437.31 103.88
17407 69.8492 8361.23 8434.25 101.34
17408 69.8530 8601.56 8431.42 105.47
17409 69.8567 8537.88 8428.93 105.37
17410 69.8605 8566.75 8426.61 104.75
17411 69.8643 8489.16 8424.48 103.83
17412 69.8680 8419.01 8399.33 103.22
17413 69.8718 8492.13 8397.67 103.92
17414 69.8755 8545.80 8373.10 104.14
17415 69.8793 8427.79 8371.80 103.45
17416 69.8831 8505.15 8370.59 104.66
17417 69.8868 8488.84 8369.46 104.46
17418 69.8906 8441.90 8368.37 104.34
17419 69.8943 8605.66 8367.34 105.43
17420 69.8981 8405.32 8366.33 103.83
17421 69.9019 8251.09 8365.36 102.57
17422 69.9056 8462.15 8364.45 104.29
17423 69.9094 8556.72 8363.54 105.17
17424 69.9131 8473.57 8362.67 104.49
17425 69.9169 8482.42 8361.81 104.09
17426 69.9207 8479.42 8360.97 104.44
17427 69.9244 8430.24 8360.17 104.22
17428 69.9282 8377.70 8359.36 102.95
17429 69.9319 8576.94 8358.59 105.57
17430 69.9357 8474.74 8357.82 103.91
17431 69.9394 8443.74 8357.08 104.56
17432 69.9432 8397.78 8356.33 104.08
17433 69.9470 8487.67 8355.59 103.64
17434 69.9507 8420.50 8354.88 103.13
17435 69.9545 8575.26 8354.17 107.20
17436 69.9582 8441.66 8353.48 104.46
17437 69.9620 8419.56 8352.78 103.35
17438 69.9658 8280.79 8352.08 102.29
17439 69.9695 8472.05 8351.42 103.88
17440 69.9733 8399.25 8350.74 103.93
17441 69.9770 8469.21 8350.09 103.97
17442 69.9808 8462.96 8349.42 104.24
17443 69.9846 8370.14 8348.76 103.25
17444 69.9883 8351.27 8348.13 103.54
17445 69.9921 8387.43 8347.48 104.02
17446 69.9958 8432.39 8346.85 103.76
17447 69.9996 8438.06 8346.21 104.00
17448 70.0034 8373.54 8345.58 104.04
17449 70.0071 8485.90 8344.96 104.72
17450 70.0109 8431.70 8344.33 103.88
17451 70.0146 8382.70 8343.73 103.69
17452 70.0184 8438.71 8343.11 104.16
17453 70.0221 8458.66 8342.51 104.56
17454 70.0259 8333.14 8341.89 103.14
17455 70.0297 8436.63 8341.28 104.20
17456 70.0334 8450.52 8340.69 105.33
17457 70.0372 8382.32 8340.08 103.94
17458 70.0409 8423.40 8339.50 104.14
17459 70.0447 8563.98 8338.90 105.14
17460 70.0485 8288.22 8338.30 102.07
17461 70.0522 8434.29 8337.72 104.56
17462 70.0560 8443.51 8337.12 106.54
17463 70.0597 8464.01 8336.55 104.64
17464 70.0635 8246.79 8335.96 102.62
17465 70.0673 8564.83 8335.37 104.58
17466 70.0710 8523.21 8334.80 104.40
17467 70.0748 8474.02 8334.21 104.28
17468 70.0785 8335.05 8333.65 104.61
17469 70.0823 8386.23 8333.06 103.62
17470 70.0861 8441.21 8332.48 103.65
17471 70.0898 8272.18 8331.92 102.96
17472 70.0936 8247.63 8331.34 102.13
17473 70.0973 8418.79 8330.78 103.32
17474 70.1011 8619.82 8330.21 104.97
17475 70.1048 8436.14 8329.65 104.13
17476 70.1086 8432.12 8329.08 103.91
17477 70.1124 8271.82 8328.51 102.88
17478 70.1161 8485.33 8327.95 104.03
17479 70.1199 8382.29 8327.38 103.70
17480 70.1236 8515.27 8326.83 103.95
17481 70.1274 8338.84 8326.26 102.59
17482 70.1312 8338.97 8325.70 102.77
17483 70.1349 8674.07 8325.15 106.08
17484 70.1387 8286.27 8324.58 102.73
17485 70.1424 8354.02 8324.04 103.53
17486 70.1462 8331.04 8323.47 103.00
17487 70.1500 8436.96 8322.91 102.78
17488 70.1537 8414.99 8322.37 104.58
17489 70.1575 8404.50 8321.81 105.32
17490 70.1612 8387.30 8321.26 103.51
17491 70.1650 8318.49 8320.70 102.07
17492 70.1688 8443.30 8320.15 103.71
17493 70.1725 8370.75 8319.60 102.81
17494 70.1763 8335.40 8319.05 103.00
17495 70.1800 8348.92 8318.50 102.93
17496 70.1838 8490.80 8317.95 104.23
17497 70.1876 8319.97 8317.40 102.82
17498 70.1913 8354.85 8316.86 103.21
17499 70.1951 8343.83 8316.30 103.14
17500 70.1988 8254.69 8315.76 102.53
17501 70.2026 8248.19 8315.21 101.43
17502 70.2063 8336.43 8314.67 103.33
17503 70.2101 8309.62 8314.12 102.33
17504 70.2139 8506.04 8313.57 104.15
17505 70.2176 8422.11 8313.03 103.55
17506 70.2214 8426.92 8312.48 103.59
17507 70.2251 8266.52 8311.95 102.21
17508 70.2289 8166.68 8311.40 101.42
17509 70.2327 8329.67 8310.85 103.47
17510 70.2364 8278.26 8310.32 103.32
17511 70.2402 8191.13 8309.77 102.42
17512 70.2439 8428.04 8309.23 103.58
17513 70.2477 8311.52 8308.69 101.28
17514 70.2515 8177.01 8308.14 100.31
17515 70.2552 8411.41 8307.61 105.06
17516 70.2590 8271.77 8307.06 103.31
17517 70.2627 8302.38 8306.53 102.66
17518 70.2665 8209.70 8319.44 101.87
17519 70.2702 8404.33 8318.99 103.53
17520 70.2740 8355.10 8318.54 103.43
17521 70.2778 8358.75 8318.09 102.58
17522 70.2815 8264.71 8317.65 102.12
17523 70.2853 8145.60 8317.21 101.65
17524 70.2890 8262.47 8316.77 102.36
17525 70.2928 8263.77 8322.93 102.16
17526 70.2966 8291.37 8322.54 102.55
17527 70.3003 8419.18 8322.15 103.59
17528 70.3041 8248.56 8321.75 102.27
17529 70.3078 8141.21 8321.37 101.27
17530 70.3116 8183.77 8320.98 102.11
17531 70.3154 8349.83 8320.59 102.60
17532 70.3191 8009.60 8320.21 100.79
17533 70.3229 8430.14 8320.03 102.02
17534 70.3266 8136.19 8319.66 101.44
17535 70.3304 8353.47 8319.28 102.72
17536 70.3342 8466.43 8318.90 104.60
17537 70.3379 8274.56 8318.53 101.78
17538 70.3417 8348.82 8318.16 103.19
17539 70.3454 8230.13 8317.79 102.59
17540 70.3492 8083.05 8317.42 100.64
17541 70.3529 8361.08 8317.06 102.58
17542 70.3567 8421.07 8316.69 104.87
17543 70.3605 8445.74 8316.33 103.66
17544 70.3642 8289.82 8315.98 102.22
17545 70.3680 8217.63 8315.62 101.47
17546 70.3717 8124.23 8315.26 101.78
17547 70.3755 8342.56 8314.91 103.15
17548 70.3792 8084.66 8314.56 100.70
17549 70.3830 8536.14 8314.21 104.67
17550 70.3868 8153.66 8313.86 101.49
17551 70.3905 8188.82 8313.52 101.10
17552 70.3943 8298.46 8313.18 103.02
17553 70.3980 8288.37 8312.84 102.71
17554 70.4018 8213.35 8312.50 102.54
17555 70.4056 8072.65 8312.16 100.89
17556 70.4093 8252.40 8311.83 102.44
17557 70.4131 8348.06 8311.50 103.38
17558 70.4168 8389.27 8311.18 103.86
17559 70.4206 8207.94 8310.85 102.63
17560 70.4244 8111.73 8310.52 101.70
17561 70.4281 8374.15 8310.21 103.14
17562 70.4319 8342.75 8309.89 103.31
17563 70.4356 8396.25 8309.58 103.66
17564 70.4394 8223.32 8309.26 102.94
17565 70.4432 8427.69 8308.95 104.25
17566 70.4469 8155.55 8308.65 102.14
17567 70.4507 8116.77 8308.34 100.47
17568 70.4544 8427.59 8308.04 104.93
17569 70.4582 8332.72 8307.74 104.65
17570 70.4619 8245.87 8307.45 102.87
17571 70.4657 8559.98 8307.16 104.09
17572 70.4695 8384.56 8306.86 103.72
17573 70.4732 8322.29 8306.58 103.26
17574 70.4770 8267.94 8306.29 103.33
17575 70.4807 8292.98 8306.02 102.93
17576 70.4845 8148.32 8305.74 101.90
17577 70.4882 8454.03 8305.47 103.59
17578 70.4920 8359.33 8305.20 103.64
17579 70.4958 8135.02 8304.93 102.35
17580 70.4995 8205.35 8304.67 102.37
17581 70.5033 8447.87 8304.41 104.34
17582 70.5070 8461.20 8304.15 103.68
17583 70.5108 8329.58 8303.90 103.10
17584 70.5146 8255.71 8303.64 103.46
17585 70.5183 8345.42 8303.40 103.90
17586 70.5221 8344.61 8303.16 103.70
17587 70.5258 8213.83 8302.92 102.56
17588 70.5296 8379.89 8302.69 103.37
17589 70.5334 8311.03 8302.46 103.52
17590 70.5371 8312.94 8302.23 103.09
17591 70.5409 8387.59 8302.01 104.32
17592 70.5446 8240.18 8301.79 102.52
17593 70.5484 8332.42 8301.58 103.29
17594 70.5521 8097.66 8301.37 100.24
17595 70.5559 8479.03 8301.16 106.77
17596 70.5597 8266.83 8300.96 104.03
17597 70.5634 8319.92 8300.77 102.15
17598 70.5672 8319.01 8300.58 102.12
17599 70.5709 8410.12 8300.39 103.09
17600 70.5747 8246.74 8300.21 102.25
17601 70.5785 8403.29 8300.03 102.83
17602 70.5822 8304.27 8299.86 102.21
17603 70.5860 8324.79 8299.69 102.51
17604 70.5897 8353.11 8299.53 102.48
17605 70.5935 8238.47 8299.38 102.13
17606 70.5972 8184.64 8299.23 101.18
17607 70.6010 8346.07 8299.08 103.00
17608 70.6048 8255.40 8298.94 101.98
17609 70.6085 8346.47 8298.81 102.63
17610 70.6123 8257.29 8298.68 101.93
17611 70.6160 8369.88 8298.56 102.93
17612 70.6198 8228.41 8298.44 101.66
17613 70.6235 8413.96 8298.33 102.87
17614 70.6273 8287.10 8298.22 102.08
17615 70.6311 8426.84 8298.12 103.01
17616 70.6348 8071.63 8298.03 101.21
17617 70.6386 8335.35 8297.95 101.51
17618 70.6423 8214.46 8297.87 101.85
17619 70.6461 8185.03 8297.80 100.96
17620 70.6499 8125.40 8297.74 100.71
17621 70.6536 8380.09 8297.68 102.35
17622 70.6574 8191.64 8297.63 104.03
17623 70.6611 8127.45 8297.59 101.25
17624 70.6649 8186.36 8297.55 101.03
17625 70.6686 8332.81 8297.53 102.75
17626 70.6724 8099.03 8297.51 100.61
17627 70.6762 8294.33 8297.50 102.31
17628 70.6799 8201.92 8297.50 101.93
17629 70.6837 8209.26 8297.50 101.06
17630 70.6874 8299.01 8297.52 102.56
17631 70.6912 8414.47 8297.54 103.10
17632 70.6950 8400.99 8297.57 103.12
17633 70.6987 8348.45 8297.61 102.51
17634 70.7025 8146.46 8297.67 101.39
17635 70.7062 8380.04 8297.73 102.83
17636 70.7100 8155.45 8297.80 101.02
17637 70.7137 8244.15 8297.88 101.86
17638 70.7175 8175.18 8297.97 101.41
17639 70.7213 8277.99 8298.07 102.40
17640 70.7250 8292.19 8298.18 102.46
17641 70.7288 8268.83 8298.31 101.71
17642 70.7325 8358.00 8298.44 102.83
17643 70.7363 8464.68 8298.59 103.74
17644 70.7400 8307.01 8298.74 102.45
17645 70.7438 8171.31 8298.92 101.50
17646 70.7476 8239.64 8299.10 102.11
17647 70.7513 8068.10 8299.29 99.67
17648 70.7551 8350.27 8299.50 103.63
17649 70.7588 8345.65 8299.72 104.42
17650 70.7626 8262.79 8299.96 102.31
17651 70.7664 8227.86 8300.21 101.44
17652 70.7701 8190.62 8300.47 100.66
17653 70.7739 8402.48 8300.75 102.85
17654 70.7776 8233.96 8301.04 101.61
17655 70.7814 8268.22 8301.35 101.79
17656 70.7851 8404.26 8301.67 103.36
17657 70.7889 8057.01 8302.01 100.71
17658 70.7927 8310.60 8302.37 102.49
17659 70.7964 8010.57 8302.74 100.01
17660 70.8002 8213.06 8303.14 101.88
17661 70.8039 8241.87 8303.54 101.81
17662 70.8077 8274.28 8303.97 102.13
17663 70.8115 8318.58 8304.42 102.01
17664 70.8152 8308.36 8304.88 102.51
17665 70.8190 8334.11 8305.37 102.51
17666 70.8227 8315.46 8305.86 102.33
17667 70.8265 8224.45 8306.39 101.54
17668 70.8302 8329.21 8306.93 102.72
17669 70.8340 8414.51 8307.51 103.08
17670 70.8378 8153.59 8308.11 101.76
17671 70.8415 8250.23 8308.71 101.97
17672 70.8453 8414.73 8309.36 103.46
17673 70.8490 8239.91 8309.96 101.95
17674 70.8528 8148.82 8310.66 100.56
17675 70.8565 8312.15 8311.36 104.44
17676 70.8603 8304.52 8312.11 103.50
17677 70.8641 8370.17 8312.89 102.57
17678 70.8678 8183.12 8313.67 101.17
17679 70.8716 8337.09 8314.47 102.60
17680 70.8753 8540.77 8315.31 104.19
17681 70.8791 8347.56 8316.21 102.97
17682 70.8828 8316.51 8317.11 103.04
17683 70.8866 8334.03 8318.08 102.83
17684 70.8904 8204.53 8319.07 101.92
17685 70.8941 8116.85 8320.08 101.16
17686 70.8979 8376.76 8321.14 102.99
17687 70.9016 8332.15 8322.22 102.47
17688 70.9054 8340.55 8323.36 103.21
17689 70.9091 8274.17 8324.51 102.45
17690 70.9129 8129.50 8325.73 101.28
17691 70.9167 8269.70 8327.00 102.75
17692 70.9204 8462.17 8328.27 104.08
17693 70.9242 8306.66 8329.63 102.48
17694 70.9279 8151.81 8330.99 101.62
17695 70.9317 8153.82 8332.44 101.59
17696 70.9354 8424.34 8333.90 104.44
17697 70.9392 8365.96 8335.44 103.26
17698 70.9430 8416.50 8337.05 103.90
17699 70.9467 8294.78 8338.66 103.06
17700 70.9505 8242.27 8340.38 101.51
17701 70.9542 8264.68 8342.10 101.79
17702 70.9580 8370.72 8343.93 105.49
17703 70.9618 8285.14 8345.83 102.77
17704 70.9655 8403.27 8347.74 103.20
17705 70.9693 8358.25 8349.77 102.47
17706 70.9730 8301.21 8351.81 102.77
17707 70.9768 8364.88 8353.98 103.14
17708 70.9805 8300.65 8356.17 102.62
17709 70.9843 8334.73 8358.49 103.27
17710 70.9881 8304.11 8360.89 103.12
17711 70.9918 8270.90 8363.32 102.62
17712 70.9956 8484.67 8365.89 104.01
17713 70.9993 8428.04 8368.49 103.55
17714 71.0031 8437.19 8371.25 103.77
17715 71.0068 8233.33 8374.04 102.33
17716 71.0106 8347.13 8376.99 102.87
17717 71.0143 8527.49 8379.98 104.72
17718 71.0181 8555.11 8383.16 104.55
17719 71.0219 8491.62 8386.45 104.22
17720 71.0256 8277.45 8389.77 102.17
17721 71.0294 8382.54 8393.30 103.29
17722 71.0331 8360.37 8396.87 103.56
17723 71.0369 8428.34 8400.67 103.54
17724 71.0406 8331.88 8404.51 103.62
17725 71.0444 8404.43 8408.59 104.77
17726 71.0482 8365.79 8412.83 103.64
17727 71.0519 8454.60 8417.12 102.52
17728 71.0557 8413.38 8421.69 105.77
17729 71.0594 8532.18 8426.31 105.64
17730 71.0632 8425.88 8431.24 103.32
17731 71.0669 8368.14 8436.23 102.60
17732 71.0707 8245.43 8441.55 101.91
17733 71.0745 8453.79 8447.08 103.80
17734 71.0782 8317.33 8452.69 102.68
17735 71.0820 8417.98 8458.67 103.74
17736 71.0857 8378.17 8464.74 103.41
17737 71.0895 8587.50 8471.23 105.01
17738 71.0932 8335.61 8477.81 103.13
17739 71.0970 8447.95 8484.86 104.67
17740 71.1008 8458.60 8492.20 104.00
17741 71.1045 8726.25 8499.65 106.22
17742 71.1083 8550.66 8507.63 104.56
17743 71.1120 8423.92 8515.75 103.91
17744 71.1158 8358.29 8524.44 103.36
17745 71.1195 8539.34 8532.85 104.37
17746 71.1233 8533.40 8542.34 104.79
17747 71.1271 8502.69 8552.27 104.42
17748 71.1308 8440.45 8562.40 103.78
17749 71.1346 8440.26 8573.29 104.47
17750 71.1383 8560.71 8584.37 104.64
17751 71.1421 8675.37 8596.32 105.90
17752 71.1458 8541.33 8608.52 104.97
17753 71.1496 8441.41 8621.64 103.77
17754 71.1534 8360.53 8635.46 102.04
17755 71.1571 8666.01 8649.55 107.54
17756 71.1609 8460.48 8664.81 104.09
17757 71.1646 8706.32 8680.40 105.37
17758 71.1684 8457.18 8697.29 103.29
17759 71.1721 8475.45 8714.58 103.81
17760 71.1759 8699.18 8733.35 105.26
17761 71.1796 8663.24 8752.59 105.13
17762 71.1834 8631.05 8773.51 104.96
17763 71.1872 8498.22 8795.60 103.81
17764 71.1909 8574.64 8818.39 104.93
17765 71.1947 8916.30 8843.14 106.53
17766 71.1984 8868.87 8868.72 107.49
17767 71.2022 8689.78 8896.57 105.82
17768 71.2059 8703.62 8925.43 105.32
17769 71.2097 8768.81 8956.89 106.64
17770 71.2135 8886.72 8990.42 106.53
17771 71.2172 9018.50 9025.27 108.01
17772 71.2210 9104.15 9063.42 107.98
17773 71.2247 8964.72 9103.16 107.37
17774 71.2285 9063.25 9146.80 108.16
17775 71.2322 9063.29 9192.43 107.85
17776 71.2360 9187.04 9242.71 109.81
17777 71.2398 9263.36 9296.85 109.82
17778 71.2435 9086.63 9353.49 108.30
17779 71.2473 9574.00 9416.45 111.66
17780 71.2510 9220.94 9482.61 107.94
17781 71.2548 9723.66 9556.49 113.84
17782 71.2585 9700.91 9634.55 113.13
17783 71.2623 9789.32 9722.29 112.83
17784 71.2661 9917.52 9818.39 113.46
17785 71.2698 9973.23 9921.52 113.70
17786 71.2736 10218.20 10038.80 115.47
17787 71.2773 10536.00 10165.70 117.63
17788 71.2811 10684.80 10311.90 118.27
17789 71.2848 10731.80 10472.50 118.58
17790 71.2886 11188.70 10659.60 122.01
17791 71.2923 11534.90 10868.10 123.60
17792 71.2961 11678.00 11114.30 125.02
17793 71.2999 12065.00 11399.60 126.27
17794 71.3036 12398.90 11722.90 129.05
17795 71.3074 12741.50 12109.40 130.89
17796 71.3111 13030.70 12549.10 132.49
17797 71.3149 13709.50 13075.20 136.70
17798 71.3186 14066.30 13672.30 139.12
17799 71.3224 15035.80 14382.80 143.86
17800 71.3261 15547.60 15182.40 146.37
17801 71.3299 16525.40 16123.10 151.65
17802 71.3337 17467.60 17197.70 157.68
17803 71.3374 18224.30 18377.40 160.97
17804 71.3412 19572.50 19728.20 168.38
17805 71.3449 20853.80 21180.00 173.91
17806 71.3487 22438.30 22797.80 182.00
17807 71.3524 24136.90 24479.50 187.81
17808 71.3562 26407.40 26276.30 204.01
17809 71.3599 27998.50 28045.30 209.69
17810 71.3637 30064.10 29804.60 217.37
17811 71.3675 31278.60 31416.90 221.03
17812 71.3712 32963.50 32753.80 228.48
17813 71.3750 34468.20 33799.00 234.88
17814 71.3787 34956.60 34444.80 237.98
17815 71.3825 35243.10 34706.80 238.88
17816 71.3862 34850.10 34590.90 236.96
17817 71.3900 33839.50 34134.00 232.99
17818 71.3938 32926.00 33384.60 229.13
17819 71.3975 31030.20 32414.70 221.47
17820 71.4013 29178.30 31209.20 213.11
17821 71.4050 27733.50 29861.50 206.57
17822 71.4088 25677.10 28338.00 197.05
17823 71.4125 24192.80 26770.10 190.50
17824 71.4163 22649.10 25118.00 183.85
17825 71.4200 20880.70 23526.50 174.51
17826 71.4238 19744.50 21943.10 168.80
17827 71.4275 18360.40 20498.80 162.29
17828 71.4313 17463.60 19118.90 157.05
17829 71.4351 16626.30 17869.20 153.44
17830 71.4388 15548.60 16774.60 146.59
17831 71.4426 15229.70 15776.20 146.62
17832 71.4463 14328.20 14918.20 140.56
17833 71.4501 13683.40 14147.70 134.19
17834 71.4538 13100.90 13494.00 132.47
17835 71.4576 12868.00 12912.80 134.64
17836 71.4613 12317.50 12423.50 128.74
17837 71.4651 11754.40 11990.50 124.03
17838 71.4689 11456.50 11618.10 122.07
17839 71.4726 11147.60 11304.80 121.49
17840 71.4764 11072.40 11026.90 121.08
17841 71.4801 10747.20 10791.80 120.04
17842 71.4839 10627.00 10581.50 118.44
17843 71.4876 10334.30 10401.80 116.39
17844 71.4914 10312.40 10239.20 116.63
17845 71.4951 9932.71 10098.60 114.46
17846 71.4989 9997.63 9969.74 114.71
17847 71.5027 9796.54 9853.93 113.50
17848 71.5064 9523.57 9752.28 111.35
17849 71.5102 9490.72 9657.79 111.29
17850 71.5139 9409.09 9573.52 111.08
17851 71.5177 9283.40 9493.99 109.91
17852 71.5214 9540.88 9422.95 111.55
17853 71.5252 9300.46 9356.51 110.54
17854 71.5289 9050.63 9295.87 107.50
17855 71.5327 9045.00 9237.96 108.87
17856 71.5365 9008.64 9184.28 108.23
17857 71.5402 9013.16 9135.54 107.81
17858 71.5440 9230.91 9089.75 109.96
17859 71.5477 8835.58 9047.77 106.92
17860 71.5515 8869.68 9006.96 105.47
17861 71.5552 8907.90 8969.67 109.61
17862 71.5590 9012.10 8933.76 109.23
17863 71.5627 8903.09 8900.85 107.23
17864 71.5665 8617.16 8869.02 104.76
17865 71.5702 8606.56 8839.88 105.24
17866 71.5740 8815.23 8811.58 106.40
17867 71.5778 8736.84 8784.89 106.24
17868 71.5815 8483.34 8760.35 104.51
17869 71.5853 8773.81 8736.44 106.75
17870 71.5890 8760.43 8714.44 106.60
17871 71.5928 8699.56 8692.95 105.98
17872 71.5965 8577.26 8673.13 105.39
17873 71.6003 8678.68 8653.74 105.24
17874 71.6040 8693.86 8635.82 105.78
17875 71.6078 8517.72 8618.27 104.72
17876 71.6116 8438.79 8601.58 103.63
17877 71.6153 8704.50 8586.07 106.05
17878 71.6191 8372.93 8570.88 103.48
17879 71.6228 8503.76 8556.74 104.39
17880 71.6266 8612.79 8542.87 105.43
17881 71.6303 8459.18 8529.94 103.94
17882 71.6341 8506.90 8517.25 105.23
17883 71.6378 8405.85 8505.39 104.00
17884 71.6416 8559.24 8493.74 105.42
17885 71.6453 8485.54 8482.84 104.70
17886 71.6491 8611.00 8472.11 104.82
17887 71.6529 8437.82 8461.81 102.47
17888 71.6566 8670.25 8452.17 108.25
17889 71.6604 8415.92 8442.65 104.78
17890 71.6641 8327.56 8433.73 103.14
17891 71.6679 8535.81 8424.92 104.26
17892 71.6716 8547.71 8416.65 104.27
17893 71.6754 8408.18 8408.48 103.47
17894 71.6791 8453.85 8400.79 103.79
17895 71.6829 8268.70 8393.19 103.08
17896 71.6866 8355.42 8386.04 102.94
17897 71.6904 8229.73 8378.96 102.41
17898 71.6942 8319.58 8372.12 103.16
17899 71.6979 8491.73 8365.69 104.27
17900 71.7017 8468.69 8359.29 104.40
17901 71.7054 8334.54 8353.28 103.17
17902 71.7092 8151.05 8347.30 102.07
17903 71.7129 8366.83 8341.67 103.50
17904 71.7167 8436.95 8336.05 103.88
17905 71.7204 8369.10 8330.78 103.85
17906 71.7242 8233.18 8325.50 102.71
17907 71.7279 8281.23 8320.54 102.64
17908 71.7317 8345.31 8315.60 103.33
17909 71.7354 8247.77 8310.93 103.13
17910 71.7392 8230.77 8306.28 102.52
17911 71.7430 8369.57 8301.77 104.04
17912 71.7467 8330.93 8297.50 103.70
17913 71.7505 8308.49 8293.25 102.99
17914 71.7542 8397.24 8289.23 102.63
17915 71.7580 8323.06 8285.22 104.56
17916 71.7617 8211.06 8281.42 101.34
17917 71.7655 8372.79 8277.63 103.29
17918 71.7692 8137.78 8274.04 101.47
17919 71.7730 8250.39 8270.46 102.38
17920 71.7767 8357.90 8267.06 103.61
17921 71.7805 8245.64 8263.67 102.61
17922 71.7843 8320.73 8260.38 102.71
17923 71.7880 8204.27 8257.26 102.10
17924 71.7918 8154.20 8254.14 102.14
17925 71.7955 8304.76 8251.18 102.87
17926 71.7993 8227.83 8248.23 101.93
17927 71.8030 8166.38 8245.44 100.89
17928 71.8068 8325.89 8242.64 103.23
17929 71.8105 8232.85 8240.00 102.56
17930 71.8143 8519.96 8237.35 104.71
17931 71.8180 8299.92 8234.84 103.40
17932 71.8218 8133.50 8232.34 102.08
17933 71.8255 8276.69 8229.97 102.77
17934 71.8293 8281.66 8227.60 102.90
17935 71.8331 8125.57 8225.31 100.92
17936 71.8368 8282.52 8223.13 103.12
17937 71.8406 8282.63 8220.96 103.04
17938 71.8443 8330.85 8218.91 103.25
17939 71.8481 8269.46 8216.87 102.63
17940 71.8518 8146.47 8214.95 101.12
17941 71.8556 8284.91 8213.03 103.80
17942 71.8593 8272.64 8211.23 103.82
17943 71.8631 8311.95 8209.44 102.61
17944 71.8668 8146.47 8207.76 102.28
17945 71.8706 8350.23 8206.09 103.20
17946 71.8743 8247.11 8204.54 102.81
17947 71.8781 8184.47 8203.00 102.20
17948 71.8818 8165.27 8201.58 102.07
17949 71.8856 8089.66 8200.18 101.87
17950 71.8894 8212.51 8198.85 102.68
17951 71.8931 8139.63 8197.62 101.99
17952 71.8969 8164.10 8196.44 102.49
17953 71.9006 8202.76 8195.37 102.09
17954 71.9044 8119.80 8194.34 101.49
17955 71.9081 8268.84 8193.42 102.74
17956 71.9119 8315.95 8192.56 103.35
17957 71.9156 8106.09 8191.81 102.18
17958 71.9194 8331.60 8191.13 103.36
17959 71.9231 8064.82 8190.57 101.54
17960 71.9269 8289.58 8190.10 103.75
17961 71.9306 8231.64 8189.75 102.67
17962 71.9344 8254.51 8189.50 103.48
17963 71.9381 8189.38 8189.38 102.59
17964 71.9419 8164.51 8189.38 102.21
17965 71.9457 8349.35 8189.51 103.99
17966 71.9494 8369.24 8189.78 103.91
17967 71.9532 8361.11 8190.20 102.93
17968 71.9569 8255.96 8190.75 104.91
17969 71.9607 8172.71 8191.49 103.45
17970 71.9644 8368.90 8192.36 104.44
17971 71.9682 8217.50 8193.44 102.51
17972 71.9719 8042.96 8194.66 101.22
17973 71.9757 8280.24 8196.10 102.01
17974 71.9794 8153.19 8197.69 102.06
17975 71.9832 8260.53 8199.51 101.91
17976 71.9853 8348.31 8200.61 103.89
17977 71.9890 8280.95 8202.69 103.50
17978 71.9928 8272.86 8205.04 103.11
17979 71.9965 8225.10 8207.52 102.92
17980 72.0003 8249.58 8210.28 103.40
17981 72.0040 8310.81 8213.16 103.51
17982 72.0078 8399.74 8216.31 104.07
17983 72.0115 8199.62 8219.56 103.22
17984 72.0153 8401.96 8223.07 103.32
17985 72.0190 8438.14 8226.64 104.93
17986 72.0228 8368.96 8230.43 104.07
17987 72.0266 8224.07 8234.32 102.62
17988 72.0303 8437.10 8238.16 104.77
17989 72.0341 8345.88 8242.13 103.77
17990 72.0378 8260.06 8245.95 101.55
17991 72.0416 8476.28 8249.78 106.81
17992 72.0453 8258.41 8253.34 104.23
17993 72.0491 8159.21 8256.75 102.32
17994 72.0528 8304.13 8259.75 102.82
17995 72.0566 8567.92 8262.43 105.18
17996 72.0603 8308.23 8264.56 103.14
17997 72.0641 8307.17 8266.18 103.49
17998 72.0679 8174.25 8267.16 102.57
17999 72.0716 8348.12 8267.45 104.02
18000 72.0754 8292.69 8267.04 103.59
18001 72.0791 8397.57 8265.93 104.11
18002 72.0829 8231.68 8264.06 103.20
18003 72.0866 8220.22 8261.57 102.30
18004 72.0904 8273.52 8258.37 103.09
18005 72.0941 8166.73 8254.68 102.49
18006 72.0979 8261.69 8250.38 102.62
18007 72.1017 8094.20 8245.64 102.03
18008 72.1054 8377.53 8240.69 103.72
18009 72.1092 8313.64 8235.33 103.29
18010 72.1129 8177.13 8229.93 102.62
18011 72.1167 8272.49 8224.27 102.86
18012 72.1204 8303.05 8218.70 104.02
18013 72.1242 8359.06 8212.98 103.88
18014 72.1279 8328.02 8207.46 104.02
18015 72.1317 8180.31 8201.87 102.79
18016 72.1354 8230.56 8196.56 102.40
18017 72.1392 8204.16 8191.24 101.08
18018 72.1430 8466.83 8186.10 107.04
18019 72.1467 8304.72 8181.27 104.21
18020 72.1505 8172.86 8176.50 102.27
18021 72.1542 8150.40 8172.06 101.81
18022 72.1580 8358.63 8167.70 103.18
18023 72.1617 8154.02 8163.66 101.92
18024 72.1655 8307.48 8159.72 102.99
18025 72.1692 8199.06 8156.08 102.80
18026 72.1730 8221.17 8152.55 102.21
18027 72.1767 8101.77 8149.31 101.72
18028 72.1805 8042.30 8146.17 101.43
18029 72.1843 7999.53 8143.24 101.05
18030 72.1880 8018.67 8140.56 101.47
18031 72.1918 8184.94 8137.98 102.33
18032 72.1955 8302.12 8135.65 103.32
18033 72.1993 8168.86 8133.42 102.33
18034 72.2030 8140.72 8131.42 102.03
18035 72.2068 8163.56 8129.52 102.62
18036 72.2105 7951.53 8127.82 100.94
18037 72.2143 8264.60 8126.23 102.73
18038 72.2180 8090.23 8124.83 101.75
18039 72.2203 8238.47 8124.03 101.76
18040 72.2241 8296.12 8122.83 103.00
18041 72.2278 8253.35 8121.81 102.71
18042 72.2316 8263.31 8120.90 102.28
18043 72.2353 8171.58 8120.18 102.97
18044 72.2391 8265.55 8119.58 102.99
18045 72.2428 8376.23 8119.17 103.57
18046 72.2466 8245.62 8118.91 102.21
18047 72.2503 8069.98 8118.85 100.72
18048 72.2541 8260.14 8119.00 101.78
18049 72.2578 8235.62 8119.36 104.71
18050 72.2616 8199.62 8119.99 102.45
18051 72.2654 8414.12 8120.90 103.91
18052 72.2691 8174.52 8122.11 101.59
18053 72.2729 8292.10 8123.71 102.41
18054 72.2766 8235.22 8125.67 102.71
18055 72.2804 8144.87 8128.14 100.45
18056 72.2841 8286.29 8131.06 102.69
18057 72.2879 8312.90 8134.64 102.46
18058 72.2916 8280.44 8138.74 103.26
18059 72.2954 8334.80 8143.65 103.93
18060 72.2991 8317.30 8149.16 103.14
18061 72.3029 8270.80 8155.60 102.83
18062 72.3066 8268.63 8162.65 102.97
18063 72.3104 8219.10 8170.68 102.14
18064 72.3142 8477.51 8179.50 102.82
18065 72.3179 8412.73 8188.75 103.38
18066 72.3217 8056.44 8198.89 100.54
18067 72.3254 8401.74 8209.20 103.48
18068 72.3292 8133.70 8220.13 101.29
18069 72.3329 8295.83 8230.86 103.11
18070 72.3367 8296.00 8241.79 104.12
18071 72.3404 8235.65 8252.03 102.66
18072 72.3442 8199.52 8261.85 102.67
18073 72.3479 8195.94 8270.29 102.61
18074 72.3517 8183.78 8277.36 101.39
18075 72.3555 8350.53 8282.22 104.55
18076 72.3592 8314.27 8284.36 104.12
18077 72.3630 8300.47 8283.51 103.22
18078 72.3667 8418.87 8279.58 103.54
18079 72.3705 8301.91 8272.58 102.94
18080 72.3742 8351.64 8263.33 102.83
18081 72.3780 8283.58 8252.02 102.53
18082 72.3817 8295.45 8239.95 103.24
18083 72.3855 8338.71 8227.14 103.53
18084 72.3892 8226.97 8214.78 102.73
18085 72.3930 8326.85 8202.62 102.52
18086 72.3967 8405.43 8191.59 103.63
18087 72.4005 8287.89 8181.21 103.20
18088 72.4042 8257.67 8172.14 103.67
18089 72.4080 8339.98 8163.93 104.02
18090 72.4118 8171.99 8156.81 102.36
18091 72.4155 8374.68 8150.88 104.15
18092 72.4193 8084.55 8145.77 101.55
18093 72.4230 8286.91 8141.68 102.74
18094 72.4268 8296.46 8138.31 102.71
18095 72.4305 8320.00 8135.75 103.49
18096 72.4343 8249.33 8133.81 103.25
18097 72.4380 8272.90 8132.51 103.05
18098 72.4418 8543.78 8131.71 105.38
18099 72.4456 8200.30 8131.41 102.30
18100 72.4493 8180.91 8131.54 102.80
18101 72.4531 8376.12 8132.07 102.93
18102 72.4568 8467.32 8132.94 106.55
18103 72.4606 8298.43 8134.18 104.42
18104 72.4643 8335.41 8135.70 103.08
18105 72.4681 8272.89 8137.58 101.86
18106 72.4718 8234.47 8139.72 102.31
18107 72.4756 8430.65 8142.22 104.25
18108 72.4793 8267.58 8144.97 102.70
18109 72.4831 8301.19 8148.11 103.78
18110 72.4869 8256.01 8151.60 102.99
18111 72.4906 8109.07 8141.90 102.07
18112 72.4944 8302.02 8146.21 103.47
18113 72.4981 8232.16 8150.80 102.75
18114 72.5019 8236.29 8155.93 102.31
18115 72.5056 8278.60 8161.38 103.40
18116 72.5094 8340.28 8167.47 103.99
18117 72.5131 8302.93 8173.93 103.32
18118 72.5169 8215.05 8174.53 102.64
18119 72.5206 8457.74 8182.23 103.94
18120 72.5244 8262.47 8190.84 103.51
18121 72.5282 8383.80 8200.26 103.39
18122 72.5319 8180.33 8210.27 102.35
18123 72.5357 8502.11 8221.56 104.86
18124 72.5394 8387.22 8233.62 103.74
18125 72.5432 8404.10 8247.36 104.57
18126 72.5469 8429.69 8262.08 104.15
18127 72.5507 8397.89 8279.03 103.81
18128 72.5544 8441.35 8297.41 102.81
18129 72.5582 8574.45 8318.72 107.54
18130 72.5619 8534.01 8342.18 106.09
18131 72.5657 8640.84 8369.58 105.16
18132 72.5695 8575.47 8400.96 104.98
18133 72.5732 8553.45 8436.12 104.73
18134 72.5770 8773.22 8477.73 106.79
18135 72.5807 8677.75 8524.63 105.81
18136 72.5845 8789.19 8580.36 106.80
18137 72.5882 8957.25 8643.30 108.03
18138 72.5920 9006.08 8718.01 108.32
18139 72.5957 9072.05 8802.09 108.86
18140 72.5995 9109.55 8901.31 109.15
18141 72.6033 9169.26 9015.10 110.26
18142 72.6070 9452.25 9141.34 110.90
18143 72.6108 9476.47 9287.62 111.33
18144 72.6145 9560.48 9447.32 111.69
18145 72.6183 9616.62 9628.89 112.83
18146 72.6220 9776.26 9822.62 114.07
18147 72.6258 10028.50 10036.90 114.15
18148 72.6295 10275.00 10258.00 115.29
18149 72.6333 10370.30 10492.90 117.15
18150 72.6371 10632.70 10730.40 119.66
18151 72.6408 10910.00 10956.60 120.49
18152 72.6446 11142.50 11175.80 122.73
18153 72.6483 11485.60 11369.40 124.14
18154 72.6521 11591.40 11540.30 123.66
18155 72.6558 11946.10 11674.00 126.91
18156 72.6596 12205.80 11772.90 129.57
18157 72.6633 11911.50 11829.10 126.60
18158 72.6671 11834.50 11844.00 125.03
18159 72.6709 11869.10 11814.90 125.88
18160 72.6746 11776.80 11743.90 125.26
18161 72.6784 11379.10 11628.40 124.37
18162 72.6821 11223.90 11476.40 122.13
18163 72.6859 10756.30 11285.20 118.26
18164 72.6896 10741.80 11071.80 117.96
18165 72.6934 10478.80 10834.00 116.30
18166 72.6971 10063.20 10594.20 114.21
18167 72.7009 10017.50 10348.40 113.98
18168 72.7047 9854.81 10109.70 112.86
18169 72.7084 9632.80 9890.26 111.50
18170 72.7122 9256.99 9680.39 108.91
18171 72.7159 9372.05 9493.95 109.49
18172 72.7197 9133.66 9320.58 107.98
18173 72.7234 9054.23 9170.06 107.53
18174 72.7272 9028.49 9032.75 106.86
18175 72.7309 8741.52 8915.45 105.15
18176 72.7347 8736.60 8809.87 105.51
18177 72.7385 8893.66 8718.37 106.26
18178 72.7422 8783.18 8641.06 106.04
18179 72.7460 8646.97 8572.48 104.77
18180 72.7497 8629.96 8514.72 104.62
18181 72.7535 8630.07 8463.50 102.70
18182 72.7572 8596.65 8420.26 105.97
18183 72.7610 8411.28 8390.13 104.07
18184 72.7648 8448.74 8356.61 102.99
18185 72.7685 8502.67 8327.96 103.11
18186 72.7723 8272.05 8310.17 101.59
18187 72.7760 8253.64 8287.77 101.12
18188 72.7798 8391.91 8267.23 103.27
18189 72.7835 8171.77 8274.48 101.53
18190 72.7873 8186.39 8257.96 101.95
18191 72.7910 8140.41 8243.32 101.16
18192 72.7948 8328.51 8229.62 102.93
18193 72.7986 8207.98 8225.36 101.97
18194 72.8023 8051.31 8214.18 101.03
18195 72.8061 8206.22 8203.57 101.49
18196 72.8098 8221.63 8194.03 101.92
18197 72.8136 8203.18 8184.92 101.53
18198 72.8173 8229.87 8176.69 102.16
18199 72.8211 8204.51 8168.81 101.87
18200 72.8249 8096.04 8161.78 100.78
18201 72.8286 8212.87 8155.11 101.69
18202 72.8324 7943.88 8148.68 99.60
18203 72.8361 8339.07 8142.82 102.12
18204 72.8399 8104.02 8137.18 101.11
18205 72.8436 8096.81 8132.01 101.34
18206 72.8474 8113.70 8127.02 101.08
18207 72.8511 8265.84 8122.44 101.53
18208 72.8549 8212.92 8118.02 101.39
18209 72.8587 8128.66 8113.84 103.18
18210 72.8624 8329.87 8110.00 102.85
18211 72.8662 7960.39 8106.27 100.14
18212 72.8699 8170.82 8102.83 101.43
18213 72.8737 7998.32 8099.48 99.31
18214 72.8774 8181.77 8096.40 101.74
18215 72.8812 8313.17 8093.39 102.94
18216 72.8849 8104.68 8090.62 101.01
18217 72.8887 8150.18 8087.91 101.27
18218 72.8925 8250.69 8085.34 102.17
18219 72.8962 8142.77 8082.95 100.38
18220 72.9000 8056.31 8080.63 100.72
18221 72.9037 7982.54 8078.47 100.32
18222 72.9075 8173.94 8076.36 101.42
18223 72.9112 8157.55 8074.41 101.57
18224 72.9150 8151.10 8072.49 101.34
18225 72.9188 8059.10 8070.67 101.27
18226 72.9225 8159.62 8068.97 101.27
18227 72.9263 8080.97 8067.32 101.43
18228 72.9300 8147.91 8065.77 101.73
18229 72.9338 8170.47 8064.26 101.97
18230 72.9375 8024.74 8062.86 100.92
18231 72.9413 8273.99 8061.49 103.37
18232 72.9451 8196.23 8060.18 102.25
18233 72.9488 8289.87 8058.96 102.42
18234 72.9526 8089.60 8057.76 99.80
18235 72.9563 8245.81 8056.65 103.93
18236 72.9601 8113.13 8055.56 102.28
18237 72.9638 8140.86 8054.55 101.91
18238 72.9676 8157.31 8053.56 101.02
18239 72.9713 7955.36 8052.65 99.56
18240 72.9751 8130.18 8051.75 101.59
18241 72.9789 8167.10 8050.89 101.90
18242 72.9826 7985.76 8050.10 100.48
18243 72.9864 8214.89 8049.33 102.44
18244 72.9901 8120.72 8048.62 101.58
18245 72.9939 8177.67 8047.92 101.86
18246 72.9976 8183.04 8047.27 102.32
18247 73.0014 8075.24 8046.65 101.22
18248 73.0052 7952.37 8046.06 100.26
18249 73.0089 8024.55 8045.51 101.51
18250 73.0127 8333.76 8044.99 103.69
18251 73.0164 7998.07 8044.51 100.76
18252 73.0202 7996.76 8044.04 100.93
18253 73.0239 8268.47 8043.62 102.90
18254 73.0277 8198.79 8043.21 101.88
18255 73.0315 8174.92 8042.83 101.62
18256 73.0352 8003.00 8042.49 101.60
18257 73.0390 8232.63 8042.17 102.18
18258 73.0427 8052.19 8041.88 101.41
18259 73.0465 8244.01 8041.61 103.15
18260 73.0503 8046.45 8041.37 101.25
18261 73.0540 8129.57 8041.15 101.15
18262 73.0578 8059.35 8040.96 103.39
18263 73.0615 8078.39 8040.79 101.79
18264 73.0653 8179.85 8040.64 101.25
18265 73.0690 8228.22 8040.52 101.68
18266 73.0728 8017.44 8040.42 101.09
18267 73.0766 8193.51 8040.35 102.31
18268 73.0803 8179.61 8040.30 101.77
18269 73.0841 8059.95 8040.27 101.23
18270 73.0878 8002.96 8040.26 101.09
18271 73.0916 8114.23 8040.27 101.55
18272 73.0953 8172.56 8040.30 102.26
18273 73.0991 8196.63 8040.36 102.56
18274 73.1029 8086.53 8040.44 101.34
18275 73.1066 8082.64 8040.54 102.01
18276 73.1104 8074.71 8040.67 101.33
18277 73.1141 8054.28 8040.81 100.93
18278 73.1179 8070.51 8040.98 101.19
18279 73.1216 8197.71 8041.16 102.25
18280 73.1254 8105.50 8041.37 101.56
18281 73.1291 8220.97 8041.60 102.68
18282 73.1329 8149.51 8041.85 101.64
18283 73.1367 8152.39 8042.13 102.02
18284 73.1404 7962.79 8042.42 100.55
18285 73.1442 8163.98 8042.74 101.58
18286 73.1479 8146.11 8043.07 101.49
18287 73.1517 8066.25 8043.43 100.08
18288 73.1555 8445.34 8043.82 105.82
18289 73.1592 8032.46 8044.22 103.15
18290 73.1630 8081.27 8044.66 101.45
18291 73.1667 8154.86 8045.10 101.39
18292 73.1705 8139.68 8045.58 100.63
18293 73.1742 8106.64 8046.07 101.11
18294 73.1780 8259.85 8046.60 102.07
18295 73.1818 8015.00 8047.15 100.17
18296 73.1855 8166.01 8047.71 101.32
18297 73.1893 8209.85 8048.32 101.88
18298 73.1930 8062.10 8048.93 101.18
18299 73.1968 8244.99 8049.59 102.28
18300 73.2005 8126.98 8050.25 100.73
18301 73.2043 8241.97 8050.96 101.68
18302 73.2081 8307.06 8051.69 103.08
18303 73.2118 8186.68 8052.44 101.84
18304 73.2156 8121.18 8053.23 101.46
18305 73.2193 8111.49 8054.03 101.68
18306 73.2231 8132.75 8054.88 101.13
18307 73.2269 8102.19 8055.77 101.39
18308 73.2306 8084.89 8056.66 101.22
18309 73.2344 8163.08 8057.61 101.25
18310 73.2381 8133.54 8058.56 101.72
18311 73.2419 7988.05 8059.58 100.84
18312 73.2456 8087.78 8060.60 100.57
18313 73.2494 8167.80 8061.69 101.57
18314 73.2531 8223.17 8062.78 100.71
18315 73.2569 8269.41 8063.94 103.55
18316 73.2607 8106.01 8065.14 102.94
18317 73.2644 8186.67 8066.35 102.06
18318 73.2682 8184.75 8067.62 100.38
18319 73.2719 8161.02 8068.91 101.63
18320 73.2757 8318.92 8070.27 102.09
18321 73.2795 8133.65 8071.68 101.36
18322 73.2832 7917.33 8073.09 98.38
18323 73.2870 7996.71 8074.58 100.78
18324 73.2907 8137.78 8076.08 101.73
18325 73.2945 8200.70 8077.67 102.26
18326 73.2982 8143.58 8079.26 100.99
18327 73.3020 8087.47 8080.94 101.14
18328 73.3058 8225.52 8082.67 102.16
18329 73.3095 8206.11 8084.40 102.28
18330 73.3133 8059.91 8086.22 100.88
18331 73.3170 8139.29 8088.04 100.82
18332 73.3208 8021.17 8089.96 100.87
18333 73.3246 8138.03 8091.92 101.68
18334 73.3283 8215.08 8093.88 101.82
18335 73.3321 8056.42 8095.93 101.15
18336 73.3358 8174.06 8097.97 102.65
18337 73.3396 8219.10 8100.09 101.50
18338 73.3433 8052.96 8102.20 101.49
18339 73.3471 8255.06 8104.40 102.79
18340 73.3509 8205.33 8106.62 102.11
18341 73.3546 8182.19 8108.80 101.18
18342 73.3584 8210.14 8111.07 104.10
18343 73.3621 8130.57 8113.29 101.89
18344 73.3659 8169.64 8115.59 101.41
18345 73.3697 8160.17 8117.91 100.96
18346 73.3734 7997.65 8120.16 100.66
18347 73.3772 8159.77 8122.51 100.54
18348 73.3809 8042.62 8124.80 100.65
18349 73.3847 8224.53 8127.17 102.24
18350 73.3884 8306.19 8129.50 102.72
18351 73.3922 8182.98 8131.92 102.05
18352 73.3960 8090.60 8134.38 101.22
18353 73.3997 8159.53 8136.81 102.07
18354 73.4035 8101.65 8139.35 101.46
18355 73.4072 8131.22 8141.88 102.01
18356 73.4110 8198.92 8144.54 102.02
18357 73.4147 8176.35 8147.19 102.10
18358 73.4185 8221.25 8149.98 102.12
18359 73.4223 8239.90 8152.85 101.62
18360 73.4260 8133.24 8155.72 101.75
18361 73.4298 8117.94 8158.77 101.39
18362 73.4335 8172.40 8161.82 102.25
18363 73.4373 8330.04 8165.04 103.50
18364 73.4411 8239.06 8168.38 101.81
18365 73.4448 8249.89 8171.72 102.61
18366 73.4486 8245.19 8175.26 102.95
18367 73.4523 8139.89 8178.81 100.93
18368 73.4561 8369.45 8182.58 103.27
18369 73.4598 8436.06 8186.35 105.72
18370 73.4636 8223.35 8190.34 102.44
18371 73.4674 8172.10 8194.47 101.79
18372 73.4711 8166.16 8198.61 101.50
18373 73.4749 8419.34 8203.00 103.69
18374 73.4786 8288.85 8207.38 103.14
18375 73.4824 8364.49 8212.04 103.87
18376 73.4862 8441.94 8216.83 104.15
18377 73.4899 8279.00 8221.65 102.46
18378 73.4937 8194.99 8226.71 102.82
18379 73.4974 8252.96 8231.75 103.05
18380 73.5012 8311.43 8237.16 103.45
18381 73.5049 8144.90 8242.58 101.57
18382 73.5087 8252.83 8248.33 102.72
18383 73.5125 8360.91 8254.25 103.66
18384 73.5162 8154.96 8260.17 102.16
18385 73.5200 8198.46 8266.45 101.79
18386 73.5237 8253.44 8272.74 102.65
18387 73.5275 8337.84 8279.42 103.22
18388 73.5313 8467.06 8286.28 104.24
18389 73.5350 8374.80 8293.18 104.21
18390 73.5388 8263.62 8300.47 102.61
18391 73.5425 8345.16 8307.80 103.24
18392 73.5463 8289.13 8315.55 103.18
18393 73.5500 8383.25 8323.34 103.39
18394 73.5538 8425.93 8331.58 102.79
18395 73.5576 8524.53 8340.08 107.54
18396 73.5613 8439.55 8348.64 105.87
18397 73.5651 8420.74 8357.69 103.98
18398 73.5688 8460.40 8366.80 104.12
18399 73.5726 8480.28 8376.45 104.67
18400 73.5764 8517.00 8386.43 105.28
18401 73.5801 8529.00 8396.45 103.97
18402 73.5839 8416.00 8407.10 104.75
18403 73.5876 8326.12 8417.80 103.72
18404 73.5914 8539.75 8429.18 104.86
18405 73.5952 8481.10 8440.93 104.71
18406 73.5989 8339.23 8452.78 103.77
18407 73.6027 8298.69 8465.35 102.74
18408 73.6064 8481.11 8478.04 102.96
18409 73.6102 8556.49 8491.51 104.83
18410 73.6140 8418.16 8505.47 104.27
18411 73.6177 8600.14 8519.57 105.24
18412 73.6215 8475.55 8534.55 104.31
18413 73.6252 8659.55 8549.70 105.64
18414 73.6290 8479.31 8565.84 103.69
18415 73.6327 8608.54 8582.11 105.12
18416 73.6365 8565.71 8599.49 105.35
18417 73.6403 8500.07 8617.55 105.01
18418 73.6440 8578.81 8635.76 103.48
18419 73.6478 8598.77 8655.25 103.82
18420 73.6515 8587.28 8674.97 103.50
18421 73.6553 8703.04 8696.02 104.08
18422 73.6591 8627.76 8717.92 106.42
18423 73.6628 8741.38 8740.16 105.18
18424 73.6666 8602.97 8763.91 102.82
18425 73.6703 8727.78 8788.05 104.25
18426 73.6741 8644.03 8813.87 103.60
18427 73.6778 8554.77 8840.12 103.61
18428 73.6816 8615.78 8868.23 104.42
18429 73.6854 8732.64 8897.61 104.68
18430 73.6891 8797.42 8927.54 104.89
18431 73.6929 8775.95 8959.65 105.47
18432 73.6966 8821.72 8992.40 105.58
18433 73.7004 8673.95 9027.57 104.15
18434 73.7042 8848.79 9064.51 104.87
18435 73.7079 8606.66 9102.13 103.53
18436 73.7117 8722.61 9142.80 104.81
18437 73.7154 9025.29 9184.24 106.83
18438 73.7192 9049.46 9229.07 106.75
18439 73.7230 9045.84 9276.16 106.85
18440 73.7267 9227.92 9324.53 108.03
18441 73.7305 9059.77 9376.72 106.63
18442 73.7342 9131.75 9430.36 106.79
18443 73.7380 9310.20 9488.42 108.14
18444 73.7418 9305.26 9549.78 108.03
18445 73.7455 9450.73 9613.01 109.22
18446 73.7493 9538.31 9681.64 110.02
18447 73.7530 9502.62 9752.50 109.40
18448 73.7568 9517.31 9829.73 109.44
18449 73.7605 9758.40 9909.35 113.54
18450 73.7643 9767.46 9996.63 111.40
18451 73.7681 9706.64 10089.20 110.85
18452 73.7718 10082.90 10185.40 112.64
18453 73.7756 10027.20 10290.70 113.21
18454 73.7793 10123.50 10400.30 113.30
18455 73.7831 10303.70 10520.10 114.49
18456 73.7869 10529.60 10649.10 116.83
18457 73.7906 10700.70 10784.20 116.93
18458 73.7944 10801.00 10933.30 118.40
18459 73.7981 11137.90 11088.90 120.51
18460 73.8019 11408.60 11262.60 121.16
18461 73.8057 11506.40 11451.10 121.98
18462 73.8094 11836.60 11650.80 124.39
18463 73.8132 12251.50 11874.40 126.33
18464 73.8169 12881.40 12112.40 130.36
18465 73.8207 13004.40 12381.50 131.25
18466 73.8244 13310.60 12672.30 132.51
18467 73.8282 13822.90 13004.00 135.45
18468 73.8320 14471.90 13376.00 138.01
18469 73.8357 15082.50 13782.50 143.89
18470 73.8395 15510.50 14256.10 145.19
18471 73.8432 15991.00 14780.00 148.23
18472 73.8470 16904.70 15394.10 153.40
18473 73.8508 17663.00 16099.80 156.35
18474 73.8545 18434.40 16891.10 159.21
18475 73.8583 19728.20 17826.90 170.73
18476 73.8620 20445.40 18879.10 171.83
18477 73.8658 21550.80 20123.70 175.37
18478 73.8696 22908.70 21558.90 181.69
18479 73.8733 24481.80 23164.30 187.74
18480 73.8771 26143.00 25046.40 197.19
18481 73.8808 27336.70 27132.00 203.26
18482 73.8846 29773.40 29556.90 215.25
18483 73.8884 32150.50 32267.50 223.22
18484 73.8921 34906.20 35197.80 234.69
18485 73.8959 37567.30 38493.20 246.47
18486 73.8996 40749.90 41966.50 258.23
18487 73.9034 45041.90 45756.50 274.68
18488 73.9072 49363.80 49713.70 290.81
18489 73.9109 53945.40 53651.60 308.16
18490 73.9147 59215.10 57673.30 324.58
18491 73.9184 64418.80 61466.40 346.23
18492 73.9222 69195.10 65103.50 358.69
18493 73.9259 73903.20 68275.10 375.65
18494 73.9297 76809.90 71007.30 385.83
18495 73.9335 79287.30 73070.60 392.03
18496 73.9372 80778.50 74312.00 401.83
18497 73.9410 78976.00 74695.20 391.72
18498 73.9447 77765.00 74151.90 388.18
18499 73.9485 74431.00 72663.90 380.22
18500 73.9523 70523.30 70318.70 363.49
18501 73.9560 65500.20 67334.20 346.01
18502 73.9598 60767.00 63720.60 337.86
18503 73.9635 55886.90 59830.80 315.51
18504 73.9673 51258.30 55635.40 297.95
18505 73.9711 46877.70 51387.90 281.03
18506 73.9748 42568.90 47322.00 265.94
18507 73.9786 38950.20 43325.70 250.67
18508 73.9823 35697.20 39667.00 237.92
18509 73.9861 32857.90 36200.00 226.75
18510 73.9899 30700.80 33045.00 218.30
18511 73.9936 28152.10 30275.00 208.00
18512 73.9974 26430.50 27740.50 199.39
18513 74.0011 24176.30 25555.20 189.18
18514 74.0049 23098.00 23585.70 184.37
18515 74.0087 21690.70 21862.70 177.59
18516 74.0124 20127.40 20408.00 169.20
18517 74.0162 18872.10 19114.70 163.60
18518 74.0199 18066.70 18024.20 159.25
18519 74.0237 16964.60 17057.10 153.83
18520 74.0275 16344.10 16222.00 150.41
18521 74.0312 15703.50 15516.10 146.33
18522 74.0350 14915.50 14886.30 143.17
18523 74.0387 14281.20 14350.00 139.35
18524 74.0425 13951.40 13866.80 137.71
18525 74.0462 13399.30 13450.80 134.72
18526 74.0500 13070.70 13071.70 132.06
18527 74.0538 12488.50 12733.20 127.24
18528 74.0575 12322.20 12436.50 131.05
18529 74.0613 12092.40 12160.80 127.90
18530 74.0650 11884.30 11917.40 124.81
18531 74.0688 11351.30 11688.60 121.57
18532 74.0726 11292.40 11479.50 121.65
18533 74.0763 11134.80 11291.90 120.97
18534 74.0801 10612.70 11114.30 117.23
18535 74.0838 10590.20 10954.00 117.57
18536 74.0876 10662.80 10801.50 117.84
18537 74.0914 10340.60 10659.80 116.02
18538 74.0951 10109.30 10531.10 114.75
18539 74.0989 10056.30 10408.00 113.95
18540 74.1026 9859.84 10295.70 113.15
18541 74.1064 9825.83 10187.90 112.39
18542 74.1102 9774.77 10086.90 112.62
18543 74.1139 9648.96 9994.45 110.64
18544 74.1177 9748.90 9905.33 112.10
18545 74.1214 9445.10 9823.55 110.75
18546 74.1252 9470.92 9744.51 110.21
18547 74.1290 9302.11 9669.74 108.41
18548 74.1327 9430.54 9601.41 109.45
18549 74.1365 9315.29 9534.67 109.90
18550 74.1402 9232.27 9473.33 107.66
18551 74.1440 9204.09 9413.72 108.11
18552 74.1478 9055.90 9357.24 107.25
18553 74.1515 9069.41 9305.00 106.55
18554 74.1553 9087.76 9254.10 106.35
18555 74.1590 9173.28 9206.92 110.20
18556 74.1628 9028.80 9160.89 107.45
18557 74.1666 8945.24 9117.08 106.23
18558 74.1703 8826.96 9076.39 105.43
18559 74.1741 8908.70 9036.51 106.16
18560 74.1778 8860.78 8999.54 105.68
18561 74.1816 8789.24 8963.19 104.95
18562 74.1854 8805.67 8928.54 105.15
18563 74.1891 9010.54 8896.24 106.65
18564 74.1929 8890.71 8864.54 106.17
18565 74.1966 8686.91 8834.94 104.69
18566 74.2004 8668.20 8805.85 104.76
18567 74.2042 8695.22 8777.98 104.46
18568 74.2079 8754.21 8751.91 105.15
18569 74.2117 8639.77 8726.25 104.40
18570 74.2154 8705.34 8702.23 104.46
18571 74.2192 8783.17 8678.55 104.96
18572 74.2230 8601.81 8655.80 103.34
18573 74.2267 8724.85 8634.47 104.78
18574 74.2305 8530.09 8613.42 102.59
18575 74.2342 8441.80 8593.66 102.84
18576 74.2380 8622.74 8574.14 104.82
18577 74.2418 8316.70 8555.30 101.54
18578 74.2455 8572.71 8537.66 104.05
18579 74.2493 8420.54 8520.15 103.05
18580 74.2530 8401.36 8503.70 102.20
18581 74.2568 8461.99 8487.39 102.72
18582 74.2605 8781.23 8472.10 107.51
18583 74.2643 8540.71 8456.88 103.95
18584 74.2681 8325.72 8442.21 102.12
18585 74.2718 8514.63 8428.39 102.51
18586 74.2756 8512.26 8414.67 102.93
18587 74.2793 8417.96 8401.75 102.88
18588 74.2831 8262.67 8388.91 101.54
18589 74.2869 8258.44 8376.46 101.46
18590 74.2906 8239.53 8364.76 101.87
18591 74.2944 8447.14 8353.09 103.30
18592 74.2981 8323.90 8342.11 102.30
18593 74.3019 8227.09 8331.15 101.42
18594 74.3057 8342.12 8320.55 101.73
18595 74.3094 8271.84 8310.52 101.89
18596 74.3132 8254.76 8300.55 101.51
18597 74.3169 8278.87 8291.12 101.66
18598 74.3207 8389.86 8281.74 102.39
18599 74.3245 8347.31 8272.63 102.28
18600 74.3282 8316.62 8264.01 101.92
18601 74.3320 8272.86 8255.42 101.90
18602 74.3357 8326.68 8247.30 102.09
18603 74.3395 8447.14 8239.20 103.43
18604 74.3433 8293.32 8231.33 101.77
18605 74.3470 8258.88 8223.88 101.78
18606 74.3508 8362.96 8216.45 102.12
18607 74.3545 8157.45 8209.41 99.98
18608 74.3583 8292.69 8202.39 102.74
18609 74.3621 8320.49 8195.56 102.91
18610 74.3658 8270.33 8189.09 101.73
18611 74.3696 8206.61 8182.65 101.19
18612 74.3733 8223.97 8176.53 101.44
18613 74.3771 8183.84 8170.43 101.01
18614 74.3809 8310.43 8164.50 102.20
18615 74.3846 8192.99 8158.88 100.94
18616 74.3884 8333.50 8153.27 102.27
18617 74.3921 8137.24 8147.96 100.68
18618 74.3959 8354.58 8142.66 102.62
18619 74.3997 8282.78 8137.50 101.87
18620 74.4034 8066.41 8132.63 100.16
18621 74.4072 8211.81 8127.76 101.83
18622 74.4109 8148.13 8123.16 100.51
18623 74.4147 8318.41 8118.56 101.87
18624 74.4185 8305.13 8114.10 102.15
18625 74.4222 8203.21 8109.88 100.78
18626 74.4260 8256.53 8105.69 101.19
18627 74.4297 8179.97 8101.72 100.91
18628 74.4335 8252.54 8097.77 101.18
18629 74.4373 8222.80 8093.96 101.32
18630 74.4410 8303.56 8090.35 101.73
18631 74.4448 8141.82 8086.78 100.71
18632 74.4485 8158.67 8083.42 101.87
18633 74.4523 8017.85 8080.09 100.00
18634 74.4561 7907.05 8076.90 97.94
18635 74.4598 8370.58 8073.89 104.79
18636 74.4636 8079.19 8070.95 101.07
18637 74.4673 7982.03 8068.19 99.21
18638 74.4711 8189.02 8065.49 101.31
18639 74.4749 8295.52 8062.93 101.74
18640 74.4786 8150.60 8060.56 100.83
18641 74.4824 8245.42 8058.27 101.99
18642 74.4861 8047.67 8056.17 99.66
18643 74.4899 8075.70 8054.16 100.18
18644 74.4937 8142.12 8052.30 101.11
18645 74.4974 8067.52 8050.64 100.46
18646 74.5012 8152.60 8049.10 100.42
18647 74.5049 8287.31 8047.76 101.97
18648 74.5087 8019.47 8046.55 99.50
18649 74.5125 7979.67 8045.52 99.74
18650 74.5162 8075.85 8044.71 100.37
18651 74.5200 8197.36 8044.06 101.30
18652 74.5237 8124.75 8043.63 100.48
18653 74.5275 8301.49 8043.39 102.02
18654 74.5313 8166.79 8043.38 100.42
18655 74.5350 8137.00 8043.59 100.29
18656 74.5388 8188.85 8044.04 101.95
18657 74.5425 8083.64 8044.72 100.08
18658 74.5463 8168.71 8045.67 101.50
18659 74.5501 8142.02 8046.88 100.68
18660 74.5538 8257.46 8048.33 101.05
18661 74.5576 8035.14 8050.10 99.70
18662 74.5613 8244.90 8052.10 103.97
18663 74.5651 8130.96 8054.44 100.56
18664 74.5689 7963.39 8057.09 99.66
18665 74.5726 8109.39 8059.96 99.83
18666 74.5764 8196.71 8063.21 101.05
18667 74.5801 7958.76 8066.69 99.85
18668 74.5839 8026.33 8070.56 99.99
18669 74.5877 8259.18 8074.72 101.52
18670 74.5914 8044.54 8079.06 100.37
18671 74.5952 7987.16 8083.80 99.99
18672 74.5989 8135.86 8088.66 100.90
18673 74.6027 8007.21 8093.89 99.92
18674 74.6065 8201.88 8099.32 102.30
18675 74.6102 8053.76 8104.77 100.52
18676 74.6140 8091.74 8110.48 101.45
18677 74.6177 8166.70 8116.10 101.69
18678 74.6215 8162.60 8121.85 101.72
18679 74.6253 8077.55 8127.53 101.51
18680 74.6290 8035.16 8132.85 100.84
18681 74.6328 8082.73 8138.05 101.12
18682 74.6365 8157.01 8142.71 101.35
18683 74.6403 8040.00 8147.01 101.32
18684 74.6440 8099.85 8150.58 101.17
18685 74.6478 8088.31 8153.54 101.64
18686 74.6516 8103.84 8155.64 101.18
18687 74.6553 8202.78 8156.81 101.21
18688 74.6591 8203.94 8157.02 103.15
18689 74.6628 8153.39 8156.23 102.67
18690 74.6666 8234.78 8154.37 102.03
18691 74.6704 8124.89 8151.48 101.29
18692 74.6741 8230.69 8147.68 102.06
18693 74.6779 8123.84 8142.86 101.92
18694 74.6817 8150.73 8137.18 101.25
18695 74.6854 8075.36 8130.91 100.95
18696 74.6892 8033.42 8123.83 100.10
18697 74.6929 8158.65 8116.42 101.81
18698 74.6967 8084.45 8108.38 101.31
18699 74.7005 7988.39 8100.03 100.64
18700 74.7042 8012.22 8091.70 100.84
18701 74.7080 8060.34 8083.03 100.77
18702 74.7117 7930.93 8074.55 100.52
18703 74.7155 8017.47 8065.89 101.07
18704 74.7193 7990.16 8057.33 100.80
18705 74.7230 8100.28 8049.12 101.53
18706 74.7268 8084.24 8040.90 100.73
18707 74.7305 7963.25 8033.10 100.07
18708 74.7343 8153.51 8025.35 101.66
18709 74.7381 8007.96 8017.87 100.64
18710 74.7418 7946.19 8010.86 100.61
18711 74.7456 7978.73 8003.96 100.18
18712 74.7493 7970.54 7997.52 100.55
18713 74.7531 8229.74 7991.20 102.45
18714 74.7568 7873.16 7985.37 98.47
18715 74.7606 8089.19 7979.67 103.29
18716 74.7644 7941.87 7974.28 101.09
18717 74.7681 8069.42 7969.33 101.08
18718 74.7719 8018.74 7964.53 100.08
18719 74.7756 7860.04 7960.15 99.26
18720 74.7794 7917.77 7955.93 100.18
18721 74.7832 8003.97 7952.01 101.13
18722 74.7869 7952.68 7948.46 100.49
18723 74.7907 7860.96 7945.11 99.46
18724 74.7944 7963.57 7942.12 100.11
18725 74.7982 7970.19 7939.35 100.30
18726 74.8020 7935.37 7936.88 99.19
18727 74.8057 7895.57 7934.77 99.05
18728 74.8095 8029.00 7932.94 101.17
18729 74.8132 7952.07 7931.50 100.20
18730 74.8170 7802.41 7930.38 99.33
18731 74.8208 7894.73 7929.68 100.38
18732 74.8245 7784.65 7929.42 99.45
18733 74.8283 7869.83 7929.63 99.87
18734 74.8320 7826.68 7930.32 99.61
18735 74.8358 7866.91 7931.59 100.11
18736 74.8396 8145.71 7933.45 102.95
18737 74.8433 7917.32 7935.88 100.22
18738 74.8471 7974.97 7939.02 100.74
18739 74.8508 7970.11 7942.74 100.53
18740 74.8546 7914.36 7947.23 99.00
18741 74.8584 8028.82 7952.37 101.61
18742 74.8621 8032.48 7957.95 102.68
18743 74.8659 7921.70 7964.18 100.28
18744 74.8696 7896.70 7970.58 99.63
18745 74.8734 7839.06 7977.30 99.33
18746 74.8772 7942.57 7983.92 100.13
18747 74.8809 7971.70 7989.96 100.28
18748 74.8847 7845.10 7995.39 99.42
18749 74.8884 7795.19 7999.61 99.13
18750 74.8922 8031.55 8002.51 101.01
18751 74.8960 7919.01 8003.67 100.40
18752 74.8997 8073.27 8002.93 101.21
18753 74.9035 8035.05 8000.18 101.77
18754 74.9072 8083.77 7995.63 101.61
18755 74.9110 7808.22 7989.25 98.88
18756 74.9148 8062.36 7981.50 101.88
18757 74.9185 7975.30 7973.02 100.79
18758 74.9223 7906.58 7963.78 100.16
18759 74.9260 7972.69 7954.64 100.60
18760 74.9298 7835.50 7945.36 99.78
18761 74.9336 7889.62 7936.46 100.00
18762 74.9373 7975.70 7928.28 101.00
18763 74.9411 7826.54 7920.47 99.92
18764 74.9448 7954.29 7913.48 101.36
18765 74.9486 7877.10 7906.96 100.39
18766 74.9524 8017.07 7901.09 100.79
18767 74.9561 7869.40 7895.96 98.70
18768 74.9599 8037.40 7891.28 102.85
18769 74.9636 7922.20 7887.23 101.56
18770 74.9674 7996.79 7883.56 100.68
18771 74.9712 8123.03 7880.33 101.46
18772 74.9749 7870.09 7877.56 99.28
18773 74.9787 7951.38 7875.06 100.57
18774 74.9824 7998.65 7872.90 100.83
18775 74.9862 7749.21 7870.95 98.96
18776 74.9900 7975.25 7869.23 100.77
18777 74.9937 7774.00 7867.74 99.76
18778 74.9975 7850.22 7866.38 99.99
18779 75.0012 7791.33 7865.21 99.11
18780 75.0050 8074.33 7864.13 101.47
18781 75.0087 7889.64 7863.20 100.45
18782 75.0125 7882.11 7862.35 100.38
18783 75.0163 7875.98 7861.60 100.60
18784 75.0200 7766.30 7860.95 100.21
18785 75.0238 8032.79 7860.38 101.55
18786 75.0275 7961.98 7859.90 100.73
18787 75.0313 7966.02 7859.50 101.00
18788 75.0351 7989.72 7859.17 100.62
18789 75.0388 7945.34 7858.94 101.92
18790 75.0426 7895.88 7858.78 99.96
18791 75.0463 7906.72 7858.71 100.04
18792 75.0501 7812.27 7858.72 100.17
18793 75.0539 7673.87 7858.83 97.75
18794 75.0576 7880.44 7859.03 100.57
18795 75.0614 7832.83 7859.34 101.92
18796 75.0651 8007.09 7859.76 101.20
18797 75.0689 7915.88 7860.31 99.92
18798 75.0727 7931.61 7860.99 100.18
18799 75.0764 7903.94 7861.81 100.20
18800 75.0802 7967.37 7854.43 101.24
18801 75.0839 7859.48 7855.65 100.27
18802 75.0877 8057.01 7857.13 101.63
18803 75.0915 7951.77 7858.86 100.81
18804 75.0952 7937.96 7852.67 100.69
18805 75.0990 8094.19 7855.09 101.44
18806 75.1027 8043.21 7857.84 101.45
18807 75.1065 7914.44 7835.86 100.51
18808 75.1103 7935.17 7839.86 100.84
18809 75.1140 7923.78 7844.38 100.59
18810 75.1178 8059.95 7849.75 100.66
18811 75.1215 7926.88 7847.50 100.81
18812 75.1253 8162.37 7854.74 102.12
18813 75.1291 8151.93 7863.06 101.19
18814 75.1328 7936.44 7872.38 99.83
18815 75.1366 8157.16 7883.29 102.38
18816 75.1403 7951.54 7895.38 100.66
18817 75.1441 8158.52 7909.39 101.09
18818 75.1479 8182.54 7925.16 102.25
18819 75.1516 8028.51 7942.21 100.72
18820 75.1554 7873.97 7961.54 98.99
18821 75.1591 8340.78 7981.98 104.56
18822 75.1629 8109.33 8004.54 102.89
18823 75.1667 8256.01 8028.29 102.19
18824 75.1704 8070.87 8052.20 101.19
18825 75.1742 8280.50 8076.94 102.83
18826 75.1779 8357.98 8100.71 103.38
18827 75.1817 8329.04 8124.12 103.47
18828 75.1855 8429.81 8146.05 103.72
18829 75.1892 8363.05 8165.59 102.47
18830 75.1930 8439.79 8183.41 104.60
18831 75.1967 8546.47 8198.24 104.86
18832 75.2005 8414.24 8210.35 103.94
18833 75.2043 8583.13 8218.67 105.26
18834 75.2080 8489.30 8222.50 103.49
18835 75.2118 8351.40 8221.40 103.11
18836 75.2155 8393.39 8217.50 103.83
18837 75.2193 8457.00 8205.55 104.40
18838 75.2230 8327.73 8188.98 103.11
18839 75.2268 8237.46 8167.51 102.17
18840 75.2306 8050.38 8142.65 101.06
18841 75.2343 8117.71 8116.23 101.90
18842 75.2381 8178.20 8088.03 102.35
18843 75.2418 8156.20 8060.45 101.44
18844 75.2456 8121.28 8051.88 101.87
18845 75.2494 8139.62 8025.71 101.71
18846 75.2531 7983.77 8001.92 100.86
18847 75.2569 8035.48 7979.43 99.83
18848 75.2606 8288.86 7959.50 104.82
18849 75.2644 8039.34 7950.46 102.65
18850 75.2682 8082.64 7934.08 101.57
18851 75.2719 7975.92 7924.68 99.93
18852 75.2757 8000.17 7911.96 100.10
18853 75.2794 7869.06 7901.16 100.24
18854 75.2832 8076.32 7891.48 101.68
18855 75.2870 7898.60 7883.11 100.37
18856 75.2907 7940.85 7876.45 100.06
18857 75.2945 7804.19 7870.19 99.60
18858 75.2982 8134.80 7864.91 102.19
18859 75.3020 7945.30 7860.22 100.87
18860 75.3058 7942.46 7856.16 100.71
18861 75.3095 7694.66 7852.71 98.45
18862 75.3133 7734.12 7849.61 98.81
18863 75.3170 7896.39 7846.96 100.18
18864 75.3208 7874.96 7844.56 100.20
18865 75.3246 7885.80 7842.43 99.95
18866 75.3283 7991.91 7840.58 100.96
18867 75.3321 7877.21 7838.88 99.74
18868 75.3358 7872.59 7837.39 100.19
18869 75.3396 7806.95 7836.01 100.43
18870 75.3433 7890.55 7834.79 100.13
18871 75.3471 7799.63 7833.66 100.20
18872 75.3509 7634.29 7832.63 98.13
18873 75.3546 7598.54 7831.72 97.39
18874 75.3584 7940.75 7830.87 100.17
18875 75.3621 7923.56 7830.12 102.05
18876 75.3659 7705.24 7829.42 99.15
18877 75.3697 7760.07 7828.78 98.74
18878 75.3734 7828.17 7828.22 98.97
18879 75.3772 7786.07 7827.69 98.77
18880 75.3809 7755.76 7827.23 99.58
18881 75.3847 7799.30 7826.81 99.51
18882 75.3885 7712.40 7826.42 98.71
18883 75.3922 7719.15 7826.09 98.93
18884 75.3960 7858.85 7825.78 99.84
18885 75.3997 7845.77 7825.52 100.15
18886 75.4035 7857.67 7825.29 99.87
18887 75.4072 7799.16 7825.09 98.99
18888 75.4110 7731.51 7824.91 99.02
18889 75.4148 7701.88 7824.77 98.44
18890 75.4185 7786.13 7824.65 99.70
18891 75.4223 7790.54 7824.55 99.41
18892 75.4260 7916.62 7824.48 100.75
18893 75.4298 7800.99 7824.43 99.83
18894 75.4336 7859.60 7824.40 100.27
18895 75.4373 7779.42 7824.40 99.40
18896 75.4411 7834.93 7824.41 99.71
18897 75.4448 7876.63 7824.44 100.02
18898 75.4486 7805.39 7824.48 100.11
18899 75.4524 7729.16 7824.55 99.79
18900 75.4561 7802.63 7824.63 98.89
18901 75.4599 7807.65 7824.73 100.83
18902 75.4636 7840.65 7824.84 101.64
18903 75.4674 7916.12 7824.97 100.61
18904 75.4712 7771.92 7825.11 98.58
18905 75.4749 7703.24 7825.27 98.52
18906 75.4787 7912.32 7825.44 99.81
18907 75.4824 7746.18 7825.62 98.80
18908 75.4862 7952.24 7825.82 101.18
18909 75.4900 7779.12 7826.03 99.79
18910 75.4937 7985.99 7826.25 101.09
18911 75.4975 8055.85 7826.48 101.93
18912 75.5012 7739.22 7826.72 99.73
18913 75.5050 7878.99 7826.98 100.53
18914 75.5087 7839.90 7827.25 100.56
18915 75.5125 7909.06 7827.53 100.57
18916 75.5163 7870.39 7827.83 100.70
18917 75.5200 7788.54 7828.12 99.90
18918 75.5238 7822.74 7828.44 100.21
18919 75.5275 7775.35 7828.76 99.73
18920 75.5313 7859.76 7829.10 100.25
18921 75.5351 7836.10 7829.45 99.69
18922 75.5388 7891.00 7829.80 101.48
18923 75.5426 7930.32 7830.17 100.85
18924 75.5463 7795.10 7830.54 100.17
18925 75.5501 7861.85 7830.93 100.76
18926 75.5539 7790.75 7831.33 99.47
18927 75.5576 7783.41 7831.74 99.15
18928 75.5614 8010.21 7832.16 103.69
18929 75.5651 7738.18 7832.58 100.06
18930 75.5689 8027.02 7833.03 101.55
18931 75.5726 7827.92 7833.47 99.74
18932 75.5764 7906.38 7833.94 100.29
18933 75.5802 7839.43 7834.42 99.88
18934 75.5839 7784.57 7834.89 99.53
18935 75.5877 7973.15 7835.39 101.48
18936 75.5914 7897.07 7835.89 101.07
18937 75.5952 7826.57 7836.41 100.03
18938 75.5990 7746.52 7836.94 99.81
18939 75.6027 7808.56 7837.47 100.12
18940 75.6065 7806.53 7838.02 99.97
18941 75.6102 7910.28 7838.57 100.14
18942 75.6140 8001.30 7839.15 100.70
18943 75.6178 7792.77 7839.74 99.50
18944 75.6215 7902.88 7840.32 100.49
18945 75.6253 7840.29 7840.94 100.63
18946 75.6290 7716.80 7841.54 99.31
18947 75.6328 7853.08 7842.18 99.51
18948 75.6365 7839.87 7842.81 100.24
18949 75.6403 8077.70 7843.47 102.44
18950 75.6441 7970.63 7844.14 100.70
18951 75.6478 7735.61 7844.81 99.75
18952 75.6516 7898.46 7845.51 100.97
18953 75.6553 7768.17 7846.20 99.30
18954 75.6591 7894.77 7846.93 100.44
18955 75.6629 7854.26 7847.67 100.67
18956 75.6666 7811.15 7848.40 100.07
18957 75.6704 7869.43 7849.16 99.84
18958 75.6741 7751.07 7849.92 98.51
18959 75.6779 7925.79 7850.72 101.01
18960 75.6816 7751.84 7851.51 98.54
18961 75.6854 7764.97 7852.33 98.49
18962 75.6892 7848.13 7853.17 100.27
18963 75.6929 7759.49 7854.00 98.87
18964 75.6967 7786.14 7854.87 99.38
18965 75.7004 7807.60 7855.74 100.09
18966 75.7042 7801.66 7856.64 99.70
18967 75.7080 7637.77 7857.56 98.66
18968 75.7117 7838.18 7858.47 99.99
18969 75.7155 7798.59 7859.43 99.78
18970 75.7192 7744.35 7860.38 99.41
18971 75.7230 7761.13 7861.37 99.67
18972 75.7268 7764.65 7862.38 99.66
18973 75.7305 7922.26 7863.39 100.61
18974 75.7343 7797.00 7864.44 99.18
18975 75.7380 7725.09 7865.48 98.48
18976 75.7418 8022.64 7866.57 101.54
18977 75.7455 7770.94 7867.66 99.55
18978 75.7493 7721.54 7868.79 99.51
18979 75.7531 7651.32 7869.96 98.53
18980 75.7568 7814.26 7871.11 99.05
18981 75.7606 7794.33 7872.32 100.50
18982 75.7643 7751.59 7873.52 100.71
18983 75.7681 7754.24 7874.78 99.59
18984 75.7718 7872.59 7876.04 99.72
18985 75.7756 7869.09 7877.35 100.10
18986 75.7794 7805.62 7878.70 99.44
18987 75.7831 7848.94 7880.03 100.21
18988 75.7869 7668.70 7881.44 97.92
18989 75.7906 7700.24 7882.84 98.64
18990 75.7944 7672.92 7884.31 98.46
18991 75.7982 7690.22 7885.82 98.99
18992 75.8019 7824.65 7887.32 100.10
18993 75.8057 7808.49 7888.90 99.85
18994 75.8094 7754.98 7890.47 99.21
18995 75.8132 7670.80 7892.13 99.09
18996 75.8169 7738.59 7893.78 99.13
18997 75.8207 7711.97 7895.52 98.03
18998 75.8245 7825.78 7897.30 99.56
18999 75.8282 7746.12 7899.09 99.26
19000 75.8320 7818.88 7900.96 99.59
19001 75.8357 7664.16 7902.83 97.77
19002 75.8395 8000.67 7904.80 101.93
19003 75.8433 7914.43 7906.83 100.23
19004 75.8470 7879.38 7908.84 100.82
19005 75.8508 7861.89 7910.97 99.77
19006 75.8545 7789.87 7913.09 99.04
19007 75.8583 7669.83 7915.33 98.42
19008 75.8620 7985.01 7917.56 103.09
19009 75.8658 7830.49 7919.91 99.84
19010 75.8696 7685.93 7922.31 97.58
19011 75.8733 7893.18 7924.70 100.34
19012 75.8771 8040.05 7927.22 101.29
19013 75.8808 8073.94 7929.72 101.89
19014 75.8846 7771.04 7932.35 100.25
19015 75.8883 7983.42 7934.96 101.06
19016 75.8921 7889.11 7937.69 100.69
19017 75.8959 7926.84 7940.46 100.71
19018 75.8996 7895.27 7943.21 100.52
19019 75.9034 7986.35 7946.07 101.44
19020 75.9071 7858.37 7948.89 99.93
19021 75.9109 8011.44 7951.81 101.78
19022 75.9147 7914.45 7954.76 99.73
19023 75.9184 8099.28 7957.64 101.80
19024 75.9222 7878.65 7960.60 100.94
19025 75.9259 7766.79 7963.49 100.06
19026 75.9297 7863.57 7966.45 100.81
19027 75.9334 7876.35 7969.32 99.74
19028 75.9372 8085.51 7972.25 101.46
19029 75.9410 7963.81 7975.16 102.08
19030 75.9447 7932.39 7977.97 100.84
19031 75.9485 7862.26 7980.83 100.64
19032 75.9522 8046.50 7983.61 101.82
19033 75.9560 7829.98 7986.44 99.88
19034 75.9598 8038.13 7989.27 101.13
19035 75.9635 8033.60 7992.02 103.46
19036 75.9673 7835.47 7994.86 100.69
19037 75.9710 7961.79 7997.65 101.01
19038 75.9748 8014.64 8000.55 100.73
19039 75.9785 7919.48 8003.41 101.02
19040 75.9823 7923.37 8006.41 100.99
19041 75.9861 7941.15 8009.47 101.19
19042 75.9898 7958.40 8012.53 101.43
19043 75.9936 8043.79 8015.75 101.72
19044 75.9973 8013.14 8018.97 101.55
19045 76.0011 7969.46 8022.39 100.88
19046 76.0048 7870.64 8025.82 100.51
19047 76.0086 8019.20 8029.45 101.60
19048 76.0124 7987.43 8033.21 101.53
19049 76.0161 8020.62 8036.99 101.56
19050 76.0199 7977.89 8041.01 101.39
19051 76.0236 8036.53 8045.05 102.38
19052 76.0274 8036.66 8049.34 102.12
19053 76.0311 8059.58 8053.66 102.07
19054 76.0349 7944.64 8058.24 100.37
19055 76.0387 8111.03 8062.99 102.44
19056 76.0424 8067.08 8067.76 102.58
19057 76.0462 8192.33 8072.83 103.62
19058 76.0499 8003.03 8077.92 101.33
19059 76.0537 8105.39 8083.34 101.25
19060 76.0574 7826.59 8088.77 98.44
19061 76.0612 8211.89 8094.54 104.00
19062 76.0650 8174.79 8100.50 101.61
19063 76.0687 8226.50 8106.47 102.35
19064 76.0725 8092.70 8112.83 100.76
19065 76.0762 7997.29 8119.23 100.59
19066 76.0800 8073.16 8126.01 101.82
19067 76.0837 8058.75 8132.77 100.59
19068 76.0875 8352.67 8140.00 103.11
19069 76.0913 8206.81 8147.47 102.68
19070 76.0950 7932.15 8154.99 100.45
19071 76.0988 8020.61 8162.96 101.41
19072 76.1025 8182.84 8170.98 102.12
19073 76.1063 8162.64 8179.49 102.54
19074 76.1101 8185.58 8188.30 102.56
19075 76.1138 8098.16 8197.14 102.32
19076 76.1176 8250.32 8206.56 101.43
19077 76.1213 7906.50 8216.01 100.30
19078 76.1251 8267.40 8226.08 103.02
19079 76.1288 8080.90 8236.20 101.51
19080 76.1326 8374.66 8246.98 103.38
19081 76.1364 8234.77 8258.12 101.78
19082 76.1401 8353.21 8269.37 104.14
19083 76.1439 8085.82 8281.33 101.33
19084 76.1476 8232.75 8293.41 102.08
19085 76.1514 8093.84 8306.27 101.96
19086 76.1551 8106.89 8319.22 101.36
19087 76.1589 8209.67 8333.06 101.67
19088 76.1626 8413.80 8347.03 106.40
19089 76.1664 8304.86 8361.91 103.45
19090 76.1702 8394.12 8377.38 104.07
19091 76.1739 8244.39 8393.04 102.68
19092 76.1777 8406.92 8409.74 103.50
19093 76.1814 8230.67 8426.70 102.71
19094 76.1852 8280.62 8444.78 102.90
19095 76.1889 8312.58 8463.12 103.07
19096 76.1927 8215.29 8482.77 102.40
19097 76.1965 8169.31 8503.25 101.71
19098 76.2002 8323.64 8524.00 102.98
19099 76.2040 8352.04 8546.29 103.55
19100 76.2077 8376.53 8568.89 102.99
19101 76.2115 8363.31 8593.20 103.35
19102 76.2152 8536.96 8617.92 103.87
19103 76.2190 8532.63 8644.46 104.51
19104 76.2228 8525.97 8672.24 104.42
19105 76.2265 8504.94 8700.61 104.15
19106 76.2303 8583.57 8731.12 104.70
19107 76.2340 8461.71 8762.31 104.30
19108 76.2378 8445.08 8795.90 103.32
19109 76.2415 8592.53 8830.29 105.54
19110 76.2453 8945.28 8867.39 107.22
19111 76.2491 8729.50 8906.46 105.80
19112 76.2528 8832.20 8946.56 107.15
19113 76.2566 8762.23 8989.92 105.27
19114 76.2603 8812.71 9034.52 106.82
19115 76.2641 8949.70 9082.84 109.14
19116 76.2678 9004.95 9132.63 108.60
19117 76.2716 9140.96 9186.68 107.58
19118 76.2754 9065.81 9244.08 107.69
19119 76.2791 9192.38 9303.22 108.90
19120 76.2829 9125.60 9367.87 108.59
19121 76.2866 9202.61 9434.62 109.17
19122 76.2904 9292.82 9507.93 109.53
19123 76.2941 9444.70 9583.71 110.29
19124 76.2979 9678.48 9667.02 112.39
19125 76.3017 9631.44 9756.06 111.89
19126 76.3054 9821.62 9849.06 113.73
19127 76.3092 9968.80 9951.53 114.25
19128 76.3129 10014.10 10059.00 114.06
19129 76.3167 10081.30 10178.00 114.42
19130 76.3204 10318.10 10303.50 116.29
19131 76.3242 10386.70 10443.30 115.89
19132 76.3279 10760.10 10591.70 119.26
19133 76.3317 10810.00 10758.10 118.91
19134 76.3355 11316.90 10941.40 121.96
19135 76.3392 11566.50 11137.60 124.27
19136 76.3430 11822.10 11361.20 125.76
19137 76.3467 12086.30 11602.80 127.82
19138 76.3505 12258.30 11880.70 128.78
19139 76.3542 12544.70 12183.60 129.84
19140 76.3580 13036.40 12535.00 130.92
19141 76.3618 13916.00 12932.30 140.87
19142 76.3655 14078.60 13371.60 139.65
19143 76.3693 14554.30 13884.20 140.70
19144 76.3730 14912.90 14453.50 141.97
19145 76.3768 15743.40 15119.40 147.92
19146 76.3805 16289.30 15859.70 150.62
19147 76.3843 16871.40 16724.80 154.17
19148 76.3881 17896.20 17709.80 159.20
19149 76.3918 19010.20 18797.80 164.01
19150 76.3956 19768.60 20056.70 168.07
19151 76.3993 20881.40 21433.40 174.77
19152 76.4031 22540.10 23006.70 182.73
19153 76.4068 24053.10 24701.60 189.21
19154 76.4106 25825.60 26605.50 197.92
19155 76.4143 27435.50 28618.50 205.19
19156 76.4181 29331.50 30835.40 213.98
19157 76.4219 32019.90 33196.60 225.91
19158 76.4256 35083.60 35606.50 240.55
19159 76.4294 37847.70 38186.20 250.80
19160 76.4331 40831.70 40737.90 261.32
19161 76.4369 44336.40 43377.40 276.20
19162 76.4406 47738.70 45867.80 288.85
19163 76.4444 50249.70 48265.50 298.71
19164 76.4481 53574.10 50328.50 310.48
19165 76.4519 54875.50 52069.60 314.44
19166 76.4557 56613.20 53325.50 319.92
19167 76.4594 55591.60 54023.50 313.07
19168 76.4632 56870.90 54170.20 327.43
19169 76.4669 54539.10 53760.50 315.35
19170 76.4707 52544.80 52799.60 305.01
19171 76.4744 50345.20 51379.10 293.46
19172 76.4782 47235.80 49485.80 285.85
19173 76.4820 44493.60 47227.40 275.79
19174 76.4857 41859.00 44761.20 263.97
19175 76.4895 38672.70 42055.90 253.27
19176 76.4932 35856.00 39339.90 240.13
19177 76.4970 33464.30 36559.70 231.36
19178 76.5007 31107.00 33922.20 222.09
19179 76.5045 28210.80 31345.10 205.05
19180 76.5082 26700.20 28994.00 200.99
19181 76.5120 24540.10 26768.90 191.70
19182 76.5158 23181.20 24739.40 185.78
19183 76.5195 21638.30 22960.50 178.35
19184 76.5233 20654.70 21321.60 173.69
19185 76.5270 19228.40 19907.40 168.91
19186 76.5308 18551.50 18621.70 160.97
19187 76.5345 17295.10 17522.50 154.82
19188 76.5383 16422.60 16535.70 149.48
19189 76.5420 15861.70 15696.20 148.44
19190 76.5458 15157.40 14945.90 143.72
19191 76.5496 14639.70 14293.90 141.06
19192 76.5533 13994.80 13740.30 137.29
19193 76.5571 13349.30 13244.80 132.93
19194 76.5608 12968.30 12822.10 130.96
19195 76.5646 12860.70 12441.30 133.05
19196 76.5683 12281.10 12114.00 127.52
19197 76.5721 11767.80 11815.70 123.67
19198 76.5758 11461.40 11557.50 121.59
19199 76.5796 11081.30 11319.30 119.75
19200 76.5833 11254.80 11110.50 121.17
19201 76.5871 10636.20 10916.50 117.14
19202 76.5909 10652.20 10739.80 117.37
19203 76.5946 10439.70 10582.90 115.91
19204 76.5984 10191.20 10434.60 114.34
19205 76.6021 9999.83 10301.90 113.76
19206 76.6059 9797.08 10175.70 112.44
19207 76.6096 9909.10 10062.10 112.78
19208 76.6134 9724.61 9953.49 111.26
19209 76.6171 9641.92 9855.26 110.64
19210 76.6209 9334.90 9760.92 108.86
19211 76.6247 9305.44 9673.02 108.21
19212 76.6284 9323.99 9592.83 109.03
19213 76.6322 9056.89 9515.73 106.96
19214 76.6359 9173.01 9445.18 107.82
19215 76.6397 8937.29 9377.17 106.24
19216 76.6434 8988.07 9314.79 107.53
19217 76.6472 9168.69 9254.51 108.66
19218 76.6509 9107.25 9199.09 107.97
19219 76.6547 9009.15 9145.43 106.78
19220 76.6585 8858.55 9094.74 104.76
19221 76.6622 8776.00 9048.00 106.01
19222 76.6660 8678.33 9002.60 106.07
19223 76.6697 8516.76 8960.66 103.81
19224 76.6735 8628.15 8919.83 104.22
19225 76.6772 8690.76 8882.06 104.29
19226 76.6810 8568.21 8845.23 104.37
19227 76.6847 8607.40 8811.09 103.88
19228 76.6885 8655.20 8777.76 104.47
19229 76.6923 8391.80 8745.98 102.84
19230 76.6960 8591.70 8716.56 103.67
19231 76.6998 8493.70 8687.67 103.58
19232 76.7035 8438.22 8660.88 103.61
19233 76.7073 8543.75 8634.54 103.78
19234 76.7110 8301.74 8610.09 101.97
19235 76.7148 8353.61 8586.01 102.29
19236 76.7185 8395.77 8563.64 102.92
19237 76.7223 8306.73 8541.54 102.43
19238 76.7260 8375.84 8521.05 102.84
19239 76.7298 8272.43 8500.76 101.84
19240 76.7336 8388.12 8481.38 102.04
19241 76.7373 8359.27 8463.25 102.09
19242 76.7411 8178.51 8445.39 101.83
19243 76.7448 8145.84 8428.67 100.60
19244 76.7486 8259.79 8412.19 102.43
19245 76.7523 8195.77 8396.75 101.42
19246 76.7561 8318.48 8381.50 102.07
19247 76.7598 8211.57 8367.20 100.45
19248 76.7636 8226.82 8353.08 103.61
19249 76.7673 8128.85 8339.82 101.92
19250 76.7711 8275.76 8326.72 102.60
19251 76.7749 8082.92 8314.07 99.74
19252 76.7786 8198.17 8302.23 101.59
19253 76.7824 7911.53 8290.47 100.06
19254 76.7861 8280.38 8279.44 101.80
19255 76.7899 8172.08 8268.49 101.19
19256 76.7936 8158.69 8258.21 101.31
19257 76.7974 8052.95 8248.00 100.49
19258 76.8011 8074.40 8238.41 101.05
19259 76.8049 8051.81 8228.87 100.42
19260 76.8086 7936.68 8219.91 99.43
19261 76.8124 8147.62 8210.99 101.27
19262 76.8162 8215.07 8202.38 101.57
19263 76.8199 8125.50 8194.26 100.96
19264 76.8237 8371.52 8186.20 101.90
19265 76.8274 8131.05 8178.59 101.24
19266 76.8312 8023.50 8171.04 100.22
19267 76.8349 7943.58 8163.91 99.54
19268 76.8387 8000.91 8156.83 100.06
19269 76.8424 8220.93 8150.14 102.58
19270 76.8462 8084.05 8143.48 100.78
19271 76.8499 8192.38 8137.20 101.61
19272 76.8537 8169.15 8130.95 101.75
19273 76.8575 7985.06 8124.90 99.55
19274 76.8612 8070.11 8119.18 100.21
19275 76.8650 8191.45 8113.49 102.81
19276 76.8687 8111.57 8108.11 101.56
19277 76.8725 8062.20 8102.75 100.39
19278 76.8762 8125.84 8097.69 100.20
19279 76.8800 8021.11 8092.66 100.05
19280 76.8837 8155.28 8087.90 101.07
19281 76.8875 7948.54 8083.17 100.31
19282 76.8912 8215.78 8078.69 101.48
19283 76.8950 7946.64 8074.23 100.52
19284 76.8987 8117.45 8070.03 102.05
19285 76.9025 8082.25 8065.83 101.32
19286 76.9062 8055.40 8061.88 100.65
19287 76.9100 7859.53 8057.93 99.81
19288 76.9138 8046.82 8054.12 100.65
19289 76.9175 8049.19 8050.51 100.36
19290 76.9213 8110.64 8046.93 101.47
19291 76.9250 8009.19 8043.54 100.73
19292 76.9288 7992.68 8040.18 99.99
19293 76.9325 7919.88 8037.01 99.21
19294 76.9363 8094.18 8033.86 100.80
19295 76.9400 8185.48 8030.89 102.02
19296 76.9438 8160.26 8027.94 102.54
19297 76.9475 7973.99 8025.17 100.44
19298 76.9513 8201.20 8022.42 102.01
19299 76.9550 8001.89 8019.84 100.75
19300 76.9588 7943.18 8017.29 98.82
19301 76.9626 8059.65 8014.83 101.70
19302 76.9663 8178.39 8012.52 103.00
19303 76.9701 8034.99 8010.25 100.86
19304 76.9738 7913.31 8008.13 99.39
19305 76.9776 7999.17 8006.05 100.41
19306 76.9813 8027.21 8004.11 100.07
19307 76.9851 7956.28 8002.22 100.10
19308 76.9888 8046.42 8000.46 100.37
19309 76.9908 7926.36 7999.55 98.88
19310 76.9946 7830.92 7997.90 99.49
19311 76.9983 7937.48 7996.38 100.52
19312 77.0021 8063.83 7994.92 101.64
19313 77.0059 8101.06 7993.56 101.88
19314 77.0096 7962.06 7992.34 100.99
19315 77.0134 7933.61 7991.20 102.20
19316 77.0171 8131.72 7990.18 100.83
19317 77.0209 8084.53 7989.26 100.68
19318 77.0246 8024.69 7988.47 99.76
19319 77.0284 7911.16 7987.78 100.27
19320 77.0321 7856.17 7987.23 99.27
19321 77.0359 8164.44 7986.79 101.56
19322 77.0397 8191.92 7986.49 101.63
19323 77.0434 7929.31 7986.34 99.28
19324 77.0472 7995.24 7986.33 99.89
19325 77.0509 8077.37 7986.47 102.55
19326 77.0547 8227.14 7986.78 101.95
19327 77.0584 7878.21 7987.24 98.88
19328 77.0622 7944.89 7987.90 99.16
19329 77.0659 7908.57 7988.72 99.28
19330 77.0697 7935.55 7989.75 99.77
19331 77.0735 8212.57 7991.00 101.51
19332 77.0772 8168.32 7992.42 101.32
19333 77.0810 8109.89 7994.10 100.79
19334 77.0847 7986.81 7995.97 99.93
19335 77.0885 8080.64 7998.13 101.15
19336 77.0922 7930.98 8000.49 100.09
19337 77.0960 7909.55 8003.17 99.61
19338 77.0997 8027.23 8006.05 100.13
19339 77.1035 7961.61 8009.29 99.59
19340 77.1073 8020.07 8012.83 100.20
19341 77.1110 7904.67 8016.57 98.97
19342 77.1148 7804.09 8020.71 98.90
19343 77.1185 7949.38 8025.07 99.64
19344 77.1223 8000.14 8029.85 100.08
19345 77.1260 7978.77 8034.84 99.91
19346 77.1298 7991.80 8040.29 100.90
19347 77.1335 8026.00 8045.90 101.07
19348 77.1373 7870.36 8052.00 99.71
19349 77.1410 8037.91 8058.24 100.38
19350 77.1448 8137.25 8064.98 100.10
19351 77.1486 8117.55 8072.01 101.69
19352 77.1523 8078.57 8079.10 102.11
19353 77.1561 7899.55 8086.65 99.74
19354 77.1598 8189.64 8094.20 101.43
19355 77.1636 7968.84 8102.11 99.56
19356 77.1673 7957.58 8109.93 100.35
19357 77.1711 7974.98 8118.00 99.74
19358 77.1748 7972.30 8125.85 99.98
19359 77.1786 8191.81 8133.79 101.66
19360 77.1823 8021.06 8141.33 99.97
19361 77.1861 7925.70 8148.75 99.85
19362 77.1899 8054.19 8155.74 101.16
19363 77.1936 7880.18 8162.02 99.39
19364 77.1974 7945.42 8167.80 99.71
19365 77.2011 7955.66 8172.66 99.74
19366 77.2049 7977.32 8176.75 100.22
19367 77.2086 7819.47 8179.76 99.23
19368 77.2124 8164.37 8181.76 101.58
19369 77.2161 7954.74 8182.60 99.84
19370 77.2199 8100.30 8182.28 100.27
19371 77.2204 7937.57 8182.15 99.70
19372 77.2241 7879.66 8180.54 99.06
19373 77.2279 7987.07 8177.72 100.56
19374 77.2317 7963.80 8173.78 100.11
19375 77.2354 7883.19 8168.93 99.85
19376 77.2392 8142.76 8163.03 101.14
19377 77.2429 8076.52 8156.47 101.72
19378 77.2467 8308.25 8149.04 102.66
19379 77.2504 7996.42 8141.22 100.88
19380 77.2542 8146.49 8132.74 101.31
19381 77.2579 7978.18 8124.13 99.26
19382 77.2617 8119.95 8115.05 102.16
19383 77.2654 8097.83 8106.09 102.38
19384 77.2692 7921.68 8096.83 100.31
19385 77.2729 8052.31 8087.87 100.60
19386 77.2767 7993.13 8078.75 99.98
19387 77.2804 7938.87 8070.05 100.14
19388 77.2842 8073.40 8061.30 101.12
19389 77.2880 7964.64 8052.82 100.57
19390 77.2917 7857.77 8044.84 99.95
19391 77.2955 7952.56 8036.96 100.79
19392 77.2992 7966.07 8029.61 100.89
19393 77.3030 8018.20 8022.43 100.70
19394 77.3067 8001.33 8015.79 101.02
19395 77.3105 7948.01 8009.36 100.38
19396 77.3142 8090.26 8003.48 101.30
19397 77.3180 7887.23 7997.85 99.60
19398 77.3217 7941.70 7992.77 100.38
19399 77.3255 7975.02 7987.99 100.77
19400 77.3292 8099.14 7983.75 102.07
19401 77.3330 7954.13 7979.85 100.72
19402 77.3368 7955.42 7976.43 100.59
19403 77.3405 8081.21 7973.56 101.95
19404 77.3443 7944.27 7971.11 100.52
19405 77.3480 7989.43 7969.21 101.68
19406 77.3518 7903.88 7967.78 100.74
19407 77.3555 7746.47 7966.89 99.12
19408 77.3593 7913.65 7966.52 98.96
19409 77.3630 8037.33 7966.67 102.62
19410 77.3668 8044.54 7967.34 101.96
19411 77.3705 7877.94 7968.50 99.89
19412 77.3743 8069.28 7970.20 101.42
19413 77.3780 7932.50 7972.32 99.59
19414 77.3818 7939.27 7974.94 99.31
19415 77.3855 7962.83 7977.85 101.22
19416 77.3893 7952.78 7981.15 100.59
19417 77.3930 7867.12 7984.50 99.85
19418 77.3968 8036.28 7987.92 101.36
19419 77.4006 7923.36 7991.06 100.23
19420 77.4043 7929.48 7993.60 100.00
19421 77.4081 8155.57 7995.40 102.20
19422 77.4118 8011.48 7996.12 101.12
19423 77.4156 7910.15 7995.62 100.40
19424 77.4193 7906.46 7993.85 100.72
19425 77.4231 8066.89 7990.75 101.37
19426 77.4268 7945.75 7986.64 100.10
19427 77.4306 8079.46 7981.53 101.14
19428 77.4343 8171.60 7975.95 102.32
19429 77.4381 7911.56 7969.89 100.70
19430 77.4419 7990.51 7963.73 101.86
19431 77.4456 8053.23 7957.82 101.33
19432 77.4494 7926.75 7952.02 100.93
19433 77.4531 7933.09 7946.70 101.00
19434 77.4569 7939.60 7941.66 99.95
19435 77.4606 7950.63 7937.19 100.75
19436 77.4644 8112.75 7933.09 103.79
19437 77.4681 8063.22 7929.54 102.34
19438 77.4719 8026.72 7926.37 100.80
19439 77.4756 7988.34 7923.71 100.54
19440 77.4794 8054.28 7921.40 101.20
19441 77.4831 8104.06 7919.54 101.10
19442 77.4869 8058.41 7918.00 101.31
19443 77.4907 7989.54 7916.80 100.83
19444 77.4944 7956.92 7915.94 100.70
19445 77.4982 7957.16 7915.35 100.40
19446 77.5019 8089.01 7915.04 101.66
19447 77.5057 8031.85 7914.97 101.39
19448 77.5094 7942.40 7915.13 100.68
19449 77.5132 7931.10 7915.52 100.80
19450 77.5169 8031.65 7916.10 101.61
19451 77.5207 8111.79 7916.91 101.64
19452 77.5244 7870.01 7917.90 100.79
19453 77.5282 7972.69 7919.12 101.12
19454 77.5320 8057.31 7920.55 101.46
19455 77.5357 8083.11 7922.16 101.65
19456 77.5395 8197.18 7924.04 103.10
19457 77.5432 7913.54 7926.10 101.47
19458 77.5470 8025.81 7928.47 102.04
19459 77.5507 7982.50 7931.06 101.39
19460 77.5545 7963.32 7934.02 100.81
19461 77.5582 8187.20 7937.23 100.95
19462 77.5620 7967.46 7940.91 102.75
19463 77.5657 8091.81 7944.90 102.73
19464 77.5695 8012.87 7949.48 101.00
19465 77.5733 8123.83 7954.63 100.61
19466 77.5770 8079.76 7960.26 101.35
19467 77.5808 8148.82 7966.78 101.64
19468 77.5845 8141.45 7973.96 102.75
19469 77.5883 8072.11 7982.33 101.57
19470 77.5920 8167.31 7991.56 102.74
19471 77.5958 8157.23 8002.39 102.82
19472 77.5995 8159.81 8014.36 102.39
19473 77.6033 8086.93 8028.42 102.37
19474 77.6070 8131.66 8043.96 101.85
19475 77.6108 8322.36 8062.16 103.70
19476 77.6146 8254.17 8082.79 103.17
19477 77.6183 8182.81 8105.53 102.99
19478 77.6221 8125.60 8131.79 102.11
19479 77.6258 8363.29 8160.48 104.42
19480 77.6296 8321.76 8193.29 103.58
19481 77.6333 8306.44 8226.29 103.21
19482 77.6371 8313.61 8266.29 102.46
19483 77.6408 8360.38 8308.84 103.85
19484 77.6446 8492.13 8356.00 104.07
19485 77.6484 8438.38 8406.38 104.34
19486 77.6521 8671.92 8458.02 105.90
19487 77.6559 8425.01 8512.73 103.06
19488 77.6596 8612.56 8572.42 104.14
19489 77.6634 8729.26 8626.82 108.37
19490 77.6746 8840.19 8749.89 106.62
19491 77.6784 8936.27 8801.73 108.30
19492 77.6821 9109.08 8836.78 108.61
19493 77.6859 8850.44 8861.14 105.44
19494 77.6897 9212.49 8894.70 108.69
19495 77.6934 9274.47 8923.90 108.95
19496 77.6972 9440.72 8961.56 110.50
19497 77.7009 9550.21 9013.45 111.40
19498 77.7047 9472.72 9057.82 110.82
19499 77.7084 9589.85 9114.98 111.42
19500 77.7122 9524.86 9161.49 111.11
19501 77.7159 9631.92 9216.50 111.13
19502 77.7197 9607.17 9252.80 111.70
19503 77.7235 9711.11 9277.64 112.65
19504 77.7272 9633.46 9286.95 111.93
19505 77.7310 9413.41 9278.70 110.50
19506 77.7347 9315.43 9251.45 109.77
19507 77.7385 9317.25 9205.01 109.01
19508 77.7422 9357.60 9144.20 110.29
19509 77.7460 9086.87 9069.62 107.62
19510 77.7497 9075.05 8989.03 108.26
19511 77.7535 8863.39 8902.21 106.65
19512 77.7573 8881.18 8814.57 105.42
19513 77.7610 8756.00 8730.86 105.06
19514 77.7648 8757.93 8648.61 108.13
19515 77.7685 8632.07 8573.16 105.52
19516 77.7723 8557.89 8501.37 104.41
19517 77.7760 8381.39 8437.20 103.34
19518 77.7798 8447.47 8377.46 103.94
19519 77.7835 8459.24 8325.07 102.87
19520 77.7873 8445.76 8277.07 103.51
19521 77.7911 8251.67 8234.50 103.02
19522 77.7948 8166.21 8197.98 101.65
19523 77.7986 8197.16 8165.11 102.39
19524 77.8023 8132.19 8137.11 102.25
19525 77.8061 8162.39 8112.08 101.38
19526 77.8098 8247.76 8090.84 101.30
19527 77.8136 8168.37 8071.90 102.57
19528 77.8173 8215.45 8055.83 102.42
19529 77.8211 8115.08 8041.46 101.95
19530 77.8249 7983.43 8028.90 99.74
19531 77.8286 8076.17 8018.19 101.33
19532 77.8324 8081.92 8008.44 101.13
19533 77.8361 7967.20 8000.06 99.54
19534 77.8399 7947.45 7992.41 100.24
19535 77.8436 8085.19 7985.73 101.13
19536 77.8474 8022.62 7979.57 101.26
19537 77.8511 7998.27 7974.15 101.49
19538 77.8549 8233.73 7969.10 102.12
19539 77.8587 7842.63 7964.50 97.39
19540 77.8624 8115.22 7960.42 103.70
19541 77.8662 8076.48 7956.58 101.54
19542 77.8699 7816.09 7953.15 99.69
19543 77.8737 7966.71 7949.91 100.56
19544 77.8774 7873.26 7947.01 99.06
19545 77.8812 8027.14 7944.26 100.88
19546 77.8849 8079.57 7941.79 101.14
19547 77.8887 7950.57 7939.45 100.74
19548 77.8925 7993.61 7937.29 101.14
19549 77.8962 7814.96 7935.35 99.93
19550 77.9000 8041.18 7933.51 101.40
19551 77.9037 8028.41 7931.86 101.41
19552 77.9075 7986.44 7930.29 100.75
19553 77.9112 7932.32 7928.88 100.67
19554 77.9150 7917.90 7927.55 100.49
19555 77.9188 8009.35 7926.33 100.79
19556 77.9225 8031.64 7925.23 101.69
19557 77.9263 7858.67 7924.20 99.88
19558 77.9300 7919.48 7923.28 100.18
19559 77.9338 7836.59 7922.41 99.77
19560 77.9375 7846.09 7921.65 99.45
19561 77.9413 8021.85 7920.93 101.27
19562 77.9450 8015.96 7920.30 100.00
19563 77.9488 7993.18 7919.71 101.47
19564 77.9526 7916.89 7919.19 100.10
19565 77.9563 8059.02 7918.74 101.32
19566 77.9601 7901.09 7918.33 98.19
19567 77.9638 8057.96 7917.98 102.62
19568 77.9676 8018.45 7917.67 100.86
19569 77.9713 7876.63 7917.41 99.97
19570 77.9751 7976.98 7917.19 100.59
19571 77.9788 8048.97 7917.02 100.29
19572 77.9826 7842.65 7916.89 99.98
19573 77.9864 7895.27 7916.80 99.97
19574 77.9901 7858.70 7916.74 99.12
19575 77.9939 7964.40 7916.72 100.96
19576 77.9976 7851.83 7916.74 100.30
19577 78.0014 7903.38 7916.78 100.69
19578 78.0051 7913.39 7916.86 100.69
19579 78.0089 7809.81 7916.98 99.68
19580 78.0127 7760.98 7917.12 98.98
19581 78.0164 7882.99 7917.29 100.00
19582 78.0202 7855.69 7917.49 100.26
19583 78.0239 7945.83 7917.71 100.73
19584 78.0277 7876.07 7917.97 99.91
19585 78.0314 7891.02 7918.24 100.36
19586 78.0352 8022.21 7918.55 100.82
19587 78.0390 7909.96 7918.88 99.99
19588 78.0427 8133.55 7919.23 102.54
19589 78.0465 8131.30 7919.61 102.65
19590 78.0502 7979.39 7920.01 101.42
19591 78.0540 7930.32 7920.44 100.73
19592 78.0577 7875.70 7920.88 99.65
19593 78.0615 8024.89 7921.35 101.24
19594 78.0653 8063.89 7921.85 102.83
19595 78.0690 7965.51 7922.35 101.08
19596 78.0728 8001.68 7922.89 100.60
19597 78.0765 7938.86 7923.44 100.42
19598 78.0803 8117.46 7924.02 101.50
19599 78.0840 7833.17 7924.61 100.13
19600 78.0878 7920.53 7925.23 100.74
19601 78.0915 7666.27 7925.86 99.06
19602 78.0953 7778.54 7926.53 99.07
19603 78.0991 7845.19 7927.21 100.36
19604 78.1028 7813.98 7927.90 100.14
19605 78.1066 7931.92 7928.63 100.73
19606 78.1103 7993.56 7929.36 101.02
19607 78.1141 8034.93 7930.13 101.65
19608 78.1178 7911.80 7930.89 100.50
19609 78.1216 7774.24 7931.71 99.00
19610 78.1254 7937.90 7932.53 100.56
19611 78.1291 7874.55 7933.36 100.54
19612 78.1329 7965.80 7934.23 100.68
19613 78.1366 8060.74 7935.10 101.43
19614 78.1404 7937.26 7936.01 100.43
19615 78.1441 7914.58 7936.92 100.30
19616 78.1479 8015.30 7937.88 101.53
19617 78.1517 7903.59 7938.85 100.55
19618 78.1554 7994.72 7939.82 101.16
19619 78.1592 7825.40 7940.84 99.02
19620 78.1629 8094.36 7941.86 103.42
19621 78.1667 7941.25 7942.92 101.00
19622 78.1704 7926.06 7943.98 100.14
19623 78.1742 7854.77 7945.08 99.26
19624 78.1780 8050.25 7946.21 101.14
19625 78.1817 7951.19 7947.34 100.49
19626 78.1855 7986.25 7948.51 100.61
19627 78.1892 7901.75 7949.68 100.17
19628 78.1930 8047.97 7950.91 100.45
19629 78.1967 8016.78 7952.12 100.68
19630 78.2005 7921.94 7953.40 100.13
19631 78.2043 7883.87 7954.70 100.14
19632 78.2080 7995.02 7955.98 100.65
19633 78.2118 7963.25 7957.33 100.62
19634 78.2155 8019.68 7958.67 101.16
19635 78.2193 8042.16 7960.07 100.33
19636 78.2230 8169.88 7961.47 101.84
19637 78.2268 7859.59 7962.92 99.87
19638 78.2306 7877.05 7964.41 100.19
19639 78.2343 7889.24 7965.88 99.35
19640 78.2381 7929.34 7967.42 99.88
19641 78.2418 8009.27 7968.95 101.53
19642 78.2456 7928.97 7970.55 100.04
19643 78.2493 7884.37 7972.14 100.73
19644 78.2531 7914.12 7973.81 100.20
19645 78.2569 7945.61 7975.51 99.86
19646 78.2606 7968.59 7977.19 99.52
19647 78.2644 7961.55 7978.95 102.60
19648 78.2681 8037.14 7980.70 101.37
19649 78.2719 7924.82 7982.53 100.05
19650 78.2756 7928.11 7984.35 99.51
19651 78.2794 7941.58 7986.25 100.01
19652 78.2832 8034.11 7988.18 101.00
19653 78.2869 7971.04 7990.11 101.13
19654 78.2907 7990.60 7992.12 101.06
19655 78.2944 7806.26 7994.12 98.89
19656 78.2982 7958.37 7996.22 100.85
19657 78.3019 8004.93 7998.29 99.94
19658 78.3057 8115.81 8000.47 101.54
19659 78.3095 8105.27 8002.69 101.65
19660 78.3132 8089.85 8004.90 101.39
19661 78.3170 8058.19 8007.21 101.14
19662 78.3207 8048.98 8009.51 101.30
19663 78.3245 7953.02 8011.91 100.54
19664 78.3282 8083.26 8014.30 101.61
19665 78.3320 7855.21 8016.81 99.48
19666 78.3358 8062.22 8019.37 101.18
19667 78.3395 7841.02 8021.90 99.11
19668 78.3433 8083.39 8024.57 101.80
19669 78.3470 7921.36 8027.22 100.06
19670 78.3508 8144.86 8029.99 101.91
19671 78.3545 8000.65 8032.75 101.31
19672 78.3583 8044.03 8035.65 100.18
19673 78.3621 7997.26 8038.60 101.41
19674 78.3658 8099.59 8041.54 102.43
19675 78.3696 8015.96 8044.62 100.71
19676 78.3733 7828.82 8047.70 98.44
19677 78.3771 7965.47 8050.91 100.51
19678 78.3809 7917.89 8054.21 100.81
19679 78.3846 8029.56 8057.48 101.36
19680 78.3884 8104.71 8060.92 101.46
19681 78.3921 8068.95 8064.33 100.57
19682 78.3959 8000.09 8067.93 100.98
19683 78.3996 8081.08 8071.49 101.10
19684 78.4034 7946.96 8075.25 100.69
19685 78.4072 8069.38 8079.08 101.08
19686 78.4109 8106.00 8082.90 101.35
19687 78.4147 8002.90 8086.90 100.93
19688 78.4184 8255.61 8090.89 102.60
19689 78.4222 8197.63 8095.08 101.03
19690 78.4259 8028.47 8099.25 101.65
19691 78.4297 8017.36 8103.62 100.49
19692 78.4335 8003.89 8108.09 100.88
19693 78.4372 7881.56 8112.55 98.45
19694 78.4410 8002.11 8117.22 101.08
19695 78.4447 8041.06 8121.87 100.54
19696 78.4485 8134.28 8126.75 102.21
19697 78.4522 8078.21 8131.61 101.16
19698 78.4560 8090.77 8136.70 101.86
19699 78.4598 8011.98 8141.91 99.95
19700 78.4635 8129.54 8147.08 103.39
19701 78.4673 8225.62 8152.52 102.68
19702 78.4710 8254.07 8157.91 101.36
19703 78.4748 8052.55 8163.57 100.84
19704 78.4786 8243.40 8169.35 102.71
19705 78.4823 8269.73 8175.10 102.49
19706 78.4861 8158.04 8181.13 102.17
19707 78.4898 8055.29 8187.13 101.41
19708 78.4936 8316.26 8193.43 103.12
19709 78.4973 8187.36 8199.70 102.30
19710 78.5011 8114.59 8206.29 101.89
19711 78.5049 8393.70 8213.03 103.71
19712 78.5086 8030.30 8219.76 101.00
19713 78.5124 8359.14 8226.85 103.54
19714 78.5161 8214.50 8233.90 102.45
19715 78.5199 8205.11 8241.36 101.89
19716 78.5236 8242.50 8248.80 102.52
19717 78.5274 8252.03 8256.64 103.08
19718 78.5312 8242.23 8264.71 102.70
19719 78.5349 8275.00 8272.76 103.20
19720 78.5387 8261.92 8281.28 102.80
19721 78.5424 8416.16 8289.80 104.50
19722 78.5462 8245.83 8298.82 102.08
19723 78.5500 8198.48 8308.08 102.14
19724 78.5537 8131.05 8317.38 102.00
19725 78.5575 8283.47 8327.20 102.58
19726 78.5612 8232.10 8337.06 101.24
19727 78.5650 8269.28 8347.48 105.65
19728 78.5687 8304.52 8357.95 103.84
19729 78.5725 8217.17 8369.02 102.09
19730 78.5763 8139.78 8380.43 101.57
19731 78.5800 8383.81 8391.92 103.86
19732 78.5838 8256.83 8404.06 102.69
19733 78.5875 8189.26 8416.27 100.88
19734 78.5913 8359.00 8429.20 103.45
19735 78.5951 8441.94 8442.59 103.96
19736 78.5988 8370.62 8456.01 103.63
19737 78.6026 8376.01 8470.27 103.58
19738 78.6063 8412.38 8484.59 103.46
19739 78.6101 8472.14 8499.82 103.70
19740 78.6138 8435.85 8515.11 103.80
19741 78.6176 8535.79 8531.43 104.01
19742 78.6214 8460.10 8548.25 103.72
19743 78.6251 8614.40 8565.25 105.11
19744 78.6289 8602.90 8583.27 104.97
19745 78.6326 8424.45 8601.45 103.73
19746 78.6364 8579.74 8620.77 104.81
19747 78.6402 8363.52 8640.82 103.61
19748 78.6439 8471.98 8661.03 104.52
19749 78.6477 8552.80 8682.60 104.55
19750 78.6514 8610.92 8704.34 105.40
19751 78.6552 8539.40 8727.53 104.76
19752 78.6589 8704.63 8751.00 105.73
19753 78.6627 8606.98 8776.02 103.84
19754 78.6665 8837.92 8802.07 109.04
19755 78.6702 8676.04 8828.38 105.74
19756 78.6740 8703.04 8856.56 105.31
19757 78.6777 8767.37 8885.04 105.35
19758 78.6815 8914.32 8915.58 107.15
19759 78.6852 8842.16 8946.48 106.24
19760 78.6890 8762.54 8979.64 106.32
19761 78.6928 8895.57 9014.18 106.76
19762 78.6965 8934.45 9049.32 107.59
19763 78.7003 9059.88 9086.96 107.38
19764 78.7040 9094.20 9125.29 108.23
19765 78.7078 9185.23 9166.39 108.86
19766 78.7116 9025.64 9209.42 107.60
19767 78.7153 9349.08 9253.33 109.75
19768 78.7191 9305.04 9300.51 110.18
19769 78.7228 9395.90 9348.72 109.86
19770 78.7266 9325.38 9400.59 109.71
19771 78.7304 9410.97 9455.19 110.10
19772 78.7341 9451.14 9510.89 111.28
19773 78.7379 9639.21 9571.19 111.83
19774 78.7416 9893.03 9632.82 113.76
19775 78.7454 9618.43 9699.65 112.41
19776 78.7491 9888.98 9768.06 113.77
19777 78.7529 10051.10 9842.38 115.19
19778 78.7567 10061.70 9920.79 114.11
19779 78.7604 10141.20 10001.60 112.80
19780 78.7642 10386.90 10089.30 117.03
19781 78.7679 10458.30 10179.90 118.75
19782 78.7717 10627.70 10278.40 118.70
19783 78.7755 10647.20 10383.30 117.96
19784 78.7792 10701.00 10491.90 118.48
19785 78.7830 10960.00 10610.50 120.22
19786 78.7867 11249.50 10733.80 122.14
19787 78.7905 11231.10 10868.90 122.36
19788 78.7942 11522.90 11009.90 123.89
19789 78.7980 11925.20 11165.00 126.25
19790 78.8018 12082.50 11332.30 127.32
19791 78.8055 12279.80 11507.80 127.66
19792 78.8093 12543.00 11702.40 130.18
19793 78.8130 12777.60 11908.10 130.53
19794 78.8168 13107.60 12137.90 133.27
19795 78.8206 13773.80 12389.30 137.21
19796 78.8243 14106.40 12658.10 139.16
19797 78.8281 14351.40 12962.10 140.07
19798 78.8318 14891.40 13289.90 143.73
19799 78.8356 15243.00 13663.70 144.72
19800 78.8394 15673.20 14081.40 147.35
19801 78.8431 16731.10 14537.50 152.76
19802 78.8469 17215.90 15063.40 155.90
19803 78.8506 17781.00 15641.10 159.23
19804 78.8544 18393.50 16310.40 162.22
19805 78.8581 19231.10 17048.30 165.76
19806 78.8619 19958.50 17904.90 167.15
19807 78.8657 21043.90 18877.60 179.19
19808 78.8694 22354.60 19945.60 182.21
19809 78.8732 22881.10 21186.60 183.45
19810 78.8769 24740.90 22543.50 191.90
19811 78.8807 25480.60 24111.10 195.89
19812 78.8845 26681.00 25862.20 201.34
19813 78.8882 28094.70 27759.70 207.06
19814 78.8920 30066.90 29910.00 215.27
19815 78.8957 31906.60 32208.40 224.64
19816 78.8995 33944.20 34770.70 231.05
19817 78.9033 36012.80 37533.90 241.39
19818 78.9070 38412.30 40391.10 250.68
19819 78.9108 41520.30 43463.20 263.71
19820 78.9145 45006.80 46558.00 276.63
19821 78.9183 47908.30 49794.00 287.87
19822 78.9220 52259.50 52942.00 304.68
19823 78.9258 56018.90 56136.00 317.16
19824 78.9296 60075.40 59225.80 326.75
19825 78.9333 65069.40 62097.60 347.90
19826 78.9371 69084.50 64858.90 358.65
19827 78.9408 72706.40 67336.60 373.12
19828 78.9446 76266.90 69625.10 389.86
19829 78.9484 79510.50 71617.00 397.02
19830 78.9521 80301.50 73221.20 400.21
19831 78.9559 80995.60 74447.80 402.72
19832 78.9596 80238.00 75149.20 393.42
19833 78.9634 79810.80 75268.90 400.24
19834 78.9672 77897.70 74701.80 399.33
19835 78.9709 74520.00 73445.80 380.17
19836 78.9747 70570.80 71443.10 362.45
19837 78.9784 66302.50 68853.10 354.59
19838 78.9822 62300.40 65650.60 339.68
19839 78.9859 58787.40 62132.30 328.02
19840 78.9897 54619.10 58267.70 313.74
19841 78.9935 50850.00 54283.10 298.75
19842 78.9972 46717.90 50417.90 284.30
19843 79.0010 43586.00 46562.80 271.66
19844 79.0047 40851.80 42980.40 261.89
19845 79.0085 37653.70 39532.90 247.75
19846 79.0123 35265.40 36343.70 238.89
19847 79.0160 32646.60 33496.00 226.95
19848 79.0198 30464.20 30844.40 219.08
19849 79.0235 28421.60 28516.50 209.19
19850 79.0273 26943.00 26380.40 204.13
19851 79.0311 25379.20 24477.10 195.21
19852 79.0348 23631.20 22844.50 188.11
19853 79.0386 22616.50 21363.00 182.94
19854 79.0423 21086.50 20098.90 175.46
19855 79.0461 19948.40 18957.90 170.32
19856 79.0498 18691.00 17987.40 165.19
19857 79.0536 18082.20 17112.50 161.10
19858 79.0574 17508.80 16348.30 157.05
19859 79.0611 16139.90 15693.90 148.09
19860 79.0649 16569.40 15102.50 155.90
19861 79.0686 15422.20 14592.70 147.84
19862 79.0724 14712.50 14128.10 142.75
19863 79.0762 14248.70 13714.00 139.89
19864 79.0799 13830.40 13351.80 137.11
19865 79.0837 13476.30 13016.70 134.31
19866 79.0874 13146.30 12720.60 133.57
19867 79.0912 12755.80 12444.00 131.53
19868 79.0950 12429.30 12191.10 129.71
19869 79.0987 12074.40 11964.70 127.64
19870 79.1025 11949.40 11750.20 125.57
19871 79.1062 11573.10 11557.40 122.97
19872 79.1100 11324.70 11373.30 123.21
19873 79.1138 11116.30 11202.60 121.16
19874 79.1175 11020.40 11047.40 121.30
19875 79.1213 10720.90 10898.80 120.10
19876 79.1250 10451.00 10763.20 117.32
19877 79.1288 10639.30 10632.80 118.05
19878 79.1325 10382.10 10513.50 117.18
19879 79.1363 10375.00 10398.50 116.89
19880 79.1401 10036.20 10290.30 114.41
19881 79.1438 9939.66 10190.90 114.81
19882 79.1476 9936.48 10094.80 113.28
19883 79.1513 9836.56 10005.80 113.51
19884 79.1551 9770.63 9919.91 113.17
19885 79.1589 9618.71 9838.40 111.30
19886 79.1626 9599.48 9763.53 111.06
19887 79.1664 9614.58 9690.43 114.11
19888 79.1701 9500.64 9623.04 111.38
19889 79.1739 9409.75 9557.12 110.09
19890 79.1777 9279.07 9494.60 109.21
19891 79.1814 9425.09 9436.60 110.68
19892 79.1852 9093.42 9379.94 108.10
19893 79.1889 9031.94 9327.29 107.88
19894 79.1927 9253.34 9275.76 109.50
19895 79.1964 9129.14 9227.82 108.71
19896 79.2002 9156.55 9180.84 108.94
19897 79.2040 9000.88 9135.95 108.15
19898 79.2077 8852.20 9094.09 106.67
19899 79.2115 9151.35 9052.99 108.84
19900 79.2152 8841.77 9014.61 106.98
19901 79.2190 8943.53 8976.87 107.54
19902 79.2228 8994.23 8940.63 107.93
19903 79.2265 8836.81 8906.86 106.46
19904 79.2303 8673.21 8873.47 105.35
19905 79.2340 8760.27 8842.31 106.40
19906 79.2378 8781.24 8811.48 106.00
19907 79.2416 8598.05 8781.89 105.00
19908 79.2453 8707.47 8754.13 106.27
19909 79.2491 8494.64 8726.72 104.99
19910 79.2528 8761.70 8700.98 106.74
19911 79.2566 8560.86 8675.54 104.79
19912 79.2604 8687.66 8651.01 104.37
19913 79.2641 8737.01 8627.95 106.17
19914 79.2679 8470.54 8605.12 105.89
19915 79.2716 8498.38 8583.63 104.46
19916 79.2754 8458.77 8562.34 103.41
19917 79.2792 8493.00 8541.70 103.73
19918 79.2829 8648.70 8522.39 104.32
19919 79.2867 8322.95 8503.09 103.24
19920 79.2904 8528.84 8484.99 104.36
19921 79.2942 8453.36 8466.95 104.30
19922 79.2979 8355.30 8449.99 103.33
19923 79.3017 8441.25 8433.07 104.11
19924 79.3055 8339.58 8416.72 103.33
19925 79.3092 8463.91 8401.26 104.07
19926 79.3130 8582.25 8385.89 105.35
19927 79.3167 8340.63 8371.36 103.49
19928 79.3205 8287.39 8356.89 103.12
19929 79.3243 8342.28 8342.86 103.64
19930 79.3280 8283.44 8329.57 103.02
19931 79.3318 8255.46 8316.33 102.95
19932 79.3355 8370.05 8303.80 103.37
19933 79.3393 8035.93 8291.30 100.97
19934 79.3431 8465.05 8279.14 104.42
19935 79.3468 8073.10 8267.65 101.31
19936 79.3506 8279.95 8256.15 103.13
19937 79.3543 8337.42 8245.28 103.47
19938 79.3581 8165.25 8234.39 101.71
19939 79.3619 8192.32 8223.81 100.96
19940 79.3656 8327.08 8213.78 105.30
19941 79.3694 8296.38 8203.75 103.66
19942 79.3731 8088.93 8194.23 101.12
19943 79.3769 8332.35 8184.71 103.27
19944 79.3807 8291.53 8175.44 102.84
19945 79.3844 8150.93 8166.63 102.53
19946 79.3882 8218.66 8157.82 102.17
19947 79.3919 8087.19 8149.45 101.71
19948 79.3957 8181.24 8141.07 102.64
19949 79.3995 8272.13 8132.90 103.36
19950 79.4032 8110.19 8125.13 101.72
19951 79.4070 8278.07 8117.33 103.08
19952 79.4107 8215.76 8109.96 102.77
19953 79.4145 8152.43 8102.53 102.36
19954 79.4182 8219.38 8095.50 101.64
19955 79.4220 8105.40 8088.43 101.25
19956 79.4258 7949.11 8081.54 100.99
19957 79.4295 8396.43 8074.98 104.23
19958 79.4333 8043.64 8068.42 101.41
19959 79.4370 8097.96 8062.17 101.66
19960 79.4408 8049.75 8055.90 101.35
19961 79.4446 7811.16 8049.78 99.41
19962 79.4483 8089.74 8043.96 101.87
19963 79.4521 8168.64 8038.12 102.38
19964 79.4558 8053.54 8032.57 101.74
19965 79.4596 7986.24 8027.00 100.68
19966 79.4634 8212.37 8021.55 103.12
19967 79.4671 8180.02 8016.39 104.10
19968 79.4709 7969.20 8011.19 101.52
19969 79.4746 7942.36 8006.27 100.43
19970 79.4784 7989.64 8001.32 101.31
19971 79.4822 8013.30 7996.50 100.81
19972 79.4859 8045.53 7991.91 101.86
19973 79.4897 8058.92 7987.33 101.50
19974 79.4934 7964.79 7982.96 100.70
19975 79.4972 8099.86 7978.60 101.68
19976 79.5010 8116.90 7974.36 101.95
19977 79.5047 8023.86 7970.32 101.96
19978 79.5085 8044.46 7966.30 102.01
19979 79.5122 8200.41 7962.48 103.09
19980 79.5160 7909.17 7958.68 101.16
19981 79.5198 7951.06 7954.98 101.03
19982 79.5235 7878.98 7951.50 100.38
19983 79.5273 8008.51 7948.03 101.20
19984 79.5310 7985.59 7944.77 101.14
19985 79.5348 7936.74 7941.52 100.90
19986 79.5385 8017.85 7938.49 100.65
19987 79.5423 7961.64 7935.48 101.19
19988 79.5461 8003.27 7932.60 101.24
19989 79.5498 7967.02 7929.92 101.66
19990 79.5536 7914.24 7927.29 100.79
19991 79.5573 7873.05 7924.86 100.01
19992 79.5611 7961.35 7922.50 99.66
19993 79.5649 7994.71 7920.28 103.37
19994 79.5686 7962.66 7918.25 101.81
19995 79.5724 8179.00 7916.32 102.39
19996 79.5761 7885.12 7914.59 99.42
19997 79.5799 8027.50 7912.97 101.22
19998 79.5837 7902.82 7911.52 100.73
19999 79.5874 7964.99 7910.27 101.25
20000 79.5912 8148.21 7909.17 102.34
20001 79.5949 7832.13 7908.28 99.94
20002 79.5987 8101.83 7907.55 101.53
20003 79.6025 7892.95 7907.03 100.50
20004 79.6062 7928.70 7906.72 101.17
20005 79.6100 7714.38 7906.61 98.89
20006 79.6137 7956.00 7906.73 100.20
20007 79.6175 7880.00 7907.08 100.23
20008 79.6213 7883.10 7907.67 100.38
20009 79.6250 7768.73 7908.48 99.15
20010 79.6288 7872.71 7909.56 100.00
20011 79.6325 8008.64 7910.87 100.72
20012 79.6363 7867.99 7912.48 99.75
20013 79.6400 7984.25 7914.32 100.48
20014 79.6438 8178.34 7916.48 100.78
20015 79.6476 7833.90 7918.93 99.14
20016 79.6513 7926.47 7921.58 100.75
20017 79.6551 7747.76 7924.60 98.82
20018 79.6588 7908.68 7927.81 100.09
20019 79.6626 7786.37 7931.41 98.05
20020 79.6664 7933.12 7935.27 102.34
20021 79.6701 7927.27 7939.31 100.64
20022 79.6739 7784.60 7943.71 99.38
20023 79.6776 7938.31 7948.24 99.67
20024 79.6814 7976.56 7953.12 99.71
20025 79.6852 7839.70 7958.20 98.87
20026 79.6889 7904.35 7963.32 99.67
20027 79.6927 7767.48 7968.70 98.27
20028 79.6964 8014.23 7974.03 99.16
20029 79.7002 7956.18 7979.54 100.20
20030 79.7040 7847.20 7985.03 99.54
20031 79.7077 8020.27 7990.27 100.79
20032 79.7115 7886.78 7995.48 99.83
20033 79.7152 7843.84 8000.29 98.65
20034 79.7190 7884.69 8004.90 100.06
20035 79.7228 7864.03 8009.04 99.32
20036 79.7265 7838.58 8012.55 99.38
20037 79.7303 7805.54 8015.51 99.19
20038 79.7340 7974.03 8017.69 99.97
20039 79.7378 7941.07 8019.13 99.21
20040 79.7416 7834.22 8019.68 98.51
20041 79.7453 7870.57 8019.34 99.75
20042 79.7491 7999.37 8018.03 99.58
20043 79.7528 7768.80 8015.84 98.95
20044 79.7566 7987.39 8012.66 100.14
20045 79.7603 7855.19 8008.68 98.60
20046 79.7641 8004.97 8003.76 100.47
20047 79.7679 8015.79 7998.05 101.90
20048 79.7716 7860.85 7991.86 99.88
20049 79.7754 7775.64 7984.90 98.61
20050 79.7791 7657.13 7977.69 97.64
20051 79.7829 7891.41 7969.92 99.52
20052 79.7867 7964.89 7961.90 99.08
20053 79.7904 7958.00 7953.96 99.78
20054 79.7942 7897.00 7945.79 99.66
20055 79.7979 8036.72 7937.91 100.67
20056 79.8017 7770.79 7930.00 98.41
20057 79.8055 7892.32 7922.35 99.66
20058 79.8092 7929.80 7915.24 99.92
20059 79.8130 8053.14 7908.37 100.78
20060 79.8167 7994.64 7902.16 99.84
20061 79.8205 7846.01 7896.34 99.52
20062 79.8243 7927.57 7891.15 99.74
20063 79.8280 7696.47 7886.75 98.60
20064 79.8318 7752.45 7882.93 98.48
20065 79.8355 7785.70 7879.91 99.27
20066 79.8393 7796.64 7877.53 98.28
20067 79.8431 7853.23 7875.88 99.56
20068 79.8468 7850.58 7874.91 100.11
20069 79.8506 7865.19 7874.53 99.09
20070 79.8543 7794.69 7874.66 99.34
20071 79.8581 7844.39 7875.20 98.73
20072 79.8618 7650.32 7876.01 96.69
20073 79.8656 7848.11 7876.97 100.19
20074 79.8694 7999.47 7877.92 101.84
20075 79.8731 7893.38 7878.67 99.69
20076 79.8769 7681.50 7879.09 97.83
20077 79.8806 7919.67 7878.97 99.37
20078 79.8844 7629.76 7878.10 97.62
20079 79.8882 7900.05 7876.26 100.18
20080 79.8919 7729.95 7873.32 97.54
20081 79.8957 7712.49 7868.93 98.03
20082 79.8994 7804.25 7863.21 99.19
20083 79.9032 7886.09 7855.82 99.51
20084 79.9070 7776.66 7847.00 99.37
20085 79.9107 7705.17 7837.27 98.70
20086 79.9145 7716.77 7826.34 97.83
20087 79.9182 7820.45 7815.15 99.40
20088 79.9220 7668.85 7803.41 98.77
20089 79.9258 7855.36 7791.69 99.74
20090 79.9295 7888.14 7780.50 99.91
20091 79.9333 7658.13 7769.44 98.20
20092 79.9370 7656.40 7759.16 98.66
20093 79.9408 7788.76 7749.20 99.38
20094 79.9445 7675.61 7740.11 98.58
20095 79.9483 7627.59 7731.42 97.57
20096 79.9521 7752.63 7723.35 100.04
20097 79.9558 7684.54 7716.10 98.46
20098 79.9596 7478.46 7709.22 96.87
20099 79.9633 7641.92 7703.04 98.03
20100 79.9671 7684.02 7697.18 100.23
20101 79.9709 7697.30 7691.79 98.77
20102 79.9746 7577.86 7686.92 97.92
20103 79.9784 7642.58 7682.30 98.16
20104 79.9821 7655.95 7678.10 97.89
20105 79.9859 7603.16 7674.08 97.16
20106 79.9897 7573.20 7670.31 96.88
20107 79.9934 7537.42 7666.85 97.65
20108 79.9972 7602.87 7663.50 97.11
20109 80.0009 7723.83 7660.38 98.90
20110 80.0047 7661.56 7657.34 98.66
20111 80.0085 7633.19 7654.41 97.72
20112 80.0122 7497.65 7651.68 96.60
20113 80.0160 7650.99 7648.96 98.17
20114 80.0197 7634.40 7646.40 97.81
20115 80.0235 7675.51 7643.85 98.68
20116 80.0273 7707.34 7641.37 98.52
20117 80.0310 7725.96 7639.02 97.84
20118 80.0348 7592.98 7636.65 100.26
20119 80.0385 7662.20 7634.40 97.92
20120 80.0423 7588.56 7632.13 97.01
20121 80.0460 7617.51 7629.97 97.83
20122 80.0498 7650.54 7627.79 97.54
20123 80.0536 7531.20 7625.65 97.67
20124 80.0573 7691.65 7623.59 98.93
20125 80.0611 7623.84 7621.52 97.32
20126 80.0648 7795.12 7619.52 100.31
20127 80.0686 7678.26 7617.51 100.36
20128 80.0724 7727.52 7615.52 98.68
20129 80.0761 7489.95 7613.61 97.04
20130 80.0799 7596.51 7611.67 97.59
20131 80.0836 7640.34 7616.82 98.77
20132 80.0874 7627.55 7614.97 98.97
20133 80.0912 7684.76 7613.13 98.01
20134 80.0949 7372.71 7611.37 96.46
20135 80.0987 7841.93 7609.57 99.99
20136 80.1024 7531.20 7607.84 97.45
20137 80.1062 7513.99 7606.08 97.71
20138 80.1100 7587.97 7604.34 98.46
20139 80.1137 7576.94 7602.65 98.43
20140 80.1175 7566.35 7600.94 98.65
20141 80.1212 7646.13 7599.29 98.88
20142 80.1250 7552.22 7597.60 98.01
20143 80.1287 7472.03 7595.97 97.20
20144 80.1325 7648.53 7601.11 98.75
20145 80.1363 7659.37 7599.50 99.10
20146 80.1400 7530.25 7604.72 97.45
20147 80.1438 7591.78 7603.18 97.79
20148 80.1475 7546.38 7601.94 97.64
20149 80.1513 7556.22 7600.42 98.42
20150 80.1551 7543.59 7598.91 98.41
20151 80.1588 7716.41 7597.45 99.01
20152 80.1626 7508.09 7595.96 96.23
20153 80.1663 7668.34 7594.52 100.36
20154 80.1701 7599.97 7593.05 98.98
20155 80.1739 7646.75 7591.59 97.85
20156 80.1776 7605.41 7590.18 97.17
20157 80.1814 7411.79 7582.88 97.30
20158 80.1851 7543.09 7581.52 98.01
20159 80.1889 7472.91 7580.13 97.03
20160 80.1926 7558.05 7578.78 97.98
20161 80.1964 7596.78 7577.40 98.23
20162 80.2002 7602.59 7563.73 98.55
20163 80.2039 7576.63 7562.48 96.77
20164 80.2077 7403.15 7561.20 96.73
20165 80.2114 7401.89 7559.96 97.04
20166 80.2152 7486.39 7558.69 96.97
20167 80.2190 7572.25 7557.42 98.46
20168 80.2227 7416.63 7556.20 96.16
20169 80.2265 7421.63 7542.88 96.97
20170 80.2302 7585.82 7541.74 98.34
20171 80.2340 7594.35 7528.49 98.32
20172 80.2378 7626.53 7527.40 98.54
20173 80.2415 7458.52 7513.57 96.70
20174 80.2453 7453.87 7512.56 97.44
20175 80.2490 7511.83 7511.58 97.17
20176 80.2528 7644.45 7510.58 98.48
20177 80.2566 7540.48 7509.58 97.40
20178 80.2603 7504.61 7508.61 97.19
20179 80.2641 7443.68 7507.61 95.54
20180 80.2678 7430.91 7506.65 98.84
20181 80.2716 7604.55 7505.66 98.21
20182 80.2753 7490.11 7504.70 96.66
20183 80.2791 7404.61 7503.72 95.80
20184 80.2829 7411.50 7502.74 95.44
20185 80.2866 7375.31 7501.78 96.16
20186 80.2904 7380.45 7500.81 96.57
20187 80.2941 7392.72 7499.86 96.28
20188 80.2979 7530.05 7498.89 97.56
20189 80.3017 7529.44 7497.92 97.58
20190 80.3054 7439.77 7496.98 96.31
20191 80.3092 7442.07 7496.02 97.17
20192 80.3129 7418.44 7495.08 96.86
20193 80.3167 7274.28 7494.13 95.87
20194 80.3204 7361.99 7493.20 96.20
20195 80.3242 7449.02 7492.24 96.99
20196 80.3280 7363.75 7491.29 96.35
20197 80.3317 7385.75 7490.37 95.18
20198 80.3355 7514.31 7489.42 97.71
20199 80.3392 7434.80 7488.50 97.20
20200 80.3430 7469.04 7487.56 97.16
20201 80.3468 7451.78 7486.63 96.88
20202 80.3505 7420.41 7485.71 97.14
20203 80.3543 7344.04 7484.78 96.41
20204 80.3580 7577.59 7483.87 97.95
20205 80.3618 7422.34 7482.94 95.57
20206 80.3656 7598.95 7482.02 99.50
20207 80.3693 7581.15 7481.12 99.10
20208 80.3731 7536.62 7480.19 97.22
20209 80.3768 7639.21 7479.30 98.11
20210 80.3806 7432.52 7478.38 96.32
20211 80.3844 7430.31 7477.47 96.74
20212 80.3881 7355.11 7476.58 96.64
20213 80.3919 7618.36 7475.67 98.23
20214 80.3956 7560.57 7474.79 97.44
20215 80.3994 7489.87 7473.88 97.09
20216 80.4031 7514.94 7473.00 97.49
20217 80.4069 7399.67 7472.11 96.86
20218 80.4107 7447.50 7471.21 97.18
20219 80.4144 7331.69 7470.34 96.33
20220 80.4182 7514.63 7469.44 98.01
20221 80.4219 7428.86 7468.58 96.94
20222 80.4257 7268.41 7467.69 95.75
20223 80.4294 7598.87 7466.84 98.66
20224 80.4332 7258.51 7465.96 95.81
20225 80.4370 7459.59 7465.08 96.67
20226 80.4407 7453.62 7464.23 96.97
20227 80.4445 7441.59 7463.36 97.87
20228 80.4482 7494.86 7462.51 96.13
20229 80.4520 7429.61 7461.65 97.24
20230 80.4558 7448.33 7460.78 97.45
20231 80.4595 7457.63 7459.95 96.92
20232 80.4633 7283.49 7459.08 94.88
20233 80.4670 7487.23 7458.25 98.88
20234 80.4708 7482.17 7457.40 97.94
20235 80.4746 7330.12 7456.56 96.18
20236 80.4783 7385.72 7455.74 96.50
20237 80.4821 7449.11 7454.90 95.32
20238 80.4858 7445.64 7454.08 97.02
20239 80.4896 7496.73 7453.25 97.19
20240 80.4933 7314.82 7452.44 96.16
20241 80.4971 7419.54 7451.62 96.20
20242 80.5009 7383.36 7450.80 96.70
20243 80.5046 7491.39 7450.00 97.52
20244 80.5084 7306.44 7449.19 95.85
20245 80.5121 7396.85 7448.40 96.60
20246 80.5159 7446.08 7447.59 97.19
20247 80.5197 7555.71 7446.79 98.39
20248 80.5234 7163.82 7446.02 95.02
20249 80.5272 7398.88 7445.22 96.71
20250 80.5309 7501.54 7444.45 96.45
20251 80.5347 7381.19 7443.67 96.55
20252 80.5385 7456.05 7442.89 96.21
20253 80.5422 7296.69 7442.13 95.00
20254 80.5460 7542.53 7441.36 98.65
20255 80.5497 7310.61 7440.61 95.83
20256 80.5535 7266.28 7439.85 95.93
20257 80.5572 7390.66 7439.11 96.34
20258 80.5610 7376.42 7438.36 96.65
20259 80.5648 7318.77 7437.61 95.77
20260 80.5685 7461.24 7436.89 98.85
20261 80.5723 7438.51 7436.16 96.75
20262 80.5760 7228.86 7435.44 94.51
20263 80.5798 7339.73 7434.72 95.99
20264 80.5835 7367.67 7434.02 96.48
20265 80.5873 7457.12 7433.30 96.26
20266 80.5911 7373.93 7432.59 95.99
20267 80.5948 7388.21 7431.91 96.10
20268 80.5986 7427.67 7431.21 96.08
20269 80.6023 7224.23 7430.54 95.67
20270 80.6061 7228.55 7429.85 95.25
20271 80.6099 7241.28 7429.17 95.61
20272 80.6136 7384.02 7428.52 96.49
20273 80.6174 7370.24 7427.85 96.37
20274 80.6211 7427.02 7427.21 96.89
20275 80.6249 7347.40 7426.56 96.45
20276 80.6286 7309.76 7425.93 95.20
20277 80.6324 7198.80 7425.29 95.35
20278 80.6362 7223.01 7424.67 95.18
20279 80.6399 7367.89 7424.06 95.81
20280 80.6437 7359.32 7423.44 95.91
20281 80.6474 7373.84 7422.85 96.73
20282 80.6512 7333.73 7422.25 95.67
20283 80.6550 7226.94 7421.66 95.66
20284 80.6587 7389.07 7421.09 96.39
20285 80.6625 7377.02 7420.52 94.81
20286 80.6662 7410.82 7419.97 96.18
20287 80.6700 7373.53 7419.41 97.94
20288 80.6737 7402.53 7418.88 96.66
20289 80.6775 7272.03 7418.33 95.05
20290 80.6813 7369.15 7417.80 95.35
20291 80.6850 7198.66 7417.30 94.82
20292 80.6888 7210.72 7416.79 95.13
20293 80.6925 7240.34 7416.30 94.93
20294 80.6963 7317.19 7415.81 96.30
20295 80.7000 7223.86 7415.34 94.91
20296 80.7038 7518.99 7414.87 96.95
20297 80.7076 7308.48 7414.41 95.56
20298 80.7113 7359.04 7413.98 96.10
20299 80.7151 7315.41 7413.54 95.57
20300 80.7188 7229.13 7413.12 94.32
20301 80.7226 7195.38 7412.71 94.93
20302 80.7264 7458.13 7412.31 96.65
20303 80.7301 7305.99 7411.93 95.66
20304 80.7339 7399.35 7411.56 96.27
20305 80.7376 7365.21 7411.20 96.08
20306 80.7414 7225.60 7410.85 94.83
20307 80.7451 7420.48 7410.53 97.25
20308 80.7489 7374.91 7410.20 96.36
20309 80.7527 7191.80 7409.90 95.52
20310 80.7564 7188.33 7409.61 93.84
20311 80.7602 7335.31 7409.33 96.14
20312 80.7639 7246.85 7409.07 93.10
20313 80.7677 7458.56 7408.82 99.03
20314 80.7715 7369.54 7408.59 96.91
20315 80.7752 7332.19 7408.38 95.90
20316 80.7790 7357.40 7408.18 94.71
20317 80.7827 7331.24 7408.01 95.84
20318 80.7865 7418.02 7407.84 96.07
20319 80.7902 7340.50 7407.70 96.04
20320 80.7940 7406.08 7407.57 96.15
20321 80.7978 7342.38 7407.46 96.21
20322 80.8015 7279.37 7407.37 95.54
20323 80.8053 7248.91 7407.30 95.59
20324 80.8090 7444.84 7407.25 97.41
20325 80.8128 7237.02 7407.22 95.68
20326 80.8165 7337.41 7407.21 96.19
20327 80.8203 7440.13 7407.22 96.79
20328 80.8241 7328.05 7407.25 96.34
20329 80.8278 7316.63 7407.31 95.62
20330 80.8316 7376.25 7407.39 96.62
20331 80.8353 7352.54 7407.49 95.13
20332 80.8391 7394.26 7407.62 96.53
20333 80.8428 7392.21 7407.77 95.99
20334 80.8466 7482.82 7407.95 97.94
20335 80.8504 7342.17 7408.16 95.14
20336 80.8541 7406.00 7408.39 97.05
20337 80.8579 7389.10 7408.65 95.88
20338 80.8616 7374.11 7408.93 95.86
20339 80.8654 7427.07 7409.25 96.90
20340 80.8691 7272.08 7409.59 96.29
20341 80.8729 7399.30 7409.97 96.27
20342 80.8767 7499.99 7410.38 97.00
20343 80.8804 7286.92 7410.82 95.36
20344 80.8842 7290.33 7411.30 96.03
20345 80.8879 7370.65 7411.80 96.55
20346 80.8917 7379.63 7412.35 95.80
20347 80.8955 7297.34 7412.94 95.93
20348 80.8992 7306.27 7413.54 96.22
20349 80.9030 7494.68 7414.21 97.30
20350 80.9067 7262.96 7414.89 95.90
20351 80.9105 7260.04 7415.64 95.60
20352 80.9142 7302.58 7416.40 95.60
20353 80.9180 7392.59 7417.23 96.50
20354 80.9218 7470.90 7418.11 97.10
20355 80.9255 7372.96 7419.01 96.54
20356 80.9293 7435.47 7419.98 95.92
20357 80.9330 7338.53 7420.97 95.66
20358 80.9368 7182.66 7422.03 93.94
20359 80.9405 7248.23 7423.13 95.40
20360 80.9443 7333.59 7424.30 96.48
20361 80.9480 7437.80 7425.50 97.15
20362 80.9518 7453.96 7426.78 97.31
20363 80.9556 7363.54 7428.13 95.81
20364 80.9593 7394.89 7429.50 96.20
20365 80.9631 7400.26 7430.97 95.82
20366 80.9668 7368.39 7432.46 96.20
20367 80.9706 7425.66 7434.06 96.36
20368 80.9744 7426.25 7435.73 96.40
20369 80.9781 7540.41 7437.42 98.57
20370 80.9819 7481.09 7439.24 98.28
20371 80.9856 7552.17 7441.08 97.68
20372 80.9894 7354.00 7443.05 96.18
20373 80.9931 7412.07 7445.04 96.43
20374 80.9969 7335.12 7447.18 96.01
20375 81.0007 7571.46 7449.41 97.57
20376 81.0044 7508.48 7451.66 97.28
20377 81.0082 7361.00 7454.07 96.97
20378 81.0119 7423.94 7456.52 97.29
20379 81.0157 7370.14 7459.12 96.66
20380 81.0194 7557.58 7461.76 98.03
20381 81.0232 7521.03 7464.57 97.54
20382 81.0270 7396.86 7467.50 95.69
20383 81.0307 7471.75 7470.47 96.34
20384 81.0345 7457.33 7473.64 96.55
20385 81.0382 7304.00 7476.85 96.27
20386 81.0420 7381.02 7480.27 96.43
20387 81.0457 7413.03 7483.74 97.13
20388 81.0495 7466.76 7487.43 97.40
20389 81.0533 7552.37 7491.29 98.49
20390 81.0570 7550.42 7495.17 97.72
20391 81.0608 7541.02 7499.34 97.88
20392 81.0645 7433.87 7503.54 95.74
20393 81.0683 7637.93 7508.04 98.99
20394 81.0720 7519.92 7512.59 98.03
20395 81.0758 7488.20 7517.46 97.36
20396 81.0796 7616.16 7522.52 98.72
20397 81.0833 7586.91 7527.65 98.45
20398 81.0871 7694.46 7533.12 99.05
20399 81.0908 7585.50 7538.67 98.71
20400 81.0946 7546.25 7544.59 97.45
20401 81.0983 7683.26 7550.61 98.99
20402 81.1021 7521.10 7557.03 97.56
20403 81.1058 7646.67 7563.54 98.48
20404 81.1096 7479.63 7570.51 97.45
20405 81.1134 7662.04 7577.76 99.53
20406 81.1171 7669.27 7585.13 98.68
20407 81.1209 7772.40 7593.02 99.64
20408 81.1246 7652.54 7601.03 99.08
20409 81.1284 7603.03 7609.60 98.25
20410 81.1321 7667.15 7618.31 98.86
20411 81.1359 7546.08 7627.64 98.22
20412 81.1397 7650.83 7637.40 98.36
20413 81.1434 7633.47 7647.29 98.59
20414 81.1472 7671.18 7657.94 99.25
20415 81.1509 7649.84 7668.75 98.06
20416 81.1547 7811.24 7680.39 100.24
20417 81.1584 7678.24 7692.19 99.36
20418 81.1622 7815.22 7704.92 99.36
20419 81.1660 7628.56 7718.24 97.79
20420 81.1697 7748.03 7731.83 102.04
20421 81.1735 7811.36 7746.45 100.02
20422 81.1772 7789.43 7761.39 99.96
20423 81.1810 7764.44 7777.42 99.46
20424 81.1847 7843.31 7793.87 99.02
20425 81.1885 7931.27 7811.56 101.28
20426 81.1923 7987.09 7830.20 101.30
20427 81.1960 7832.93 7849.30 100.16
20428 81.1998 8009.37 7869.92 100.62
20429 81.2035 7929.59 7891.09 101.16
20430 81.2073 7856.99 7913.97 100.91
20431 81.2110 8072.43 7937.49 101.90
20432 81.2148 8111.32 7962.95 102.23
20433 81.2185 8274.09 7989.17 102.92
20434 81.2223 8070.69 8017.71 102.10
20435 81.2261 8281.66 8047.82 103.29
20436 81.2298 8221.47 8078.91 102.68
20437 81.2336 8551.37 8112.73 103.91
20438 81.2373 8418.03 8147.72 104.29
20439 81.2411 8429.67 8185.86 104.38
20440 81.2448 8582.16 8225.42 105.61
20441 81.2486 8632.36 8268.67 106.35
20442 81.2523 8889.28 8313.67 107.38
20443 81.2561 8592.28 8363.02 105.48
20444 81.2599 8802.26 8415.94 106.92
20445 81.2636 8916.87 8471.33 104.78
20446 81.2674 8969.96 8532.51 109.11
20447 81.2711 9310.44 8596.88 111.95
20448 81.2749 9172.75 8668.40 109.29
20449 81.2786 9387.60 8744.17 110.08
20450 81.2824 9484.85 8828.96 111.30
20451 81.2862 9593.61 8922.74 112.61
20452 81.2899 9481.56 9022.24 111.12
20453 81.2937 9804.01 9135.39 113.29
20454 81.2974 10022.90 9257.27 114.85
20455 81.3012 10174.70 9396.99 116.13
20456 81.3049 10146.60 9548.98 115.22
20457 81.3087 10528.70 9723.94 118.17
20458 81.3125 10795.90 9920.45 119.65
20459 81.3162 10933.00 10137.00 120.81
20460 81.3200 11346.80 10386.10 123.53
20461 81.3237 11307.40 10659.60 123.14
20462 81.3275 11541.40 10975.90 124.99
20463 81.3312 11988.40 11322.10 127.26
20464 81.3350 12081.30 11721.30 127.68
20465 81.3387 12693.90 12155.70 131.86
20466 81.3425 12860.10 12653.40 132.50
20467 81.3463 13287.40 13205.60 136.00
20468 81.3500 13704.60 13800.20 137.10
20469 81.3538 14186.10 14470.40 139.90
20470 81.3575 14593.50 15183.40 142.95
20471 81.3613 15159.00 15977.00 145.59
20472 81.3650 15589.00 16804.20 145.52
20473 81.3688 16359.10 17707.80 155.12
20474 81.3725 16694.20 18627.90 154.79
20475 81.3763 17581.70 19598.90 156.38
20476 81.3801 18131.00 20579.70 161.46
20477 81.3838 19058.50 21517.80 165.94
20478 81.3876 19584.80 22444.70 169.17
20479 81.3913 20977.30 23286.40 175.98
20480 81.3951 21980.30 24078.20 181.22
20481 81.3988 23282.80 24771.60 186.38
20482 81.4026 24691.20 25410.80 192.88
20483 81.4063 25790.40 25979.50 198.46
20484 81.4101 27207.00 26528.70 203.98
20485 81.4139 27989.10 27064.90 208.53
20486 81.4176 29580.70 27590.40 214.99
20487 81.4214 30156.30 28138.40 218.93
20488 81.4251 31201.50 28674.90 223.43
20489 81.4289 31731.60 29207.40 225.66
20490 81.4326 31580.10 29676.70 223.87
20491 81.4364 31739.50 30063.20 225.70
20492 81.4401 31658.60 30300.00 222.59
20493 81.4439 30579.40 30351.80 220.36
20494 81.4477 29801.30 30172.70 217.42
20495 81.4514 29185.10 29756.80 213.71
20496 81.4552 27930.60 29085.20 206.61
20497 81.4589 26903.50 28214.30 203.85
20498 81.4627 25737.50 27139.20 196.19
20499 81.4664 24591.50 25961.60 194.27
20500 81.4702 23159.70 24671.70 186.81
20501 81.4739 22322.90 23379.70 183.01
20502 81.4777 21094.60 22056.00 175.41
20503 81.4815 19741.70 20769.50 169.41
20504 81.4852 18856.00 19570.50 166.10
20505 81.4890 18120.90 18411.80 161.76
20506 81.4927 16981.40 17360.50 155.61
20507 81.4965 16226.30 16366.80 152.45
20508 81.5002 15424.50 15481.70 147.55
20509 81.5040 15011.70 14657.00 144.65
20510 81.5077 14345.50 13935.20 141.29
20511 81.5115 13600.60 13269.40 137.55
20512 81.5152 13302.00 12691.90 135.60
20513 81.5190 12734.00 12165.90 131.28
20514 81.5228 12276.20 11701.30 129.72
20515 81.5265 11880.10 11301.40 127.29
20516 81.5303 11598.00 10939.90 124.66
20517 81.5340 11149.50 10629.50 121.26
20518 81.5378 10942.40 10349.00 120.10
20519 81.5415 10602.00 10107.60 117.47
20520 81.5453 10259.50 9888.65 116.20
20521 81.5490 10254.70 9699.29 115.75
20522 81.5528 9993.19 9526.30 114.11
20523 81.5566 9664.33 9371.56 112.43
20524 81.5603 9456.48 9236.50 110.73
20525 81.5641 9278.90 9110.96 108.22
20526 81.5678 9388.96 9000.34 112.27
20527 81.5716 9062.90 8896.53 109.48
20528 81.5753 9037.07 8804.22 107.79
20529 81.5791 8848.41 8716.84 106.49
20530 81.5828 8712.38 8638.54 105.99
20531 81.5866 8750.58 8563.89 106.35
20532 81.5904 8545.75 8494.76 104.64
20533 81.5941 8514.83 8432.01 104.85
20534 81.5979 8399.71 8371.92 103.81
20535 81.6016 8340.47 8317.13 103.07
20536 81.6054 8360.56 8264.45 103.74
20537 81.6091 8326.94 8216.25 102.94
20538 81.6129 8149.97 8169.75 101.83
20539 81.6166 8207.89 8127.07 102.39
20540 81.6204 8184.74 8085.79 101.75
20541 81.6241 8069.17 8047.81 101.03
20542 81.6279 7698.86 8010.98 97.83
20543 81.6317 7887.43 7976.16 99.61
20544 81.6354 7782.38 7944.01 99.67
20545 81.6392 7928.57 7912.74 100.36
20546 81.6429 7749.01 7883.81 98.88
20547 81.6467 7700.90 7855.61 99.06
20548 81.6504 7877.61 7829.48 98.98
20549 81.6542 7707.74 7803.88 99.18
20550 81.6579 7815.44 7780.28 99.78
20551 81.6617 7660.38 7757.04 98.49
20552 81.6654 7546.22 7735.53 96.56
20553 81.6692 7883.03 7714.40 100.66
20554 81.6729 7772.69 7694.79 100.13
20555 81.6767 7730.41 7675.48 98.91
20556 81.6805 7555.25 7657.05 97.10
20557 81.6842 7729.30 7639.84 98.32
20558 81.6880 7663.51 7622.93 98.59
20559 81.6917 7517.96 7607.13 97.31
20560 81.6955 7657.09 7591.57 98.30
20561 81.6992 7508.73 7577.01 96.29
20562 81.7030 7373.87 7562.67 96.34
20563 81.7067 7581.66 7549.23 97.68
20564 81.7105 7408.53 7535.97 96.57
20565 81.7142 7557.17 7523.53 97.31
20566 81.7180 7510.39 7511.25 96.61
20567 81.7218 7296.06 7499.42 95.43
20568 81.7255 7355.33 7488.32 95.98
20569 81.7293 7449.90 7477.33 95.82
20570 81.7330 7429.72 7467.00 96.48
20571 81.7368 7480.01 7456.77 96.66
20572 81.7405 7333.68 7447.14 95.50
20573 81.7443 7331.33 7437.60 95.79
20574 81.7480 7314.17 7428.61 96.10
20575 81.7518 7421.41 7419.70 96.49
20576 81.7555 7363.58 7411.29 96.34
20577 81.7593 7400.75 7402.95 95.74
20578 81.7631 7171.60 7394.87 94.18
20579 81.7668 7363.99 7387.26 95.70
20580 81.7706 7458.32 7379.31 97.98
20581 81.7743 7290.33 7372.17 94.95
20582 81.7781 7220.92 7365.05 94.69
20583 81.7818 7244.06 7358.35 95.36
20584 81.7856 7218.47 7351.65 95.27
20585 81.7893 7035.86 7345.34 93.20
20586 81.7931 7297.12 7339.03 95.90
20587 81.7968 7232.82 7333.08 95.26
20588 81.8006 7229.85 7327.14 95.09
20589 81.8044 7263.36 7321.37 95.50
20590 81.8081 7405.54 7315.92 96.38
20591 81.8119 7338.74 7310.47 96.31
20592 81.8156 7481.07 7305.32 97.21
20593 81.8194 7307.76 7300.17 95.54
20594 81.8231 7327.23 7295.30 96.05
20595 81.8269 7308.79 7290.44 96.27
20596 81.8306 7269.91 7285.82 95.69
20597 81.8344 7203.86 7281.22 94.65
20598 81.8381 7211.35 7276.85 94.96
20599 81.8419 7338.41 7272.49 95.21
20600 81.8456 7273.28 7268.35 95.58
20601 81.8494 7367.37 7264.21 96.53
20602 81.8531 7243.01 7260.29 95.91
20603 81.8569 7280.65 7256.36 96.01
20604 81.8607 7265.83 7252.54 95.90
20605 81.8644 7077.00 7248.91 93.72
20606 81.8682 7277.89 7245.28 95.86
20607 81.8719 7176.81 7241.84 96.41
20608 81.8757 7361.45 7238.40 96.79
20609 81.8794 7248.76 7235.13 95.37
20610 81.8832 7163.83 7231.86 94.31
20611 81.8869 7022.06 7228.76 93.94
20612 81.8907 7202.00 7225.65 95.35
20613 81.8944 7054.36 7222.70 94.53
20614 81.8982 7064.34 7219.75 93.99
20615 81.9019 7231.32 7216.95 95.50
20616 81.9057 7332.30 7214.15 95.61
20617 81.9094 7183.88 7211.49 95.02
20618 81.9132 7185.82 7208.83 95.53
20619 81.9170 7245.81 7206.24 95.56
20620 81.9207 7302.35 7203.78 95.32
20621 81.9245 7101.46 7201.32 94.52
20622 81.9282 7280.42 7198.99 96.15
20623 81.9320 7203.79 7196.67 95.50
20624 81.9357 7231.55 7194.46 95.78
20625 81.9395 7243.99 7192.25 95.39
20626 81.9432 7269.96 7190.16 94.77
20627 81.9470 7187.08 7188.08 94.44
20628 81.9507 7261.61 7186.10 94.59
20629 81.9545 7200.05 7184.14 94.78
20630 81.9582 6927.20 7182.27 93.49
20631 81.9620 7221.80 7180.42 93.84
20632 81.9657 7106.30 7178.67 94.14
20633 81.9695 7001.12 7176.92 95.36
20634 81.9732 7195.36 7175.28 95.03
20635 81.9770 7108.72 7173.65 93.24
20636 81.9808 6921.99 7172.07 89.87
20637 81.9845 7039.18 7170.59 92.12
20638 81.9883 7261.66 7169.12 96.98
20639 81.9920 7269.41 7167.74 96.23
20640 81.9958 7184.83 7166.38 93.96
20641 81.9995 7099.74 7165.11 91.49
20642 82.0033 7206.66 7163.86 89.97
20643 82.0070 7194.11 7162.70 87.29
loop_
_pd_proc_info_excluded_regions
'from 2.186 to 4.422'
loop_
_refln_index_h
_refln_index_k
_refln_index_l
_refln_F_squared_calc
_refln_F_squared_meas
_refln_F_squared_sigma
_refln_observed_status
_refln_d_spacing
0 0 2 2223.76 2103.81 45.16 o 4.008297
1 1 0 2139.96 2000.53 42.99 o 4.005733
1 1 2 35544.19 33568.68 632.56 o 2.833387
2 0 0 35510.10 33473.08 630.75 o 2.832481
2 1 1 42.40 31.54 0.90 o 2.415689
2 0 2 1811.24 2226.14 41.60 o 2.313204
0 0 4 56445.48 54561.16 1043.26 o 2.004149
2 2 0 55988.18 54626.89 1044.27 o 2.002867
2 1 3 25.66 10.88 0.98 o 1.838513
1 1 4 870.56 909.73 20.23 o 1.792336
2 2 2 929.28 969.90 21.50 o 1.791647
3 1 0 916.35 955.94 21.20 o 1.791418
2 0 4 23201.54 24399.82 454.74 o 1.636031
3 1 2 23761.79 24973.10 465.84 o 1.635508
3 2 1 15.91 17.14 1.58 o 1.541844
2 2 4 34521.16 34958.24 661.68 o 1.416694
4 0 0 34289.87 34671.96 656.14 o 1.416241
2 1 5 11.60 9.04 0.36 o 1.354804
3 2 3 11.02 8.63 0.34 o 1.354408
4 1 1 45.18 35.40 1.39 o 1.354210
0 0 6 603.58 641.32 14.53 o 1.336099
3 1 4 532.65 564.46 12.87 o 1.335624
4 0 2 552.32 584.69 13.31 o 1.335339
3 3 0 462.46 489.25 11.25 o 1.335244
1 1 6 17480.44 17149.49 317.39 o 1.267454
3 3 2 17215.95 16942.89 313.37 o 1.266805
4 2 0 17312.74 17075.72 315.89 o 1.266724
4 1 3 32.76 23.30 2.20 o 1.221901
2 0 6 182.70 151.52 3.41 o 1.208406
4 2 2 159.01 132.78 2.93 o 1.207844
4 0 4 24041.33 24575.80 461.84 o 1.156602
3 2 5 6.02 6.87 0.65 o 1.122182
4 3 1 23.44 26.81 2.54 o 1.121844
2 2 6 420.21 372.50 8.84 o 1.111483
3 3 4 325.58 288.30 6.94 o 1.111209
5 1 0 339.73 300.12 7.21 o 1.110991
3 1 6 13781.28 14304.51 263.07 o 1.071018
4 2 4 13462.20 13963.58 256.51 o 1.070773
5 1 2 13603.74 14079.34 258.77 o 1.070626
2 1 7 4.92 3.00 0.31 o 1.043558
4 1 5 19.16 11.65 1.19 o 1.043287
4 3 3 18.20 11.07 1.13 o 1.043106
5 2 1 4.20 2.55 0.26 o 1.043015
0 0 8 18262.63 17522.63 328.01 o 1.002074
4 4 0 17896.36 17309.76 323.70 o 1.001433
5 2 3 3.35 1.52 1.63 < 0.978840
1 1 8 277.89 283.89 6.74 o 0.972118
4 0 6 328.28 335.13 7.87 o 0.971862
5 1 4 267.74 273.19 6.50 o 0.971679
4 4 2 307.24 313.32 7.39 o 0.971570
5 3 0 319.14 325.58 7.66 o 0.971533
2 0 8 10693.26 11078.94 202.31 o 0.944698
3 3 6 10936.11 11336.11 207.23 o 0.944462
5 3 2 11292.96 11702.04 214.27 o 0.944194
6 0 0 10922.15 11317.80 206.89 o 0.944160
3 2 7 3.02 3.04 0.32 o 0.925471
4 3 5 11.77 11.87 1.24 o 0.925282
6 1 1 26.70 26.93 2.81 o 0.925092
4 2 6 13.82 24.67 9.01 < 0.919257
6 0 2 9.98 18.11 5.76 < 0.919009
2 2 8 14214.24 13766.10 255.42 o 0.896168
4 4 4 14018.80 13569.19 251.61 o 0.895824
6 2 0 13951.94 13495.32 250.19 o 0.895709
4 1 7 10.25 9.85 0.99 o 0.879705
5 2 5 2.25 2.17 0.22 o 0.879542
6 1 3 22.08 21.34 2.13 o 0.879434
5 4 1 8.77 8.47 0.85 o 0.879379
3 1 8 243.61 280.31 6.75 o 0.874549
5 3 4 266.96 306.37 7.33 o 0.874229
6 2 2 260.91 298.78 7.16 o 0.874149
5 1 6 9038.99 9129.00 166.30 o 0.854249
6 0 4 8922.77 8995.14 163.75 o 0.854125
2 1 9 2.20 1.98 0.44 o 0.840308
5 4 3 7.35 6.59 1.45 o 0.839883
6 3 1 17.59 15.78 3.46 o 0.839836
4 0 8 11348.65 11121.18 205.30 o 0.818016
6 2 4 11202.24 10938.68 201.81 o 0.817754
4 3 7 6.93 7.53 0.96 o 0.805438
6 1 5 15.71 17.12 2.17 o 0.805313
6 3 3 14.93 16.28 2.06 o 0.805229
0 0 10 272.13 264.60 7.03 o 0.801659
3 3 8 197.81 192.32 5.19 o 0.801475
4 4 6 245.16 238.50 6.35 o 0.801331
5 5 0 175.77 170.66 4.65 o 0.801147
7 1 0 221.88 215.42 5.78 o 0.801147
1 1 10 7549.55 7611.84 137.83 o 0.786072
4 2 8 7307.48 7352.48 132.88 o 0.785898
5 3 6 7682.63 7723.77 139.99 o 0.785763
5 5 2 7335.71 7361.66 133.08 o 0.785608
7 1 2 7607.98 7634.88 138.30 o 0.785608
6 4 0 7433.11 7459.39 134.95 o 0.785589
3 2 9 1.52 1.51 0.36 o 0.774873
5 2 7 1.37 1.28 0.38 o 0.774725
5 4 5 5.34 6.04 1.85 o 0.774613
7 2 1 1.16 1.47 0.54 < 0.774502
2 0 10 0.08 0.10 0.24 o 0.771361
6 0 6 1.16 1.42 1.16 o 0.771068
6 4 2 2.05 2.53 1.71 o 0.770922
4 1 9 5.39 5.48 1.28 o 0.747410
6 3 5 11.03 10.20 2.36 o 0.747177
7 2 3 1.00 0.88 0.21 o 0.747110
2 2 10 244.22 216.82 5.22 o 0.744256
5 1 8 186.96 165.86 4.05 o 0.744109
6 2 6 222.20 197.10 4.76 o 0.743994
5 5 4 163.74 145.12 3.58 o 0.743912
7 1 4 201.78 178.84 4.35 o 0.743912
7 3 0 168.47 149.27 3.67 o 0.743846
3 1 10 6342.49 5894.92 106.38 o 0.731734
6 4 4 6188.71 5743.82 103.50 o 0.731406
7 3 2 6172.97 5726.51 103.17 o 0.731359
6 1 7 10.08 6.38 1.37 o 0.722554
6 5 1 8.63 5.46 1.21 o 0.722373
4 4 8 7555.29 7230.48 133.01 o 0.708347
8 0 0 7435.96 7090.79 130.34 o 0.708120
2 1 11 1.05 1.16 0.15 o 0.700379
4 3 9 3.89 4.26 0.53 o 0.700242
5 4 7 3.50 3.89 0.48 o 0.700133
7 2 5 0.76 0.85 0.10 o 0.700051
6 5 3 7.54 8.44 1.02 o 0.699996
8 1 1 14.74 16.56 2.00 o 0.699969
7 4 1 2.97 3.34 0.40 o 0.699969
4 0 10 222.56 215.66 5.54 o 0.697647
5 3 8 195.01 189.00 4.89 o 0.697525
7 3 4 158.19 153.18 4.01 o 0.697363
8 0 2 195.54 189.23 4.90 o 0.697322
3 3 10 5264.20 5252.69 94.32 o 0.687301
6 0 8 5145.17 5124.69 91.88 o 0.687184
5 5 6 5175.35 5147.17 92.32 o 0.687094
7 1 6 5347.88 5318.76 95.59 o 0.687094
8 2 0 5224.51 5181.33 92.99 o 0.686978
5 2 9 0.79 0.62 0.09 o 0.679777
6 3 7 7.35 5.75 0.90 o 0.679677
8 1 3 12.95 9.86 1.61 o 0.679552
7 4 3 2.61 1.99 0.33 o 0.679552
4 2 10 10.48 14.34 1.60 o 0.677402
6 4 6 14.49 19.62 2.07 o 0.677204
8 2 2 16.86 22.73 2.34 o 0.677105
0 0 12 6368.78 6240.70 113.79 o 0.668050
6 2 8 6247.84 6108.28 111.24 o 0.667812
8 0 4 6176.83 6031.59 109.77 o 0.667670
6 6 0 6161.38 6012.85 109.42 o 0.667622
3 2 11 0.77 0.62 0.08 o 0.661123
6 5 5 5.84 5.37 0.71 o 0.660846
8 3 1 10.84 10.21 1.38 o 0.660778
1 1 12 165.85 193.37 6.53 o 0.658949
6 6 2 182.78 211.38 7.02 o 0.658550
7 5 0 197.71 228.64 7.57 o 0.658538
2 0 12 4262.71 4314.74 76.86 o 0.650210
5 1 10 4464.37 4512.26 80.61 o 0.650089
7 3 6 4392.16 4431.37 79.09 o 0.649914
8 2 4 4394.01 4429.32 79.05 o 0.649859
7 5 2 4631.92 4666.88 83.58 o 0.649827
4 1 11 2.80 2.11 0.18 o 0.643818
6 1 9 6.03 4.49 0.40 o 0.643712
7 2 7 0.52 0.40 0.04 o 0.643627
8 1 5 10.08 7.60 0.74 o 0.643563
7 4 5 2.03 1.53 0.15 o 0.643563
8 3 3 9.58 7.22 0.72 o 0.643520
2 2 12 5294.88 5125.43 93.28 o 0.633727
6 6 4 5147.31 4988.68 90.63 o 0.633403
8 4 0 5127.68 4967.89 90.24 o 0.633362
