#------------------------------------------------------------------------------
#$Date: 2017-05-25 05:00:28 +0300 (Thu, 25 May 2017) $
#$Revision: 196968 $
#$URL: file:///home/coder/svn-repositories/cod/cif/7/04/31/7043112.cif $
#------------------------------------------------------------------------------
#
# This file is available in the Crystallography Open Database (COD),
# http://www.crystallography.net/
#
# All data on this site have been placed in the public domain by the
# contributors.
#
data_7043112
loop_
_publ_author_name
'Whittle, Thomas A.'
'Brant, William R.'
'Hester, James R.'
'Gu, Qinfen'
'Schmid, Siegbert'
_publ_section_title
;
 Tailoring phase transition temperatures in perovskites via A-site vacancy
 generation
;
_journal_name_full               'Dalton Trans.'
_journal_paper_doi               10.1039/C7DT00352H
_journal_year                    2017
_chemical_formula_sum            'Nb0.4 O3 Sr0.8 Zr0.6'
_chemical_formula_weight         210
_chemical_name_systematic        ' ?'
_space_group_IT_number           140
_symmetry_cell_setting           tetragonal
_symmetry_Int_Tables_number      140
_symmetry_space_group_name_Hall  '-I 4 2c'
_symmetry_space_group_name_H-M   'I 4/m c m'
_cell_angle_alpha                90
_cell_angle_beta                 90
_cell_angle_gamma                90
_cell_formula_units_Z            4
_cell_length_a                   5.725077(5)
_cell_length_b                   5.725077(5)
_cell_length_c                   8.132035(8)
_cell_measurement_temperature    293
_cell_volume                     266.5397(4)
_diffrn_ambient_temperature      293
_diffrn_radiation_probe          x-ray
_diffrn_radiation_wavelength     0.82647
_exptl_absorpt_coefficient_mu    9.447
_exptl_crystal_density_diffrn    5.2329
_exptl_crystal_F_000             379
_pd_instr_location               ' ?'
_pd_meas_2theta_range_max        82.007
_pd_meas_2theta_range_min        2.186
_pd_meas_number_of_points        21243
_pd_proc_2theta_range_max        82.007
_pd_proc_2theta_range_min        3.087
_pd_proc_ls_background_function  '18 Legendre polynoms'
_pd_proc_ls_pref_orient_corr     none
_pd_proc_ls_profile_function     Pseudo-Voigt
_pd_proc_ls_prof_R_factor        0.0264
_pd_proc_ls_prof_wR_expected     0.0086
_pd_proc_ls_prof_wR_factor       0.0341
_refine_ls_goodness_of_fit_all   3.94
_refine_ls_number_constraints    0
_refine_ls_number_parameters     31
_refine_ls_number_restraints     0
_refine_ls_R_factor_all          0.0258
_refine_ls_R_factor_gt           0.0244
_refine_ls_shift/su_max          0.0804
_refine_ls_shift/su_mean         0.0027
_refine_ls_weighting_scheme      sigma
_refine_ls_wR_factor_all         0.0436
_refine_ls_wR_factor_gt          0.0432
_cod_data_source_file            c7dt00352h12.cif
_cod_data_source_block           I
_cod_depositor_comments
;
The following automatic conversions were performed:

'_diffrn_radiation_probe' value 'X-ray' changed to 'x-ray' according
to
/home/data/users/saulius/crontab/automatic-downloads/rss-feeds/RSC/lib/dictionaries/cif_core.dic
dictionary named 'cif_core.dic' version 2.4.2 from 2011-04-26.

Automatic conversion script
Id: cif_fix_values 4973 2017-02-22 13:04:09Z antanas 
;
_cod_original_sg_symbol_Hall     '-I 4;-2c'
_cod_database_code               7043112
loop_
_space_group_symop_id
_space_group_symop_operation_xyz
1 x,y,z
2 -x,-y,z
3 -y,x,z
4 y,-x,z
5 -x,y,-z+1/2
6 x,-y,-z+1/2
7 y,x,-z+1/2
8 -y,-x,-z+1/2
9 -x,-y,-z
10 x,y,-z
11 y,-x,-z
12 -y,x,-z
13 x,-y,z+1/2
14 -x,y,z+1/2
15 -y,-x,z+1/2
16 y,x,z+1/2
17 x+1/2,y+1/2,z+1/2
18 -x+1/2,-y+1/2,z+1/2
19 -y+1/2,x+1/2,z+1/2
20 y+1/2,-x+1/2,z+1/2
21 -x+1/2,y+1/2,-z
22 x+1/2,-y+1/2,-z
23 y+1/2,x+1/2,-z
24 -y+1/2,-x+1/2,-z
25 -x+1/2,-y+1/2,-z+1/2
26 x+1/2,y+1/2,-z+1/2
27 y+1/2,-x+1/2,-z+1/2
28 -y+1/2,x+1/2,-z+1/2
29 x+1/2,-y+1/2,z
30 -x+1/2,y+1/2,z
31 -y+1/2,-x+1/2,z
32 y+1/2,x+1/2,z
loop_
_atom_site_label
_atom_site_type_symbol
_atom_site_fract_x
_atom_site_fract_y
_atom_site_fract_z
_atom_site_adp_type
_atom_site_U_iso_or_equiv
_atom_site_site_symmetry_multiplicity
_atom_site_occupancy
_atom_site_calc_flag
Sr Sr 0 0.5 0.25 Uiso 0.01042(5) 4 0.8 d
Zr Zr 0 0 0 Uiso 0.00621(4) 4 0.6 d
Nb Nb 0 0 0 Uiso 0.00621(4) 4 0.4 d
O1 O 0 0 0.25 Uiso 0.0233(4) 4 1 d
O2 O 0.27787(16) 0.77787(16) 0 Uiso 0.0217(3) 8 1 d
loop_
_atom_type_symbol
_atom_type_scat_dispersion_real
_atom_type_scat_dispersion_imag
_atom_type_scat_source
Nb -1.2547 0.8343 'International Tables Vol C tables 4.2.6.8 and 6.1.1.1'
O 0.0160 0.0088 'International Tables Vol C tables 4.2.6.8 and 6.1.1.1'
Sr -2.2366 0.6060 'International Tables Vol C tables 4.2.6.8 and 6.1.1.1'
Zr -1.4554 0.7527 'International Tables Vol C tables 4.2.6.8 and 6.1.1.1'
loop_
_geom_angle_atom_site_label_1
_geom_angle_atom_site_label_2
_geom_angle_atom_site_label_3
_geom_angle_site_symmetry_1
_geom_angle_site_symmetry_3
_geom_angle
Zr O2 Zr 1_565 21_555 167.28(5)
loop_
_geom_bond_atom_site_label_1
_geom_bond_atom_site_label_2
_geom_bond_site_symmetry_2
_geom_bond_distance
O2 Zr 1_565 2.0367(9)
O2 Zr 21_555 2.0367(9)
loop_
_pd_proc_point_id
_pd_proc_2theta_corrected
_pd_proc_intensity_net
_pd_calc_intensity_net
_pd_proc_ls_weight
1 3.0873 48262.70 47044.50 291.17
2 3.0911 47513.40 47062.60 289.30
3 3.0948 48445.70 47080.60 291.68
4 3.0986 47579.90 47098.60 289.45
5 3.1023 48711.50 47116.60 289.42
6 3.1061 47826.00 47134.50 288.51
7 3.1098 48222.40 47152.50 292.13
8 3.1136 47383.80 47170.40 288.94
9 3.1174 48642.40 47188.20 292.02
10 3.1211 48019.80 47206.10 289.08
11 3.1249 48175.00 47223.80 289.06
12 3.1286 47728.50 47241.60 287.16
13 3.1324 48225.40 47259.30 289.67
14 3.1362 48136.00 47277.00 291.82
15 3.1399 48738.00 47294.60 293.83
16 3.1437 47698.10 47312.30 289.70
17 3.1474 49041.20 47329.90 296.36
18 3.1512 47750.20 47347.40 289.76
19 3.1549 48534.50 47364.90 293.46
20 3.1587 47543.40 47382.40 288.70
21 3.1625 48629.80 47399.80 291.36
22 3.1662 48291.90 47417.20 288.45
23 3.1700 48582.90 47434.50 292.65
24 3.1737 47898.50 47451.90 287.12
25 3.1775 48797.00 47469.20 293.87
26 3.1813 48211.10 47486.50 287.38
27 3.1850 48712.20 47503.70 293.29
28 3.1888 48007.00 47520.90 291.36
29 3.1925 48195.90 47538.10 290.23
30 3.1963 48064.80 47555.10 289.89
31 3.2001 48964.00 47572.20 295.27
32 3.2038 47977.50 47589.30 290.29
33 3.2076 48746.30 47606.30 294.25
34 3.2113 47867.80 47623.30 289.32
35 3.2151 48277.30 47640.10 289.86
36 3.2188 47641.50 47657.10 287.80
37 3.2226 48573.60 47673.90 290.91
38 3.2264 47723.50 47690.70 289.42
39 3.2301 48366.20 47707.50 291.78
40 3.2339 48216.50 47724.30 291.87
41 3.2376 49008.60 47741.00 294.11
42 3.2414 47993.20 47757.60 289.55
43 3.2452 48714.40 47774.30 292.18
44 3.2489 48056.60 47790.90 289.20
45 3.2527 48850.90 47807.40 293.83
46 3.2564 48199.60 47823.90 290.12
47 3.2602 48352.40 47840.40 290.49
48 3.2640 47649.20 47856.90 288.96
49 3.2677 48719.70 47873.30 293.25
50 3.2715 47393.70 47889.60 289.00
51 3.2752 48779.50 47905.90 292.97
52 3.2790 47728.10 47922.20 289.49
53 3.2827 49039.30 47938.40 290.20
54 3.2865 48603.50 47954.60 292.35
55 3.2903 48492.00 47970.80 291.80
56 3.2940 48203.90 47986.90 290.31
57 3.2978 48502.30 48003.00 291.90
58 3.3015 47925.60 48019.00 289.59
59 3.3053 48685.90 48035.00 292.38
60 3.3091 47780.50 48051.00 287.30
61 3.3128 48901.10 48066.90 293.90
62 3.3166 48411.40 48082.80 291.23
63 3.3203 48771.40 48098.60 292.45
64 3.3241 47557.30 48114.40 288.71
65 3.3278 48785.10 48130.10 292.42
66 3.3316 48363.30 48145.90 291.86
67 3.3354 48512.60 48161.50 292.24
68 3.3391 48378.50 48177.20 292.84
69 3.3429 49274.00 48192.80 294.24
70 3.3466 47992.10 48208.30 291.64
71 3.3504 49001.40 48223.80 292.71
72 3.3542 48524.90 48239.30 293.78
73 3.3579 48852.60 48254.70 291.33
74 3.3617 48117.30 48270.10 290.62
75 3.3654 48764.70 48285.40 289.86
76 3.3692 48769.20 48300.70 292.02
77 3.3730 49321.20 48316.00 295.50
78 3.3767 48024.10 48331.20 290.34
79 3.3805 49087.00 48346.40 293.98
80 3.3842 48109.40 48361.50 291.43
81 3.3880 48746.00 48376.60 291.82
82 3.3917 48448.10 48391.60 292.10
83 3.3955 49589.60 48406.60 297.01
84 3.3993 47923.30 48421.60 290.05
85 3.4030 49320.20 48436.50 294.63
86 3.4068 47585.80 48451.40 289.32
87 3.4105 49363.20 48466.20 296.08
88 3.4143 48894.00 48481.00 293.60
89 3.4181 49365.50 48495.70 296.31
90 3.4218 48294.60 48510.40 290.73
91 3.4256 49344.00 48525.10 292.58
92 3.4293 48569.90 48539.70 291.84
93 3.4331 49106.40 48554.30 296.49
94 3.4369 48846.60 48568.80 291.26
95 3.4406 49077.90 48583.30 294.13
96 3.4444 48340.30 48597.70 292.77
97 3.4481 49396.90 48612.10 296.80
98 3.4519 48316.60 48626.50 292.38
99 3.4557 48955.40 48640.80 294.47
100 3.4594 48995.60 48655.10 294.93
101 3.4632 49276.30 48669.30 296.53
102 3.4669 48955.70 48683.40 294.81
103 3.4707 49210.30 48697.60 295.85
104 3.4744 48794.10 48711.60 292.93
105 3.4782 49253.40 48725.70 295.63
106 3.4820 48382.70 48739.70 293.46
107 3.4857 49733.20 48753.60 296.91
108 3.4895 48703.00 48767.50 294.21
109 3.4932 49830.30 48781.40 297.42
110 3.4970 48641.00 48795.20 294.42
111 3.5008 49610.10 48809.00 297.38
112 3.5045 48276.50 48822.70 292.21
113 3.5083 49128.10 48836.40 296.02
114 3.5120 48575.30 48850.10 292.79
115 3.5158 49792.70 48863.70 299.21
116 3.5196 48594.50 48877.20 294.04
117 3.5233 49457.30 48890.70 295.43
118 3.5271 48874.70 48904.20 294.87
119 3.5308 49364.20 48917.60 297.60
120 3.5346 48542.50 48930.90 290.92
121 3.5384 49683.80 48944.30 296.05
122 3.5421 48152.30 48957.50 289.75
123 3.5459 49534.00 48970.80 295.48
124 3.5496 49201.70 48984.00 294.59
125 3.5534 49641.70 48997.10 297.31
126 3.5571 48953.30 49010.20 294.01
127 3.5609 49757.00 49023.30 297.95
128 3.5647 48651.10 49036.30 292.32
129 3.5684 49790.10 49049.20 299.38
130 3.5722 48628.50 49062.10 294.73
131 3.5759 49469.10 49075.00 295.07
132 3.5797 48892.90 49087.80 293.81
133 3.5835 49591.10 49100.60 300.01
134 3.5872 48383.20 49113.30 291.09
135 3.5910 49659.90 49126.00 296.32
136 3.5947 48451.70 49138.60 293.09
137 3.5985 49236.50 49151.20 294.94
138 3.6023 48502.60 49163.80 293.80
139 3.6060 49404.30 49176.30 297.71
140 3.6098 48746.00 49188.70 295.40
141 3.6135 49898.10 49201.10 297.77
142 3.6173 49053.40 49213.50 295.45
143 3.6211 49567.70 49225.80 297.75
144 3.6248 48884.00 49238.10 296.85
145 3.6286 49691.10 49250.30 298.48
146 3.6323 48737.80 49262.40 293.56
147 3.6361 49797.00 49274.60 297.82
148 3.6399 48736.40 49286.70 292.20
149 3.6436 49466.50 49298.70 294.08
150 3.6474 49002.20 49310.70 291.81
151 3.6511 49470.30 49322.60 296.84
152 3.6549 49057.50 49334.50 293.67
153 3.6587 49677.30 49346.40 295.96
154 3.6624 49001.70 49358.10 293.86
155 3.6662 49357.30 49369.90 294.78
156 3.6699 48705.40 49381.60 294.70
157 3.6737 49244.20 49393.30 294.08
158 3.6774 48660.70 49404.90 291.65
159 3.6812 49622.00 49416.40 294.79
160 3.6850 48683.30 49428.00 293.29
161 3.6887 49697.70 49439.40 290.91
162 3.6925 48785.40 49450.90 292.15
163 3.6962 49382.20 49462.20 294.78
164 3.7000 48459.30 49473.60 289.96
165 3.7038 49443.10 49484.80 295.08
166 3.7075 48392.30 49496.10 291.96
167 3.7113 49646.50 49507.30 296.91
168 3.7150 48559.90 49518.40 291.02
169 3.7188 49484.70 49529.50 295.43
170 3.7226 48494.70 49540.60 292.37
171 3.7263 50115.70 49551.60 298.40
172 3.7301 48503.20 49562.50 291.13
173 3.7339 49278.70 49573.40 295.51
174 3.7376 48496.40 49584.30 290.97
175 3.7414 49241.90 49595.10 291.55
176 3.7451 48434.30 49605.90 291.70
177 3.7489 49459.90 49616.60 293.43
178 3.7527 48364.30 49627.30 289.14
179 3.7564 49385.60 49637.90 293.53
180 3.7602 48657.90 49648.40 292.77
181 3.7639 49834.60 49659.00 296.69
182 3.7677 48638.10 49669.50 291.62
183 3.7715 49906.40 49679.90 297.14
184 3.7752 48864.90 49690.30 293.38
185 3.7790 49319.40 49700.60 294.48
186 3.7827 48527.60 49710.90 291.15
187 3.7865 49572.00 49721.20 295.96
188 3.7903 48271.80 49731.40 290.88
189 3.7940 49071.50 49741.50 293.44
190 3.7978 49137.30 49751.60 294.13
191 3.8015 49479.40 49761.70 294.75
192 3.8053 48479.40 49771.70 292.51
193 3.8091 49540.90 49781.60 294.98
194 3.8128 49489.40 49791.50 295.78
195 3.8166 49584.30 49801.40 295.64
196 3.8203 48491.30 49811.20 291.02
197 3.8241 50021.30 49821.00 298.18
198 3.8279 49180.90 49830.70 294.15
199 3.8316 49686.00 49840.40 294.58
200 3.8354 48700.20 49850.00 291.92
201 3.8391 49607.70 49859.60 296.92
202 3.8429 48863.90 49869.10 288.98
203 3.8466 49686.00 49878.60 295.49
204 3.8504 48969.00 49888.10 292.91
205 3.8542 49836.90 49897.40 296.59
206 3.8579 49027.40 49906.80 292.32
207 3.8617 50069.40 49916.10 298.71
208 3.8654 49440.70 49925.30 295.19
209 3.8692 49588.50 49934.50 296.04
210 3.8730 48845.60 49943.70 292.54
211 3.8767 49793.20 49952.80 297.64
212 3.8805 49435.70 49961.90 296.33
213 3.8842 49849.10 49970.90 297.13
214 3.8880 48907.90 49979.80 293.74
215 3.8918 50035.40 49988.70 296.97
216 3.8955 49315.00 49997.60 294.64
217 3.8993 49679.70 50006.40 297.39
218 3.9030 49183.10 50015.20 295.48
219 3.9068 50600.00 50023.90 300.84
220 3.9106 49315.00 50032.60 294.77
221 3.9143 49849.00 50041.20 296.17
222 3.9181 49317.90 50049.80 295.13
223 3.9218 50238.40 50058.40 299.47
224 3.9256 49257.20 50066.90 295.56
225 3.9294 49791.50 50075.30 295.72
226 3.9331 48776.10 50083.70 292.79
227 3.9369 50036.20 50092.00 296.02
228 3.9406 49222.30 50100.30 294.99
229 3.9444 49926.20 50108.60 298.47
230 3.9482 49564.40 50116.80 296.26
231 3.9519 49965.80 50125.00 297.74
232 3.9557 49289.10 50133.10 297.05
233 3.9595 50046.00 50141.10 298.50
234 3.9632 49331.80 50149.20 294.81
235 3.9670 50694.80 50157.10 299.58
236 3.9707 49018.30 50165.10 294.97
237 3.9745 50580.30 50172.90 299.98
238 3.9783 49093.00 50180.80 295.13
239 3.9820 49834.90 50188.60 295.42
240 3.9858 49350.10 50196.30 295.89
241 3.9895 50550.60 50204.00 299.81
242 3.9933 49560.60 50211.60 298.26
243 3.9971 50127.90 50219.20 299.33
244 4.0008 49571.90 50226.80 296.19
245 4.0046 50058.90 50234.30 297.43
246 4.0083 49414.00 50241.70 295.45
247 4.0121 49982.00 50249.10 298.14
248 4.0159 49185.40 50256.50 295.76
249 4.0196 50374.90 50263.80 301.46
250 4.0234 49107.60 50271.10 295.23
251 4.0271 50083.10 50278.30 300.21
252 4.0309 49349.40 50285.50 295.44
253 4.0346 50706.50 50292.60 300.86
254 4.0384 49544.90 50299.70 296.68
255 4.0422 50417.60 50306.70 299.97
256 4.0459 49522.30 50313.70 297.96
257 4.0497 50372.60 50320.60 299.53
258 4.0535 49934.50 50327.50 299.08
259 4.0572 51255.30 50334.40 303.54
260 4.0610 49744.20 50341.20 297.23
261 4.0647 50226.00 50347.90 297.50
262 4.0685 49313.70 50354.60 295.15
263 4.0722 50191.80 50361.30 299.32
264 4.0760 49377.50 50367.90 296.32
265 4.0798 50108.90 50374.50 299.04
266 4.0835 50034.80 50381.00 298.26
267 4.0873 50807.90 50387.50 298.82
268 4.0911 49743.60 50393.90 295.63
269 4.0948 50913.30 50400.30 301.66
270 4.0986 49321.10 50406.70 295.76
271 4.1023 50603.40 50412.90 301.05
272 4.1061 49396.80 50419.20 297.44
273 4.1099 50301.20 50425.40 298.89
274 4.1136 49889.90 50431.50 296.17
275 4.1174 50058.60 50437.70 296.45
276 4.1211 49605.40 50443.70 294.26
277 4.1249 50634.10 50449.70 297.01
278 4.1287 49451.40 50455.70 293.95
279 4.1324 50859.10 50461.60 298.61
280 4.1362 50131.00 50467.50 295.66
281 4.1399 50491.40 50473.30 295.45
282 4.1437 49382.50 50479.10 293.72
283 4.1475 50596.20 50484.90 298.36
284 4.1512 49779.00 50490.60 296.00
285 4.1550 50392.80 50496.20 297.05
286 4.1587 49800.50 50501.80 295.32
287 4.1625 50813.30 50507.40 298.04
288 4.1663 49618.20 50512.90 293.15
289 4.1700 50210.80 50518.40 295.72
290 4.1738 49676.40 50523.80 295.31
291 4.1775 50379.00 50529.20 296.95
292 4.1813 49899.40 50534.50 294.51
293 4.1851 50366.90 50539.80 296.48
294 4.1888 49864.10 50545.00 296.50
295 4.1926 50340.00 50550.20 297.76
296 4.1964 49997.80 50555.40 297.01
297 4.2001 50374.70 50560.50 295.80
298 4.2039 49365.60 50565.50 293.90
299 4.2076 50728.80 50570.60 298.44
300 4.2114 49261.40 50575.50 291.95
301 4.2151 50460.20 50580.40 298.53
302 4.2189 49788.30 50585.30 295.14
303 4.2227 50836.10 50590.20 299.14
304 4.2264 49766.60 50595.00 294.92
305 4.2302 50706.00 50599.70 298.24
306 4.2340 49772.10 50604.40 292.49
307 4.2377 50969.90 50609.10 300.04
308 4.2415 49579.10 50613.70 293.68
309 4.2452 50668.20 50618.20 298.49
310 4.2490 49488.20 50622.80 294.45
311 4.2527 50484.60 50627.20 297.02
312 4.2565 50049.40 50631.70 296.22
313 4.2603 50556.00 50636.10 298.03
314 4.2640 49876.90 50640.40 295.99
315 4.2678 49964.10 50644.70 295.92
316 4.2716 49716.30 50649.00 294.75
317 4.2753 50593.10 50653.20 297.68
318 4.2791 49786.30 50657.40 294.77
319 4.2828 50305.30 50661.50 295.10
320 4.2866 49221.80 50665.60 292.77
321 4.2904 50180.10 50669.60 296.17
322 4.2941 49422.90 50673.60 294.32
323 4.2979 50473.00 50677.60 295.30
324 4.3016 49468.80 50681.50 294.80
325 4.3054 50690.80 50685.30 299.49
326 4.3092 49590.00 50689.10 293.53
327 4.3129 50538.40 50692.90 298.10
328 4.3167 49427.80 50696.60 289.87
329 4.3204 50674.00 50700.30 295.27
330 4.3242 49264.10 50704.00 292.89
331 4.3280 50627.10 50707.60 296.86
332 4.3317 49499.40 50711.10 294.47
333 4.3355 50500.90 50714.70 297.38
334 4.3393 49622.10 50718.10 291.95
335 4.3430 50183.90 50721.60 297.05
336 4.3468 49874.70 50724.90 296.03
337 4.3505 50320.10 50728.30 296.92
338 4.3543 49508.00 50731.60 293.35
339 4.3580 50264.90 50734.80 295.65
340 4.3618 49674.90 50738.10 294.98
341 4.3656 50242.10 50741.20 297.51
342 4.3693 49441.00 50744.30 293.98
343 4.3731 50471.80 50747.40 298.07
344 4.3769 49603.20 50750.50 294.17
345 4.3806 50236.30 50753.50 296.73
346 4.3844 49770.10 50756.40 295.52
347 4.3881 50677.00 50759.30 298.40
348 4.3919 49356.50 50762.20 293.88
349 4.3956 50586.70 50765.00 299.02
350 4.3994 49307.70 50767.80 292.53
351 4.4032 50493.70 50770.60 296.98
352 4.4069 49420.60 50773.30 293.06
353 4.4107 50504.10 50775.90 297.77
354 4.4145 49769.40 50778.60 294.46
355 4.4182 50548.80 50781.10 298.65
356 4.4220 49457.90 50783.70 293.91
357 4.4257 50818.60 50786.20 299.07
358 4.4295 49418.80 50788.60 293.90
359 4.4333 50841.20 50791.00 299.72
360 4.4370 49937.20 50793.40 295.21
361 4.4408 50491.30 50795.70 298.02
362 4.4445 49941.40 50798.00 295.40
363 4.4483 50837.10 50800.20 299.02
364 4.4521 49594.70 50802.40 296.28
365 4.4558 50587.20 50804.60 299.24
366 4.4596 50141.50 50806.70 296.18
367 4.4633 50581.60 50808.80 297.98
368 4.4671 50012.90 50810.80 296.46
369 4.4709 50700.10 50812.80 299.75
370 4.4746 49961.60 50814.80 294.19
371 4.4784 50584.30 50816.70 298.62
372 4.4822 49543.40 50818.60 294.22
373 4.4859 50266.70 50820.40 297.31
374 4.4897 49902.40 50822.20 295.47
375 4.4934 50730.40 50823.90 299.03
376 4.4972 49837.20 50825.70 297.11
377 4.5009 50727.80 50827.30 296.36
378 4.5047 49241.10 50829.00 293.14
379 4.5085 50550.30 50830.50 298.62
380 4.5122 49519.30 50832.10 295.13
381 4.5160 50595.70 50833.60 298.03
382 4.5198 49827.30 50835.10 296.28
383 4.5235 50246.20 50836.50 296.46
384 4.5273 49898.60 50837.90 295.09
385 4.5310 50746.60 50839.20 299.00
386 4.5348 49713.10 50840.50 294.90
387 4.5386 51031.40 50841.80 297.56
388 4.5423 50459.90 50843.00 296.23
389 4.5461 50676.10 50844.20 299.63
390 4.5498 49707.10 50845.40 294.14
391 4.5536 50674.90 50846.50 297.42
392 4.5574 49720.50 50847.50 295.44
393 4.5611 50878.90 50848.60 301.40
394 4.5649 50024.80 50849.50 297.02
395 4.5686 50850.90 50850.50 299.66
396 4.5724 49648.50 50851.40 296.84
397 4.5762 50886.00 50852.30 299.61
398 4.5799 50014.90 50853.10 296.06
399 4.5837 51065.50 50853.90 301.26
400 4.5874 49812.10 50854.70 298.39
401 4.5912 50988.80 50855.40 300.98
402 4.5950 50261.90 50856.00 297.42
403 4.5987 51106.60 50856.70 298.82
404 4.6025 50335.00 50857.30 294.97
405 4.6062 50505.00 50857.80 298.86
406 4.6100 49998.60 50858.40 296.56
407 4.6138 50753.20 50858.80 299.30
408 4.6175 49984.50 50859.30 296.08
409 4.6213 51439.80 50859.70 300.43
410 4.6251 49694.70 50860.10 294.36
411 4.6288 50548.50 50860.40 298.68
412 4.6326 50157.10 50860.70 295.54
413 4.6363 50995.00 50860.90 298.70
414 4.6401 50171.10 50861.10 295.71
415 4.6438 50669.00 50861.30 298.02
416 4.6476 50615.50 50861.50 298.99
417 4.6514 50611.90 50861.60 297.77
418 4.6551 50071.50 50861.60 295.90
419 4.6589 50555.40 50861.60 297.33
420 4.6627 49804.30 50861.60 295.78
421 4.6664 50381.90 50861.60 297.99
422 4.6702 50176.40 50861.50 295.42
423 4.6739 50413.60 50861.40 297.66
424 4.6777 50574.80 50861.20 296.30
425 4.6815 50322.90 50861.00 296.78
426 4.6852 49752.50 50860.80 295.15
427 4.6890 50184.90 50860.50 296.97
428 4.6927 49887.80 50860.20 296.00
429 4.6965 50849.30 50859.90 299.01
430 4.7003 50197.00 50859.50 297.22
431 4.7040 50491.40 50859.00 295.43
432 4.7078 50093.30 50858.60 292.91
433 4.7116 50413.70 50858.10 297.34
434 4.7153 49732.50 50857.60 290.44
435 4.7191 50920.40 50857.00 299.92
436 4.7228 50101.90 50856.40 295.04
437 4.7304 49613.60 50855.10 295.07
438 4.7379 50006.80 50853.60 295.93
439 4.7416 50624.60 50852.80 298.81
440 4.7454 49158.20 50852.00 292.24
441 4.7491 50611.10 50851.20 298.82
442 4.7529 49766.30 50850.30 293.92
443 4.7567 50734.00 50849.30 298.98
444 4.7604 49682.70 50848.40 295.30
445 4.7642 50602.50 50847.40 298.28
446 4.7680 49770.50 50846.30 294.76
447 4.7717 51038.70 50845.30 299.96
448 4.7755 49978.90 50844.20 296.37
449 4.7792 50696.00 50843.00 298.98
450 4.7830 50229.40 50841.90 296.13
451 4.7868 50395.10 50840.60 297.14
452 4.7905 50381.80 50839.40 296.20
453 4.7943 50574.60 50838.10 298.60
454 4.7980 49900.70 50836.80 295.39
455 4.8018 50561.70 50835.50 299.97
456 4.8056 49983.30 50834.10 296.01
457 4.8093 50329.50 50832.70 298.11
458 4.8131 50025.60 50831.20 295.41
459 4.8168 50874.60 50829.70 298.71
460 4.8206 50222.60 50828.20 297.64
461 4.8244 50865.20 50826.60 299.52
462 4.8281 49844.00 50825.00 295.96
463 4.8319 50576.40 50823.40 300.04
464 4.8356 50203.50 50821.80 297.25
465 4.8394 51119.30 50820.10 299.58
466 4.8432 49775.70 50818.30 295.38
467 4.8469 50817.40 50816.60 298.82
468 4.8507 49931.10 50814.80 296.07
469 4.8545 50898.00 50813.00 299.32
470 4.8582 49951.30 50811.10 297.13
471 4.8620 50959.80 50809.20 299.52
472 4.8657 49904.20 50807.30 297.40
473 4.8695 50939.30 50805.30 299.25
474 4.8733 50014.90 50803.30 296.18
475 4.8770 50356.90 50801.30 296.18
476 4.8808 49639.80 50799.20 295.94
477 4.8845 50740.00 50797.10 297.34
478 4.8883 50339.40 50795.00 297.24
479 4.8920 50652.50 50792.80 299.76
480 4.8958 49994.60 50790.70 297.28
481 4.8996 50784.00 50788.40 298.89
482 4.9033 49961.40 50786.20 296.67
483 4.9071 51014.30 50783.90 299.02
484 4.9109 50113.00 50781.60 296.73
485 4.9146 50583.80 50779.20 296.64
486 4.9184 49746.20 50776.80 295.77
487 4.9221 50988.30 50774.40 299.55
488 4.9259 49989.30 50771.90 296.64
489 4.9297 51241.30 50769.50 302.52
490 4.9334 50169.00 50766.90 297.22
491 4.9372 51134.30 50764.40 300.86
492 4.9409 49705.90 50761.80 295.17
493 4.9447 50456.90 50759.20 299.02
494 4.9485 49682.80 50756.60 295.29
495 4.9522 50773.50 50753.90 298.97
496 4.9560 50014.70 50751.20 296.90
497 4.9597 50611.70 50748.40 299.89
498 4.9635 50219.80 50745.70 296.21
499 4.9673 50984.40 50742.90 299.11
500 4.9710 49697.10 50740.00 295.48
501 4.9748 50700.20 50737.20 299.08
502 4.9785 49456.30 50734.30 292.77
503 4.9823 51075.90 50731.40 300.94
504 4.9861 50130.30 50728.40 297.64
505 4.9898 51089.10 50725.40 301.31
506 4.9936 49821.90 50722.40 295.85
507 4.9973 50525.80 50719.40 298.24
508 5.0011 49824.10 50716.30 296.06
509 5.0049 50947.60 50713.20 302.17
510 5.0086 50015.40 50710.00 297.22
511 5.0124 51138.70 50706.80 301.96
512 5.0161 50488.70 50703.60 298.66
513 5.0199 51031.10 50700.40 301.44
514 5.0237 50267.10 50697.20 298.59
515 5.0274 51151.30 50693.90 301.73
516 5.0312 49946.10 50690.60 297.28
517 5.0349 51452.70 50687.20 302.35
518 5.0387 50284.90 50683.80 298.86
519 5.0425 50986.20 50680.40 301.61
520 5.0462 50382.40 50677.00 299.53
521 5.0500 51157.50 50673.50 300.95
522 5.0538 50706.90 50670.00 299.69
523 5.0575 51103.50 50666.50 300.01
524 5.0613 50559.80 50662.90 299.70
525 5.0650 50847.40 50659.30 300.43
526 5.0688 50370.70 50655.70 299.42
527 5.0725 51496.60 50652.10 304.46
528 5.0763 50424.90 50648.40 299.32
529 5.0801 51219.50 50644.70 302.19
530 5.0838 50992.40 50641.00 301.34
531 5.0876 50727.90 50637.20 297.24
532 5.0914 50317.60 50633.50 299.66
533 5.0951 51048.10 50629.60 302.11
534 5.0989 50691.90 50625.80 302.62
535 5.1026 50585.50 50621.90 298.80
536 5.1064 49949.30 50618.00 296.04
537 5.1102 51201.70 50614.10 301.94
538 5.1139 50475.40 50610.10 297.45
539 5.1177 51091.80 50606.20 301.94
540 5.1214 50152.50 50602.10 298.36
541 5.1252 50644.50 50598.10 301.05
542 5.1290 50284.00 50594.00 298.70
543 5.1327 51106.00 50589.90 300.20
544 5.1365 50061.00 50585.80 295.77
545 5.1402 50799.90 50581.70 300.13
546 5.1440 49672.70 50577.50 297.37
547 5.1478 51074.40 50573.30 301.54
548 5.1515 50047.60 50569.10 296.68
549 5.1553 51216.40 50564.80 301.48
550 5.1590 49927.60 50560.50 298.73
551 5.1628 50692.80 50556.20 300.64
552 5.1666 50133.10 50551.90 296.18
553 5.1703 51096.60 50547.50 302.31
554 5.1741 50148.00 50543.10 298.48
555 5.1778 51139.90 50538.70 301.89
556 5.1816 49894.10 50534.20 296.53
557 5.1854 50682.80 50529.80 300.98
558 5.1891 50096.60 50525.30 296.32
559 5.1929 51078.90 50520.70 303.30
560 5.1966 50161.70 50516.20 296.97
561 5.2004 51113.60 50511.60 300.14
562 5.2042 49962.60 50507.00 295.37
563 5.2079 50961.00 50502.40 301.66
564 5.2117 50009.60 50497.70 296.20
565 5.2154 50982.00 50493.00 301.18
566 5.2192 49782.90 50488.30 295.79
567 5.2230 51030.00 50483.60 301.69
568 5.2267 50446.90 50478.80 299.67
569 5.2305 50534.00 50474.00 296.00
570 5.2342 50176.70 50469.20 295.00
571 5.2380 50837.70 50464.40 301.01
572 5.2418 50337.50 50459.50 299.18
573 5.2455 51200.90 50454.60 300.26
574 5.2493 50404.30 50449.70 299.02
575 5.2530 50919.30 50444.80 301.66
576 5.2568 49642.70 50439.80 295.61
577 5.2606 51347.80 50434.90 301.95
578 5.2643 50496.70 50429.80 298.80
579 5.2681 51036.40 50424.80 300.82
580 5.2718 49695.20 50419.80 296.16
581 5.2756 50981.40 50414.70 300.39
582 5.2794 49682.00 50409.60 297.15
583 5.2831 50781.30 50404.40 296.22
584 5.2869 50354.80 50399.30 298.22
585 5.2906 51138.40 50394.10 302.18
586 5.2944 50319.20 50388.90 299.20
587 5.2982 50971.50 50383.60 298.23
588 5.3019 50186.80 50378.40 296.55
589 5.3057 51046.40 50373.10 301.55
590 5.3094 49669.20 50367.80 294.83
591 5.3132 50757.10 50362.50 299.05
592 5.3170 50204.10 50357.10 298.14
593 5.3207 51193.50 50351.80 298.48
594 5.3245 50143.30 50346.40 295.74
595 5.3282 50607.00 50341.00 298.94
596 5.3320 50017.90 50335.50 297.35
597 5.3358 50764.60 50330.00 300.55
598 5.3395 50020.10 50324.60 297.62
599 5.3433 50699.30 50319.00 298.73
600 5.3470 50125.10 50313.50 297.62
601 5.3508 50599.10 50308.00 300.24
602 5.3546 50165.90 50302.40 297.77
603 5.3583 50885.50 50296.80 299.52
604 5.3621 50228.20 50291.10 299.07
605 5.3658 50383.50 50285.50 299.66
606 5.3696 49811.20 50279.80 297.62
607 5.3734 50836.90 50274.10 301.66
608 5.3771 49787.60 50268.40 296.84
609 5.3809 51215.50 50262.70 300.05
610 5.3846 50512.40 50256.90 297.31
611 5.3884 51054.10 50251.10 303.56
612 5.3922 50215.30 50245.30 299.29
613 5.3959 51230.50 50239.50 301.52
614 5.3997 50565.30 50233.60 297.91
615 5.4034 51310.90 50227.80 299.97
616 5.4072 50460.50 50221.90 299.62
617 5.4110 50902.70 50216.00 301.69
618 5.4147 50159.60 50210.00 297.28
619 5.4185 50876.50 50204.10 301.28
620 5.4222 50126.80 50198.10 294.99
621 5.4260 51251.40 50192.10 297.77
622 5.4298 50214.00 50186.10 298.00
623 5.4335 50990.70 50180.00 299.82
624 5.4373 50256.40 50174.00 300.24
625 5.4410 50808.90 50167.90 299.71
626 5.4448 50147.00 50161.80 296.68
627 5.4486 50849.30 50155.70 300.92
628 5.4523 50095.40 50149.50 298.25
629 5.4561 50774.30 50143.40 300.46
630 5.4598 50042.00 50137.20 297.53
631 5.4636 50413.20 50131.00 299.85
632 5.4674 50152.40 50124.70 298.01
633 5.4711 51097.70 50118.50 299.89
634 5.4749 50262.30 50112.20 299.49
635 5.4786 50704.20 50105.90 300.45
636 5.4824 50061.20 50099.60 296.78
637 5.4862 50998.20 50093.30 302.66
638 5.4899 50745.40 50086.90 300.53
639 5.4937 50906.90 50080.60 299.52
640 5.4974 50096.90 50074.20 299.02
641 5.5012 50796.40 50067.80 298.18
642 5.5050 50351.40 50061.40 299.45
643 5.5087 51155.80 50054.90 303.10
644 5.5125 50083.40 50048.40 296.46
645 5.5162 50658.60 50042.00 301.19
646 5.5200 50346.80 50035.50 300.68
647 5.5237 50370.40 50028.90 298.82
648 5.5275 50186.30 50022.40 297.70
649 5.5313 51046.40 50015.80 302.46
650 5.5350 49904.80 50009.20 295.28
651 5.5388 50957.00 50002.60 299.55
652 5.5426 50241.80 49996.00 298.74
653 5.5463 50803.40 49989.40 301.20
654 5.5501 50260.50 49982.70 299.66
655 5.5538 50605.40 49976.10 299.93
656 5.5576 50342.80 49969.40 299.50
657 5.5613 51283.70 49962.60 300.45
658 5.5651 49860.60 49955.90 296.58
659 5.5689 50711.50 49949.20 299.10
660 5.5726 50165.80 49942.40 298.10
661 5.5764 50835.00 49935.60 300.01
662 5.5802 50130.40 49928.80 296.61
663 5.5839 50693.30 49922.00 298.80
664 5.5877 50351.80 49915.10 298.14
665 5.5914 51142.40 49908.30 300.57
666 5.5952 50147.70 49901.40 297.26
667 5.5989 51245.40 49894.50 299.39
668 5.6027 50091.90 49887.60 296.54
669 5.6065 50717.50 49880.70 299.38
670 5.6102 50364.20 49873.70 299.28
671 5.6140 50736.00 49866.80 298.92
672 5.6177 49929.50 49859.80 295.78
673 5.6215 51104.30 49852.80 299.33
674 5.6253 49851.80 49845.80 295.81
675 5.6290 50544.70 49838.80 298.47
676 5.6328 50257.00 49831.70 298.18
677 5.6365 50815.10 49824.60 299.24
678 5.6403 49718.70 49817.60 295.05
679 5.6441 50893.10 49810.50 299.40
680 5.6478 49352.00 49803.40 292.28
681 5.6516 50132.80 49796.20 297.14
682 5.6553 49692.80 49789.10 294.13
683 5.6591 49929.70 49781.90 295.67
684 5.6628 49481.30 49774.70 293.51
685 5.6666 50416.80 49767.50 298.48
686 5.6704 49699.20 49760.30 295.44
687 5.6741 50310.70 49753.10 295.88
688 5.6779 49952.30 49745.80 296.25
689 5.6817 50316.40 49738.60 296.85
690 5.6854 49989.90 49731.30 297.24
691 5.6892 50430.60 49724.00 297.82
692 5.6929 49518.30 49716.70 293.67
693 5.6967 50892.00 49709.40 296.82
694 5.7004 49351.40 49702.10 292.28
695 5.7042 50697.00 49694.70 296.58
696 5.7080 49530.00 49687.30 295.36
697 5.7117 50441.60 49679.90 297.08
698 5.7155 49563.90 49672.50 294.63
699 5.7192 50161.80 49665.10 296.61
700 5.7230 49744.60 49657.70 295.27
701 5.7268 50440.10 49650.20 293.55
702 5.7305 49920.00 49642.80 296.98
703 5.7343 50582.70 49635.30 297.23
704 5.7380 49951.30 49627.80 295.75
705 5.7418 50203.20 49620.30 294.18
706 5.7456 49859.80 49612.80 292.73
707 5.7493 50253.80 49605.20 296.72
708 5.7531 49391.10 49597.70 293.17
709 5.7568 50017.10 49590.10 296.99
710 5.7606 49342.60 49582.60 294.85
711 5.7643 50013.60 49575.00 295.84
712 5.7681 49416.90 49567.30 295.39
713 5.7719 50058.00 49559.70 295.83
714 5.7756 49567.80 49552.10 291.98
715 5.7794 50406.60 49544.40 297.87
716 5.7832 48997.40 49536.80 293.77
717 5.7869 49903.00 49529.10 296.19
718 5.7907 49423.40 49521.40 294.08
719 5.7944 50275.50 49513.70 295.05
720 5.7982 49399.80 49506.00 293.77
721 5.8019 49874.70 49498.20 294.54
722 5.8057 49365.10 49490.50 294.72
723 5.8095 50379.60 49482.70 296.93
724 5.8132 48664.10 49475.00 291.46
725 5.8170 49914.70 49467.20 295.15
726 5.8207 49137.20 49459.40 293.46
727 5.8245 50600.00 49451.60 295.53
728 5.8282 49187.30 49443.70 291.17
729 5.8320 49733.50 49435.90 296.02
730 5.8358 49245.30 49428.10 293.72
731 5.8395 50083.10 49420.20 297.62
732 5.8433 49424.00 49412.30 294.88
733 5.8471 49888.60 49404.40 295.87
734 5.8508 49067.90 49396.50 291.82
735 5.8546 50208.50 49388.60 296.17
736 5.8583 49198.70 49380.70 291.06
737 5.8621 50175.10 49372.70 297.63
738 5.8658 49214.40 49364.80 289.26
739 5.8696 49818.80 49356.80 294.44
740 5.8734 48855.90 49348.80 292.70
741 5.8771 49644.10 49340.80 294.59
742 5.8809 49411.70 49332.90 294.64
743 5.8846 49849.90 49324.80 295.52
744 5.8884 49214.60 49316.80 293.10
745 5.8921 50003.10 49308.80 296.84
746 5.8959 49225.20 49300.70 295.43
747 5.8997 49857.50 49292.60 293.83
748 5.9034 49055.70 49284.60 294.00
749 5.9072 50097.30 49276.50 296.82
750 5.9109 49519.00 49268.40 295.74
751 5.9147 50083.20 49260.30 297.89
752 5.9185 49297.40 49252.20 293.33
753 5.9222 50564.40 49244.00 299.20
754 5.9260 49662.70 49235.90 295.80
755 5.9297 50056.70 49227.70 297.41
756 5.9335 49786.40 49219.60 297.11
757 5.9373 50661.90 49211.40 299.89
758 5.9410 49410.90 49203.20 295.97
759 5.9448 49962.30 49195.00 298.79
760 5.9485 49601.80 49186.80 294.85
761 5.9523 50327.70 49178.60 298.22
762 5.9560 49285.70 49170.40 294.60
763 5.9598 50504.60 49162.10 297.48
764 5.9636 49656.20 49153.90 297.25
765 5.9673 50241.60 49145.60 298.65
766 5.9711 49601.70 49137.30 295.58
767 5.9748 50593.90 49129.10 299.54
768 5.9786 49333.60 49120.80 295.40
769 5.9824 50276.70 49112.50 299.02
770 5.9861 49146.60 49104.20 295.61
771 5.9899 50517.20 49095.80 297.25
772 5.9936 49446.60 49087.50 295.07
773 5.9974 49806.10 49079.20 296.52
774 6.0012 48894.10 49070.80 294.17
775 6.0049 49853.20 49062.40 296.90
776 6.0087 49486.90 49054.10 297.24
777 6.0124 49765.80 49045.70 298.82
778 6.0162 49589.40 49037.30 297.40
779 6.0199 50177.90 49028.90 298.34
780 6.0237 49436.30 49020.50 294.36
781 6.0275 49929.60 49012.10 297.55
782 6.0312 48845.80 49003.60 294.24
783 6.0350 49813.20 48995.20 297.05
784 6.0387 49350.30 48986.70 292.48
785 6.0425 50428.60 48978.30 293.60
786 6.0462 49402.80 48969.80 293.98
787 6.0500 49918.90 48961.40 296.53
788 6.0538 49379.40 48952.90 293.83
789 6.0575 50710.80 48944.40 300.27
790 6.0613 49344.70 48935.90 293.14
791 6.0650 50172.50 48927.30 297.27
792 6.0688 49828.90 48918.80 296.53
793 6.0725 50187.50 48910.30 297.78
794 6.0763 49248.60 48901.80 293.64
795 6.0801 50424.40 48893.20 300.47
796 6.0838 49009.80 48884.70 292.17
797 6.0876 50134.20 48876.10 296.11
798 6.0913 49033.70 48867.50 294.25
799 6.0951 49926.60 48859.00 297.00
800 6.0989 49074.20 48850.40 292.32
801 6.1026 50137.00 48841.80 298.48
802 6.1064 49562.00 48833.20 296.64
803 6.1101 50113.30 48824.60 296.69
804 6.1139 49310.00 48815.90 295.49
805 6.1177 49813.70 48807.30 296.79
806 6.1214 49082.20 48798.70 295.12
807 6.1252 49828.20 48790.00 296.09
808 6.1289 49232.30 48781.40 294.44
809 6.1327 49905.30 48772.70 294.58
810 6.1364 49449.20 48764.10 295.02
811 6.1402 49923.90 48755.40 296.39
812 6.1439 49058.10 48746.70 293.52
813 6.1477 50329.90 48738.00 297.52
814 6.1515 49010.70 48729.30 293.15
815 6.1552 49952.90 48720.60 296.70
816 6.1590 48971.30 48711.90 294.23
817 6.1627 49527.10 48703.20 292.00
818 6.1665 49021.40 48694.50 294.49
819 6.1703 49980.70 48685.70 296.39
820 6.1740 49332.10 48677.00 293.60
821 6.1778 50042.70 48668.20 296.72
822 6.1815 49625.80 48659.50 297.32
823 6.1853 49342.20 48650.70 294.95
824 6.1891 48902.30 48642.00 292.56
825 6.1928 50044.20 48633.20 297.30
826 6.1966 49022.70 48624.40 292.25
827 6.2003 49793.40 48615.60 294.66
828 6.2041 49056.10 48606.80 291.39
829 6.2078 49124.50 48598.10 294.84
830 6.2116 48305.30 48589.20 291.76
831 6.2154 49630.30 48580.40 294.23
832 6.2191 48656.80 48571.60 292.44
833 6.2229 49789.50 48562.80 295.66
834 6.2266 48730.70 48554.00 292.23
835 6.2304 49590.70 48545.10 295.79
836 6.2341 48444.30 48536.30 291.67
837 6.2379 49945.10 48527.40 295.99
838 6.2417 48661.00 48518.60 291.56
839 6.2454 49654.00 48509.70 293.32
840 6.2492 48865.00 48500.80 293.81
841 6.2529 49517.10 48492.00 295.02
842 6.2567 48726.50 48483.10 292.11
843 6.2604 49375.20 48474.20 294.04
844 6.2642 48058.50 48465.30 289.93
845 6.2680 49702.30 48456.40 295.37
846 6.2717 48631.40 48447.50 291.60
847 6.2755 49212.50 48438.60 292.38
848 6.2792 48479.10 48429.70 291.04
849 6.2830 49251.40 48420.80 293.88
850 6.2867 48319.00 48411.90 290.44
851 6.2905 48928.80 48403.00 292.75
852 6.2943 47975.70 48394.00 288.47
853 6.2980 48815.40 48385.10 291.72
854 6.3018 48326.60 48376.20 289.97
855 6.3055 49100.30 48367.20 292.01
856 6.3093 48349.10 48358.30 290.77
857 6.3130 49270.50 48349.30 292.70
858 6.3168 48040.70 48340.40 290.13
859 6.3206 48684.00 48331.40 289.57
860 6.3243 48481.50 48322.40 291.75
861 6.3281 48742.60 48313.50 291.28
862 6.3318 48529.80 48304.50 289.89
863 6.3356 49001.50 48295.50 290.96
864 6.3393 48410.00 48286.50 289.98
865 6.3431 49142.30 48277.50 292.32
866 6.3469 48388.20 48268.50 290.17
867 6.3506 48781.40 48259.50 291.47
868 6.3544 47973.70 48250.50 289.71
869 6.3581 48966.80 48241.50 293.76
870 6.3619 48243.90 48232.50 289.65
871 6.3656 48350.50 48223.50 289.80
872 6.3694 47983.80 48214.50 287.74
873 6.3732 48880.40 48205.40 293.12
874 6.3769 48344.70 48196.40 289.34
875 6.3807 48939.00 48187.40 292.64
876 6.3844 48389.30 48178.30 290.60
877 6.3882 48755.70 48169.30 291.71
878 6.3919 48574.80 48160.30 290.81
879 6.3957 49152.60 48151.20 294.60
880 6.3994 47983.60 48142.20 289.45
881 6.4032 48516.80 48133.10 291.65
882 6.4070 47907.90 48124.10 288.23
883 6.4107 48611.30 48115.00 287.03
884 6.4145 47956.50 48105.90 289.04
885 6.4182 48855.70 48096.90 293.60
886 6.4220 47788.60 48087.80 289.24
887 6.4257 48955.10 48078.70 292.19
888 6.4295 48056.40 48069.70 289.58
889 6.4333 48733.20 48060.60 292.36
890 6.4370 48188.60 48051.50 290.10
891 6.4408 48559.20 48042.40 290.37
892 6.4445 47600.30 48033.30 287.96
893 6.4483 48985.30 48024.20 293.82
894 6.4521 48016.20 48015.10 289.74
895 6.4558 48567.30 48006.10 291.80
896 6.4596 48324.80 47997.00 290.88
897 6.4633 49111.70 47987.80 294.77
898 6.4671 48630.30 47978.80 292.31
899 6.4708 48289.70 47969.60 290.64
900 6.4746 47967.10 47960.50 289.77
901 6.4783 48733.10 47951.40 292.64
902 6.4821 47802.80 47942.30 288.50
903 6.4859 48525.30 47933.20 290.98
904 6.4896 47561.20 47924.10 287.76
905 6.4934 48746.90 47915.00 292.18
906 6.4971 47529.30 47905.80 287.64
907 6.5009 48879.30 47896.70 292.08
908 6.5046 47826.90 47887.60 290.03
909 6.5084 48958.40 47878.40 292.08
910 6.5121 47986.10 47869.30 290.43
911 6.5159 48756.60 47860.20 291.33
912 6.5197 47820.40 47851.10 289.44
913 6.5234 48924.50 47841.90 292.39
914 6.5272 47695.10 47832.80 288.53
915 6.5309 48673.90 47823.70 290.50
916 6.5347 48232.40 47814.50 290.05
917 6.5384 48515.30 47805.40 291.49
918 6.5422 47787.20 47796.20 288.80
919 6.5460 48447.20 47787.10 291.38
920 6.5497 48135.50 47777.90 288.97
921 6.5535 48541.30 47768.80 292.51
922 6.5572 47806.70 47759.60 287.80
923 6.5610 48649.00 47750.50 291.34
924 6.5647 47475.00 47741.30 287.11
925 6.5685 48556.40 47732.20 291.73
926 6.5722 48104.50 47723.00 289.81
927 6.5760 48539.30 47713.80 292.30
928 6.5798 47523.10 47704.70 287.58
929 6.5835 48270.60 47695.50 290.19
930 6.5873 47678.40 47686.40 287.96
931 6.5910 48307.30 47677.20 291.11
932 6.5948 47570.80 47668.00 288.02
933 6.5985 48244.90 47658.90 289.31
934 6.6023 47674.00 47649.70 288.07
935 6.6061 48401.50 47640.60 291.31
936 6.6098 47483.90 47631.40 287.99
937 6.6136 48111.70 47622.20 288.35
938 6.6173 47823.20 47613.10 289.52
939 6.6211 48798.90 47603.90 291.86
940 6.6248 47641.40 47594.70 287.06
941 6.6286 48560.20 47585.60 291.38
942 6.6323 47544.80 47576.40 287.74
943 6.6361 48384.80 47567.20 290.81
944 6.6399 47353.60 47558.10 286.46
945 6.6436 48385.60 47548.90 289.14
946 6.6474 47304.10 47539.70 287.41
947 6.6511 48223.50 47530.50 289.49
948 6.6549 47560.00 47521.40 286.63
949 6.6586 48588.50 47512.20 292.86
950 6.6662 48352.90 47493.90 289.61
951 6.6699 47960.50 47484.70 288.29
952 6.6737 48389.20 47475.50 289.24
953 6.6774 47376.60 47466.40 287.20
954 6.6812 48019.60 47457.20 288.88
955 6.6849 47282.50 47448.00 286.32
956 6.6887 48443.60 47438.90 290.75
957 6.6924 47321.70 47429.70 285.41
958 6.6962 47817.70 47420.50 288.20
959 6.7000 46696.20 47411.30 282.93
960 6.7037 48238.60 47402.20 289.31
961 6.7075 46910.10 47393.00 284.61
962 6.7112 47380.20 47383.80 285.35
963 6.7150 47407.80 47374.70 286.87
964 6.7187 48015.40 47365.50 289.30
965 6.7225 47214.60 47356.30 285.93
966 6.7262 47601.70 47347.20 285.27
967 6.7300 46885.40 47338.00 285.39
968 6.7337 47843.70 47328.80 287.83
969 6.7375 47060.40 47319.70 285.17
970 6.7413 47440.80 47310.50 286.40
971 6.7450 46687.00 47301.40 284.56
972 6.7488 47704.30 47292.20 288.09
973 6.7525 46973.60 47283.00 283.28
974 6.7563 47216.60 47273.90 285.36
975 6.7600 46486.80 47264.70 282.53
976 6.7638 47560.70 47255.60 287.53
977 6.7675 46594.00 47246.40 284.35
978 6.7713 47501.30 47237.30 287.61
979 6.7751 46855.30 47228.10 284.94
980 6.7788 47691.20 47218.90 283.60
981 6.7826 46737.50 47209.80 284.87
982 6.7863 47425.60 47200.70 286.96
983 6.7901 46458.10 47191.50 280.34
984 6.7938 47294.20 47182.40 285.15
985 6.7976 46497.70 47173.20 281.29
986 6.8013 47382.40 47164.10 285.90
987 6.8051 46395.30 47154.90 284.40
988 6.8088 47862.90 47145.80 288.65
989 6.8126 46434.60 47136.60 283.41
990 6.8164 47816.90 47127.50 289.30
991 6.8201 46548.80 47118.40 285.09
992 6.8239 47768.60 47109.20 288.44
993 6.8276 47021.20 47100.10 284.61
994 6.8314 47202.30 47091.00 286.31
995 6.8351 46831.90 47081.80 281.61
996 6.8389 47653.60 47072.70 288.73
997 6.8426 46947.40 47063.60 285.98
998 6.8464 47143.70 47054.50 281.73
999 6.8502 46865.20 47045.40 284.48
1000 6.8539 47790.20 47036.20 288.28
1001 6.8577 47090.90 47027.10 285.97
1002 6.8614 47519.50 47018.00 285.11
1003 6.8652 46917.50 47008.90 286.68
1004 6.8689 47702.80 46999.80 288.89
1005 6.8727 46584.00 46990.70 285.02
1006 6.8764 47936.60 46981.50 290.45
1007 6.8802 47037.60 46972.40 285.18
1008 6.8840 48074.50 46963.30 289.23
1009 6.8877 46994.60 46954.20 286.07
1010 6.8914 47511.40 46945.20 286.54
1011 6.8952 46673.60 46936.00 282.94
1012 6.8990 46936.70 46927.00 283.93
1013 6.9027 46570.70 46917.90 284.78
1014 6.9065 47564.30 46908.80 284.83
1015 6.9102 46532.50 46899.70 284.30
1016 6.9140 47554.80 46890.60 288.83
1017 6.9177 46792.00 46881.50 286.49
1018 6.9215 47961.30 46872.50 289.90
1019 6.9252 46763.60 46863.40 284.40
1020 6.9290 47576.00 46854.30 286.98
1021 6.9328 46565.70 46845.20 286.05
1022 6.9365 47780.40 46836.20 290.12
1023 6.9440 47727.70 46818.00 289.59
1024 6.9515 47660.10 46799.90 288.70
1025 6.9553 46518.60 46790.90 284.80
1026 6.9590 47716.70 46781.80 288.30
1027 6.9628 46816.30 46772.80 284.80
1028 6.9665 47422.10 46763.70 285.71
1029 6.9703 46892.30 46754.70 285.06
1030 6.9720 47176.90 46750.70 286.37
1031 6.9757 46280.50 46741.70 283.37
1032 6.9795 47305.70 46732.60 287.23
1033 6.9832 46364.50 46723.60 283.69
1034 6.9870 47541.70 46714.60 287.53
1035 6.9907 46772.40 46705.50 286.49
1036 6.9945 47473.80 46696.50 286.99
1037 6.9982 46931.90 46687.50 286.90
1038 7.0020 48025.20 46678.50 289.05
1039 7.0058 46608.60 46669.40 285.31
1040 7.0095 47801.90 46660.40 288.64
1041 7.0133 46782.20 46651.40 285.53
1042 7.0170 47761.70 46642.40 287.55
1043 7.0208 47059.40 46633.40 286.09
1044 7.0245 47646.90 46624.40 288.69
1045 7.0283 46212.40 46615.40 283.30
1046 7.0321 47605.70 46606.40 288.68
1047 7.0358 47133.30 46597.40 285.66
1048 7.0396 47637.80 46588.50 289.56
1049 7.0433 46385.50 46579.50 282.90
1050 7.0471 46865.70 46570.50 285.11
1051 7.0508 46796.30 46561.50 285.00
1052 7.0546 47532.90 46552.60 288.34
1053 7.0583 46700.70 46543.60 284.98
1054 7.0621 46939.90 46534.70 286.73
1055 7.0659 46461.50 46525.70 284.02
1056 7.0696 47123.00 46516.70 286.33
1057 7.0734 46616.20 46507.80 284.41
1058 7.0771 47506.10 46498.90 288.54
1059 7.0809 46029.30 46489.90 282.63
1060 7.0846 46964.10 46481.00 284.96
1061 7.0884 46441.30 46472.00 283.87
1062 7.0922 47638.10 46463.10 288.90
1063 7.0959 46408.20 46454.20 284.37
1064 7.0997 46993.00 46445.30 284.61
1065 7.1034 46363.20 46436.30 284.45
1066 7.1072 47392.80 46427.40 287.05
1067 7.1109 46171.80 46418.50 281.98
1068 7.1147 47447.10 46409.60 287.66
1069 7.1184 46641.00 46400.70 284.78
1070 7.1222 47146.10 46391.80 286.61
1071 7.1259 46209.00 46382.90 282.59
1072 7.1297 46742.40 46374.00 283.45
1073 7.1335 46716.20 46365.20 285.63
1074 7.1372 46874.80 46356.30 284.89
1075 7.1410 46185.60 46347.40 281.91
1076 7.1447 46969.50 46338.50 287.21
1077 7.1522 46680.10 46320.80 283.79
1078 7.1560 46224.30 46312.00 282.21
1079 7.1597 46214.20 46303.10 281.55
1080 7.1635 46021.00 46294.30 282.52
1081 7.1673 46698.70 46285.40 284.36
1082 7.1710 46132.50 46276.60 282.42
1083 7.1748 47043.80 46267.80 285.95
1084 7.1785 46145.80 46258.90 281.43
1085 7.1823 46781.70 46250.10 284.75
1086 7.1860 45922.20 46241.30 280.45
1087 7.1898 46367.40 46232.50 282.73
1088 7.1936 46067.70 46223.70 281.86
1089 7.1973 46356.80 46214.90 281.94
1090 7.2011 46048.20 46206.10 282.18
1091 7.2048 46205.20 46197.30 282.92
1092 7.2086 46007.30 46188.50 281.81
1093 7.2088 46360.30 46188.00 282.38
1094 7.2125 46982.20 46179.20 286.44
1095 7.2163 46199.70 46170.40 282.73
1096 7.2200 47103.10 46161.70 287.64
1097 7.2238 46516.20 46152.90 282.78
1098 7.2276 47185.00 46144.20 287.55
1099 7.2313 45992.60 46135.40 282.65
1100 7.2351 46854.30 46126.60 285.67
1101 7.2388 46060.40 46117.90 283.60
1102 7.2426 46724.40 46109.20 284.09
1103 7.2463 46383.50 46100.40 281.99
1104 7.2501 46855.30 46091.70 285.50
1105 7.2538 46163.20 46083.00 283.76
1106 7.2576 46816.10 46074.20 284.96
1107 7.2614 46079.20 46065.50 283.26
1108 7.2651 47049.60 46056.80 287.41
1109 7.2688 46053.30 46048.10 282.52
1110 7.2726 46676.50 46039.40 285.06
1111 7.2764 46374.90 46030.70 284.65
1112 7.2801 46605.50 46022.00 282.99
1113 7.2839 46047.30 46013.40 281.22
1114 7.2876 46843.60 46004.70 286.11
1115 7.2914 45607.70 45996.00 281.29
1116 7.2951 46550.00 45987.30 282.12
1117 7.2989 45729.30 45978.70 282.67
1118 7.3026 46429.40 45970.00 284.14
1119 7.3064 45822.40 45961.40 280.89
1120 7.3102 46718.90 45952.70 284.39
1121 7.3139 45846.70 45944.10 282.24
1122 7.3177 46228.10 45935.50 282.06
1123 7.3214 45731.80 45926.80 279.61
1124 7.3252 46260.60 45918.20 283.78
1125 7.3289 45856.30 45909.60 282.46
1126 7.3327 46177.00 45901.00 283.11
1127 7.3364 46006.60 45892.40 282.13
1128 7.3402 46506.90 45883.80 284.36
1129 7.3439 45813.00 45875.20 282.04
1130 7.3477 46816.80 45866.60 286.44
1131 7.3515 45898.80 45858.00 284.09
1132 7.3552 46639.10 45849.40 285.21
1133 7.3590 45894.90 45840.80 283.27
1134 7.3627 46557.00 45832.30 285.22
1135 7.3665 45667.50 45823.70 277.55
1136 7.3702 46688.40 45815.20 284.86
1137 7.3740 45415.80 45806.60 278.83
1138 7.3777 46788.40 45798.10 286.34
1139 7.3815 45519.10 45789.50 280.43
1140 7.3853 46439.00 45781.00 284.38
1141 7.3890 45797.30 45772.50 280.32
1142 7.3928 46304.90 45764.00 282.75
1143 7.3965 45656.30 45755.40 280.46
1144 7.4003 45940.30 45746.90 282.30
1145 7.4040 46246.20 45738.40 282.96
1146 7.4078 46313.60 45730.00 283.82
1147 7.4115 45526.70 45721.50 281.66
1148 7.4153 46379.70 45713.00 283.63
1149 7.4191 45664.70 45704.50 281.06
1150 7.4228 45918.70 45696.00 279.57
1151 7.4266 45596.20 45687.60 281.64
1152 7.4303 46310.80 45679.10 281.31
1153 7.4341 45655.80 45670.70 280.09
1154 7.4378 46002.70 45662.20 282.45
1155 7.4416 45706.10 45653.80 281.10
1156 7.4453 46538.50 45645.30 284.56
1157 7.4491 45388.80 45636.90 280.14
1158 7.4528 46114.20 45628.50 282.07
1159 7.4566 45510.00 45620.10 281.28
1160 7.4604 46025.20 45611.70 277.59
1161 7.4641 45420.20 45603.30 280.52
1162 7.4679 46251.60 45594.90 281.63
1163 7.4716 45515.90 45586.50 281.53
1164 7.4754 46197.20 45578.10 282.03
1165 7.4791 45121.50 45569.70 276.85
1166 7.4829 46365.70 45561.40 284.61
1167 7.4866 45738.00 45553.00 280.49
1168 7.4904 46127.20 45544.60 284.29
1169 7.4942 45771.10 45536.30 281.62
1170 7.4979 46686.20 45527.90 285.85
1171 7.5017 45957.10 45519.60 281.61
1172 7.5054 46604.60 45511.30 285.60
1173 7.5092 45309.30 45502.90 280.78
1174 7.5129 46488.00 45494.60 283.58
1175 7.5167 45868.60 45486.30 281.67
1176 7.5205 46152.90 45478.00 283.88
1177 7.5242 45976.40 45469.70 283.74
1178 7.5280 45726.30 45461.40 282.20
1179 7.5317 45052.40 45453.10 280.30
1180 7.5355 45980.80 45444.90 282.44
1181 7.5392 45244.30 45436.60 280.44
1182 7.5430 46069.70 45428.30 283.27
1183 7.5467 45581.40 45420.10 281.22
1184 7.5505 45699.00 45411.80 282.10
1185 7.5542 45200.60 45403.60 279.12
1186 7.5580 46183.70 45395.30 283.62
1187 7.5618 45133.60 45387.10 279.63
1188 7.5655 46071.40 45378.90 283.66
1189 7.5693 45615.00 45370.70 281.22
1190 7.5730 46331.40 45362.40 285.03
1191 7.5768 45545.10 45354.20 283.15
1192 7.5805 46134.10 45346.00 284.64
1193 7.5843 44998.40 45337.80 279.12
1194 7.5880 46148.40 45329.70 284.95
1195 7.5918 45014.00 45321.50 278.78
1196 7.5956 46200.80 45313.30 283.31
1197 7.5993 44942.20 45305.10 279.61
1198 7.6031 45840.70 45297.00 282.68
1199 7.6068 45417.40 45288.80 281.77
1200 7.6106 45982.90 45280.70 283.18
1201 7.6143 45664.50 45272.50 282.85
1202 7.6181 46079.80 45264.40 282.42
1203 7.6219 45178.50 45256.30 280.52
1204 7.6256 45831.50 45248.20 283.02
1205 7.6294 45145.70 45240.10 278.93
1206 7.6331 45923.00 45232.00 282.70
1207 7.6369 45279.40 45223.90 279.24
1208 7.6406 45976.30 45215.80 283.70
1209 7.6444 45547.20 45207.70 279.95
1210 7.6481 45790.60 45199.60 282.41
1211 7.6519 45301.50 45191.60 280.60
1212 7.6557 45399.40 45183.50 282.21
1213 7.6594 44909.20 45175.50 277.58
1214 7.6632 45564.80 45167.40 279.48
1215 7.6669 44721.70 45159.40 278.63
1216 7.6707 45507.20 45151.30 281.34
1217 7.6744 45516.80 45143.30 279.79
1218 7.6782 45764.40 45135.30 281.78
1219 7.6820 45108.80 45127.30 277.98
1220 7.6857 45856.90 45119.30 280.06
1221 7.6895 45020.50 45111.30 277.25
1222 7.6932 45560.60 45103.30 280.09
1223 7.6970 44990.60 45095.30 277.67
1224 7.7007 45382.30 45087.40 278.20
1225 7.7045 44788.70 45079.40 277.99
1226 7.7083 45906.90 45071.40 279.76
1227 7.7120 45069.00 45063.50 276.75
1228 7.7158 45270.60 45055.50 279.00
1229 7.7195 44733.90 45047.60 274.98
1230 7.7233 45972.50 45039.70 280.34
1231 7.7270 44478.60 45031.70 274.86
1232 7.7308 45321.60 45023.80 277.65
1233 7.7345 44891.00 45015.90 277.46
1234 7.7383 45439.60 45008.00 278.31
1235 7.7421 44434.80 45000.10 273.86
1236 7.7458 45179.00 44992.20 278.65
1237 7.7496 44555.30 44984.40 274.52
1238 7.7533 45054.70 44976.50 277.92
1239 7.7571 44354.20 44968.60 273.65
1240 7.7608 45296.00 44960.80 278.06
1241 7.7646 44466.90 44952.90 275.70
1242 7.7684 45041.20 44945.10 276.74
1243 7.7721 44096.90 44937.20 273.79
1244 7.7759 45186.10 44929.40 278.39
1245 7.7796 44695.90 44921.60 276.09
1246 7.7834 45091.50 44913.80 278.06
1247 7.7871 44929.20 44906.00 276.72
1248 7.7909 45432.30 44898.20 278.81
1249 7.7947 44484.90 44890.40 275.59
1250 7.7984 45141.50 44882.60 277.63
1251 7.8022 44383.30 44874.80 275.75
1252 7.8059 44821.50 44867.10 276.64
1253 7.8097 44472.20 44859.30 275.46
1254 7.8134 45200.30 44851.50 276.94
1255 7.8172 44825.00 44843.80 277.11
1256 7.8210 45388.60 44836.10 276.92
1257 7.8247 44507.70 44828.30 276.69
1258 7.8285 45367.90 44820.60 280.52
1259 7.8322 44656.60 44812.90 276.76
1260 7.8360 44552.70 44805.20 275.83
1261 7.8397 44706.40 44797.50 277.24
1262 7.8435 45180.80 44789.80 279.17
1263 7.8473 44677.00 44782.10 276.93
1264 7.8510 45519.20 44774.40 280.19
1265 7.8548 44862.40 44766.70 277.19
1266 7.8585 45109.30 44759.10 277.38
1267 7.8623 44605.40 44751.40 277.49
1268 7.8660 45515.30 44743.80 280.42
1269 7.8698 44879.60 44736.20 277.19
1270 7.8736 45129.10 44728.50 279.68
1271 7.8773 44604.70 44720.90 276.40
1272 7.8811 44903.70 44713.30 277.64
1273 7.8848 44589.70 44705.70 276.49
1274 7.8886 44966.10 44698.10 277.90
1275 7.8924 44499.70 44690.50 276.14
1276 7.8961 45135.80 44682.90 278.67
1277 7.8999 44447.50 44675.30 276.82
1278 7.9036 44828.50 44667.70 277.93
1279 7.9074 44682.00 44660.20 277.54
1280 7.9111 45812.80 44652.60 282.01
1281 7.9149 44740.90 44645.10 275.98
1282 7.9187 45058.40 44637.50 280.41
1283 7.9224 44483.50 44630.00 277.39
1284 7.9262 45030.30 44622.50 276.84
1285 7.9299 44547.40 44615.00 276.28
1286 7.9337 45311.90 44607.40 279.02
1287 7.9374 44669.20 44599.90 277.26
1288 7.9412 45457.40 44592.40 279.93
1289 7.9450 44462.70 44585.00 277.96
1290 7.9487 45068.00 44577.50 280.21
1291 7.9525 44814.80 44570.00 277.56
1292 7.9562 45168.30 44562.50 280.48
1293 7.9600 44748.00 44555.10 277.18
1294 7.9637 45217.80 44547.60 277.49
1295 7.9675 44408.40 44540.20 277.24
1296 7.9713 45459.70 44532.80 280.27
1297 7.9750 44257.10 44525.30 276.42
1298 7.9788 45227.90 44517.90 277.97
1299 7.9825 44232.80 44510.50 274.93
1300 7.9863 44971.20 44503.10 278.09
1301 7.9900 44583.40 44495.70 277.60
1302 7.9938 45116.40 44488.30 279.10
1303 7.9976 44389.70 44480.90 277.06
1304 8.0013 44863.90 44473.60 278.04
1305 8.0051 44551.40 44466.20 275.80
1306 8.0088 44879.20 44458.90 279.01
1307 8.0126 44453.70 44451.50 277.09
1308 8.0163 44983.30 44444.20 278.70
1309 8.0201 44528.30 44436.80 276.32
1310 8.0239 45309.10 44429.50 279.58
1311 8.0276 44353.90 44422.20 277.17
1312 8.0314 44673.10 44414.90 275.28
1313 8.0351 44404.30 44407.60 277.07
1314 8.0389 44700.70 44400.30 277.62
1315 8.0427 44196.60 44393.00 274.34
1316 8.0464 44749.30 44385.70 276.51
1317 8.0502 44314.90 44378.50 276.32
1318 8.0539 45223.70 44371.20 280.17
1319 8.0577 44394.50 44363.90 276.54
1320 8.0614 45355.70 44356.70 280.44
1321 8.0652 44012.10 44349.40 276.06
1322 8.0690 45204.40 44342.20 275.91
1323 8.0727 44310.60 44335.00 276.39
1324 8.0765 44850.70 44327.80 279.12
1325 8.0802 43928.70 44320.60 274.17
1326 8.0840 44924.50 44313.40 279.39
1327 8.0878 44359.50 44306.20 277.32
1328 8.0915 45230.30 44299.00 278.92
1329 8.0953 43987.20 44291.80 275.62
1330 8.0990 44812.70 44284.70 278.37
1331 8.1028 44358.70 44277.50 276.87
1332 8.1065 44979.80 44270.30 279.62
1333 8.1103 44362.90 44263.20 277.98
1334 8.1141 44875.20 44256.10 278.74
1335 8.1178 44126.50 44248.90 276.17
1336 8.1216 44941.10 44241.80 276.53
1337 8.1253 44335.10 44234.70 275.28
1338 8.1291 44540.60 44227.60 277.88
1339 8.1328 44105.40 44220.50 274.85
1340 8.1366 44809.00 44213.40 280.47
1341 8.1404 44236.20 44206.30 275.71
1342 8.1441 45035.80 44199.20 280.17
1343 8.1479 44287.10 44192.20 279.39
1344 8.1516 45341.40 44185.10 276.71
1345 8.1554 44297.50 44178.10 273.28
1346 8.1592 44974.80 44171.00 276.23
1347 8.1629 43887.50 44164.00 271.85
1348 8.1667 44540.20 44157.00 274.15
1349 8.1704 44189.70 44149.90 272.33
1350 8.1742 45012.30 44142.90 273.64
1351 8.1779 44089.40 44135.90 271.55
1352 8.1817 45067.40 44128.90 276.80
1353 8.1855 44137.90 44121.90 272.32
1354 8.1892 45056.10 44114.90 274.18
1355 8.1930 44240.90 44108.00 271.57
1356 8.1967 44633.30 44101.00 274.86
1357 8.2005 43852.40 44094.00 268.93
1358 8.2043 44686.40 44087.10 272.15
1359 8.2080 43990.50 44080.10 272.33
1360 8.2118 45255.30 44073.20 276.30
1361 8.2155 43831.40 44066.30 270.99
1362 8.2193 45224.80 44059.40 276.22
1363 8.2231 44150.50 44052.50 271.09
1364 8.2268 44822.00 44045.60 273.51
1365 8.2306 44050.80 44038.70 271.02
1366 8.2343 44455.40 44031.80 273.96
1367 8.2381 43728.10 44024.90 271.18
1368 8.2418 44373.70 44018.00 273.54
1369 8.2456 44323.40 44011.20 272.51
1370 8.2494 44569.00 44004.30 273.91
1371 8.2531 43912.90 43997.40 269.23
1372 8.2569 44544.70 43990.60 272.42
1373 8.2606 44181.70 43983.80 272.10
1374 8.2644 44717.00 43977.00 275.31
1375 8.2682 43996.30 43970.10 271.79
1376 8.2719 44606.80 43963.30 274.27
1377 8.2757 44033.20 43956.50 271.23
1378 8.2794 44359.30 43949.70 272.87
1379 8.2832 43569.10 43942.90 270.17
1380 8.2870 44399.10 43936.20 273.31
1381 8.2907 43538.30 43929.40 269.83
1382 8.2945 44336.80 43922.60 273.91
1383 8.2982 43579.80 43915.90 270.37
1384 8.3020 44371.00 43909.10 271.64
1385 8.3057 43574.10 43902.40 268.05
1386 8.3095 44572.10 43895.60 275.16
1387 8.3133 43755.40 43888.90 270.81
1388 8.3170 44487.90 43882.20 273.53
1389 8.3208 43484.60 43875.50 270.55
1390 8.3245 44290.90 43868.80 272.93
1391 8.3283 42906.20 43862.10 267.72
1392 8.3321 44090.30 43855.40 271.85
1393 8.3358 43645.30 43848.70 269.67
1394 8.3396 44313.50 43842.10 273.56
1395 8.3433 43371.90 43835.40 268.16
1396 8.3471 44355.40 43828.70 273.25
1397 8.3509 43809.50 43822.10 269.29
1398 8.3546 44301.80 43815.50 271.66
1399 8.3584 43427.20 43808.80 267.23
1400 8.3621 44227.00 43802.20 270.97
1401 8.3659 43317.00 43795.60 268.06
1402 8.3696 44159.80 43789.00 272.13
1403 8.3734 43575.90 43782.40 270.44
1404 8.3772 44484.20 43775.80 275.33
1405 8.3809 43150.20 43769.20 268.97
1406 8.3847 44068.50 43762.60 271.99
1407 8.3884 43724.40 43756.00 271.36
1408 8.3922 43967.00 43749.50 271.20
1409 8.3960 43253.90 43742.90 269.37
1410 8.3997 43947.90 43736.40 270.85
1411 8.4035 43486.10 43729.80 269.77
1412 8.4072 44198.60 43723.30 271.09
1413 8.4110 43241.20 43716.80 268.77
1414 8.4148 44180.30 43710.30 272.75
1415 8.4185 43233.40 43703.80 269.12
1416 8.4223 44315.30 43697.30 273.01
1417 8.4260 43204.60 43690.80 269.66
1418 8.4298 43822.70 43684.30 271.11
1419 8.4335 43340.80 43677.80 268.97
1420 8.4373 44315.30 43671.30 273.62
1421 8.4411 43455.30 43664.90 269.97
1422 8.4448 44254.30 43658.40 274.08
1423 8.4486 43288.00 43652.00 268.08
1424 8.4523 43764.30 43645.50 269.40
1425 8.4561 43515.30 43639.10 269.64
1426 8.4599 44168.90 43632.60 272.44
1427 8.4636 43283.90 43626.20 268.81
1428 8.4674 44227.30 43619.80 273.51
1429 8.4711 42950.60 43613.40 265.98
1430 8.4749 44178.80 43607.00 274.03
1431 8.4787 43697.10 43600.60 270.65
1432 8.4824 44093.10 43594.30 272.35
1433 8.4862 43371.40 43587.90 270.58
1434 8.4899 43715.30 43581.50 272.58
1435 8.4937 43294.10 43575.10 269.63
1436 8.4974 44371.80 43568.80 274.98
1437 8.5012 43207.60 43562.40 269.38
1438 8.5050 43993.00 43556.10 272.74
1439 8.5087 43355.10 43549.80 267.84
1440 8.5125 43804.70 43543.50 270.47
1441 8.5162 43555.60 43537.10 270.30
1442 8.5200 44035.90 43530.80 270.52
1443 8.5238 43395.50 43524.50 269.34
1444 8.5275 43819.60 43518.20 270.46
1445 8.5313 43045.10 43512.00 267.41
1446 8.5350 43619.60 43505.70 270.98
1447 8.5388 42977.90 43499.40 269.16
1448 8.5426 43824.10 43493.20 270.19
1449 8.5463 42766.10 43486.90 267.60
1450 8.5501 44094.50 43480.70 272.85
1451 8.5538 42831.70 43474.40 267.66
1452 8.5576 43676.80 43468.20 271.17
1453 8.5614 43069.40 43462.00 268.50
1454 8.5651 43842.40 43455.70 270.83
1455 8.5689 43197.20 43449.50 269.27
1456 8.5726 43781.30 43443.30 270.80
1457 8.5764 42997.30 43437.10 268.28
1458 8.5802 43783.20 43430.90 272.24
1459 8.5839 43105.90 43424.80 268.94
1460 8.5877 43474.60 43418.60 270.03
1461 8.5914 43066.50 43412.40 268.83
1462 8.5952 43702.30 43406.20 270.66
1463 8.5990 43008.70 43400.10 267.73
1464 8.6027 43572.30 43394.00 270.52
1465 8.6065 42819.30 43387.80 267.71
1466 8.6102 43341.70 43381.70 271.53
1467 8.6140 42784.30 43375.60 267.47
1468 8.6178 43740.00 43369.40 270.64
1469 8.6215 43058.90 43363.30 268.87
1470 8.6253 43754.00 43357.20 271.88
1471 8.6290 43091.80 43351.10 271.23
1472 8.6328 43839.40 43345.10 272.74
1473 8.6365 43096.30 43339.00 268.43
1474 8.6403 43709.40 43332.90 270.69
1475 8.6441 42998.40 43326.80 268.89
1476 8.6478 43489.20 43320.80 270.45
1477 8.6516 42770.40 43314.70 266.71
1478 8.6553 43514.40 43308.70 271.19
1479 8.6591 42924.60 43302.60 269.30
1480 8.6629 43957.80 43296.60 272.70
1481 8.6666 42656.60 43290.60 267.90
1482 8.6704 43610.30 43284.60 270.73
1483 8.6742 43026.50 43278.60 269.21
1484 8.6779 43360.50 43272.60 269.01
1485 8.6817 42551.60 43266.60 268.78
1486 8.6854 43520.90 43260.60 271.06
1487 8.6892 42749.50 43254.60 267.57
1488 8.6930 43773.10 43248.60 270.41
1489 8.6967 43063.00 43242.60 267.61
1490 8.7005 43364.80 43236.70 270.55
1491 8.7042 43128.70 43230.70 266.43
1492 8.7080 43267.80 43224.80 269.24
1493 8.7117 42774.30 43218.90 267.80
1494 8.7155 43699.10 43212.90 270.80
1495 8.7193 42588.70 43207.00 268.18
1496 8.7230 42817.10 43201.10 266.40
1497 8.7268 42746.90 43195.20 267.78
1498 8.7305 43446.40 43189.30 269.34
1499 8.7343 42874.40 43183.40 269.26
1500 8.7381 43000.90 43177.50 269.34
1501 8.7418 42803.40 43171.60 264.80
1502 8.7456 43355.30 43165.70 270.10
1503 8.7493 43109.50 43159.90 267.46
1504 8.7531 43147.30 43154.00 268.18
1505 8.7569 42762.60 43148.10 268.60
1506 8.7606 43201.20 43142.30 269.41
1507 8.7644 42650.10 43136.40 268.06
1508 8.7681 43768.30 43130.60 271.87
1509 8.7719 42796.00 43124.80 267.49
1510 8.7757 43700.30 43119.00 270.80
1511 8.7794 42815.00 43113.10 268.92
1512 8.7832 43409.10 43107.30 268.95
1513 8.7869 42554.10 43101.50 267.70
1514 8.7907 43409.20 43095.70 269.85
1515 8.7945 42492.00 43090.00 267.17
1516 8.7982 43041.50 43084.20 269.55
1517 8.8020 42178.30 43078.40 263.30
1518 8.8057 43028.40 43072.60 270.03
1519 8.8095 42275.70 43066.90 266.82
1520 8.8133 42814.20 43061.10 268.42
1521 8.8170 42336.10 43055.40 265.54
1522 8.8208 43063.80 43049.60 269.35
1523 8.8245 42638.20 43043.90 266.81
1524 8.8283 43362.40 43038.20 269.81
1525 8.8321 42314.90 43032.40 266.12
1526 8.8358 43297.30 43026.70 270.32
1527 8.8396 42520.20 43021.00 266.35
1528 8.8433 43144.00 43015.30 269.02
1529 8.8471 42450.90 43009.60 266.61
1530 8.8509 42898.90 43003.90 268.03
1531 8.8546 42477.50 42998.30 266.52
1532 8.8584 43303.60 42992.60 269.18
1533 8.8621 42884.80 42986.90 268.08
1534 8.8659 43171.90 42981.30 270.31
1535 8.8697 42468.20 42975.60 266.22
1536 8.8734 42824.60 42969.90 266.96
1537 8.8772 42863.20 42964.30 268.99
1538 8.8809 42707.90 42958.70 268.12
1539 8.8847 42518.20 42953.00 267.08
1540 8.8885 43116.40 42947.40 269.29
1541 8.8922 42372.80 42941.80 265.56
1542 8.8960 42850.00 42936.20 267.83
1543 8.8997 42441.70 42930.60 266.29
1544 8.9035 42689.50 42925.00 266.55
1545 8.9073 41612.40 42919.40 264.10
1546 8.9110 43044.40 42913.80 268.51
1547 8.9148 42417.00 42908.20 265.86
1548 8.9185 42830.70 42902.70 268.86
1549 8.9223 42286.40 42897.10 266.24
1550 8.9261 43013.30 42891.50 268.54
1551 8.9298 42326.10 42886.00 265.00
1552 8.9336 42880.60 42880.40 267.42
1553 8.9373 42312.60 42874.90 265.25
1554 8.9411 42902.40 42869.40 266.81
1555 8.9449 42700.00 42863.90 265.96
1556 8.9486 43106.90 42858.30 268.77
1557 8.9524 42156.90 42852.80 264.38
1558 8.9562 43235.60 42847.30 269.37
1559 8.9599 42405.50 42841.80 266.13
1560 8.9637 43196.90 42836.30 269.47
1561 8.9674 42692.70 42830.80 266.74
1562 8.9712 42972.00 42825.30 269.79
1563 8.9749 42528.00 42819.80 268.01
1564 8.9787 42676.80 42814.40 270.63
1565 8.9825 42581.70 42808.90 269.28
1566 8.9862 43543.50 42803.40 275.38
1567 8.9900 42391.60 42798.00 270.46
1568 8.9937 42969.30 42792.50 267.01
1569 8.9975 42187.00 42787.10 264.61
1570 9.0013 42738.70 42781.70 266.74
1571 9.0050 41926.80 42776.20 264.28
1572 9.0088 43080.80 42770.80 267.67
1573 9.0126 42410.50 42765.40 265.47
1574 9.0163 43280.80 42760.00 268.55
1575 9.0201 41847.80 42754.60 263.44
1576 9.0238 42762.30 42749.20 267.41
1577 9.0276 42375.30 42743.80 267.39
1578 9.0314 43102.10 42738.40 269.37
1579 9.0351 42839.80 42733.00 268.21
1580 9.0389 43287.80 42727.70 270.92
1581 9.0426 42212.50 42722.30 266.04
1582 9.0464 42837.80 42716.90 267.99
1583 9.0501 42412.90 42711.60 267.36
1584 9.0539 43068.30 42706.20 268.83
1585 9.0577 42318.60 42700.90 265.10
1586 9.0614 42979.60 42695.50 269.85
1587 9.0652 41934.40 42690.20 265.29
1588 9.0689 42641.70 42684.90 269.07
1589 9.0727 42236.30 42679.50 267.02
1590 9.0765 43034.70 42674.20 270.08
1591 9.0802 42408.00 42668.90 266.80
1592 9.0840 42612.70 42663.60 267.67
1593 9.0878 42377.10 42658.30 266.50
1594 9.0915 43197.20 42653.00 270.50
1595 9.0953 42217.00 42647.70 265.47
1596 9.0990 42846.00 42642.40 267.68
1597 9.1028 42082.20 42637.20 265.38
1598 9.1066 42709.10 42631.90 268.92
1599 9.1103 42445.20 42626.60 268.47
1600 9.1141 42495.50 42621.40 269.86
1601 9.1178 41962.90 42616.10 264.48
1602 9.1216 42829.30 42610.90 267.97
1603 9.1254 41955.70 42605.60 265.49
1604 9.1291 42848.30 42600.40 266.96
1605 9.1329 41990.30 42595.20 264.45
1606 9.1366 42647.80 42589.90 267.20
1607 9.1404 41890.40 42584.70 263.36
1608 9.1442 43035.00 42579.50 269.65
1609 9.1479 42143.30 42574.30 265.43
1610 9.1517 42695.10 42569.10 268.10
1611 9.1554 42356.40 42563.90 265.78
1612 9.1592 42652.90 42558.70 267.88
1613 9.1630 42224.80 42553.50 265.73
1614 9.1667 43136.80 42548.30 269.94
1615 9.1705 42070.50 42543.20 264.34
1616 9.1742 42642.60 42538.00 267.43
1617 9.1780 42099.20 42532.80 264.77
1618 9.1818 42660.70 42527.60 267.20
1619 9.1855 42225.80 42522.50 266.60
1620 9.1893 42316.00 42517.30 266.24
1621 9.1931 41839.30 42512.20 264.41
1622 9.1968 42968.40 42507.10 269.50
1623 9.2006 41867.70 42501.90 263.19
1624 9.2043 42251.20 42496.80 264.74
1625 9.2081 41706.70 42491.70 263.63
1626 9.2119 43084.90 42486.60 269.83
1627 9.2156 41665.40 42481.40 261.99
1628 9.2194 42839.50 42476.30 267.16
1629 9.2231 41780.30 42471.20 264.43
1630 9.2269 42174.30 42466.10 265.09
1631 9.2306 42010.40 42461.00 264.90
1632 9.2344 42082.10 42456.00 264.12
1633 9.2382 41878.00 42450.90 263.65
1634 9.2419 43007.30 42445.80 269.51
1635 9.2457 41836.30 42440.70 263.53
1636 9.2494 42389.60 42435.70 264.97
1637 9.2532 41495.20 42430.60 261.83
1638 9.2570 42753.50 42425.50 266.74
1639 9.2607 41964.80 42420.50 264.33
1640 9.2645 42682.70 42415.40 268.93
1641 9.2683 41593.50 42410.40 264.53
1642 9.2720 42920.60 42405.40 268.34
1643 9.2758 41565.90 42400.30 262.56
1644 9.2795 42298.40 42395.30 266.28
1645 9.2833 42021.20 42390.30 265.44
1646 9.2871 41978.30 42385.30 265.37
1647 9.2908 41715.40 42380.30 263.73
1648 9.2946 42579.70 42375.20 266.89
1649 9.2983 41927.10 42370.20 264.33
1650 9.3021 42671.90 42365.20 266.87
1651 9.3059 41931.10 42360.30 264.47
1652 9.3096 42347.80 42355.30 265.13
1653 9.3134 41796.70 42350.30 264.58
1654 9.3172 42505.70 42345.30 267.45
1655 9.3209 41500.40 42340.30 262.16
1656 9.3247 42307.50 42335.40 264.46
1657 9.3284 41771.70 42330.40 264.57
1658 9.3322 42524.70 42325.40 266.43
1659 9.3359 41667.30 42320.50 263.61
1660 9.3397 42524.90 42315.50 266.35
1661 9.3435 41625.00 42310.60 262.62
1662 9.3472 42453.40 42305.70 266.89
1663 9.3510 41887.70 42300.70 264.56
1664 9.3547 42330.80 42295.80 264.09
1665 9.3585 41626.80 42290.90 263.72
1666 9.3623 42307.20 42285.90 265.38
1667 9.3660 41807.40 42281.00 263.85
1668 9.3698 42314.80 42276.10 265.24
1669 9.3736 41538.80 42271.20 263.35
1670 9.3773 42383.90 42266.30 265.97
1671 9.3811 41739.80 42261.40 264.10
1672 9.3848 42128.40 42256.50 266.76
1673 9.3886 41382.50 42251.60 262.52
1674 9.3924 41832.00 42246.70 264.58
1675 9.3961 41209.80 42241.80 262.69
1676 9.3999 42474.90 42237.00 267.35
1677 9.4036 41655.00 42232.10 261.03
1678 9.4074 42567.80 42227.20 267.39
1679 9.4112 41569.90 42222.40 264.13
1680 9.4149 42439.30 42217.50 267.11
1681 9.4187 41761.90 42212.70 264.30
1682 9.4224 42321.40 42207.80 267.09
1683 9.4262 41518.90 42203.00 262.51
1684 9.4300 42040.00 42198.10 264.94
1685 9.4337 41308.60 42193.30 260.84
1686 9.4375 42306.30 42188.40 267.15
1687 9.4412 41521.00 42183.60 263.47
1688 9.4450 42264.40 42178.80 266.03
1689 9.4488 41439.40 42174.00 262.97
1690 9.4525 42192.10 42169.20 266.05
1691 9.4563 41425.60 42164.30 263.16
1692 9.4600 42075.00 42159.50 265.63
1693 9.4638 41247.00 42154.70 262.34
1694 9.4676 42436.40 42149.90 264.81
1695 9.4713 41657.40 42145.10 263.85
1696 9.4751 42006.00 42140.30 266.72
1697 9.4789 41085.10 42135.60 261.80
1698 9.4826 42258.70 42130.80 266.53
1699 9.4864 41550.60 42126.00 264.26
1700 9.4901 41978.90 42121.20 266.01
1701 9.4939 41328.40 42116.50 263.32
1702 9.4977 42027.80 42111.70 265.84
1703 9.5014 41494.60 42106.90 263.02
1704 9.5052 41989.30 42102.20 266.52
1705 9.5089 41419.90 42097.40 263.06
1706 9.5127 42260.90 42092.60 265.95
1707 9.5165 41246.00 42087.90 263.69
1708 9.5202 42122.40 42083.20 266.45
1709 9.5240 41476.90 42078.40 263.09
1710 9.5277 41891.30 42073.70 265.71
1711 9.5315 41149.40 42069.00 262.69
1712 9.5353 42063.90 42064.20 265.46
1713 9.5390 41580.80 42059.50 263.60
1714 9.5428 41684.40 42054.80 263.68
1715 9.5465 41560.60 42050.10 263.76
1716 9.5503 42110.40 42045.30 265.78
1717 9.5541 41183.60 42040.60 262.48
1718 9.5578 42254.90 42035.90 266.99
1719 9.5616 41427.70 42031.20 263.14
1720 9.5653 41874.40 42026.50 264.75
1721 9.5691 41471.20 42021.80 263.40
1722 9.5729 42192.10 42017.10 265.86
1723 9.5766 41155.70 42012.50 262.54
1724 9.5804 42088.80 42007.80 266.33
1725 9.5842 41315.70 42003.10 263.48
1726 9.5879 41772.10 41998.40 264.17
1727 9.5917 41185.70 41993.70 262.49
1728 9.5954 41933.70 41989.10 269.48
1729 9.5992 41093.90 41984.40 262.55
1730 9.6030 41906.80 41979.70 264.95
1731 9.6067 41504.80 41975.10 267.36
1732 9.6105 41850.10 41970.40 266.93
1733 9.6142 41100.40 41965.80 262.87
1734 9.6180 41730.40 41961.10 265.31
1735 9.6218 41322.10 41956.50 264.80
1736 9.6255 41473.90 41951.80 266.48
1737 9.6293 41027.40 41947.20 262.90
1738 9.6330 41841.30 41942.60 265.21
1739 9.6368 41095.40 41937.90 263.29
1740 9.6406 41489.20 41933.30 263.65
1741 9.6443 41210.40 41928.70 263.99
1742 9.6481 41621.30 41924.10 264.40
1743 9.6518 41309.60 41919.40 264.16
1744 9.6556 41631.10 41914.80 264.62
1745 9.6594 40710.60 41910.20 260.43
1746 9.6631 42027.30 41905.60 263.30
1747 9.6669 40767.00 41901.00 260.79
1748 9.6706 41868.70 41896.40 265.53
1749 9.6744 40682.50 41891.80 262.36
1750 9.6782 41600.30 41887.20 261.69
1751 9.6819 40662.80 41882.60 260.28
1752 9.6857 41318.10 41878.00 261.34
1753 9.6895 41166.50 41873.40 263.47
1754 9.6932 41658.80 41868.80 263.94
1755 9.6970 40627.00 41864.30 261.48
1756 9.7007 41370.70 41859.70 263.80
1757 9.7045 40559.00 41855.10 259.88
1758 9.7083 41512.50 41850.50 263.85
1759 9.7120 40544.20 41846.00 260.13
1760 9.7158 41424.80 41841.40 264.75
1761 9.7195 40626.50 41836.80 261.78
1762 9.7233 41213.30 41832.30 261.70
1763 9.7270 40876.40 41827.70 260.88
1764 9.7308 41589.90 41823.20 264.83
1765 9.7346 40782.80 41818.60 261.67
1766 9.7383 41463.50 41814.10 263.53
1767 9.7421 40618.20 41809.50 260.03
1768 9.7459 41021.00 41805.00 262.18
1769 9.7496 40944.10 41800.40 261.50
1770 9.7534 41345.40 41795.90 261.27
1771 9.7571 40308.90 41791.40 259.94
1772 9.7609 41652.40 41786.80 264.23
1773 9.7647 40938.90 41782.30 262.59
1774 9.7684 41048.20 41777.80 262.49
1775 9.7722 40907.40 41773.30 261.71
1776 9.7759 41591.50 41768.70 262.72
1777 9.7797 40705.70 41764.20 262.06
1778 9.7835 41526.60 41759.70 262.45
1779 9.7872 40712.10 41755.20 261.05
1780 9.7910 41644.10 41750.70 265.77
1781 9.7948 40584.70 41746.20 260.44
1782 9.7985 41324.10 41741.70 264.41
1783 9.8023 40971.50 41737.20 263.02
1784 9.8060 41566.40 41732.70 264.07
1785 9.8098 40438.00 41728.20 259.86
1786 9.8135 41725.80 41723.70 264.03
1787 9.8173 40677.90 41719.20 259.39
1788 9.8211 41143.90 41714.70 261.43
1789 9.8248 40607.30 41710.20 261.65
1790 9.8286 41723.50 41705.70 266.03
1791 9.8323 41008.20 41701.20 260.19
1792 9.8361 41510.50 41696.70 265.03
1793 9.8399 40828.10 41692.30 262.15
1794 9.8436 41606.10 41687.80 265.08
1795 9.8474 40589.00 41683.30 258.61
1796 9.8512 41406.90 41678.80 264.41
1797 9.8549 40523.90 41674.40 260.56
1798 9.8587 41276.90 41669.90 263.47
1799 9.8624 40599.60 41665.40 261.76
1800 9.8662 41225.80 41661.00 263.83
1801 9.8700 40970.80 41656.50 262.59
1802 9.8737 41351.70 41652.10 261.95
1803 9.8775 40875.10 41647.60 261.57
1804 9.8812 41450.60 41643.20 263.55
1805 9.8850 40810.50 41638.70 262.64
1806 9.8888 41445.70 41634.20 263.58
1807 9.8925 41337.20 41629.80 263.90
1808 9.8963 41255.90 41625.40 264.22
1809 9.9000 40715.50 41620.90 260.93
1810 9.9038 41490.40 41616.50 262.04
1811 9.9076 40658.80 41612.00 262.53
1812 9.9113 41062.10 41607.60 260.98
1813 9.9151 40570.80 41603.20 261.05
1814 9.9188 41369.70 41598.70 265.18
1815 9.9226 40989.00 41594.30 263.07
1816 9.9264 41705.00 41589.90 266.70
1817 9.9301 40828.20 41585.40 263.78
1818 9.9339 40989.30 41581.00 263.15
1819 9.9376 40772.30 41576.60 261.50
1820 9.9414 41114.00 41572.20 263.58
1821 9.9452 41040.50 41567.80 262.44
1822 9.9489 41111.60 41563.30 262.96
1823 9.9527 40925.40 41558.90 262.50
1824 9.9565 41512.60 41554.50 265.37
1825 9.9602 40559.60 41550.10 262.39
1826 9.9640 40957.40 41545.70 262.87
1827 9.9677 40874.80 41541.30 261.44
1828 9.9715 41397.20 41536.90 264.79
1829 9.9753 41127.80 41532.50 263.30
1830 9.9790 41414.70 41528.00 264.09
1831 9.9828 40721.90 41523.70 262.46
1832 9.9865 41535.40 41519.20 266.95
1833 9.9903 40753.70 41514.80 261.15
1834 9.9941 41244.10 41510.40 264.63
1835 9.9978 40660.00 41506.10 260.96
1836 10.0016 41129.60 41501.60 262.91
1837 10.0053 40800.90 41497.30 262.86
1838 10.0091 41771.10 41492.90 267.03
1839 10.0128 40988.50 41488.50 262.49
1840 10.0166 41116.50 41484.10 261.71
1841 10.0204 40549.60 41479.70 261.27
1842 10.0241 41617.40 41475.40 264.11
1843 10.0279 40696.10 41470.90 263.00
1844 10.0316 40875.40 41466.60 262.72
1845 10.0354 40647.10 41462.20 263.75
1846 10.0392 41191.20 41457.80 264.00
1847 10.0429 40782.20 41453.50 262.18
1848 10.0467 41346.10 41449.00 262.08
1849 10.0504 40797.10 41444.70 262.15
1850 10.0542 41468.10 41440.30 265.55
1851 10.0580 40569.90 41435.90 260.21
1852 10.0617 41370.30 41431.60 265.16
1853 10.0655 40617.50 41427.20 261.46
1854 10.0692 40929.90 41422.90 264.62
1855 10.0730 40549.90 41418.50 263.76
1856 10.0768 41059.20 41414.00 263.48
1857 10.0805 40857.60 41409.70 263.08
1858 10.0843 41332.70 41405.30 265.36
1859 10.0880 40831.70 41401.00 262.06
1860 10.0918 41281.40 41396.60 264.89
1861 10.0956 40519.20 41392.20 261.78
1862 10.0993 41308.00 41387.90 265.75
1863 10.1031 40703.80 41383.50 262.40
1864 10.1068 41515.00 41379.20 265.44
1865 10.1106 40742.70 41374.80 261.23
1866 10.1144 41287.60 41370.40 264.80
1867 10.1181 40742.90 41366.20 263.42
1868 10.1219 41418.40 41361.80 266.12
1869 10.1257 40634.40 41357.40 261.03
1870 10.1294 40927.00 41353.10 262.65
1871 10.1332 40943.00 41348.70 261.85
1872 10.1369 41380.10 41344.40 265.29
1873 10.1407 40446.30 41340.00 261.82
1874 10.1445 41073.30 41335.60 263.92
1875 10.1482 40530.10 41331.30 261.29
1876 10.1520 41366.50 41326.90 266.57
1877 10.1557 40404.90 41322.70 261.80
1878 10.1595 40999.50 41318.30 262.01
1879 10.1633 40728.30 41313.90 262.82
1880 10.1670 40804.20 41309.60 263.09
1881 10.1708 40495.20 41305.20 263.05
1882 10.1745 40921.60 41301.00 264.18
1883 10.1783 40399.80 41296.60 260.80
1884 10.1821 40978.30 41292.20 262.74
1885 10.1858 40627.30 41287.90 261.77
1886 10.1896 41161.20 41283.50 263.79
1887 10.1933 40164.00 41279.30 259.61
1888 10.1971 41074.90 41274.90 263.60
1889 10.2009 40471.70 41270.50 261.64
1890 10.2046 40895.30 41266.20 262.27
1891 10.2084 40561.80 41261.80 262.40
1892 10.2121 40944.20 41257.60 263.21
1893 10.2159 40607.50 41253.20 262.70
1894 10.2197 41131.50 41248.80 262.93
1895 10.2234 40180.40 41244.60 258.04
1896 10.2272 40990.00 41240.20 263.83
1897 10.2309 40464.90 41235.90 259.88
1898 10.2347 41000.50 41231.50 263.97
1899 10.2385 40022.50 41227.20 258.93
1900 10.2422 41105.70 41222.90 262.33
1901 10.2460 40196.80 41218.50 261.04
1902 10.2497 40762.30 41214.30 261.40
1903 10.2535 40276.10 41209.90 258.11
1904 10.2573 40811.90 41205.50 262.97
1905 10.2610 39491.40 41201.20 255.67
1906 10.2648 40816.30 41196.90 261.80
1907 10.2685 40018.80 41192.60 259.23
1908 10.2723 40843.80 41188.20 258.79
1909 10.2761 39785.00 41183.90 257.11
1910 10.2798 40738.80 41179.60 262.53
1911 10.2836 40561.20 41175.20 262.50
1912 10.2873 40444.70 41171.00 259.47
1913 10.2911 39799.10 41166.60 258.19
1914 10.2949 40411.70 41162.20 260.35
1915 10.2986 40276.50 41158.00 257.39
1916 10.3024 40576.50 41153.60 260.73
1917 10.3061 39992.10 41149.30 258.95
1918 10.3099 40744.50 41145.00 262.18
1919 10.3137 39815.20 41140.60 257.47
1920 10.3174 40889.10 41136.30 263.03
1921 10.3212 39899.30 41132.00 258.34
1922 10.3249 40397.90 41127.70 260.88
1923 10.3287 39901.60 41123.30 258.21
1924 10.3325 40691.50 41118.90 262.73
1925 10.3362 40262.20 41114.70 260.37
1926 10.3400 40713.90 41110.30 263.14
1927 10.3437 39738.00 41106.10 257.24
1928 10.3475 40838.50 41101.70 261.36
1929 10.3513 39983.10 41097.30 258.66
1930 10.3550 40946.70 41093.10 264.14
1931 10.3588 39725.00 41088.70 257.25
1932 10.3625 40559.50 41084.40 260.66
1933 10.3663 39730.90 41080.10 255.69
1934 10.3701 40400.10 41075.70 260.70
1935 10.3738 40118.50 41071.40 259.97
1936 10.3776 40536.20 41067.00 262.11
1937 10.3813 40024.60 41062.80 259.79
1938 10.3851 40576.60 41058.40 261.07
1939 10.3889 40389.90 41054.00 262.55
1940 10.3926 40416.90 41049.80 261.17
1941 10.3964 40164.20 41045.40 261.18
1942 10.4001 40408.90 41041.10 260.41
1943 10.4039 39494.50 41036.80 256.83
1944 10.4077 40298.20 41032.40 259.92
1945 10.4114 39771.80 41028.10 258.92
1946 10.4152 40423.20 41023.70 260.18
1947 10.4189 39673.20 41019.50 258.70
1948 10.4227 40444.80 41015.10 261.64
1949 10.4265 40123.80 41010.70 261.25
1950 10.4302 40228.90 41006.40 257.36
1951 10.4340 40353.60 41002.10 261.15
1952 10.4377 40383.20 40997.80 262.30
1953 10.4415 39881.50 40993.40 257.36
1954 10.4453 40808.40 40989.00 261.14
1955 10.4490 39933.40 40984.80 259.57
1956 10.4528 40610.80 40980.40 262.76
1957 10.4565 40002.00 40976.10 259.09
1958 10.4603 40488.60 40971.70 261.11
1959 10.4641 39916.30 40967.40 259.55
1960 10.4678 40227.30 40963.10 261.01
1961 10.4716 40201.00 40958.70 259.53
1962 10.4753 40801.60 40954.40 262.33
1963 10.4791 40328.40 40950.00 261.58
1964 10.4829 40593.70 40945.60 261.77
1965 10.4866 39920.20 40941.40 260.10
1966 10.4904 40581.60 40937.00 263.94
1967 10.4941 39872.20 40932.70 260.30
1968 10.4979 40711.50 40928.30 261.94
1969 10.5017 39610.00 40923.90 260.03
1970 10.5054 40639.80 40919.60 261.79
1971 10.5092 39705.10 40915.20 256.94
1972 10.5129 40657.80 40911.00 263.65
1973 10.5167 39573.90 40906.60 257.33
1974 10.5205 40411.30 40902.20 259.99
1975 10.5242 39849.10 40897.90 260.47
1976 10.5280 40650.30 40893.50 263.62
1977 10.5317 39825.40 40889.20 259.17
1978 10.5355 40275.50 40884.80 261.86
1979 10.5393 40330.80 40880.40 263.05
1980 10.5430 40465.80 40876.10 261.95
1981 10.5468 39980.30 40871.70 258.32
1982 10.5505 40511.40 40867.40 262.57
1983 10.5543 39935.70 40863.00 260.40
1984 10.5581 40427.40 40858.60 259.78
1985 10.5618 39952.20 40854.30 257.28
1986 10.5656 40379.40 40849.90 259.38
1987 10.5693 39886.80 40845.60 258.44
1988 10.5731 40388.10 40841.20 259.45
1989 10.5768 40068.20 40836.90 258.17
1990 10.5806 40709.10 40832.50 260.95
1991 10.5844 39859.00 40828.10 257.72
1992 10.5881 40499.30 40823.80 258.82
1993 10.5919 39913.70 40819.40 257.85
1994 10.5956 40544.00 40815.10 259.80
1995 10.5994 39801.30 40810.60 254.77
1996 10.6032 40467.20 40806.20 260.68
1997 10.6069 39955.90 40801.90 255.03
1998 10.6107 39876.70 40797.50 257.41
1999 10.6144 39720.70 40793.20 256.57
2000 10.6182 40348.90 40788.80 260.41
2001 10.6220 39835.00 40784.30 256.57
2002 10.6257 40260.50 40780.00 259.19
2003 10.6295 40139.90 40775.60 259.83
2004 10.6332 40235.60 40771.30 258.64
2005 10.6370 39738.50 40766.80 256.97
2006 10.6408 40227.20 40762.40 259.75
2007 10.6445 39565.80 40758.10 256.21
2008 10.6483 40030.60 40753.60 257.64
2009 10.6520 39197.70 40749.30 254.11
2010 10.6558 40401.80 40744.90 259.13
2011 10.6596 39440.10 40740.40 254.81
2012 10.6633 40459.40 40736.10 260.27
2013 10.6671 39705.90 40731.70 256.63
2014 10.6708 40311.70 40727.30 257.05
2015 10.6746 39573.70 40722.90 253.06
2016 10.6784 39978.60 40718.40 255.87
2017 10.6821 39761.50 40714.10 257.46
2018 10.6859 39987.60 40709.60 256.82
2019 10.6896 39822.50 40705.30 257.17
2020 10.6934 39921.70 40700.90 255.90
2021 10.6972 39547.40 40696.40 256.45
2022 10.7009 40279.70 40692.00 257.55
2023 10.7047 39628.40 40687.60 256.24
2024 10.7084 39992.40 40683.20 257.59
2025 10.7122 39461.80 40678.80 255.78
2026 10.7159 40135.80 40674.40 257.93
2027 10.7197 39891.10 40670.00 257.02
2028 10.7235 40031.40 40665.50 258.13
2029 10.7272 39798.00 40661.10 255.47
2030 10.7310 40301.80 40656.70 258.82
2031 10.7347 39658.80 40652.30 257.11
2032 10.7385 40066.20 40647.80 257.12
2033 10.7423 39587.70 40643.30 256.30
2034 10.7460 40048.20 40639.00 257.27
2035 10.7498 39490.10 40634.50 255.64
2036 10.7535 39564.00 40630.10 253.85
2037 10.7573 39654.40 40625.60 257.11
2038 10.7611 40137.90 40621.10 257.85
2039 10.7648 39141.80 40616.80 255.94
2040 10.7686 39649.50 40612.30 254.84
2041 10.7723 39191.60 40607.90 254.72
2042 10.7761 40395.50 40603.40 257.70
2043 10.7799 39704.40 40598.90 255.90
2044 10.7836 40044.70 40594.50 257.34
2045 10.7874 39579.80 40590.00 252.36
2046 10.7911 39800.00 40585.60 256.66
2047 10.7949 39806.20 40581.10 256.48
2048 10.7986 39766.00 40576.70 255.54
2049 10.8024 39325.10 40572.20 255.49
2050 10.8062 39985.70 40567.70 258.70
2051 10.8099 39411.90 40563.30 253.34
2052 10.8137 40464.80 40558.80 260.24
2053 10.8174 39475.60 40554.40 255.49
2054 10.8212 40386.10 40549.80 259.32
2055 10.8250 39345.60 40545.30 255.29
2056 10.8287 40284.70 40540.90 259.02
2057 10.8325 39102.90 40536.40 253.77
2058 10.8362 40094.90 40531.90 256.15
2059 10.8400 39387.50 40527.40 254.18
2060 10.8438 40125.70 40522.90 256.12
2061 10.8475 39425.40 40518.50 255.45
2062 10.8513 40098.20 40513.90 257.97
2063 10.8550 39350.50 40509.50 254.08
2064 10.8588 40183.40 40504.90 256.85
2065 10.8625 39692.00 40500.50 256.40
2066 10.8663 39859.70 40496.00 257.13
2067 10.8701 39711.40 40491.40 257.38
2068 10.8738 40181.10 40487.00 257.88
2069 10.8776 39298.40 40482.40 252.64
2070 10.8813 40091.80 40478.00 258.35
2071 10.8851 39020.10 40473.40 254.76
2072 10.8889 39645.60 40468.80 256.51
2073 10.8926 39416.50 40464.40 254.76
2074 10.8964 40293.40 40459.80 260.02
2075 10.9001 39527.20 40455.30 256.12
2076 10.9039 39876.90 40450.80 258.14
2077 10.9077 39789.80 40446.20 256.00
2078 10.9114 39891.40 40441.70 258.09
2079 10.9152 39582.20 40437.10 256.14
2080 10.9189 39612.90 40432.70 257.26
2081 10.9227 39385.30 40428.10 254.99
2082 10.9264 40033.70 40423.60 258.52
2083 10.9302 39776.70 40419.00 256.49
2084 10.9340 40022.30 40414.40 258.88
2085 10.9377 39527.50 40409.90 255.49
2086 10.9415 40102.90 40405.30 257.81
2087 10.9452 39345.30 40400.80 256.74
2088 10.9490 39782.70 40396.20 257.33
2089 10.9528 39256.00 40391.60 256.07
2090 10.9565 40208.20 40387.10 259.78
2091 10.9603 39072.40 40382.50 254.27
2092 10.9640 40287.20 40378.00 259.15
2093 10.9678 39560.40 40373.40 256.58
2094 10.9715 40219.30 40368.90 260.19
2095 10.9753 39132.60 40364.20 256.08
2096 10.9791 39526.50 40359.60 254.05
2097 10.9828 39120.00 40355.10 255.74
2098 10.9866 39757.00 40350.50 257.55
2099 10.9903 39809.60 40345.90 258.28
2100 10.9941 40149.50 40341.30 258.20
2101 10.9979 39270.70 40336.70 257.09
2102 11.0016 39861.60 40332.10 259.64
2103 11.0054 39290.60 40327.50 256.95
2104 11.0091 40138.30 40322.90 260.34
2105 11.0129 39473.10 40318.30 257.52
2106 11.0166 40149.00 40313.70 258.22
2107 11.0204 39280.60 40309.10 256.71
2108 11.0242 40299.30 40304.40 260.39
2109 11.0279 39275.10 40299.90 255.38
2110 11.0317 39833.80 40295.20 259.43
2111 11.0354 39392.60 40290.60 259.10
2112 11.0392 40230.80 40285.90 258.41
2113 11.0430 39272.60 40281.30 255.23
2114 11.0467 40017.70 40276.70 257.64
2115 11.0505 39244.80 40272.00 255.27
2116 11.0542 40115.30 40267.40 256.91
2117 11.0580 39128.50 40262.70 255.62
2118 11.0617 40079.00 40258.20 258.17
2119 11.0655 39193.80 40253.50 253.87
2120 11.0693 40033.40 40248.80 257.88
2121 11.0730 39260.80 40244.20 254.64
2122 11.0768 40037.50 40239.50 256.29
2123 11.0805 39175.10 40234.90 255.33
2124 11.0843 40276.80 40230.10 258.86
2125 11.0881 39198.80 40225.40 256.24
2126 11.0918 39809.60 40220.80 257.83
2127 11.0956 39244.60 40216.10 255.38
2128 11.0993 39774.50 40211.50 259.20
2129 11.1031 39591.90 40206.70 256.98
2130 11.1068 40478.80 40202.10 260.29
2131 11.1106 39188.60 40197.40 255.49
2132 11.1144 39922.30 40192.60 256.91
2133 11.1181 39249.20 40188.00 250.72
2134 11.1219 39735.40 40183.30 259.51
2135 11.1256 39254.90 40178.60 255.33
2136 11.1294 40236.60 40173.90 259.71
2137 11.1332 39133.20 40169.10 255.67
2138 11.1369 39594.40 40164.50 257.58
2139 11.1407 39342.10 40159.70 255.42
2140 11.1444 39717.00 40155.00 256.38
2141 11.1482 39545.80 40150.30 256.89
2142 11.1519 40229.60 40145.60 258.75
2143 11.1557 39447.80 40140.80 257.01
2144 11.1595 39899.40 40136.00 257.29
2145 11.1632 39167.50 40131.40 256.31
2146 11.1670 40007.90 40126.60 258.31
2147 11.1707 39397.90 40121.90 256.10
2148 11.1745 39731.40 40117.10 257.81
2149 11.1782 39393.50 40112.40 256.36
2150 11.1820 39805.30 40107.60 257.87
2151 11.1858 39647.00 40102.80 256.18
2152 11.1895 40154.70 40098.10 260.61
2153 11.1933 38963.60 40093.30 254.77
2154 11.1970 39387.00 40088.60 256.37
2155 11.2008 39298.90 40083.80 255.06
2156 11.2046 40184.80 40078.90 259.55
2157 11.2083 39331.00 40074.20 256.53
2158 11.2121 39880.50 40069.40 257.80
2159 11.2158 39144.00 40064.70 254.75
2160 11.2196 40026.00 40059.80 258.45
2161 11.2233 39531.80 40055.10 257.08
2162 11.2271 39883.80 40050.20 257.84
2163 11.2309 39318.40 40045.40 256.99
2164 11.2346 39852.30 40040.60 259.74
2165 11.2384 38922.60 40035.80 253.38
2166 11.2421 39523.30 40031.00 257.37
2167 11.2459 39145.30 40026.20 255.76
2168 11.2496 39605.10 40021.40 257.79
2169 11.2534 39068.20 40016.50 255.75
2170 11.2572 39547.20 40011.60 257.43
2171 11.2609 38984.50 40006.90 254.92
2172 11.2647 40026.80 40002.00 259.33
2173 11.2684 38889.10 39997.20 253.62
2174 11.2722 39811.10 39992.30 258.60
2175 11.2759 39420.30 39987.50 255.60
2176 11.2797 39579.00 39982.60 256.51
2177 11.2835 39343.10 39977.70 255.90
2178 11.2872 39795.00 39972.90 258.16
2179 11.2910 39094.60 39968.00 254.72
2180 11.2947 39388.60 39963.20 255.40
2181 11.2985 38794.20 39958.30 253.90
2182 11.3022 39691.90 39953.50 257.52
2183 11.3060 38700.50 39948.50 252.84
2184 11.3098 39290.80 39943.60 257.01
2185 11.3135 39212.40 39938.80 255.62
2186 11.3173 39618.70 39933.80 256.80
2187 11.3210 39128.80 39929.00 255.13
2188 11.3248 39510.30 39924.00 256.58
2189 11.3285 39260.30 39919.20 255.51
2190 11.3323 39542.00 39914.20 254.95
2191 11.3361 39362.80 39909.30 255.56
2192 11.3398 39726.10 39904.40 257.42
2193 11.3436 38980.00 39899.40 254.52
2194 11.3473 39499.30 39894.60 256.84
2195 11.3511 38798.40 39889.60 253.20
2196 11.3548 39506.00 39884.80 256.88
2197 11.3586 39064.50 39879.80 253.97
2198 11.3624 39512.00 39874.80 257.11
2199 11.3661 39004.40 39869.90 254.52
2200 11.3699 39375.70 39864.90 254.67
2201 11.3736 39034.90 39860.00 254.82
2202 11.3774 39880.60 39855.00 258.17
2203 11.3811 39136.10 39850.10 255.27
2204 11.3849 39708.20 39845.10 257.23
2205 11.3887 39209.60 39840.00 257.32
2206 11.3924 39426.10 39835.10 253.10
2207 11.3962 39298.50 39830.10 256.36
2208 11.3999 40072.50 39935.30 258.79
2209 11.4037 39370.80 39933.50 257.37
2210 11.4074 39713.30 39931.80 258.41
2211 11.4112 38998.00 39930.20 255.99
2212 11.4150 39775.50 39928.80 257.63
2213 11.4187 39172.00 39927.60 256.55
2214 11.4225 39517.80 39926.60 257.20
2215 11.4262 38882.80 39925.70 254.09
2216 11.4300 39217.30 39925.00 255.29
2217 11.4337 39252.30 39924.60 254.83
2218 11.4375 40066.00 39924.30 260.27
2219 11.4413 38932.60 39924.30 253.95
2220 11.4450 39828.30 39924.50 257.45
2221 11.4488 39360.70 40128.10 255.46
2222 11.4525 39819.40 40134.60 258.29
2223 11.4563 39428.40 40141.80 256.44
2224 11.4600 39924.70 40149.50 259.60
2225 11.4638 38953.90 40158.00 255.88
2226 11.4676 39159.60 40167.20 256.13
2227 11.4713 38991.60 40176.80 255.86
2228 11.4751 39627.20 40187.60 256.74
2229 11.4788 39320.00 40198.90 256.26
2230 11.4826 39683.00 40211.40 258.32
2231 11.4863 39011.80 40224.50 255.16
2232 11.4901 40062.80 40239.10 253.82
2233 11.4938 39223.60 40254.40 256.93
2234 11.4976 39512.10 40271.40 255.51
2235 11.5014 39269.70 40289.70 256.22
2236 11.5051 39998.80 40309.00 260.51
2237 11.5089 39730.10 40330.40 259.23
2238 11.5126 39615.30 40352.90 258.94
2239 11.5164 39426.60 40377.90 265.22
2240 11.5201 40205.70 40404.30 257.78
2241 11.5239 39849.10 40433.70 256.90
2242 11.5277 40138.30 40465.60 258.77
2243 11.5314 39615.30 40499.40 254.92
2244 11.5352 40358.30 40537.10 260.19
2245 11.5389 39823.00 40577.00 255.54
2246 11.5427 40193.40 40621.80 259.46
2247 11.5464 39791.60 40669.50 256.31
2248 11.5502 40542.70 40723.10 258.29
2249 11.5540 40293.40 40782.10 258.85
2250 11.5577 40843.30 40845.20 262.90
2251 11.5615 40133.20 40916.60 256.98
2252 11.5652 41061.10 40993.50 261.05
2253 11.5690 40610.30 41081.10 260.88
2254 11.5727 40920.00 41176.00 262.45
2255 11.5765 40413.50 41284.90 260.05
2256 11.5802 41315.60 41403.80 261.93
2257 11.5840 40679.60 41541.20 260.46
2258 11.5878 41286.70 41697.10 263.43
2259 11.5915 40810.60 41869.70 260.41
2260 11.5953 42104.80 42072.60 265.33
2261 11.5990 41973.10 42300.30 265.10
2262 11.6028 42482.40 42571.80 268.27
2263 11.6065 42293.60 42881.40 267.65
2264 11.6103 43617.60 43257.40 270.20
2265 11.6140 42790.10 43694.80 267.64
2266 11.6178 44340.10 44238.50 274.21
2267 11.6216 44619.60 44908.00 274.48
2268 11.6253 46506.00 45722.00 281.38
2269 11.6291 47333.40 46787.30 284.55
2270 11.6328 49620.90 48141.60 293.56
2271 11.6366 51525.10 50029.20 300.55
2272 11.6403 56543.00 52730.00 318.80
2273 11.6441 62808.30 57546.20 341.39
2274 11.6479 75495.70 67809.70 382.05
2275 11.6516 95586.60 90151.40 444.64
2276 11.6554 136180.00 135679.00 565.79
2277 11.6591 193232.00 204944.00 716.44
2278 11.6629 255050.00 281898.00 870.27
2279 11.6666 266187.00 311775.00 898.82
2280 11.6704 231662.00 265295.00 812.08
2281 11.6741 169940.00 189679.00 656.74
2282 11.6779 128791.00 126293.00 544.42
2283 11.6817 104210.00 89907.60 472.44
2284 11.6854 94217.70 74584.20 441.26
2285 11.6892 89953.80 70159.40 428.60
2286 11.6929 93390.60 71896.10 437.38
2287 11.6967 100825.00 80391.40 461.70
2288 11.7004 124314.00 102315.00 531.05
2289 11.7042 167283.00 154551.00 648.43
2290 11.7079 267228.00 250768.00 900.17
2291 11.7117 408376.00 392048.00 1228.95
2292 11.7155 540753.00 519163.00 1509.76
2293 11.7192 520648.00 527088.00 1475.72
2294 11.7230 376736.00 407138.00 1152.93
2295 11.7267 221550.00 265813.00 786.58
2296 11.7305 134646.00 159659.00 560.74
2297 11.7342 92404.30 102720.00 435.43
2298 11.7380 74274.30 75795.80 379.10
2299 11.7417 63306.90 64141.50 341.74
2300 11.7455 57770.60 57957.10 321.73
2301 11.7493 53350.60 54091.30 307.49
2302 11.7530 50839.00 51428.70 296.63
2303 11.7568 48661.60 49389.20 289.55
2304 11.7605 48210.70 47864.10 288.45
2305 11.7643 45771.60 46634.20 279.88
2306 11.7680 45687.70 45676.70 278.96
2307 11.7718 44076.50 44877.30 271.63
2308 11.7755 44192.40 44235.80 273.10
2309 11.7793 43022.80 43686.00 268.10
2310 11.7831 43519.10 43223.00 270.73
2311 11.7868 42161.70 42838.80 265.53
2312 11.7906 42500.10 42499.30 265.86
2313 11.7943 41258.60 42212.80 262.56
2314 11.7981 41774.10 41956.00 263.39
2315 11.8018 40920.40 41736.10 260.20
2316 11.8056 41180.20 41536.40 260.01
2317 11.8093 40660.90 41363.50 259.23
2318 11.8131 40682.60 41204.70 259.11
2319 11.8168 40183.00 41065.80 257.16
2320 11.8206 40410.00 40937.10 257.94
2321 11.8244 39436.70 40820.70 253.96
2322 11.8281 40156.40 40717.50 257.89
2323 11.8319 39444.80 40620.80 254.24
2324 11.8356 40227.00 40534.50 258.76
2325 11.8394 39392.70 40453.00 254.00
2326 11.8431 40219.30 40379.90 257.56
2327 11.8469 39564.30 40310.50 255.04
2328 11.8506 39715.40 40247.70 255.97
2329 11.8544 39163.70 40187.90 253.78
2330 11.8581 39603.10 40133.50 255.58
2331 11.8619 39249.60 40081.40 254.42
2332 11.8657 39572.20 40032.60 254.90
2333 11.8694 39023.60 39988.00 254.09
2334 11.8732 39727.10 39944.90 256.62
2335 11.8769 39090.50 39905.40 254.68
2336 11.8807 39534.10 39867.00 255.26
2337 11.8844 39064.90 39831.70 254.93
2338 11.8882 39291.90 39797.30 254.28
2339 11.8919 39119.10 39765.60 253.23
2340 11.8957 39823.00 39734.50 257.09
2341 11.8995 39106.50 39705.00 254.38
2342 11.9032 39054.80 39677.50 251.44
2343 11.9070 38944.10 39650.60 254.60
2344 11.9107 39517.30 39625.50 255.55
2345 11.9145 38821.50 39600.80 251.96
2346 11.9182 39480.40 39577.80 255.27
2347 11.9220 39133.80 39555.00 254.87
2348 11.9257 39584.70 39533.70 255.90
2349 11.9295 38863.70 39512.60 253.28
2350 11.9332 39266.30 39492.80 255.06
2351 11.9370 38640.60 39366.70 252.23
2352 11.9408 39408.40 39350.60 256.17
2353 11.9445 39086.80 39335.50 254.05
2354 11.9483 39146.30 39320.40 254.79
2355 11.9520 39150.40 39306.10 254.23
2356 11.9558 39345.10 39291.90 254.61
2357 11.9595 39000.40 39278.40 253.65
2358 11.9633 39748.00 39264.90 255.94
2359 11.9670 38942.40 39252.10 253.79
2360 11.9708 39436.70 39239.20 255.73
2361 11.9745 38875.40 39227.00 252.24
2362 11.9783 38486.70 39214.80 248.21
2363 11.9799 38460.40 39209.70 254.26
2364 11.9837 39896.80 39197.80 257.43
2365 11.9875 38352.00 38984.80 252.94
2366 11.9912 39256.70 38979.10 257.94
2367 11.9950 39145.70 38973.20 257.30
2368 11.9987 39710.00 38967.50 259.72
2369 12.0025 38941.40 38961.60 263.63
2370 12.0062 39503.80 38955.90 255.41
2371 12.0100 38879.20 38950.00 253.46
2372 12.0137 39185.30 38944.30 255.39
2373 12.0175 38698.40 38938.30 251.69
2374 12.0213 39318.70 38932.40 256.46
2375 12.0250 38273.90 38926.70 249.81
2376 12.0288 39205.20 38920.70 255.94
2377 12.0325 38718.00 38915.00 252.46
2378 12.0363 39737.70 38909.00 255.54
2379 12.0400 38862.80 38903.30 253.59
2380 12.0438 39271.90 38897.30 257.07
2381 12.0476 38952.30 38891.40 252.72
2382 12.0513 39342.90 38885.60 254.70
2383 12.0551 39064.60 38879.60 255.16
2384 12.0588 39353.70 38873.80 256.66
2385 12.0626 38879.80 38867.80 254.36
2386 12.0663 39582.10 38862.00 255.54
2387 12.0701 38618.00 38856.00 252.70
2388 12.0738 39378.60 38850.10 256.31
2389 12.0776 38735.20 38844.10 252.62
2390 12.0814 39132.40 38838.10 254.08
2391 12.0851 38881.40 38832.30 253.36
2392 12.0889 38662.80 38826.30 253.62
2393 12.0926 38763.60 38820.40 254.12
2394 12.0964 39020.90 38814.40 252.74
2395 12.1001 38483.80 38808.50 251.18
2396 12.1039 38731.10 38802.40 252.76
2397 12.1077 38575.20 38796.40 251.41
2398 12.1114 39056.40 38790.50 253.12
2399 12.1152 38195.00 38784.40 249.76
2400 12.1189 39072.10 38778.50 253.73
2401 12.1227 38183.70 38772.40 250.21
2402 12.1264 38846.00 38766.50 253.04
2403 12.1302 38721.90 38760.40 253.10
2404 12.1339 38986.40 38754.50 252.93
2405 12.1377 38908.10 38748.40 252.29
2406 12.1415 39072.50 38742.30 254.40
2407 12.1452 38738.20 38736.30 252.21
2408 12.1490 39337.10 38730.20 254.43
2409 12.1527 38604.80 38724.30 251.98
2410 12.1565 39316.90 38718.10 254.08
2411 12.1602 38628.00 38712.20 252.21
2412 12.1640 39305.30 38706.00 255.08
2413 12.1677 38337.80 38700.00 251.00
2414 12.1715 38938.20 38693.90 252.86
2415 12.1753 38379.70 38687.70 250.92
2416 12.1790 38835.30 38681.70 251.68
2417 12.1828 38337.80 38675.50 250.68
2418 12.1865 38765.10 38669.50 252.64
2419 12.1903 38287.70 38663.30 250.37
2420 12.1940 38668.40 38657.30 251.91
2421 12.1978 38370.80 38651.10 251.45
2422 12.2015 38957.20 38645.10 252.63
2423 12.2053 38058.60 38638.90 250.52
2424 12.2091 38604.80 38632.60 251.29
2425 12.2100 38234.20 38631.20 249.27
2426 12.2137 38906.90 38625.10 250.77
2427 12.2175 38605.70 38618.90 251.70
2428 12.2212 39096.40 38612.80 254.82
2429 12.2250 38676.20 38606.60 252.37
2430 12.2287 39087.50 38600.50 254.56
2431 12.2325 38148.50 38594.20 250.28
2432 12.2362 38667.10 38588.10 252.89
2433 12.2400 38118.70 38581.80 249.73
2434 12.2437 39050.40 38575.70 253.03
2435 12.2475 38241.20 38569.50 251.52
2436 12.2513 38921.90 38563.20 252.88
2437 12.2550 38151.70 38557.00 249.65
2438 12.2588 39033.90 38550.70 254.95
2439 12.2625 38551.50 38544.60 250.30
2440 12.2663 38735.60 38538.30 253.28
2441 12.2700 38064.20 38532.10 250.57
2442 12.2738 38892.50 38525.80 253.50
2443 12.2775 38502.90 38519.60 251.35
2444 12.2813 39290.10 38513.30 250.26
2445 12.2851 38418.10 38507.00 252.18
2446 12.2888 38976.40 38500.80 254.01
2447 12.2926 38168.50 38494.40 251.05
2448 12.2963 38867.30 38488.20 253.53
2449 12.3001 37962.40 38481.90 248.81
2450 12.3038 38440.90 38475.70 250.95
2451 12.3076 38533.30 38469.30 252.03
2452 12.3113 38484.50 38463.00 251.07
2453 12.3151 38392.90 38456.70 250.80
2454 12.3188 38588.60 38450.40 252.12
2455 12.3226 38208.60 38444.00 252.11
2456 12.3264 38981.50 38437.60 254.02
2457 12.3301 38458.90 38431.30 252.70
2458 12.3339 38598.50 38424.90 250.42
2459 12.3376 38242.30 38418.70 250.54
2460 12.3414 38984.30 38412.20 254.30
2461 12.3451 38381.10 38405.90 251.78
2462 12.3489 39108.90 38399.50 254.10
2463 12.3526 38370.20 38393.20 250.51
2464 12.3564 38725.00 38386.70 253.16
2465 12.3602 38511.70 38380.30 252.15
2466 12.3639 39360.90 38373.90 251.54
2467 12.3677 38250.00 38367.50 250.84
2468 12.3714 38759.90 38361.10 252.67
2469 12.3752 38314.20 38354.60 251.34
2470 12.3789 38644.80 38348.30 252.92
2471 12.3827 38056.20 38341.80 249.74
2472 12.3864 38754.00 38335.50 251.48
2473 12.3902 38281.80 38328.90 251.63
2474 12.3940 39004.00 38322.40 253.61
2475 12.3977 38344.50 38316.00 252.17
2476 12.4015 38805.60 38309.50 253.30
2477 12.4052 38342.10 38303.10 251.06
2478 12.4090 38874.40 38296.60 252.54
2479 12.4127 38303.30 38290.20 251.46
2480 12.4165 38682.10 38283.60 252.27
2481 12.4202 38538.00 38277.20 252.22
2482 12.4240 38634.40 38270.60 252.82
2483 12.4278 38519.50 38264.00 251.96
2484 12.4315 38243.90 38257.60 251.12
2485 12.4353 37726.90 38251.00 249.13
2486 12.4390 38490.20 38244.60 251.00
2487 12.4428 37977.10 38238.00 248.36
2488 12.4465 38797.90 38231.50 253.25
2489 12.4503 38365.70 38224.90 252.10
2490 12.4540 38010.10 38218.40 250.67
2491 12.4578 38446.60 38211.80 251.58
2492 12.4616 38669.10 38205.10 253.65
2493 12.4653 38316.60 38198.70 251.92
2494 12.4691 38321.70 38192.00 252.39
2495 12.4728 38081.50 38185.50 249.81
2496 12.4766 38904.10 38178.80 253.00
2497 12.4803 38117.50 38172.30 251.17
2498 12.4841 38909.70 38165.60 254.61
2499 12.4878 38109.90 38159.10 251.09
2500 12.4916 38962.70 38152.40 253.98
2501 12.4954 38402.20 38145.70 252.99
2502 12.4991 38790.20 38139.20 254.54
2503 12.5029 38223.10 38132.50 250.97
2504 12.5066 39020.30 38125.90 255.16
2505 12.5104 38092.40 38119.20 250.22
2506 12.5141 38926.80 38112.60 253.62
2507 12.5179 38101.50 38105.90 251.29
2508 12.5216 38673.80 38099.30 252.33
2509 12.5254 38083.10 38092.50 251.55
2510 12.5292 38949.70 38085.80 253.68
2511 12.5329 38314.50 38079.20 252.40
2512 12.5367 38508.60 38072.40 252.89
2513 12.5404 38242.40 38065.80 251.71
2514 12.5442 38480.40 38059.00 252.78
2515 12.5479 38001.00 38052.40 251.14
2516 12.5517 38766.70 38045.60 253.71
2517 12.5555 38409.10 38038.80 252.69
2518 12.5592 38465.90 38032.10 251.99
2519 12.5630 37993.50 38025.30 250.68
2520 12.5667 38513.70 38018.70 252.36
2521 12.5705 38178.30 38011.80 251.06
2522 12.5742 38645.10 38005.20 254.00
2523 12.5780 37907.80 37998.30 249.86
2524 12.5817 38603.20 37991.60 252.06
2525 12.5855 38050.20 37984.80 250.66
2526 12.5893 38872.10 37977.90 254.24
2527 12.5930 37767.90 37971.20 249.21
2528 12.5968 38962.10 37964.30 254.35
2529 12.6005 38424.30 37957.60 252.96
2530 12.6043 38716.40 37950.70 252.76
2531 12.6080 38025.60 37944.00 250.29
2532 12.6118 38646.60 37937.10 253.50
2533 12.6156 37753.50 37930.20 248.96
2534 12.6193 38643.00 37923.40 254.04
2535 12.6231 37812.90 37916.50 249.85
2536 12.6268 38238.70 37909.70 252.10
2537 12.6306 37879.30 37902.80 249.50
2538 12.6343 38254.20 37896.00 251.06
2539 12.6381 37645.60 37889.10 249.24
2540 12.6419 38940.20 37882.10 254.21
2541 12.6456 37934.00 37875.30 250.94
2542 12.6494 38538.80 37868.30 251.49
2543 12.6531 37799.00 37861.50 248.35
2544 12.6569 38437.10 37854.60 251.47
2545 12.6606 38172.80 37847.70 249.32
2546 12.6644 38254.10 37840.70 250.64
2547 12.6682 37953.10 37833.70 250.08
2548 12.6719 38544.90 37826.90 253.36
2549 12.6757 37348.30 37819.90 244.66
2550 12.6794 37860.00 37813.00 247.03
2551 12.6832 38164.40 37806.00 255.35
2552 12.6869 38266.70 37799.10 252.68
2553 12.6907 37667.90 37792.10 247.74
2554 12.6944 38774.60 37785.20 253.12
2555 12.6982 37992.80 37778.10 250.97
2556 12.7020 38474.90 37771.10 251.81
2557 12.7057 37696.80 37764.20 250.05
2558 12.7095 38259.60 37757.10 252.00
2559 12.7132 37554.30 37750.20 247.08
2560 12.7170 39176.00 37743.10 257.22
2561 12.7207 37594.90 37736.20 245.45
2562 12.7245 38195.60 37729.10 251.02
2563 12.7283 38172.50 37722.00 251.30
2564 12.7320 38319.30 37715.00 253.32
2565 12.7358 37769.60 37707.90 249.90
2566 12.7395 38172.20 37700.90 249.28
2567 12.7433 37564.30 37693.80 249.69
2568 12.7470 38029.10 37686.80 250.49
2569 12.7508 37838.70 37679.70 250.00
2570 12.7546 38295.80 37672.50 252.03
2571 12.7583 37702.00 37665.50 248.38
2572 12.7621 38372.70 37658.40 252.57
2573 12.7658 37946.60 37651.40 250.24
2574 12.7696 38409.20 37644.20 249.47
2575 12.7733 37851.90 37637.20 249.52
2576 12.7771 38294.50 37630.00 251.84
2577 12.7809 37677.10 37622.80 246.74
2578 12.7846 38201.30 37615.70 250.81
2579 12.7884 37765.60 37608.50 245.62
2580 12.7921 38349.70 37601.50 251.57
2581 12.7959 37716.10 37594.20 250.17
2582 12.7996 38324.60 37587.20 251.59
2583 12.8034 38248.00 37579.90 250.95
2584 12.8072 38604.80 37572.70 252.66
2585 12.8109 38005.00 37565.60 249.42
2586 12.8147 38716.00 37558.30 253.63
2587 12.8184 38036.60 37551.30 251.05
2588 12.8222 38859.60 37544.00 253.90
2589 12.8259 38588.30 37536.90 253.07
2590 12.8297 39197.50 37529.60 256.40
2591 12.8335 38239.50 37522.30 252.69
2592 12.8372 39007.60 37515.20 254.41
2593 12.8410 38565.60 37507.80 251.34
2594 12.8447 39081.30 37500.70 255.74
2595 12.8485 38091.70 37493.40 251.40
2596 12.8523 38763.80 37486.00 254.06
2597 12.8560 38616.00 37478.90 252.42
2598 12.8598 38690.70 37471.50 253.60
2599 12.8635 38112.60 37464.40 250.87
2600 12.8673 38382.10 37457.00 252.48
2601 12.8710 37643.70 37449.80 249.08
2602 12.8748 38567.10 37442.50 252.79
2603 12.8786 37884.40 37435.10 250.74
2604 12.8823 38598.20 37427.90 252.88
2605 12.8861 37760.40 37420.50 250.11
2606 12.8898 38210.40 37413.30 251.85
2607 12.8936 38108.80 37405.90 251.05
2608 12.8973 38419.70 37398.60 252.63
2609 12.9011 37614.30 37391.20 248.30
2610 12.9049 38529.00 37383.80 252.21
2611 12.9086 37708.70 37376.50 250.24
2612 12.9124 38193.80 37369.10 252.35
2613 12.9161 38086.10 37361.80 250.67
2614 12.9199 38040.80 37354.40 249.95
2615 12.9236 37438.40 37347.10 249.44
2616 12.9274 38398.50 37339.70 252.02
2617 12.9312 37312.90 37332.20 247.68
2618 12.9349 38760.90 37324.90 253.55
2619 12.9387 37891.30 37317.40 250.66
2620 12.9424 38294.90 37310.10 252.73
2621 12.9462 37673.20 37302.60 250.38
2622 12.9500 38408.70 37295.10 252.78
2623 12.9537 37557.40 37287.80 248.88
2624 12.9575 38370.20 37280.20 252.81
2625 12.9612 37875.00 37272.90 251.14
2626 12.9650 38404.50 37265.40 251.60
2627 12.9687 37521.90 37258.00 248.23
2628 12.9725 38543.70 37250.50 252.40
2629 12.9763 37301.70 37242.90 246.87
2630 12.9800 38651.10 37235.60 253.47
2631 12.9838 37966.70 37228.00 250.54
2632 12.9875 38195.60 37220.60 250.29
2633 12.9913 37584.60 37213.00 248.28
2634 12.9950 38474.40 37205.60 251.41
2635 12.9988 37759.20 37198.00 247.50
2636 13.0026 37984.20 37190.40 245.62
2637 13.0063 37256.80 37183.00 247.78
2638 13.0101 38986.60 37175.40 258.86
2639 13.0138 38575.70 37168.00 259.96
2640 13.0176 38995.90 37160.30 256.94
2641 13.0214 38544.30 37152.70 255.06
2642 13.0251 38447.60 37145.30 253.41
2643 13.0289 37759.70 37137.60 247.62
2644 13.0326 37748.40 37130.20 245.78
2645 13.0364 37587.40 37122.50 247.81
2646 13.0401 38460.00 37115.00 252.12
2647 13.0439 38418.50 37107.30 250.96
2648 13.0477 38879.40 37099.70 254.13
2649 13.0514 38037.40 37092.20 251.12
2650 13.0552 38558.40 37084.50 252.60
2651 13.0589 37543.50 37077.00 249.06
2652 13.0627 38359.30 37069.30 252.17
2653 13.0665 37677.50 37061.60 249.79
2654 13.0702 38382.40 37054.00 253.44
2655 13.0740 37967.50 37046.30 251.87
2656 13.0777 38395.60 37038.80 253.11
2657 13.0815 37862.10 37031.00 248.95
2658 13.0852 38164.50 37023.50 251.54
2659 13.0890 37653.90 37015.70 250.61
2660 13.0928 37906.30 37008.00 251.06
2661 13.0965 37863.60 37000.40 250.70
2662 13.1003 38315.20 36992.60 251.63
2663 13.1040 37529.90 36985.00 248.45
2664 13.1078 38321.50 36977.30 253.12
2665 13.1116 37325.90 36969.50 248.70
2666 13.1153 38021.90 36961.90 251.55
2667 13.1191 37804.00 36954.00 249.64
2668 13.1228 37921.70 36946.40 250.23
2669 13.1266 37254.40 36938.60 246.50
2670 13.1303 38086.70 36931.00 251.27
2671 13.1341 37623.90 36923.20 248.63
2672 13.1379 38179.00 36915.30 251.56
2673 13.1416 37285.80 36907.70 246.80
2674 13.1454 37903.00 36899.80 248.71
2675 13.1491 37342.20 36892.20 252.82
2676 13.1529 38256.50 36884.30 250.87
2677 13.1567 37927.50 36876.40 247.91
2678 13.1604 38043.90 36868.70 247.57
2679 13.1642 37166.50 36860.90 245.73
2680 13.1679 38167.40 36853.20 250.05
2681 13.1717 37615.30 36845.30 247.09
2682 13.1755 37930.60 36837.40 248.84
2683 13.1792 37464.30 36829.60 246.79
2684 13.1830 37881.20 36821.70 248.27
2685 13.1867 37239.40 36814.00 244.20
2686 13.1905 37856.20 36806.10 247.62
2687 13.1942 37357.90 36798.30 245.86
2688 13.1980 38067.10 36790.40 247.69
2689 13.2018 37675.60 36782.40 245.63
2690 13.2055 38066.80 36774.70 249.11
2691 13.2093 36984.80 36766.70 243.96
2692 13.2130 38097.60 36759.00 248.46
2693 13.2168 37015.00 36751.00 245.07
2694 13.2206 37646.90 36743.00 246.72
2695 13.2243 37385.10 36735.20 246.42
2696 13.2281 37772.10 36727.20 246.41
2697 13.2318 37130.60 36719.40 243.67
2698 13.2356 37674.30 36711.40 247.56
2699 13.2394 37196.40 36703.40 245.95
2700 13.2431 38118.10 36695.60 250.14
2701 13.2469 37169.50 36687.50 245.13
2702 13.2506 37851.40 36679.70 248.91
2703 13.2544 37239.80 36671.70 246.68
2704 13.2581 37851.70 36663.80 247.96
2705 13.2619 37422.10 36655.80 245.18
2706 13.2657 37775.60 36647.70 247.11
2707 13.2694 37622.60 36639.80 247.86
2708 13.2732 37768.20 36631.70 248.04
2709 13.2769 37049.30 36623.90 245.28
2710 13.2807 37719.60 36615.80 247.46
2711 13.2845 37424.20 36607.70 245.37
2712 13.2882 37633.10 36599.80 248.28
2713 13.2920 37304.10 36591.70 245.93
2714 13.2957 38205.50 36583.80 248.75
2715 13.2995 37131.60 36575.70 245.28
2716 13.3033 37757.60 36567.50 246.46
2717 13.3070 37203.50 36559.60 245.99
2718 13.3108 37601.10 36551.50 246.25
2719 13.3145 37307.40 36543.50 246.64
2720 13.3183 37791.20 36535.40 247.63
2721 13.3221 37120.10 36527.20 244.63
2722 13.3258 38092.10 36519.20 249.20
2723 13.3296 36896.00 36511.10 244.94
2724 13.3333 37634.30 36503.10 246.88
2725 13.3371 37109.40 36494.90 247.30
2726 13.3408 37455.00 36486.90 246.64
2727 13.3446 36882.10 36478.70 244.35
2728 13.3484 37731.40 36470.50 247.95
2729 13.3521 36697.30 36462.50 242.38
2730 13.3559 37729.60 36454.30 246.95
2731 13.3596 37029.30 36446.30 244.45
2732 13.3634 37698.10 36438.10 245.82
2733 13.3672 37311.40 36429.80 247.32
2734 13.3709 37857.30 36421.80 247.56
2735 13.3747 36985.00 36413.50 244.70
2736 13.3784 37274.40 36405.50 247.01
2737 13.3822 37209.10 36397.20 245.48
2738 13.3860 37719.50 36389.00 246.33
2739 13.3897 37106.10 36380.90 245.45
2740 13.3935 37816.10 36372.60 248.76
2741 13.3972 37080.20 36364.50 246.47
2742 13.4010 37772.80 36356.30 249.39
2743 13.4048 36794.10 36347.90 245.74
2744 13.4085 37833.80 36339.90 249.25
2745 13.4123 37262.00 36331.50 246.77
2746 13.4160 37669.20 36323.40 247.77
2747 13.4198 36979.90 36315.10 245.59
2748 13.4236 37741.80 36306.80 249.14
2749 13.4273 37039.30 36298.60 244.74
2750 13.4311 37523.20 36290.30 248.42
2751 13.4348 36874.20 36282.20 244.21
2752 13.4386 37293.70 36273.80 247.06
2753 13.4423 36642.30 36265.70 244.11
2754 13.4461 37480.00 36257.30 246.78
2755 13.4499 37276.20 36248.90 246.82
2756 13.4536 37848.20 36240.70 248.99
2757 13.4574 36818.60 36232.30 243.82
2758 13.4611 37320.80 36224.20 246.63
2759 13.4649 37014.20 36215.80 246.11
2760 13.4687 37324.00 36207.40 246.73
2761 13.4724 36756.70 36199.10 244.26
2762 13.4762 37809.20 36190.70 248.85
2763 13.4799 36827.70 36182.50 244.70
2764 13.4837 37499.60 36174.10 248.40
2765 13.4875 37190.90 36165.60 246.99
2766 13.4912 37072.60 36157.40 246.31
2767 13.4950 36697.60 36149.00 244.67
2768 13.4987 37277.90 36140.70 245.66
2769 13.5025 36842.80 36132.20 244.94
2770 13.5063 37431.20 36123.80 247.60
2771 13.5100 37071.10 36115.50 245.47
2772 13.5138 37427.60 36107.00 246.59
2773 13.5175 36683.60 36098.80 245.73
2774 13.5213 37509.20 36090.30 247.15
2775 13.5251 36879.80 36081.80 244.69
2776 13.5288 37235.30 36073.50 247.43
2777 13.5326 37029.70 36064.90 245.41
2778 13.5363 37356.20 36056.60 248.98
2779 13.5401 36615.20 36048.10 243.40
2780 13.5439 37382.00 36039.60 247.44
2781 13.5476 36824.80 36031.30 245.14
2782 13.5514 37081.40 36022.70 244.62
2783 13.5551 36534.90 36014.40 242.52
2784 13.5589 37239.70 36005.80 246.90
2785 13.5627 36819.90 35997.20 246.02
2786 13.5664 37323.10 35988.90 247.27
2787 13.5702 36782.00 35980.30 245.73
2788 13.5739 37490.00 35972.00 247.44
2789 13.5777 36934.70 35963.40 244.83
2790 13.5815 37501.30 35954.80 248.54
2791 13.5852 36374.10 35946.40 244.45
2792 13.5890 36983.20 35937.80 245.23
2793 13.5927 36597.00 35929.40 244.70
2794 13.5965 37212.60 35920.80 246.96
2795 13.6003 37055.30 35912.10 246.90
2796 13.6040 37131.40 35903.70 246.82
2797 13.6078 36751.20 35895.10 245.31
2798 13.6115 36974.70 35886.70 245.21
2799 13.6153 36390.80 35878.00 243.38
2800 13.6191 36969.70 35869.40 245.88
2801 13.6228 36708.60 35860.90 245.19
2802 13.6266 37469.10 35852.20 248.70
2803 13.6303 36423.50 35843.80 244.07
2804 13.6341 37288.60 35835.10 247.62
2805 13.6379 36282.30 35826.40 244.10
2806 13.6416 36917.30 35818.00 245.81
2807 13.6454 36589.40 35809.20 243.40
2808 13.6491 36897.30 35800.80 245.47
2809 13.6529 36644.90 35792.10 244.86
2810 13.6567 36951.90 35783.30 245.53
2811 13.6604 36301.60 35774.80 243.50
2812 13.6642 37151.10 35766.10 247.41
2813 13.6679 36519.60 35757.60 243.85
2814 13.6717 36509.60 35748.90 244.27
2815 13.6755 35805.00 35740.10 241.26
2816 13.6792 36645.60 35731.60 244.86
2817 13.6830 36267.80 35722.80 243.12
2818 13.6867 36619.70 35714.30 242.82
2819 13.6905 36321.30 35705.50 242.76
2820 13.6943 36470.20 35696.70 244.31
2821 13.6980 36187.70 35688.20 240.41
2822 13.7018 36685.10 35679.40 245.41
2823 13.7055 36186.20 35670.80 241.79
2824 13.7093 36165.30 35662.00 241.95
2825 13.7131 35722.30 35653.20 241.36
2826 13.7168 36466.40 35644.60 242.66
2827 13.7206 35953.10 35635.80 242.76
2828 13.7243 37148.20 35627.20 248.37
2829 13.7281 36313.00 35618.30 243.39
2830 13.7319 36955.90 35609.50 246.16
2831 13.7356 36466.90 35600.90 244.55
2832 13.7394 36284.20 35592.00 242.61
2833 13.7431 36085.20 35583.40 241.80
2834 13.7469 36638.00 35574.60 243.52
2835 13.7507 35936.40 35565.70 241.25
2836 13.7544 36872.80 35557.00 246.03
2837 13.7582 36124.90 35548.20 240.17
2838 13.7619 36779.40 35539.50 243.44
2839 13.7657 36276.90 35530.60 243.67
2840 13.7695 36441.80 35521.70 244.80
2841 13.7732 35772.10 35513.00 240.78
2842 13.7770 36353.40 35504.10 240.94
2843 13.7807 35800.90 35495.40 241.21
2844 13.7845 36446.90 35486.50 244.40
2845 13.7883 35331.10 35477.60 238.84
2846 13.7920 36149.90 35468.90 241.40
2847 13.7958 35982.70 35459.90 243.43
2848 13.7995 36255.20 35451.20 244.12
2849 13.8033 35765.50 35442.30 240.76
2850 13.8071 36937.80 35433.30 246.85
2851 13.8108 35851.30 35424.60 241.15
2852 13.8146 36147.20 35415.60 242.85
2853 13.8183 36256.90 35406.90 242.82
2854 13.8221 36446.20 35397.90 243.98
2855 13.8259 35740.20 35388.90 241.14
2856 13.8296 36286.20 35380.20 242.04
2857 13.8334 35591.50 35371.20 241.21
2858 13.8371 36315.20 35362.40 243.93
2859 13.8409 35524.80 35353.40 239.68
2860 13.8447 36328.70 35344.40 242.58
2861 13.8484 35471.80 35335.60 239.84
2862 13.8522 36031.90 35326.60 242.36
2863 13.8559 35770.70 35317.80 242.68
2864 13.8597 36203.00 35308.70 241.27
2865 13.8635 35484.40 35299.70 240.57
2866 13.8672 35901.00 35290.90 241.92
2867 13.8710 35441.90 35281.80 240.15
2868 13.8747 36275.90 35273.00 244.01
2869 13.8785 35837.60 35263.90 241.19
2870 13.8823 35933.20 35254.90 241.48
2871 13.8860 35689.40 35246.00 241.05
2872 13.8898 36086.50 35236.90 242.37
2873 13.8936 35493.50 35227.80 241.05
2874 13.8973 36014.50 35219.00 242.85
2875 13.9011 35945.40 35209.90 242.96
2876 13.9048 36036.00 35201.00 242.83
2877 13.9086 35399.20 35191.90 239.81
2878 13.9124 36070.70 35182.80 243.29
2879 13.9161 35935.60 35173.90 242.39
2880 13.9199 35915.50 35164.80 242.87
2881 13.9236 36071.50 35155.90 243.57
2882 13.9274 36278.10 35146.70 245.12
2883 13.9312 35649.30 35137.60 241.61
2884 13.9349 36347.10 35128.70 241.54
2885 13.9387 35371.40 35119.50 240.60
2886 13.9424 36079.30 35110.60 243.06
2887 13.9462 35629.70 35101.40 242.26
2888 13.9500 35971.00 35092.30 241.96
2889 13.9537 35613.60 35083.30 241.13
2890 13.9575 36087.90 35074.10 242.33
2891 13.9612 35769.80 35065.20 242.79
2892 13.9650 36099.80 35056.00 242.98
2893 13.9688 35455.00 35046.80 240.83
2894 13.9725 35723.40 35037.80 243.56
2895 13.9763 35642.10 35028.60 241.95
2896 13.9800 35835.20 35019.60 242.47
2897 13.9838 35422.70 35010.40 241.54
2898 13.9876 35967.60 35001.20 241.93
2899 13.9913 35599.50 34992.20 241.55
2900 13.9951 35864.70 34983.00 242.09
2901 13.9988 35455.80 34973.90 240.92
2902 14.0026 36035.80 34964.70 242.22
2903 14.0064 35341.70 34955.40 241.26
2904 14.0101 35899.20 34946.40 242.04
2905 14.0139 34917.10 34937.20 238.37
2906 14.0176 35776.10 34928.10 241.58
2907 14.0214 35319.60 34918.90 239.60
2908 14.0252 35887.30 34909.60 243.45
2909 14.0289 35458.20 34900.50 242.91
2910 14.0327 35963.10 34891.20 243.96
2911 14.0365 35607.30 34881.90 240.68
2912 14.0402 35384.80 34872.90 240.39
2913 14.0440 35180.70 34863.60 239.51
2914 14.0477 36099.40 34854.50 241.02
2915 14.0515 35424.70 34845.20 240.46
2916 14.0553 36124.20 34835.80 243.29
2917 14.0590 35652.90 34826.80 242.63
2918 14.0628 36098.00 34817.40 244.05
2919 14.0665 35803.10 34808.30 243.81
2920 14.0703 35494.80 34799.00 240.14
2921 14.0741 35267.30 34789.60 237.77
2922 14.0778 35658.20 34780.50 241.62
2923 14.0816 35443.60 34771.10 240.05
2924 14.0853 35354.80 34762.00 239.88
2925 14.0891 35628.00 34752.60 241.74
2926 14.0929 35832.40 34743.30 242.71
2927 14.0966 35255.30 34734.10 240.73
2928 14.1004 35753.50 34724.70 242.65
2929 14.1041 35062.70 34715.60 239.44
2930 14.1079 35449.40 34706.20 241.00
2931 14.1117 35041.70 34696.80 240.31
2932 14.1154 35641.40 34687.60 242.41
2933 14.1192 35065.30 34678.20 239.75
2934 14.1229 35347.90 34669.00 242.24
2935 14.1267 34808.50 34659.60 238.74
2936 14.1305 35364.30 34650.20 239.55
2937 14.1342 35105.30 34641.00 240.29
2938 14.1380 35989.60 34631.60 243.23
2939 14.1418 35058.90 34622.10 237.86
2940 14.1455 35700.20 34612.90 241.57
2941 14.1493 35312.30 34603.40 241.67
2942 14.1530 35486.80 34594.20 239.19
2943 14.1568 34636.40 34584.80 238.72
2944 14.1606 35287.90 34575.30 240.22
2945 14.1643 34919.30 34566.10 239.90
2946 14.1681 35234.30 34556.60 240.55
2947 14.1718 34968.30 34547.30 239.86
2948 14.1756 35458.70 34537.80 241.86
2949 14.1794 35151.40 34528.40 238.83
2950 14.1831 35528.90 34519.10 242.72
2951 14.1869 35044.00 34509.60 239.64
2952 14.1906 35588.40 34500.30 241.35
2953 14.1944 34890.80 34490.80 239.08
2954 14.1982 35357.50 34481.30 241.11
2955 14.2019 34779.40 34472.00 238.64
2956 14.2057 35123.20 34462.50 238.92
2957 14.2094 34636.60 34453.20 237.67
2958 14.2132 35266.80 34443.60 240.35
2959 14.2170 34295.00 34434.10 236.49
2960 14.2207 35431.80 34424.80 241.87
2961 14.2245 34748.00 34415.20 237.32
2962 14.2282 35354.80 34405.90 240.28
2963 14.2320 35051.40 34396.40 240.58
2964 14.2358 35226.60 34386.80 241.01
2965 14.2395 34481.60 34377.50 236.92
2966 14.2433 35186.40 34367.90 239.94
2967 14.2471 34403.60 34358.30 234.53
2968 14.2508 35041.50 34348.90 239.79
2969 14.2546 34726.00 34339.30 238.26
2970 14.2583 35011.10 34330.00 239.78
2971 14.2621 34707.70 34320.40 238.06
2972 14.2659 35217.50 34310.80 240.55
2973 14.2696 34565.00 34301.40 237.82
2974 14.2734 34680.80 34291.80 237.48
2975 14.2771 34398.50 34282.40 237.68
2976 14.2809 34983.50 34272.80 237.67
2977 14.2847 34283.10 34263.10 235.16
2978 14.2884 34758.00 34253.80 237.87
2979 14.2922 34218.50 34244.10 237.05
2980 14.2959 34700.80 34234.70 236.63
2981 14.2997 34254.40 34225.10 234.77
2982 14.3035 34570.10 34215.40 237.31
2983 14.3072 34004.90 34206.00 234.36
2984 14.3110 34770.50 34196.30 236.22
2985 14.3147 34311.70 34186.90 235.94
2986 14.3185 34318.00 34177.20 235.58
2987 14.3223 34618.50 34167.50 237.23
2988 14.3260 34806.80 34158.10 238.27
2989 14.3298 34078.40 34148.40 235.91
2990 14.3336 34814.40 34138.70 238.47
2991 14.3373 34432.50 34129.30 238.13
2992 14.3411 34782.50 34119.50 238.01
2993 14.3448 34532.40 34110.10 237.01
2994 14.3486 34996.70 34100.40 239.69
2995 14.3524 34079.70 34090.70 234.95
2996 14.3561 35118.90 34081.20 238.91
2997 14.3599 34401.10 34071.40 237.71
2998 14.3636 34616.60 34062.00 236.82
2999 14.3674 34256.90 34052.20 236.73
3000 14.3712 34627.10 34042.50 237.50
3001 14.3749 34217.70 34033.00 234.78
3002 14.3787 34792.30 34023.20 238.40
3003 14.3824 34008.60 34013.70 234.86
3004 14.3862 35014.00 34004.00 238.56
3005 14.3900 34301.10 33994.20 234.77
3006 14.3937 35142.30 33984.70 240.85
3007 14.3975 34027.00 33974.90 234.40
3008 14.4013 34301.80 33965.10 236.01
3009 14.4050 33939.50 33955.60 234.19
3010 14.4088 34932.00 33945.80 240.18
3011 14.4125 34188.60 33936.30 235.39
3012 14.4163 34668.70 33926.50 238.26
3013 14.4201 34034.00 33916.70 235.82
3014 14.4238 34516.40 33907.10 236.75
3015 14.4276 33622.00 33897.30 233.84
3016 14.4313 34257.00 33887.70 236.57
3017 14.4351 34070.90 33877.90 235.52
3018 14.4389 34348.90 33868.10 237.14
3019 14.4426 34049.20 33858.50 236.31
3020 14.4464 34346.30 33848.70 236.61
3021 14.4501 34030.80 33839.10 235.10
3022 14.4539 34586.30 33829.20 237.67
3023 14.4577 33458.90 33819.40 233.10
3024 14.4614 34397.80 33809.80 238.43
3025 14.4652 33816.90 33799.90 235.30
3026 14.4689 34367.70 33790.30 236.28
3027 14.4727 33989.10 33780.50 234.42
3028 14.4765 34215.00 33770.60 235.60
3029 14.4802 33492.60 33761.00 233.74
3030 14.4840 34674.40 33751.10 237.69
3031 14.4878 33823.30 33741.20 235.39
3032 14.4915 34617.20 33731.60 237.84
3033 14.4953 33673.70 33721.70 234.72
3034 14.4990 34059.90 33712.10 235.73
3035 14.5028 33886.00 33702.20 235.68
3036 14.5066 34383.30 33692.30 235.70
3037 14.5103 33892.30 33682.60 236.07
3038 14.5141 33998.00 33672.70 235.15
3039 14.5178 33702.50 33663.00 234.75
3040 14.5216 34147.80 33653.10 235.99
3041 14.5254 33426.70 33643.20 233.23
3042 14.5291 33906.50 33633.50 234.10
3043 14.5329 33722.80 33623.60 233.61
3044 14.5366 33828.60 33613.90 235.07
3045 14.5404 33554.60 33604.00 233.19
3046 14.5442 34101.10 33594.00 236.25
3047 14.5479 33628.90 33584.30 233.92
3048 14.5517 33995.40 33574.40 235.75
3049 14.5555 33976.80 33564.40 236.17
3050 14.5592 34023.60 33554.70 235.55
3051 14.5630 33360.50 33544.70 232.70
3052 14.5667 33911.30 33535.00 233.93
3053 14.5705 33533.30 33525.00 233.66
3054 14.5743 33757.90 33515.10 234.13
3055 14.5780 33693.10 33505.30 234.30
3056 14.5818 34234.90 33495.30 236.96
3057 14.5855 33538.50 33485.60 234.14
3058 14.5893 33923.60 33475.60 234.67
3059 14.5931 33368.80 33465.60 235.25
3060 14.5968 34233.30 33455.90 234.87
3061 14.6006 33402.80 33445.90 230.59
3062 14.6043 34260.30 33436.10 236.09
3063 14.6081 33399.80 33426.10 229.88
3064 14.6119 33916.10 33416.10 233.54
3065 14.6156 33696.30 33406.30 233.02
3066 14.6194 33970.30 33396.30 234.28
3067 14.6232 33080.10 33386.20 229.71
3068 14.6269 34314.90 33376.50 234.56
3069 14.6307 33264.30 33366.40 230.60
3070 14.6344 33878.40 33356.60 233.96
3071 14.6382 33268.70 33346.60 231.05
3072 14.6420 33853.10 33336.50 233.48
3073 14.6457 33347.30 33326.70 231.29
3074 14.6495 33492.50 33316.70 231.70
3075 14.6532 33445.70 33306.90 231.78
3076 14.6570 33982.90 33296.80 234.04
3077 14.6608 33049.80 33286.70 229.55
3078 14.6645 33630.80 33276.90 231.83
3079 14.6683 33147.90 33266.80 230.82
3080 14.6720 33739.20 33257.00 233.08
3081 14.6758 33020.90 33246.90 230.34
3082 14.6796 33448.80 33236.80 232.75
3083 14.6833 33332.00 33227.00 230.99
3084 14.6871 33369.30 33216.90 230.33
3085 14.6908 33066.50 33207.10 229.31
3086 14.6946 33528.00 33197.00 232.15
3087 14.6984 32920.80 33186.90 228.98
3088 14.7021 33903.80 33177.00 233.28
3089 14.7059 33141.70 33166.90 228.33
3090 14.7097 33500.60 33156.80 230.68
3091 14.7134 33011.70 33146.90 229.99
3092 14.7172 33488.40 33136.80 231.52
3093 14.7209 33356.70 33126.90 230.07
3094 14.7247 33872.40 33116.80 233.35
3095 14.7285 33429.30 33106.60 233.07
3096 14.7360 33392.50 33086.60 232.12
3097 14.7435 32862.10 33066.60 229.47
3098 14.7473 33661.10 33056.40 233.05
3099 14.7510 32925.20 33046.50 230.29
3100 14.7548 33178.70 33036.30 227.61
3101 14.7585 33200.10 33026.40 231.57
3102 14.7623 33439.40 33016.30 232.00
3103 14.7661 32494.50 33006.10 228.54
3104 14.7698 33236.00 32996.20 229.77
3105 14.7736 32982.50 32986.00 229.64
3106 14.7774 33222.70 32975.80 230.25
3107 14.7811 33157.00 32965.90 228.64
3108 14.7849 33362.60 32955.70 230.55
3109 14.7886 32473.10 32945.70 226.99
3110 14.7924 33131.80 32935.50 229.89
3111 14.7962 32856.20 32925.30 228.92
3112 14.7999 33234.40 32915.40 230.67
3113 14.8037 32796.70 32905.20 229.86
3114 14.8074 33352.50 32895.20 232.32
3115 14.8112 33090.70 32885.00 230.88
3116 14.8150 33382.30 32874.80 231.11
3117 14.8187 32928.40 32864.80 229.68
3118 14.8225 33132.90 32854.60 231.16
3119 14.8262 32600.90 32844.60 226.07
3120 14.8300 33380.10 32834.40 231.46
3121 14.8338 33121.00 32824.10 230.69
3122 14.8375 33154.10 32814.20 230.02
3123 14.8413 33114.80 32803.90 230.80
3124 14.8450 33291.90 32793.90 231.20
3125 14.8488 33085.30 32783.70 229.76
3126 14.8526 33172.90 32773.40 230.99
3127 14.8563 32961.80 32763.40 229.61
3128 14.8601 33006.00 32753.20 229.64
3129 14.8639 32753.80 32742.90 229.10
3130 14.8676 32616.50 32732.90 228.27
3131 14.8714 32850.10 32722.60 230.46
3132 14.8751 33023.60 32712.60 229.88
3133 14.8789 32937.20 32702.30 229.73
3134 14.8827 33428.30 32692.00 232.85
3135 14.8864 32369.10 32682.00 225.77
3136 14.8902 33035.90 32671.70 230.94
3137 14.8939 32246.20 32661.70 227.15
3138 14.8977 32979.00 32651.40 229.85
3139 14.9015 32426.50 32641.10 227.05
3140 14.9052 33093.60 32631.10 230.73
3141 14.9090 32511.20 32620.80 227.77
3142 14.9127 32999.20 32610.70 229.34
3143 14.9165 32508.70 32600.40 227.87
3144 14.9203 32813.00 32590.10 229.52
3145 14.9240 32555.80 32580.10 227.04
3146 14.9278 32963.90 32569.70 230.22
3147 14.9316 32580.30 32559.40 228.28
3148 14.9353 33089.10 32549.40 230.82
3149 14.9391 32671.00 32539.00 228.24
3150 14.9428 33131.30 32529.00 230.29
3151 14.9466 32598.90 32518.60 227.70
3152 14.9504 33576.60 32508.30 232.50
3153 14.9541 32407.30 32498.20 226.95
3154 14.9579 33063.10 32487.90 230.51
3155 14.9616 32558.10 32477.80 228.76
3156 14.9654 33816.50 32467.40 234.00
3157 14.9692 32815.80 32457.10 230.68
3158 14.9729 33478.70 32447.00 232.98
3159 14.9767 32907.70 32436.60 230.22
3160 14.9804 33818.40 32426.50 233.74
3161 14.9842 33369.20 32416.10 232.23
3162 14.9880 33877.30 32405.80 233.58
3163 14.9917 33838.70 32395.70 233.47
3164 14.9955 34832.90 32385.30 238.05
3165 14.9992 34963.90 32375.20 239.51
3166 15.0030 35872.60 32364.80 242.34
3167 15.0068 36682.70 32354.40 245.81
3168 15.0105 37395.30 32344.30 249.99
3169 15.0143 37020.30 32333.90 246.59
3170 15.0180 36957.20 32323.80 247.12
3171 15.0218 36199.80 32313.40 245.00
3172 15.0256 36231.40 32303.00 243.35
3173 15.0293 35329.80 32292.90 241.33
3174 15.0331 35329.00 32282.40 238.95
3175 15.0369 34333.20 32272.00 235.68
3176 15.0406 34605.60 32261.90 236.74
3177 15.0444 33401.60 32251.50 232.19
3178 15.0481 33667.90 32241.30 233.40
3179 15.0519 32720.10 32230.90 229.04
3180 15.0557 32928.50 32220.50 231.07
3181 15.0594 32261.60 32210.30 226.76
3182 15.0632 32655.90 32199.90 229.88
3183 15.0669 32326.70 32189.80 225.35
3184 15.0707 32745.00 32179.30 228.63
3185 15.0745 32247.20 32168.90 228.41
3186 15.0782 32602.00 32158.70 228.93
3187 15.0820 32721.40 32148.30 228.58
3188 15.0857 32633.80 32138.10 229.33
3189 15.0895 32223.30 32127.70 227.26
3190 15.0933 33028.80 32117.20 229.91
3191 15.0970 32338.20 32107.00 227.27
3192 15.1008 32914.00 32096.60 230.30
3193 15.1045 32002.80 32086.40 225.84
3194 15.1083 32587.60 32075.90 229.19
3195 15.1121 32176.20 32065.50 227.80
3196 15.1158 32854.80 32055.30 229.74
3197 15.1196 32133.20 32044.80 225.28
3198 15.1234 33028.60 32034.30 230.01
3199 15.1271 31867.30 32024.10 226.26
3200 15.1309 32498.20 32013.70 227.86
3201 15.1346 32010.60 32003.40 226.41
3202 15.1384 32468.40 31993.00 227.93
3203 15.1422 32097.60 31982.50 226.26
3204 15.1459 32472.60 31972.30 229.44
3205 15.1497 31951.90 31961.80 225.91
3206 15.1534 32266.20 31951.60 227.33
3207 15.1572 31889.40 31941.10 225.51
3208 15.1610 32461.00 31930.60 224.47
3209 15.1647 31780.80 31920.30 225.70
3210 15.1685 32053.50 31909.80 226.18
3211 15.1722 31712.80 31899.60 225.04
3212 15.1760 32388.50 31889.10 227.53
3213 15.1798 31781.20 31878.60 226.25
3214 15.1835 32361.90 31868.40 228.43
3215 15.1873 32026.00 31857.80 226.55
3216 15.1910 32382.70 31847.60 227.89
3217 15.1948 31819.70 31837.10 226.96
3218 15.1986 32525.50 31826.60 229.64
3219 15.2023 31583.90 31816.30 223.33
3220 15.2061 32028.10 31805.80 225.86
3221 15.2098 31571.10 31795.50 223.94
3222 15.2136 32049.30 31785.00 226.49
3223 15.2174 31442.00 31774.50 224.69
3224 15.2211 31809.80 31764.20 225.87
3225 15.2249 31771.20 31753.70 224.79
3226 15.2286 32135.00 31743.40 225.46
3227 15.2324 31771.00 31732.90 225.51
3228 15.2362 32061.20 31722.30 227.06
3229 15.2399 31265.90 31712.10 222.83
3230 15.2437 31988.80 31701.50 227.28
3231 15.2475 31321.20 31691.00 223.86
3232 15.2512 32208.10 31680.70 226.97
3233 15.2550 31753.10 31670.10 225.64
3234 15.2587 31709.40 31659.90 224.12
3235 15.2625 31382.70 31649.30 223.32
3236 15.2663 31867.60 31638.70 225.96
3237 15.2700 31296.00 31628.50 222.01
3238 15.2738 31865.30 31617.90 225.53
3239 15.2775 31232.60 31607.60 223.66
3240 15.2813 31964.90 31597.00 225.55
3241 15.2851 31275.20 31586.50 223.18
3242 15.2888 31388.70 31576.20 223.68
3243 15.2926 30966.60 31565.60 222.03
3244 15.2963 31368.30 31555.30 222.76
3245 15.3001 31382.60 31544.70 223.87
3246 15.3039 31809.70 31534.10 224.14
3247 15.3076 31151.10 31523.80 222.91
3248 15.3114 31617.30 31513.20 223.29
3249 15.3151 31673.60 31502.90 225.34
3250 15.3189 31648.90 31492.30 224.20
3251 15.3227 31121.30 31481.70 223.31
3252 15.3264 31453.40 31471.40 223.82
3253 15.3302 31305.30 31460.80 223.91
3254 15.3339 31784.90 31450.50 225.34
3255 15.3377 31359.20 31439.90 221.70
3256 15.3415 31631.50 31429.30 225.06
3257 15.3452 31179.00 31419.00 220.53
3258 15.3490 31568.50 31408.40 224.72
3259 15.3527 30871.60 31398.00 220.58
3260 15.3565 31427.10 31387.40 224.04
3261 15.3603 31141.60 31376.80 223.87
3262 15.3640 31452.40 31366.50 223.27
3263 15.3678 31278.10 31355.90 222.79
3264 15.3715 31315.10 31345.50 224.26
3265 15.3753 31340.40 31334.90 223.55
3266 15.3791 31625.80 31324.30 226.11
3267 15.3828 31275.30 31313.90 223.80
3268 15.3866 31585.00 31303.30 225.39
3269 15.3903 31201.50 31293.00 222.69
3270 15.3941 31403.70 31282.30 223.77
3271 15.3979 30936.60 31271.70 222.33
3272 15.4016 31497.00 31261.40 224.35
3273 15.4054 31289.70 31250.70 221.19
3274 15.4091 31364.30 31240.40 224.10
3275 15.4129 31219.30 31229.70 222.48
3276 15.4167 31172.90 31219.10 223.74
3277 15.4204 30795.10 31208.70 221.13
3278 15.4242 31375.70 31198.10 224.49
3279 15.4279 30726.20 31187.70 221.25
3280 15.4317 31334.00 31177.10 224.40
3281 15.4355 31010.60 31166.40 221.04
3282 15.4392 31592.80 31156.10 225.46
3283 15.4430 30838.30 31145.40 221.49
3284 15.4467 31364.50 31135.10 225.02
3285 15.4505 31158.50 31124.40 222.82
3286 15.4543 31637.40 31113.70 226.10
3287 15.4580 31121.70 31103.40 223.42
3288 15.4618 31076.20 31092.70 223.81
3289 15.4655 30941.70 31082.30 220.68
3290 15.4693 31596.10 31071.70 225.77
3291 15.4731 30934.30 31061.00 221.16
3292 15.4768 31327.30 31050.60 224.20
3293 15.4806 30848.80 31040.00 222.25
3294 15.4844 31148.50 31029.30 223.80
3295 15.4881 30468.60 31018.90 220.68
3296 15.4919 31294.90 31008.20 224.01
3297 15.4956 31048.00 30997.80 222.05
3298 15.4994 31098.40 30987.20 222.11
3299 15.5032 30763.50 30976.50 220.77
3300 15.5069 31337.20 30966.10 223.36
3301 15.5107 30770.20 30955.40 218.85
3302 15.5144 31360.00 30945.00 224.72
3303 15.5182 30785.50 30934.30 222.40
3304 15.5220 31202.60 30923.70 223.65
3305 15.5257 30562.50 30913.30 220.84
3306 15.5295 31444.50 30902.60 223.78
3307 15.5332 31131.00 30892.20 224.09
3308 15.5370 31217.90 30881.50 224.17
3309 15.5408 30845.50 30870.80 222.88
3310 15.5445 31225.50 30860.40 223.07
3311 15.5483 30820.40 30849.70 222.60
3312 15.5520 31006.10 30839.30 222.84
3313 15.5558 30840.70 30828.60 222.92
3314 15.5596 31267.90 30817.90 220.99
3315 15.5633 31005.80 30807.50 220.77
3316 15.5671 30951.20 30796.80 219.57
3317 15.5708 31001.60 30786.40 220.88
3318 15.5746 31326.30 30775.70 222.46
3319 15.5784 31068.50 30765.00 220.85
3320 15.5821 30892.10 30754.50 219.97
3321 15.5859 30864.40 30743.80 219.79
3322 15.5896 31024.50 30733.40 220.99
3323 15.5934 30813.10 30722.70 219.05
3324 15.5971 31399.50 30712.30 223.02
3325 15.6009 30754.20 30701.60 219.57
3326 15.6047 31002.40 30690.90 221.35
3327 15.6084 30604.10 30680.40 218.76
3328 15.6122 30845.20 30669.70 220.35
3329 15.6159 30725.40 30659.30 218.94
3330 15.6197 31045.40 30648.60 220.22
3331 15.6235 30309.90 30637.90 216.24
3332 15.6272 30677.70 30627.40 218.70
3333 15.6310 30316.30 30616.70 217.17
3334 15.6347 30850.50 30606.30 220.00
3335 15.6385 30777.30 30595.60 219.78
3336 15.6423 30913.10 30584.90 219.35
3337 15.6460 30696.30 30574.40 219.01
3338 15.6498 30991.30 30563.70 220.47
3339 15.6535 31013.20 30553.30 219.82
3340 15.6573 30895.20 30542.50 219.89
3341 15.6611 30917.00 30531.80 219.11
3342 15.6648 30978.60 30521.40 220.30
3343 15.6686 30775.40 30510.60 218.43
3344 15.6723 30436.20 30500.20 216.51
3345 15.6761 30472.00 30489.50 217.89
3346 15.6799 30848.10 30478.70 218.84
3347 15.6836 30396.50 30468.30 217.91
3348 15.6874 30828.60 30457.60 219.62
3349 15.6911 30166.20 30447.10 216.15
3350 15.6949 30444.80 30436.40 216.89
3351 15.6987 30381.00 30425.60 217.86
3352 15.7024 30487.30 30415.20 217.40
3353 15.7062 29771.50 30404.50 213.70
3354 15.7099 30559.00 30394.00 219.30
3355 15.7137 30066.90 30383.30 215.00
3356 15.7175 30296.40 30372.50 216.38
3357 15.7212 30027.60 30362.10 213.98
3358 15.7250 30743.00 30351.30 219.21
3359 15.7287 30324.70 30340.90 218.40
3360 15.7325 30500.40 30330.10 217.08
3361 15.7363 30386.80 30319.40 218.13
3362 15.7400 30698.70 30308.90 218.16
3363 15.7438 30349.30 30298.20 217.08
3364 15.7475 30777.40 30287.70 218.11
3365 15.7513 30399.80 30277.00 216.88
3366 15.7551 30930.00 30266.20 219.16
3367 15.7588 30742.50 30255.80 218.85
3368 15.7626 30335.00 30245.00 218.21
3369 15.7663 30558.80 30234.60 217.76
3370 15.7701 30522.50 30223.80 218.17
3371 15.7739 29848.00 30213.10 215.27
3372 15.7776 30604.00 30202.60 218.56
3373 15.7814 30060.40 30191.90 216.36
3374 15.7851 30639.40 30181.40 219.01
3375 15.7889 30304.00 30170.60 217.92
3376 15.7926 30054.10 30160.20 215.71
3377 15.7964 30112.40 30149.40 215.87
3378 15.8002 30980.10 30138.70 220.35
3379 15.8039 29999.40 30128.20 215.57
3380 15.8077 30320.20 30117.50 217.31
3381 15.8114 29952.50 30107.00 215.92
3382 15.8152 30486.20 30096.20 217.32
3383 15.8190 29923.90 30085.50 216.41
3384 15.8227 30223.20 30075.00 217.11
3385 15.8265 29773.50 30064.20 214.71
3386 15.8302 29881.60 30053.80 215.42
3387 15.8340 29949.10 30043.00 215.74
3388 15.8378 30318.50 30032.30 217.73
3389 15.8415 29950.50 30021.80 215.96
3390 15.8453 30131.80 30011.00 215.08
3391 15.8490 29920.40 30000.60 215.57
3392 15.8528 30351.10 29989.80 217.91
3393 15.8566 29688.20 29979.00 214.47
3394 15.8603 30286.90 29968.60 216.79
3395 15.8641 29530.40 29957.80 213.19
3396 15.8678 29863.30 29947.30 216.08
3397 15.8716 30044.10 29936.60 216.21
3398 15.8754 30183.90 29925.80 216.63
3399 15.8791 30164.40 29915.30 217.22
3400 15.8829 30307.90 29904.60 218.12
3401 15.8866 29927.70 29894.10 217.00
3402 15.8904 30615.20 29883.30 218.55
3403 15.8941 29811.50 29872.90 216.46
3404 15.8979 30497.70 29862.10 217.61
3405 15.9017 29611.10 29851.30 214.49
3406 15.9054 30361.80 29840.90 218.41
3407 15.9092 29803.00 29830.10 216.24
3408 15.9129 30630.20 29819.60 220.24
3409 15.9167 29544.90 29808.90 214.56
3410 15.9205 30324.70 29798.10 217.15
3411 15.9242 29578.70 29787.60 214.66
3412 15.9280 29944.90 29776.80 217.17
3413 15.9317 29909.80 29766.40 215.41
3414 15.9355 30048.50 29755.60 217.22
3415 15.9393 29661.40 29744.80 214.81
3416 15.9430 30250.20 29734.40 217.90
3417 15.9468 29526.20 29723.60 215.08
3418 15.9505 30332.20 29713.10 217.77
3419 15.9543 29604.40 29702.40 215.53
3420 15.9581 30336.70 29691.60 218.35
3421 15.9618 29509.50 29681.10 213.63
3422 15.9656 29770.00 29670.30 215.94
3423 15.9693 29827.20 29659.90 215.67
3424 15.9731 30199.80 29649.10 217.50
3425 15.9768 29813.30 29638.60 215.50
3426 15.9806 30104.90 29627.90 217.58
3427 15.9844 29858.10 29617.10 215.39
3428 15.9881 29747.60 29606.60 215.85
3429 15.9919 29505.80 29595.90 214.58
3430 15.9956 29920.80 29585.40 216.51
3431 15.9994 29803.60 29574.60 216.06
3432 16.0032 30311.80 29563.80 218.26
3433 16.0069 29403.70 29553.40 214.49
3434 16.0107 30376.10 29542.60 218.63
3435 16.0144 29481.90 29532.10 212.87
3436 16.0182 30172.90 29521.40 217.98
3437 16.0220 29716.80 29510.60 215.45
3438 16.0257 29769.10 29500.10 215.76
3439 16.0295 29713.70 29489.40 216.21
3440 16.0332 30107.00 29478.90 217.71
3441 16.0370 29564.90 29468.10 219.03
3442 16.0407 30616.90 29457.60 218.91
3443 16.0445 29835.90 29446.90 216.57
3444 16.0483 30125.20 29436.10 215.31
3445 16.0520 29939.10 29425.60 216.65
3446 16.0558 30163.50 29414.90 218.26
3447 16.0595 30034.60 29404.40 216.74
3448 16.0633 30398.50 29393.60 217.27
3449 16.0671 30046.60 29382.90 216.03
3450 16.0708 30313.50 29372.40 218.21
3451 16.0746 29993.10 29361.60 217.85
3452 16.0783 29922.70 29351.20 217.61
3453 16.0821 29949.50 29340.40 216.50
3454 16.0858 30038.10 29329.90 216.98
3455 16.0896 29869.20 29319.20 216.62
3456 16.0934 29671.00 29308.40 215.54
3457 16.0971 30336.10 29297.90 218.57
3458 16.1009 29945.80 29287.20 217.02
3459 16.1046 29775.80 29276.70 215.32
3460 16.1084 30141.00 29265.90 217.32
3461 16.1122 29970.90 29255.20 217.37
3462 16.1159 29932.80 29244.70 216.27
3463 16.1197 29928.20 29234.00 217.72
3464 16.1234 30041.00 29223.50 217.37
3465 16.1272 29861.70 29212.70 217.48
3466 16.1309 30093.80 29202.30 217.64
3467 16.1347 29587.50 29191.50 215.23
3468 16.1385 30104.20 29180.80 217.52
3469 16.1422 29729.80 29170.30 215.77
3470 16.1460 30032.70 29159.50 217.07
3471 16.1497 29748.80 29149.10 216.52
3472 16.1535 30094.30 29138.30 216.90
3473 16.1573 29758.80 29127.60 216.04
3474 16.1610 30096.30 29117.10 218.33
3475 16.1648 29773.30 29106.40 215.93
3476 16.1685 30313.20 29095.90 218.57
3477 16.1723 29987.60 29085.10 217.62
3478 16.1760 30254.00 29074.70 217.15
3479 16.1798 29725.60 29063.90 215.42
3480 16.1836 30292.10 29053.20 217.62
3481 16.1873 30022.50 29042.70 216.65
3482 16.1911 30306.80 29032.00 219.26
3483 16.1948 29694.10 29021.50 216.34
3484 16.1986 30543.50 29010.80 218.97
3485 16.2024 30090.90 29000.00 218.03
3486 16.2061 30448.60 28989.60 218.60
3487 16.2099 29901.50 28978.80 216.47
3488 16.2136 30823.50 28968.40 221.57
3489 16.2174 29995.50 28957.60 217.31
3490 16.2211 30389.10 28947.20 218.24
3491 16.2249 30030.50 28936.40 216.38
3492 16.2287 30751.20 28925.70 219.48
3493 16.2324 30227.70 28915.20 217.52
3494 16.2362 30458.40 28904.50 219.18
3495 16.2399 30303.90 28894.10 217.51
3496 16.2437 30542.80 28883.30 219.23
3497 16.2474 30178.60 28872.90 218.10
3498 16.2512 30752.20 28862.10 220.00
3499 16.2550 30400.50 28851.40 218.41
3500 16.2587 30847.60 28841.00 219.28
3501 16.2625 30533.20 28830.20 218.87
3502 16.2662 30708.70 28819.80 220.27
3503 16.2700 30258.30 30821.00 216.63
3504 16.2738 30865.20 30863.20 219.76
3505 16.2775 30551.30 30906.50 219.18
3506 16.2813 30639.90 30953.10 219.16
3507 16.2850 30474.70 31000.70 218.77
3508 16.2888 30737.20 31052.10 218.68
3509 16.2925 30661.90 31104.70 219.67
3510 16.2963 30761.40 31161.40 219.20
3511 16.3001 30516.10 31221.00 220.05
3512 16.3038 31004.50 32307.90 220.13
3513 16.3076 30712.00 32400.70 220.05
3514 16.3113 31346.90 32495.40 221.32
3515 16.3151 31047.70 32597.40 221.59
3516 16.3188 31574.00 32701.50 222.89
3517 16.3226 31271.80 32813.90 222.67
3518 16.3264 31677.50 32931.90 224.48
3519 16.3301 31040.30 33052.80 220.93
3520 16.3339 31757.70 33183.30 224.00
3521 16.3376 31140.50 33317.00 220.86
3522 16.3414 32073.30 33461.60 225.13
3523 16.3451 31454.60 33609.90 223.09
3524 16.3489 31866.80 33770.60 224.30
3525 16.3527 31665.40 33940.20 223.96
3526 16.3564 32139.80 34114.60 225.00
3527 16.3602 32069.90 34303.90 225.40
3528 16.3639 32884.40 34498.80 229.77
3529 16.3677 32782.80 34710.70 228.28
3530 16.3714 33107.20 34929.40 229.59
3531 16.3752 32551.20 35167.40 227.11
3532 16.3790 33492.50 35420.40 232.01
3533 16.3827 33223.10 35682.00 229.31
3534 16.3865 33996.90 35968.00 234.44
3535 16.3902 33789.90 36264.60 232.53
3536 16.3940 34635.60 36589.20 236.16
3537 16.3978 33985.80 36936.10 234.49
3538 16.4015 35268.70 37297.30 238.01
3539 16.4053 34823.70 37694.30 236.28
3540 16.4090 35418.80 38108.80 240.15
3541 16.4128 35588.40 38565.90 240.01
3542 16.4165 36545.60 39044.30 244.52
3543 16.4203 36520.20 39573.90 243.76
3544 16.4241 37788.10 40145.90 251.23
3545 16.4278 37198.40 40748.10 246.18
3546 16.4316 38859.50 41417.90 254.51
3547 16.4353 38950.30 42126.10 252.76
3548 16.4391 39599.20 42917.30 256.51
3549 16.4428 40390.30 43757.70 259.13
3550 16.4466 41781.70 44701.30 264.25
3551 16.4504 41617.30 45737.60 264.33
3552 16.4541 43164.70 46846.80 270.33
3553 16.4579 43832.00 48103.10 273.73
3554 16.4616 45708.10 49456.90 279.91
3555 16.4654 46459.50 51000.80 282.23
3556 16.4691 48221.70 52676.90 290.44
3557 16.4729 49818.40 54603.50 296.39
3558 16.4766 51841.00 56713.10 303.27
3559 16.4804 53356.50 59160.50 309.81
3560 16.4842 56297.60 61947.80 319.40
3561 16.4879 58195.90 65046.40 325.09
3562 16.4917 62091.10 68704.50 337.82
3563 16.4954 65189.10 72828.90 349.52
3564 16.4992 70315.90 77770.00 365.80
3565 16.5029 74411.60 83432.30 381.07
3566 16.5067 81042.30 90339.90 403.54
3567 16.5105 87450.30 98655.50 424.28
3568 16.5142 98013.50 108500.00 456.76
3569 16.5180 108039.00 120967.00 485.78
3570 16.5217 124486.00 136155.00 538.33
3571 16.5255 141009.00 156076.00 582.68
3572 16.5292 169440.00 181432.00 654.81
3573 16.5330 204920.00 216905.00 752.38
3574 16.5368 265388.00 269575.00 901.30
3575 16.5405 354518.00 356239.00 1112.24
3576 16.5443 523024.00 527883.00 1490.72
3577 16.5480 806551.00 859332.00 2083.10
3578 16.5518 1379020.00 1476910.00 3181.82
3579 16.5555 2283330.00 2389340.00 4833.33
3580 16.5593 3496540.00 3477570.00 6871.28
3581 16.5631 4193390.00 4155960.00 8149.51
3582 16.5668 3974440.00 3846810.00 7829.46
3583 16.5706 2873820.00 2853560.00 5880.03
3584 16.5743 1885460.00 1882910.00 4100.65
3585 16.5781 1261540.00 1198990.00 2961.43
3586 16.5818 1015130.00 883028.00 2488.14
3587 16.5856 981670.00 871314.00 2427.40
3588 16.5894 1194210.00 1128180.00 2819.51
3589 16.5931 1583940.00 1576950.00 3574.71
3590 16.5969 2040140.00 2075480.00 4404.72
3591 16.6006 2156580.00 2262060.00 4620.83
3592 16.6044 1827000.00 1935530.00 4027.22
3593 16.6081 1204530.00 1379780.00 2858.78
3594 16.6119 731765.00 870077.00 1919.93
3595 16.6156 444288.00 534407.00 1315.18
3596 16.6194 301271.00 339151.00 990.15
3597 16.6232 220413.00 239203.00 794.94
3598 16.6269 175446.00 187649.00 674.45
3599 16.6307 144189.00 155712.00 591.14
3600 16.6344 125751.00 134306.00 536.81
3601 16.6382 111037.00 117898.00 497.94
3602 16.6419 100243.00 105479.00 462.06
3603 16.6457 89847.60 95320.50 430.86
3604 16.6495 84551.50 87101.30 416.85
3605 16.6532 76752.80 80506.80 386.24
3606 16.6570 71952.40 74851.30 374.50
3607 16.6607 66498.90 70202.30 355.28
3608 16.6645 64393.20 66129.80 348.69
3609 16.6682 60310.90 62715.80 335.02
3610 16.6720 58592.80 59672.70 328.43
3611 16.6757 55157.20 57083.90 316.39
3612 16.6795 53517.80 54745.60 309.39
3613 16.6833 51794.10 52680.00 304.49
3614 16.6870 50461.00 50890.30 297.70
3615 16.6908 48636.20 49246.80 292.26
3616 16.6945 47656.70 47810.90 288.01
3617 16.6983 46247.50 46480.10 279.20
3618 16.7020 45694.50 45307.50 281.74
3619 16.7058 44703.70 44213.90 276.20
3620 16.7095 44072.60 43243.10 273.44
3621 16.7133 43081.50 42331.80 270.42
3622 16.7171 42653.40 41497.30 268.24
3623 16.7208 41716.00 40750.00 265.86
3624 16.7246 42429.30 40042.40 269.38
3625 16.7283 41535.00 39406.30 264.56
3626 16.7321 42162.20 38800.70 268.41
3627 16.7358 40904.80 38253.70 261.38
3628 16.7396 40317.60 37731.50 260.33
3629 16.7434 37837.60 37245.40 249.92
3630 16.7471 37691.30 36803.40 249.05
3631 16.7509 35957.80 36379.10 242.59
3632 16.7546 35408.60 35991.90 240.38
3633 16.7584 34622.50 35619.00 238.10
3634 16.7621 34144.20 35277.70 235.26
3635 16.7659 33490.50 34947.80 233.12
3636 16.7696 33368.50 34645.40 232.75
3637 16.7734 32249.60 34352.00 226.68
3638 16.7772 32715.20 34075.20 228.83
3639 16.7809 32013.40 33820.20 226.45
3640 16.7847 32388.20 33572.10 227.64
3641 16.7884 31482.10 33343.00 223.67
3642 16.7922 31629.10 33119.70 224.28
3643 16.7959 31150.80 32913.10 222.88
3644 16.7997 31281.30 32711.00 222.54
3645 16.8034 30834.50 32523.90 221.05
3646 16.8072 30784.40 32340.50 220.71
3647 16.8110 30536.70 32165.80 219.58
3648 16.8147 30903.60 32003.20 220.66
3649 16.8185 30347.80 31843.70 218.31
3650 16.8222 30396.80 31695.00 219.12
3651 16.8260 29940.80 31548.90 218.73
3652 16.8297 30477.40 31412.50 219.38
3653 16.8335 29648.60 31278.20 215.66
3654 16.8372 29851.20 31152.60 217.33
3655 16.8410 29461.70 31028.70 215.11
3656 16.8447 29548.40 30912.80 214.08
3657 16.8485 29453.30 30798.30 215.62
3658 16.8523 29740.30 30688.10 217.19
3659 16.8560 29085.00 30584.70 214.02
3660 16.8598 29264.10 30482.40 215.58
3661 16.8635 28938.60 28453.00 212.27
3662 16.8673 29201.80 28405.80 214.52
3663 16.8710 28645.60 28361.30 212.45
3664 16.8748 29010.40 28317.10 213.51
3665 16.8785 28707.10 28275.30 212.54
3666 16.8823 28588.20 28233.70 211.93
3667 16.8861 28336.20 28193.40 210.38
3668 16.8898 29067.40 28155.20 213.29
3669 16.8936 28074.20 28117.10 209.77
3670 16.8973 28349.20 28081.00 210.97
3671 16.9011 28193.20 27048.20 210.09
3672 16.9048 28327.60 27038.00 207.47
3673 16.9086 28285.40 27027.60 210.74
3674 16.9123 28343.40 27017.50 211.27
3675 16.9161 28375.70 27007.00 210.90
3676 16.9198 28447.60 26996.90 210.70
3677 16.9236 27952.50 26986.50 209.57
3678 16.9274 27956.60 26976.10 209.69
3679 16.9311 27464.50 26965.90 204.51
3680 16.9349 28063.90 26955.50 208.12
3681 16.9386 28032.90 26945.40 208.78
3682 16.9424 28306.50 26935.00 211.39
3683 16.9461 27517.50 26924.90 207.75
3684 16.9499 28123.80 26914.50 210.39
3685 16.9536 27570.40 26904.40 207.48
3686 16.9574 28039.20 26894.00 209.44
3687 16.9612 27407.50 26883.60 206.85
3688 16.9649 27769.30 26873.50 207.18
3689 16.9687 27278.60 26863.10 205.49
3690 16.9724 27916.10 26853.00 208.65
3691 16.9762 27515.50 26842.60 206.40
3692 16.9799 27731.80 26832.50 207.52
3693 16.9815 27627.30 26828.20 206.41
3694 16.9853 27739.80 26817.80 206.36
3695 16.9890 27509.80 26807.70 206.29
3696 16.9928 27401.00 26797.30 206.28
3697 16.9966 27454.20 26787.00 206.69
3698 17.0003 27690.30 26776.90 207.60
3699 17.0041 26904.10 26766.50 203.54
3700 17.0078 27663.80 26756.50 208.71
3701 17.0116 26890.60 26746.10 204.25
3702 17.0153 27458.80 26736.00 205.07
3703 17.0191 27347.30 26725.70 206.05
3704 17.0229 27532.20 26715.40 206.48
3705 17.0266 27246.50 26705.30 205.41
3706 17.0304 27619.30 26695.00 207.84
3707 17.0341 27129.00 26684.90 205.90
3708 17.0379 27321.60 26674.60 205.74
3709 17.0416 27201.20 26664.50 205.17
3710 17.0454 27194.30 26654.20 202.63
3711 17.0491 26973.20 26644.20 204.20
3712 17.0529 27322.90 26633.80 207.16
3713 17.0567 26963.20 26623.50 204.24
3714 17.0604 27101.70 26613.50 203.92
3715 17.0642 27118.70 26603.20 204.94
3716 17.0679 27134.40 26593.20 205.10
3717 17.0717 26858.60 26582.90 204.26
3718 17.0754 27209.60 26572.80 204.37
3719 17.0792 27141.80 26562.50 205.54
3720 17.0830 27400.00 26552.30 206.43
3721 17.0867 26898.20 26542.20 204.44
3722 17.0905 27252.40 26531.90 206.27
3723 17.0942 26805.20 26521.90 203.96
3724 17.0980 27563.80 26511.70 206.69
3725 17.1017 26946.50 26501.60 204.24
3726 17.1055 27367.90 26491.40 206.37
3727 17.1093 26715.40 26481.10 204.01
3728 17.1130 27106.50 26471.10 204.63
3729 17.1168 26572.40 26460.90 202.67
3730 17.1205 26587.10 26450.90 201.88
3731 17.1243 26302.70 26440.60 202.15
3732 17.1280 27004.20 26430.60 203.85
3733 17.1318 26519.70 26420.40 202.02
3734 17.1355 26898.50 26410.40 205.05
3735 17.1393 26648.20 26400.20 201.12
3736 17.1431 26947.80 26389.90 204.61
3737 17.1468 26440.20 26379.90 201.83
3738 17.1506 26876.10 26369.70 204.16
3739 17.1543 26242.40 26359.80 201.57
3740 17.1581 26830.00 26349.50 203.91
3741 17.1618 26330.00 26339.60 201.76
3742 17.1656 26854.60 26329.30 203.44
3743 17.1693 26196.90 26319.40 201.36
3744 17.1731 26989.00 26309.20 203.68
3745 17.1769 26370.70 26299.00 201.78
3746 17.1806 26420.50 26289.00 201.60
3747 17.1844 25985.40 26278.80 197.15
3748 17.1881 26411.50 26268.90 202.37
3749 17.1919 26111.50 26258.70 199.74
3750 17.1956 26083.10 26248.80 199.36
3751 17.1994 26082.70 26238.60 199.93
3752 17.2032 26589.40 26228.40 201.85
3753 17.2069 25947.00 26218.50 199.88
3754 17.2107 26379.10 26208.30 202.40
3755 17.2144 26101.40 26198.40 200.14
3756 17.2145 25966.80 26198.10 198.26
3757 17.2182 26158.40 26188.20 199.98
3758 17.2220 26313.60 26178.10 198.82
3759 17.2257 26394.60 26168.20 201.38
3760 17.2295 26183.10 26158.00 200.05
3761 17.2333 26262.10 26147.80 200.91
3762 17.2370 26190.80 26137.90 200.30
3763 17.2408 26339.70 26127.80 200.92
3764 17.2445 26100.70 26117.90 200.70
3765 17.2483 26382.80 26107.80 201.39
3766 17.2520 25919.30 26097.90 199.13
3767 17.2558 25862.10 26087.80 198.68
3768 17.2595 26195.70 26077.90 200.31
3769 17.2633 26131.50 26067.80 199.66
3770 17.2670 25938.60 26057.90 198.44
3771 17.2708 25762.60 26047.80 199.21
3772 17.2746 25971.70 26037.60 197.51
3773 17.2783 25772.40 26027.80 196.04
3774 17.2821 25919.10 26017.70 199.45
3775 17.2858 26179.10 26007.80 200.54
3776 17.2896 25829.70 25997.70 197.92
3777 17.2933 25820.10 25987.90 198.45
3778 17.2971 25685.30 25977.80 198.31
3779 17.3008 25973.20 25968.00 196.76
3780 17.3046 25647.50 25957.90 197.83
3781 17.3083 26036.20 25948.00 198.74
3782 17.3121 25871.90 25938.00 197.91
3783 17.3159 25925.10 25927.90 199.63
3784 17.3196 25789.00 25918.10 198.61
3785 17.3234 25621.00 25908.00 196.84
3786 17.3271 25886.20 25898.20 198.59
3787 17.3309 25751.60 25888.10 199.24
3788 17.3346 25701.80 25878.30 197.17
3789 17.3384 25997.40 25868.30 199.46
3790 17.3421 25806.60 25858.50 199.51
3791 17.3459 25966.60 25848.40 199.33
3792 17.3497 25477.20 25838.40 197.13
3793 17.3534 25731.20 25828.60 198.92
3794 17.3572 25680.20 25818.50 198.03
3795 17.3609 25802.70 25808.80 199.43
3796 17.3647 25557.20 25798.70 198.09
3797 17.3684 25562.60 25789.00 197.45
3798 17.3722 25754.10 25778.90 198.67
3799 17.3759 25897.20 25769.20 199.41
3800 17.3797 25536.10 25759.20 198.41
3801 17.3835 25634.60 25749.20 198.68
3802 17.3872 25445.70 25739.40 197.24
3803 17.3910 25544.20 25729.40 198.03
3804 17.3947 25185.30 25719.70 197.51
3805 17.3985 25800.70 25709.70 199.35
3806 17.4022 25253.70 25699.90 197.05
3807 17.4060 25613.60 25689.90 197.68
3808 17.4097 25816.20 25680.20 198.80
3809 17.4135 25795.10 25670.20 197.54
3810 17.4172 25488.40 25660.50 197.76
3811 17.4210 25790.00 25650.50 198.83
3812 17.4248 25070.70 25640.60 196.25
3813 17.4285 25639.40 25630.90 196.39
3814 17.4323 25450.80 25620.90 198.10
3815 17.4360 25463.60 25611.20 197.98
3816 17.4398 25762.10 25601.20 199.06
3817 17.4435 25411.80 25591.50 197.61
3818 17.4473 25240.70 25581.60 196.39
3819 17.4510 25455.10 25571.90 197.56
3820 17.4548 25206.60 25562.00 196.45
3821 17.4586 25449.60 25552.00 197.74
3822 17.4623 25412.70 25542.40 197.62
3823 17.4661 25752.00 25532.40 198.61
3824 17.4698 25268.30 25522.80 196.45
3825 17.4736 25442.10 25512.80 196.31
3826 17.4773 25277.90 25503.20 197.46
3827 17.4811 25325.10 25493.30 198.24
3828 17.4848 25158.90 25483.60 196.46
3829 17.4886 25581.10 25473.70 197.99
3830 17.4924 25103.20 25463.80 196.67
3831 17.4961 25446.30 25454.20 197.25
3832 17.4999 25266.50 25444.30 196.21
3833 17.5036 25333.60 25434.70 197.11
3834 17.5074 25107.60 25424.80 197.06
3835 17.5111 25417.80 25415.20 198.29
3836 17.5149 25181.50 25405.30 196.67
3837 17.5187 25609.20 25395.40 199.91
3838 17.5224 24926.00 25385.80 195.54
3839 17.5262 25082.40 25375.90 195.78
3840 17.5299 24897.90 25366.30 195.27
3841 17.5337 25426.70 25356.50 197.42
3842 17.5374 25294.80 25346.90 197.60
3843 17.5412 25132.50 25337.00 195.98
3844 17.5449 25058.60 25327.40 196.63
3845 17.5487 25327.60 25317.60 197.67
3846 17.5525 25060.40 25307.80 196.06
3847 17.5562 25183.80 25298.20 196.37
3848 17.5600 25074.20 25288.40 195.49
3849 17.5637 25334.60 25278.80 198.02
3850 17.5675 25124.80 25269.00 195.98
3851 17.5712 25185.50 25259.40 196.95
3852 17.5750 24816.80 25249.60 195.41
3853 17.5787 25395.90 25240.10 197.21
3854 17.5825 24970.00 25230.30 194.93
3855 17.5863 25356.60 25220.50 195.86
3856 17.5900 25346.00 25210.90 197.28
3857 17.5938 25169.60 25201.10 196.80
3858 17.5975 24835.70 25191.60 195.15
3859 17.6013 25099.40 25181.80 197.10
3860 17.6050 24885.80 25172.30 195.60
3861 17.6088 25175.40 25162.50 196.46
3862 17.6126 24998.10 25152.80 196.51
3863 17.6163 25212.10 25143.30 196.82
3864 17.6201 25087.80 25133.50 196.88
3865 17.6238 25097.10 25124.00 196.85
3866 17.6276 24813.90 25114.30 194.73
3867 17.6313 24791.80 25104.80 195.63
3868 17.6351 24916.90 25095.00 196.58
3869 17.6389 24991.70 25085.30 194.45
3870 17.6426 24889.10 25075.80 195.13
3871 17.6464 24768.40 25066.10 195.00
3872 17.6501 24577.50 25056.60 194.33
3873 17.6539 25108.40 25046.90 196.68
3874 17.6576 24991.00 25037.40 196.07
3875 17.6614 24793.20 25027.70 195.67
3876 17.6651 24456.30 25018.30 193.11
3877 17.6689 24898.70 25008.60 195.07
3878 17.6727 24494.40 24998.90 193.88
3879 17.6764 24582.20 24989.40 192.72
3880 17.6802 24476.80 24979.70 192.22
3881 17.6839 24687.90 24970.30 192.99
3882 17.6877 24718.00 24960.60 193.62
3883 17.6914 24535.80 24951.20 192.33
3884 17.6952 24550.90 24941.50 192.60
3885 17.6990 24666.10 24931.90 192.16
3886 17.7027 24376.90 24922.50 191.16
3887 17.7065 24616.20 24912.80 192.76
3888 17.7102 24412.20 24903.40 192.14
3889 17.7140 24391.30 24893.70 192.29
3890 17.7177 24562.50 24884.30 192.66
3891 17.7215 24463.90 24874.70 191.20
3892 17.7253 24726.00 24865.10 193.19
3893 17.7290 24712.60 24855.70 193.43
3894 17.7328 24407.30 24846.10 191.02
3895 17.7365 24834.20 24836.70 194.19
3896 17.7403 24412.30 24827.10 192.56
3897 17.7440 24262.30 24817.70 190.63
3898 17.7478 24366.00 24808.10 191.38
3899 17.7516 24522.10 24798.50 192.48
3900 17.7553 24440.30 24789.20 191.92
3901 17.7591 24532.50 24779.60 193.16
3902 17.7628 24493.70 24770.20 192.13
3903 17.7666 24310.60 24760.60 190.36
3904 17.7703 24420.80 24751.30 192.13
3905 17.7741 24437.40 24741.70 192.62
3906 17.7779 24192.80 24732.20 190.83
3907 17.7816 24456.40 24722.80 191.63
3908 17.7854 24335.00 24713.30 189.49
3909 17.7891 24621.70 24704.00 192.30
3910 17.7929 24352.70 24694.40 192.23
3911 17.7966 24481.70 24685.10 192.39
3912 17.8004 24539.90 24675.60 190.68
3913 17.8042 24363.80 24666.00 192.31
3914 17.8079 24202.30 24656.70 192.06
3915 17.8117 24562.80 24647.20 192.62
3916 17.8154 24161.80 24637.90 190.63
3917 17.8192 24351.40 24628.40 191.91
3918 17.8229 24123.90 24619.10 190.32
3919 17.8267 24258.40 24609.60 189.50
3920 17.8305 24117.80 24600.10 190.46
3921 17.8342 24258.20 24590.90 192.25
3922 17.8380 23894.70 24581.40 189.72
3923 17.8417 24528.80 24572.10 193.25
3924 17.8455 24235.10 24562.60 190.86
3925 17.8492 24261.60 24553.40 190.64
3926 17.8530 23867.30 24543.90 187.37
3927 17.8568 24309.90 24534.50 192.11
3928 17.8605 24074.50 24525.20 190.96
3929 17.8643 24185.70 24515.80 190.64
3930 17.8680 24006.60 24506.60 190.20
3931 17.8718 24474.90 24497.10 192.96
3932 17.8755 23845.90 24487.90 190.25
3933 17.8793 24299.00 24478.50 191.57
3934 17.8831 23863.60 24469.00 189.73
3935 17.8868 24187.70 24459.80 191.49
3936 17.8906 24167.80 24450.40 191.17
3937 17.8943 24095.30 24441.20 188.17
3938 17.8981 24081.20 24431.80 191.05
3939 17.9018 24407.40 24422.60 192.67
3940 17.9056 23968.10 24413.20 190.27
3941 17.9094 24156.80 24403.80 190.49
3942 17.9131 23987.60 24394.60 190.45
3943 17.9169 24212.90 24385.20 191.23
3944 17.9206 23934.10 24376.10 190.80
3945 17.9244 24257.70 24366.70 191.65
3946 17.9281 24107.80 24357.60 190.56
3947 17.9319 23869.10 24348.20 190.40
3948 17.9357 23609.90 24338.80 189.17
3949 17.9394 24191.00 24329.70 190.79
3950 17.9432 23847.50 24320.30 189.11
3951 17.9469 24316.00 24311.20 192.70
3952 17.9507 23729.30 24301.90 189.32
3953 17.9545 24120.00 24292.50 190.25
3954 17.9582 23995.00 24283.40 191.05
3955 17.9620 24029.00 24274.10 191.15
3956 17.9657 24147.70 24265.00 190.45
3957 17.9695 23809.90 24255.70 189.55
3958 17.9732 24219.90 24246.60 190.65
3959 17.9770 24129.40 24237.30 192.25
3960 17.9808 23900.20 24227.90 190.31
3961 17.9845 24073.60 24218.90 191.41
3962 17.9883 23806.40 24209.60 189.78
3963 17.9920 23699.70 24200.50 189.47
3964 17.9958 23604.90 24191.20 188.66
3965 17.9995 23878.90 24182.20 190.33
3966 18.0033 23739.80 24172.90 190.52
3967 18.0071 24145.80 24163.60 192.12
3968 18.0108 24023.20 24154.60 191.35
3969 18.0146 23675.90 24145.30 189.49
3970 18.0183 23479.30 24136.30 187.59
3971 18.0221 23993.80 24127.00 190.26
3972 18.0259 23854.90 24117.80 189.73
3973 18.0296 23981.80 24108.80 191.23
3974 18.0334 24050.20 24099.50 191.43
3975 18.0371 23905.30 24090.50 190.58
3976 18.0409 23725.60 24081.30 190.25
3977 18.0446 23803.10 24072.30 190.74
3978 18.0484 23743.20 24063.10 190.22
3979 18.0522 24028.50 24053.90 189.60
3980 18.0559 23836.10 24044.90 188.93
3981 18.0597 24033.60 24035.70 191.02
3982 18.0634 23942.00 24026.70 191.37
3983 18.0672 23904.10 24017.50 190.64
3984 18.0710 23594.20 24008.30 189.10
3985 18.0747 24071.60 23999.40 191.28
3986 18.0785 23644.30 23990.20 188.93
3987 18.0822 23952.50 23981.20 191.22
3988 18.0860 23775.20 23972.10 189.31
3989 18.0897 24073.10 23963.20 191.68
3990 18.0935 23811.20 23954.00 190.90
3991 18.0973 23992.70 23944.80 190.33
3992 18.1010 23842.60 23935.90 190.13
3993 18.1048 23988.40 23926.80 191.11
3994 18.1085 23971.10 23917.90 191.20
3995 18.1123 24104.50 23908.70 192.28
3996 18.1161 24082.50 23899.60 190.98
3997 18.1198 24619.70 23890.70 195.16
3998 18.1236 24376.30 23881.60 192.46
3999 18.1273 24609.10 23872.70 193.15
4000 18.1311 24418.30 23863.60 193.09
4001 18.1348 24780.80 23854.70 195.50
4002 18.1386 24179.20 23845.60 192.32
4003 18.1424 24563.70 23836.50 193.99
4004 18.1461 24100.60 23827.70 191.39
4005 18.1499 23970.90 23818.60 191.17
4006 18.1536 23545.60 23809.80 189.93
4007 18.1574 23495.20 23800.70 189.18
4008 18.1612 23552.60 23791.60 187.68
4009 18.1649 23796.40 23782.80 190.09
4010 18.1687 23473.60 23773.70 187.78
4011 18.1724 23773.40 23764.90 189.82
4012 18.1762 23402.50 23755.90 187.57
4013 18.1799 23740.20 23747.00 187.62
4014 18.1837 23175.00 23738.00 186.72
4015 18.1875 23718.00 23729.00 187.98
4016 18.1912 23363.30 23720.20 187.77
4017 18.1950 23631.10 23711.20 188.82
4018 18.1987 23066.70 23702.40 186.26
4019 18.2025 23623.60 23693.40 189.00
4020 18.2063 23177.80 23684.40 187.19
4021 18.2100 23350.30 23675.60 187.49
4022 18.2138 23481.70 23666.60 188.68
4023 18.2175 23495.00 23657.80 187.92
4024 18.2213 23178.40 23648.90 186.88
4025 18.2251 23275.00 23639.90 186.69
4026 18.2288 23044.20 23631.10 186.52
4027 18.2326 23331.90 23622.20 186.79
4028 18.2363 23556.20 23613.40 188.85
4029 18.2401 23590.00 23604.50 187.63
4030 18.2438 23689.30 23595.80 187.02
4031 18.2476 23717.60 23586.80 188.44
4032 18.2514 23588.70 23577.90 188.28
4033 18.2551 23738.50 23569.20 189.06
4034 18.2589 23257.70 23560.20 186.82
4035 18.2626 23740.50 23551.60 189.14
4036 18.2664 23284.80 23542.60 186.43
4037 18.2702 23428.50 23533.70 188.15
4038 18.2739 23238.20 23525.00 187.38
4039 18.2777 23146.50 23516.10 184.51
4040 18.2814 23226.40 23507.50 184.60
4041 18.2852 22982.50 23498.60 185.93
4042 18.2890 23411.80 23489.70 187.55
4043 18.2927 23592.10 23481.00 188.92
4044 18.2965 23142.60 23472.20 185.37
4045 18.3002 23504.00 23463.50 187.67
4046 18.3040 22879.20 23454.60 184.53
4047 18.3077 23220.10 23446.00 184.89
4048 18.3115 23035.20 23437.20 186.14
4049 18.3153 23213.50 23428.30 186.27
4050 18.3190 22846.30 23419.70 184.49
4051 18.3228 23205.10 23410.90 186.48
4052 18.3265 22613.00 23402.30 182.79
4053 18.3303 23094.70 23393.40 186.21
4054 18.3341 23161.10 23384.60 186.99
4055 18.3378 22982.10 23376.00 185.36
4056 18.3416 22946.40 23367.20 184.92
4057 18.3453 23101.50 23358.60 186.09
4058 18.3491 23087.00 23349.80 185.64
4059 18.3529 23056.40 23341.00 185.39
4060 18.3566 23113.00 23332.50 186.11
4061 18.3604 23166.10 23323.70 185.65
4062 18.3641 23054.90 23315.10 183.78
4063 18.3679 23467.90 23306.40 186.66
4064 18.3716 22569.80 23297.80 183.69
4065 18.3754 23305.80 23289.10 187.51
4066 18.3792 23019.20 23280.30 182.59
4067 18.3829 23185.80 23271.80 186.68
4068 18.3867 23011.90 23263.00 185.57
4069 18.3904 22858.40 23254.50 184.53
4070 18.3942 22721.40 23245.80 183.24
4071 18.3980 22957.50 23237.10 185.13
4072 18.4017 22640.70 23228.60 182.94
4073 18.4055 23090.00 23219.80 185.68
4074 18.4092 22593.10 23211.40 183.43
4075 18.4130 22804.20 23202.70 183.57
4076 18.4168 22500.50 23194.00 182.70
4077 18.4205 22975.60 23185.50 186.19
4078 18.4243 22692.40 23176.80 184.09
4079 18.4280 23021.30 23168.30 186.08
4080 18.4318 22378.00 23159.70 182.71
4081 18.4356 23014.60 23151.00 184.51
4082 18.4393 22457.40 23142.50 183.20
4083 18.4431 22710.30 23133.90 184.69
4084 18.4468 22624.80 23125.50 184.14
4085 18.4506 22545.50 23116.80 183.81
4086 18.4544 22560.30 23108.20 181.47
4087 18.4581 23089.30 23099.70 186.71
4088 18.4619 22560.40 23091.10 184.13
4089 18.4656 22660.60 23082.70 183.70
4090 18.4694 22390.40 23074.10 182.94
4091 18.4732 22910.00 23065.50 184.82
4092 18.4769 22300.10 23057.10 183.25
4093 18.4807 22512.30 23048.50 182.91
4094 18.4844 22246.60 23040.10 182.03
4095 18.4882 22554.30 23031.50 183.87
4096 18.4919 22616.00 23023.10 184.51
4097 18.4957 22709.30 23014.60 185.22
4098 18.4995 22418.50 23006.00 182.95
4099 18.5032 22399.90 22997.60 182.66
4100 18.5070 22536.00 22989.10 182.92
4101 18.5107 22862.10 22980.70 185.27
4102 18.5145 22404.90 22972.20 182.89
4103 18.5183 22731.40 22963.60 184.94
4104 18.5220 22362.70 22955.30 182.91
4105 18.5258 22423.70 22946.80 181.75
4106 18.5295 22537.40 22938.50 184.24
4107 18.5333 22496.70 22929.90 183.81
4108 18.5371 22461.90 22921.40 183.25
4109 18.5408 22439.30 22913.10 183.36
4110 18.5446 22530.10 22904.60 183.48
4111 18.5483 22649.60 22896.30 184.93
4112 18.5521 22324.50 22887.80 181.52
4113 18.5559 22517.90 22879.30 181.43
4114 18.5596 22280.20 22871.10 182.14
4115 18.5634 22638.70 22862.60 184.33
4116 18.5671 22378.20 22854.30 183.03
4117 18.5709 22146.10 22845.90 181.98
4118 18.5747 22184.20 22837.40 182.39
4119 18.5784 22747.80 22829.20 185.45
4120 18.5822 22304.30 22820.70 181.97
4121 18.5859 22499.50 22812.50 183.96
4122 18.5897 22110.80 22804.10 180.76
4123 18.5935 22432.70 22795.60 182.44
4124 18.5972 22351.10 22787.40 182.70
4125 18.6010 22128.10 22779.00 181.69
4126 18.6047 22262.70 22770.80 181.91
4127 18.6085 22277.90 22762.40 181.76
4128 18.6123 22224.20 22754.00 181.38
4129 18.6160 22354.50 22745.80 182.44
4130 18.6198 22174.10 22737.40 181.58
4131 18.6235 22576.40 22729.20 183.33
4132 18.6273 22359.30 22720.90 181.94
4133 18.6311 22248.10 22712.50 181.74
4134 18.6348 22192.60 22704.30 183.41
4135 18.6386 22281.00 22696.00 181.13
4136 18.6423 22402.30 22687.80 182.28
4137 18.6461 22464.90 22679.50 182.67
4138 18.6499 22070.30 22671.10 180.13
4139 18.6536 22463.80 22663.00 179.72
4140 18.6574 21858.10 22654.70 178.96
4141 18.6611 22429.70 22646.60 181.96
4142 18.6649 21885.60 22638.20 180.41
4143 18.6687 22230.50 22629.90 181.37
4144 18.6724 22226.50 22621.80 181.00
4145 18.6762 22259.70 22613.50 180.69
4146 18.6799 22001.70 22605.40 180.48
4147 18.6837 22575.60 22597.10 181.47
4148 18.6875 21991.00 22588.90 180.83
4149 18.6912 22416.60 22580.80 181.59
4150 18.6950 22079.60 22572.50 179.87
4151 18.6987 22645.40 22564.50 183.24
4152 18.7025 21985.10 22556.20 179.86
4153 18.7063 22399.00 22547.90 181.98
4154 18.7100 22124.00 22539.90 180.36
4155 18.7138 22775.70 22531.60 184.44
4156 18.7175 22182.70 22523.60 181.32
4157 18.7213 22909.20 22515.40 183.80
4158 18.7251 22436.80 22507.20 182.77
4159 18.7288 22513.20 22499.10 182.84
4160 18.7326 22293.00 22490.90 181.16
4161 18.7363 22594.00 22482.90 181.37
4162 18.7401 22230.60 22474.70 180.02
4163 18.7439 22284.90 22466.50 179.79
4164 18.7476 22318.50 22458.50 181.02
4165 18.7514 22241.70 22450.40 181.46
4166 18.7551 22689.20 22442.40 183.33
4167 18.7589 22472.30 22434.20 182.75
4168 18.7627 22095.50 22426.00 180.61
4169 18.7664 22384.30 22418.10 181.92
4170 18.7702 22093.60 22409.90 180.88
4171 18.7739 22004.20 22402.00 180.17
4172 18.7777 21760.30 22393.80 177.37
4173 18.7815 21976.20 22385.70 179.55
4174 18.7852 21889.10 22377.80 179.26
4175 18.7890 21884.60 22369.70 180.35
4176 18.7927 21397.40 22361.70 177.43
4177 18.7965 22053.50 22353.60 179.04
4178 18.8003 21695.20 22345.50 178.45
4179 18.8040 22126.80 22337.60 178.98
4180 18.8078 21664.10 22329.50 178.78
4181 18.8115 22049.50 22321.60 180.65
4182 18.8153 21740.70 22313.60 178.92
4183 18.8191 21781.90 22305.50 179.19
4184 18.8228 21787.80 22297.60 178.92
4185 18.8266 21911.30 22289.50 180.20
4186 18.8303 21717.40 22281.70 177.84
4187 18.8341 22080.90 22273.60 181.05
4188 18.8379 21466.20 22265.60 177.46
4189 18.8416 21728.50 22257.80 179.00
4190 18.8454 21760.30 22249.70 179.52
4191 18.8491 21914.50 22241.90 179.85
4192 18.8529 21860.10 22233.90 179.64
4193 18.8567 21996.30 22225.80 179.80
4194 18.8604 21773.40 22218.00 178.78
4195 18.8642 21985.40 22210.00 179.64
4196 18.8679 21671.30 22202.20 179.32
4197 18.8717 21846.50 22194.20 180.15
4198 18.8755 21542.50 22186.30 178.04
4199 18.8792 21903.50 22178.50 180.18
4200 18.8830 21464.90 22170.50 177.94
4201 18.8867 22026.30 22162.70 180.48
4202 18.8905 21688.70 22154.80 179.20
4203 18.8943 22061.50 22146.80 179.56
4204 18.8980 21632.70 22139.10 179.17
4205 18.9018 22033.90 22131.10 180.97
4206 18.9055 21642.80 22123.40 179.10
4207 18.9093 21867.00 22115.40 180.15
4208 18.9131 21777.50 22107.50 178.57
4209 18.9168 21867.50 22099.80 180.10
4210 18.9206 21593.20 22091.90 178.58
4211 18.9243 21730.90 22084.20 178.82
4212 18.9281 21543.00 22076.30 178.84
4213 18.9319 21959.50 22068.40 178.74
4214 18.9356 21206.10 22060.70 177.07
4215 18.9394 21686.60 22052.80 178.77
4216 18.9431 21492.50 22045.10 178.59
4217 18.9469 22059.10 22037.20 180.83
4218 18.9507 21465.60 22029.40 178.56
4219 18.9544 21940.60 22021.70 180.96
4220 18.9582 21463.00 22013.90 178.47
4221 18.9619 22025.60 22006.20 181.04
4222 18.9657 21709.10 21998.40 179.46
4223 18.9695 21531.50 21990.50 178.51
4224 18.9732 21554.60 21982.90 178.77
4225 18.9770 21847.90 21975.10 180.06
4226 18.9808 21537.70 21967.30 178.41
4227 18.9845 21571.10 21959.60 178.15
4228 18.9883 21360.10 21951.80 178.17
4229 18.9920 21625.10 21944.20 178.72
4230 18.9958 21580.20 21936.40 178.95
4231 18.9996 21614.90 21928.70 178.93
4232 19.0033 21710.10 21921.10 179.45
4233 19.0071 21684.40 21913.30 179.14
4234 19.0108 21449.00 21905.70 178.37
4235 19.0146 21564.40 21898.00 178.95
4236 19.0184 21287.00 21890.20 177.96
4237 19.0221 21769.60 21882.70 180.29
4238 19.0259 21528.20 21874.90 178.62
4239 19.0296 21760.30 21867.40 177.98
4240 19.0334 21124.30 21859.60 176.94
4241 19.0372 21749.00 21851.90 180.30
4242 19.0409 21386.30 21844.40 178.77
4243 19.0447 21627.50 21836.70 179.32
4244 19.0484 21347.60 21829.20 177.46
4245 19.0522 21585.30 21821.50 178.53
4246 19.0560 21289.00 21813.80 177.00
4247 19.0597 21656.90 21806.30 179.62
4248 19.0635 21435.10 21798.60 178.92
4249 19.0672 21701.90 21791.10 179.87
4250 19.0710 21257.50 21783.40 177.41
4251 19.0748 21848.90 21775.80 181.38
4252 19.0785 21264.50 21768.30 176.96
4253 19.0823 21256.10 21760.70 177.50
4254 19.0860 21159.40 21753.20 177.17
4255 19.0898 21672.30 21745.60 179.87
4256 19.0936 21332.90 21737.90 177.89
4257 19.0973 21607.00 21730.50 179.44
4258 19.1011 21382.40 21722.90 178.12
4259 19.1048 21538.90 21715.50 179.21
4260 19.1086 21222.90 21707.80 177.66
4261 19.1124 21424.00 21700.20 178.67
4262 19.1161 21306.20 21692.80 179.52
4263 19.1199 21609.20 21685.20 178.81
4264 19.1237 21179.60 21677.70 177.54
4265 19.1274 21484.20 21670.30 179.23
4266 19.1312 21262.20 21662.70 176.77
4267 19.1349 21604.80 21655.30 176.33
4268 19.1387 20984.10 21647.80 176.16
4269 19.1425 21709.70 21640.20 179.88
4270 19.1462 21148.40 21632.90 177.02
4271 19.1500 21304.30 21625.30 177.12
4272 19.1537 21273.00 21618.00 176.79
4273 19.1575 21289.10 21610.50 176.93
4274 19.1613 21338.60 21602.90 175.05
4275 19.1650 21500.40 21595.60 178.34
4276 19.1688 21348.00 21603.70 178.58
4277 19.1725 21280.90 21596.70 177.31
4278 19.1763 21070.20 21589.60 176.69
4279 19.1801 21204.20 21582.50 176.48
4280 19.1838 20918.40 21575.60 175.85
4281 19.1876 21605.90 21568.60 176.92
4282 19.1913 21232.10 21561.80 177.65
4283 19.1951 21521.60 21554.80 178.61
4284 19.1989 21032.70 21547.80 176.84
4285 19.2026 21088.80 21541.10 176.85
4286 19.2064 21172.00 21534.20 176.88
4287 19.2101 21386.80 21527.50 177.78
4288 19.2139 20963.00 21520.60 176.44
4289 19.2177 21489.70 21513.80 178.76
4290 19.2214 21090.00 21507.20 175.83
4291 19.2252 21279.70 21500.40 176.19
4292 19.2290 20838.20 21493.70 174.74
4293 19.2327 21264.20 21487.20 177.39
4294 19.2365 21330.80 21480.50 178.16
4295 19.2402 21087.70 21474.10 176.68
4296 19.2440 20873.10 21467.60 174.62
4297 19.2478 21370.70 21461.00 177.92
4298 19.2515 21232.50 21454.80 177.19
4299 19.2553 21345.60 21448.30 176.93
4300 19.2590 20990.40 21442.10 175.66
4301 19.2628 21450.40 21435.90 178.58
4302 19.2666 20879.10 21429.60 175.67
4303 19.2703 21175.90 21423.60 176.59
4304 19.2741 20855.00 21417.50 175.39
4305 19.2778 21415.30 21411.60 178.67
4306 19.2816 20807.50 21405.70 173.32
4307 19.2854 21033.90 21399.80 176.46
4308 19.2891 20772.20 21394.20 175.09
4309 19.2929 21139.90 21388.50 176.51
4310 19.2966 20813.60 21383.10 174.81
4311 19.3004 21051.70 21377.70 177.15
4312 19.3042 20770.50 21372.30 175.72
4313 19.3079 21189.80 21367.30 177.65
4314 19.3117 20713.30 21362.20 173.33
4315 19.3154 21080.40 21357.40 176.59
4316 19.3192 20580.30 21352.70 174.50
4317 19.3230 21347.60 21348.20 177.84
4318 19.3267 20903.20 21343.90 176.14
4319 19.3305 21014.80 21339.80 176.34
4320 19.3343 20829.10 21336.00 176.08
4321 19.3380 21172.80 21332.40 176.82
4322 19.3418 21049.00 21329.10 177.59
4323 19.3455 21132.80 21326.20 177.75
4324 19.3493 20759.50 21323.60 174.52
4325 19.3531 21379.90 21321.40 178.35
4326 19.3568 20918.00 21319.70 175.77
4327 19.3606 21020.20 21318.50 174.82
4328 19.3643 20489.30 21317.80 173.58
4329 19.3681 21510.30 21317.80 178.27
4330 19.3719 20733.40 21318.50 174.60
4331 19.3756 21300.00 21320.00 177.97
4332 19.3794 20855.90 21322.50 174.61
4333 19.3831 21222.90 21326.00 176.53
4334 19.3869 20871.20 21330.80 175.92
4335 19.3907 21290.70 21337.20 176.68
4336 19.3944 20976.50 21345.00 176.10
4337 19.3982 21335.10 21355.10 177.76
4338 19.4019 20999.80 21367.30 176.75
4339 19.4057 21371.20 21382.60 178.08
4340 19.4095 21161.60 21401.30 177.72
4341 19.4132 21394.30 21423.60 178.57
4342 19.4170 21329.40 21451.60 176.15
4343 19.4208 21711.10 21486.00 178.57
4344 19.4245 21258.50 21527.10 176.85
4345 19.4283 21687.90 21579.30 179.65
4346 19.4320 21446.00 21642.50 178.08
4347 19.4358 21725.60 21724.20 179.09
4348 19.4396 21678.80 21828.40 179.27
4349 19.4433 22394.50 21959.30 183.21
4350 19.4471 21938.30 22136.50 181.42
4351 19.4508 23107.70 22371.10 187.68
4352 19.4546 23201.50 22722.30 184.68
4353 19.4584 24546.10 23294.60 192.96
4354 19.4621 25372.10 24306.10 196.70
4355 19.4659 27888.10 26280.20 209.07
4356 19.4696 30507.30 29736.40 220.03
4357 19.4734 35503.20 35334.80 239.41
4358 19.4772 40540.60 42608.40 261.46
4359 19.4809 46133.70 49019.50 284.95
4360 19.4847 47241.20 50482.70 287.37
4361 19.4884 45567.10 45611.40 281.13
4362 19.4922 39329.80 38180.50 258.03
4363 19.4960 34265.20 31744.30 234.73
4364 19.4997 29365.60 27465.70 213.56
4365 19.5035 27131.40 24898.40 204.55
4366 19.5073 24860.00 23534.90 193.59
4367 19.5110 24152.40 22820.40 191.44
4368 19.5148 23302.90 22383.70 188.30
4369 19.5185 22767.90 22098.30 185.42
4370 19.5223 22186.40 21883.90 181.49
4371 19.5261 21963.70 21720.10 180.81
4372 19.5298 21551.30 21594.20 180.01
4373 19.5336 21708.80 21490.10 180.28
4374 19.5373 21359.30 21407.00 178.94
4375 19.5411 21697.70 21335.90 181.05
4376 19.5449 21421.90 21275.90 179.19
4377 19.5486 21414.30 21226.00 179.00
4378 19.5524 20916.30 21181.60 176.15
4379 19.5561 21475.10 21143.70 178.99
4380 19.5599 20567.10 21109.40 174.96
4381 19.5637 20969.90 21078.70 176.13
4382 19.5674 20712.90 21051.90 174.79
4383 19.5712 21003.00 21026.90 176.02
4384 19.5749 20560.90 21004.70 173.82
4385 19.5787 20929.80 20983.70 176.95
4386 19.5825 20416.60 20964.30 173.83
4387 19.5862 20903.50 20946.70 176.94
4388 19.5900 20615.40 20929.80 172.78
4389 19.5938 20724.00 20913.90 175.45
4390 19.5975 20728.80 20899.30 177.26
4391 19.6013 20794.80 20885.00 176.80
4392 19.6050 20377.20 20871.80 173.94
4393 19.6088 20432.10 20858.90 173.84
4394 19.6126 20518.10 20846.50 173.02
4395 19.6163 20477.60 20834.80 174.63
4396 19.6201 20272.60 20823.30 173.16
4397 19.6238 20507.80 20812.50 173.73
4398 19.6276 20528.10 20801.70 175.10
4399 19.6314 20576.30 20791.20 174.50
4400 19.6351 20433.90 20781.30 172.29
4401 19.6389 20563.70 20771.30 172.61
4402 19.6426 20200.60 20761.90 171.39
4403 19.6464 20522.70 20752.40 174.10
4404 19.6502 20260.50 20743.00 172.71
4405 19.6539 20631.50 20734.20 175.55
4406 19.6577 19851.60 20725.20 171.14
4407 19.6615 20367.50 20716.30 173.58
4408 19.6652 19789.90 20707.90 169.39
4409 19.6690 20346.40 20699.30 173.56
4410 19.6727 20082.20 20691.10 172.70
4411 19.6765 20299.00 20682.80 174.12
4412 19.6803 20207.90 20674.50 172.99
4413 19.6840 20057.10 20666.60 171.76
4414 19.6878 19973.60 20658.50 171.78
4415 19.6915 20148.30 20650.80 172.15
4416 19.6953 20236.90 20642.90 169.74
4417 19.6991 20243.40 20635.10 171.26
4418 19.7028 19944.20 20627.50 170.91
4419 19.7066 20106.70 20619.80 172.36
4420 19.7103 19892.10 20612.40 170.60
4421 19.7141 19960.40 20604.80 170.88
4422 19.7179 19601.20 20597.30 169.42
4423 19.7216 20158.20 20590.00 172.01
4424 19.7254 19703.60 20582.60 170.19
4425 19.7291 20259.60 20575.40 173.04
4426 19.7329 20151.10 20568.10 170.87
4427 19.7367 20174.00 20560.80 171.92
4428 19.7404 20023.20 20553.70 171.51
4429 19.7442 20187.30 20546.50 172.14
4430 19.7480 19763.50 20539.30 170.16
4431 19.7517 20037.90 20532.30 172.66
4432 19.7555 19786.20 20525.20 170.53
4433 19.7592 20265.20 20518.30 171.83
4434 19.7630 19995.40 20511.20 170.60
4435 19.7668 20328.80 20504.20 172.80
4436 19.7705 20074.30 20497.40 170.57
4437 19.7743 20172.20 20490.40 172.66
4438 19.7780 19928.40 20483.60 169.96
4439 19.7818 20218.40 20476.70 172.04
4440 19.7856 19877.10 20469.80 170.67
4441 19.7893 19945.10 20463.00 169.08
4442 19.7931 19580.30 20456.20 167.59
4443 19.7968 19739.00 20449.50 169.15
4444 19.8006 19908.50 20427.30 168.60
4445 19.8044 19942.80 20420.90 168.74
4446 19.8081 19583.80 20414.60 169.18
4447 19.8119 19664.70 20408.20 169.89
4448 19.8156 19300.40 20401.90 166.91
4449 19.8194 19779.00 20395.50 169.95
4450 19.8232 19452.50 20389.10 168.16
4451 19.8269 19809.10 20382.80 169.72
4452 19.8307 19654.00 20376.40 170.32
4453 19.8344 20016.10 20370.20 170.47
4454 19.8382 19465.10 20363.80 168.37
4455 19.8420 19594.40 20357.40 167.60
4456 19.8457 19481.70 20351.20 169.22
4457 19.8495 19964.00 20344.90 171.33
4458 19.8533 19622.50 20338.50 169.85
4459 19.8570 19557.40 20332.30 168.04
4460 19.8608 19482.30 20325.90 168.53
4461 19.8645 19706.20 20319.80 169.06
4462 19.8683 19565.00 20313.40 169.56
4463 19.8721 20115.10 20307.10 171.13
4464 19.8758 19604.70 20300.90 167.27
4465 19.8796 20118.20 20294.60 172.03
4466 19.8833 19332.60 20288.50 167.68
4467 19.8871 19938.90 20282.20 170.98
4468 19.8909 19630.00 20275.80 170.05
4469 19.8946 19782.90 20269.70 170.36
4470 19.8984 19678.20 20263.40 170.04
4471 19.9021 20232.40 20257.30 173.03
4472 19.9059 19681.60 20251.00 170.19
4473 19.9097 19825.50 20244.80 171.13
4474 19.9134 19642.30 20238.70 169.24
4475 19.9172 19703.00 20232.40 170.29
4476 19.9209 19698.80 20226.30 170.36
4477 19.9247 19933.50 20220.10 171.92
4478 19.9285 19580.20 20213.80 169.34
4479 19.9322 19668.70 20207.80 170.63
4480 19.9360 19581.70 20201.50 169.57
4481 19.9398 19707.00 20195.30 169.83
4482 19.9435 19634.60 20189.30 170.23
4483 19.9473 19932.20 20183.10 170.50
4484 19.9510 19581.30 20177.00 169.60
4485 19.9548 19870.50 20170.80 171.24
4486 19.9586 19877.70 20164.60 170.98
4487 19.9623 19845.60 20158.60 171.33
4488 19.9661 19610.30 20152.40 168.14
4489 19.9698 19622.70 20146.40 168.23
4490 19.9736 19684.10 20140.30 168.68
4491 19.9774 19869.00 20134.10 170.99
4492 19.9811 19712.10 20128.10 170.68
4493 19.9849 19730.70 20122.00 171.03
4494 19.9886 19599.10 20116.00 169.90
4495 19.9924 20028.50 20109.90 171.26
4496 19.9962 19459.90 20103.70 169.06
4497 19.9999 19877.50 20097.80 170.78
4498 20.0037 19378.10 20091.70 167.30
4499 20.0074 19736.80 20085.70 170.31
4500 20.0112 19574.10 20079.60 170.42
4501 20.0150 19625.40 20073.50 170.45
4502 20.0187 19521.90 20090.70 169.01
4503 20.0225 19852.30 20085.20 170.89
4504 20.0262 19550.10 20079.80 168.10
4505 20.0300 19651.80 20074.30 170.18
4506 20.0338 19332.70 20068.90 168.27
4507 20.0375 19987.80 20063.60 172.72
4508 20.0413 19351.30 20058.30 168.35
4509 20.0451 19383.30 20052.90 168.76
4510 20.0488 19539.90 20047.70 168.60
4511 20.0526 19798.40 20042.50 170.13
4512 20.0563 19496.50 20037.40 169.66
4513 20.0601 19539.80 20032.20 169.85
4514 20.0639 19247.40 20027.00 166.74
4515 20.0676 19567.60 20022.00 169.47
4516 20.0714 19366.20 20016.90 167.94
4517 20.0751 19605.70 20012.10 170.57
4518 20.0789 19410.40 20007.10 169.66
4519 20.0827 19898.40 20002.10 171.72
4520 20.0864 19269.50 19997.40 167.21
4521 20.0902 19656.90 19992.60 169.63
4522 20.0939 19638.50 19987.90 169.44
4523 20.0977 19638.50 19983.30 169.66
4524 20.1015 19457.80 19978.60 168.10
4525 20.1052 19558.90 19974.20 169.82
4526 20.1090 19585.90 19969.70 169.98
4527 20.1127 19553.30 19965.40 169.80
4528 20.1165 19407.40 19961.10 168.30
4529 20.1203 19810.70 19956.90 170.87
4530 20.1240 19261.40 19952.90 166.90
4531 20.1278 19359.50 19948.80 167.93
4532 20.1315 19256.20 19945.00 166.55
4533 20.1353 19384.30 19941.20 166.86
4534 20.1391 19328.30 19937.60 166.52
4535 20.1428 19844.00 19934.10 171.10
4536 20.1466 19475.80 19930.70 169.09
4537 20.1503 19497.10 19927.60 169.37
4538 20.1541 19348.80 19924.50 167.81
4539 20.1579 19710.80 19921.60 169.33
4540 20.1616 19233.40 19919.00 167.82
4541 20.1654 19315.60 19916.50 167.19
4542 20.1692 19201.90 19914.30 166.98
4543 20.1729 19553.40 19912.40 168.43
4544 20.1767 19389.80 19910.70 168.16
4545 20.1804 19607.60 19909.30 169.00
4546 20.1842 19225.80 19908.30 168.24
4547 20.1880 19645.40 19907.60 169.54
4548 20.1917 19382.90 19907.30 167.90
4549 20.1955 19638.50 19907.50 169.47
4550 20.1992 19351.20 19908.10 165.43
4551 20.2030 19552.80 19909.30 168.82
4552 20.2068 19268.50 19911.20 166.18
4553 20.2105 19748.10 19913.60 170.34
4554 20.2143 19418.70 19916.90 168.58
4555 20.2180 19530.20 19921.00 168.65
4556 20.2218 19503.80 19926.10 168.94
4557 20.2256 19577.10 19932.40 169.21
4558 20.2293 19466.90 19939.70 168.35
4559 20.2331 19479.60 19948.70 168.55
4560 20.2368 18923.80 19959.00 165.59
4561 20.2406 19420.10 19971.60 168.67
4562 20.2444 19003.30 19986.40 165.54
4563 20.2481 19795.70 20003.40 169.45
4564 20.2519 19136.50 20023.90 166.93
4565 20.2556 19878.30 20047.40 170.87
4566 20.2594 19311.10 20075.90 167.84
4567 20.2632 19703.00 20109.60 170.00
4568 20.2669 19478.00 20148.60 168.60
4569 20.2707 19865.20 20196.40 170.72
4570 20.2744 19667.30 20252.30 170.26
4571 20.2782 20092.40 20321.60 170.38
4572 20.2820 19597.00 20406.20 169.18
4573 20.2857 20068.40 20507.70 171.31
4574 20.2895 19785.90 20637.20 169.27
4575 20.2932 20225.60 20796.30 171.93
4576 20.2970 20344.30 21005.80 173.09
4577 20.3008 20973.90 21281.20 175.73
4578 20.3045 21201.20 21646.00 176.23
4579 20.3083 22246.40 22192.20 182.77
4580 20.3120 23110.50 23054.80 186.02
4581 20.3158 25138.90 24652.70 196.09
4582 20.3196 28181.90 27654.40 210.21
4583 20.3233 34993.80 32786.80 238.94
4584 20.3271 45625.00 40916.60 279.74
4585 20.3308 61707.00 50990.10 341.34
4586 20.3346 76419.20 60174.90 390.98
4587 20.3384 81685.90 61959.80 406.97
4588 20.3421 70106.20 54957.40 367.38
4589 20.3459 53900.50 44446.60 311.73
4590 20.3497 39234.50 35321.00 256.38
4591 20.3534 30812.50 29195.20 221.81
4592 20.3572 26163.70 25461.50 200.73
4593 20.3609 23971.60 23484.20 189.99
4594 20.3647 22240.90 22377.60 181.78
4595 20.3685 21620.60 21724.00 179.42
4596 20.3722 20963.20 21299.40 176.32
4597 20.3760 20723.20 20981.90 173.23
4598 20.3797 20112.90 20746.10 171.30
4599 20.3835 20250.90 20556.00 172.65
4600 20.3873 20080.00 20404.20 172.41
4601 20.3910 19845.20 20283.70 170.80
4602 20.3948 19690.00 20181.40 169.60
4603 20.3985 19944.90 20098.00 170.04
4604 20.4023 19433.00 20025.30 168.07
4605 20.4061 19763.30 19963.10 167.94
4606 20.4098 19557.60 19910.80 169.51
4607 20.4136 19891.50 19863.70 169.41
4608 20.4173 19282.90 19823.40 168.53
4609 20.4211 19632.60 19786.60 169.51
4610 20.4249 19421.10 19753.70 168.59
4611 20.4286 19405.40 19724.90 168.45
4612 20.4324 19212.30 19698.10 166.93
4613 20.4361 19539.40 19674.20 169.04
4614 20.4399 18945.30 19651.80 165.32
4615 20.4437 19378.40 19631.10 168.94
4616 20.4474 18948.20 19612.40 165.62
4617 20.4512 19488.30 19594.60 169.45
4618 20.4549 19269.00 19578.40 166.60
4619 20.4587 19352.00 19562.80 166.84
4620 20.4625 19085.30 19548.00 165.71
4621 20.4662 19367.40 19534.50 169.21
4622 20.4700 19012.50 19521.30 166.97
4623 20.4737 19486.00 19509.10 168.76
4624 20.4775 18679.00 19497.10 165.24
4625 20.4813 19134.80 19485.60 168.00
4626 20.4850 18806.60 19474.90 165.77
4627 20.4888 19133.40 19464.40 167.26
4628 20.4925 18728.00 19454.40 165.64
4629 20.4963 19137.10 19444.60 167.19
4630 20.5001 18823.50 19435.00 165.30
4631 20.5038 19049.50 19426.00 167.86
4632 20.5076 18701.80 19417.00 165.63
4633 20.5113 18886.60 19408.50 167.07
4634 20.5151 19121.50 19400.00 167.78
4635 20.5189 18867.00 19391.70 164.54
4636 20.5226 18834.70 19383.80 165.95
4637 20.5264 19033.60 19375.80 167.52
4638 20.5301 18525.40 19368.30 164.48
4639 20.5339 19100.80 19360.60 166.64
4640 20.5377 18588.70 19353.10 164.32
4641 20.5414 18848.90 19345.90 165.43
4642 20.5452 18659.00 19338.70 164.12
4643 20.5489 19164.10 19331.70 168.07
4644 20.5527 18673.60 19324.70 165.02
4645 20.5565 19026.60 19317.80 167.27
4646 20.5602 18585.30 19311.10 165.43
4647 20.5640 18801.90 19304.30 167.39
4648 20.5677 18650.10 19297.80 164.85
4649 20.5715 19031.50 19291.20 167.25
4650 20.5753 18697.90 19284.70 166.41
4651 20.5790 19095.70 19278.40 167.81
4652 20.5828 18974.40 19272.00 164.74
4653 20.5865 19219.70 19265.90 167.80
4654 20.5903 18533.60 19259.60 163.18
4655 20.5941 18936.10 19253.40 167.71
4656 20.5978 18788.20 19247.40 165.86
4657 20.6016 19141.80 19241.30 168.21
4658 20.6053 18812.10 19235.30 166.57
4659 20.6091 18855.20 19229.30 166.95
4660 20.6128 18751.20 19223.50 167.29
4661 20.6166 18881.90 19217.60 166.60
4662 20.6204 18790.90 19211.60 166.84
4663 20.6241 19062.40 19205.90 168.24
4664 20.6279 18598.10 19200.10 166.15
4665 20.6316 18875.30 19194.50 165.20
4666 20.6354 18377.70 19188.70 163.36
4667 20.6392 18710.80 19183.00 165.61
4668 20.6429 18506.80 19177.40 164.87
4669 20.6467 18812.00 19171.70 165.84
4670 20.6504 18521.70 19166.20 164.55
4671 20.6542 18832.80 19160.60 166.58
4672 20.6580 18374.20 19132.30 164.59
4673 20.6617 18664.50 19127.30 165.98
4674 20.6655 18400.20 19122.30 164.97
4675 20.6692 18810.10 19117.40 166.11
4676 20.6730 18634.50 19112.40 165.08
4677 20.6768 18884.00 19107.40 166.60
4678 20.6805 18593.00 19102.50 164.72
4679 20.6843 18946.00 19097.50 167.13
4680 20.6880 18355.10 19092.60 163.84
4681 20.6918 18687.00 19087.60 163.62
4682 20.6956 18450.90 19082.60 164.59
4683 20.6993 18496.00 19077.80 163.22
4684 20.7031 18474.80 19072.80 165.24
4685 20.7068 18595.60 19068.00 165.51
4686 20.7106 18643.30 19063.00 164.73
4687 20.7144 18568.80 19058.00 165.27
4688 20.7181 18278.00 19053.20 163.67
4689 20.7219 18740.40 19048.30 165.46
4690 20.7256 18369.50 19043.50 163.10
4691 20.7294 18789.80 19038.50 165.30
4692 20.7332 18444.70 19033.60 163.74
4693 20.7369 18637.00 19028.80 165.53
4694 20.7407 18202.20 19023.90 162.77
4695 20.7444 18618.60 19019.10 164.53
4696 20.7482 18417.10 19014.20 162.87
4697 20.7520 18302.10 19009.30 162.66
4698 20.7557 18658.50 19004.50 165.10
4699 20.7595 18961.80 18999.60 166.79
4700 20.7632 18332.30 18994.90 164.71
4701 20.7670 18730.20 18990.00 166.17
4702 20.7707 18489.20 18985.30 164.42
4703 20.7745 18648.90 18980.40 163.51
4704 20.7783 18365.30 18975.50 162.08
4705 20.7820 18351.90 18970.80 161.85
4706 20.7858 18287.90 18966.00 162.32
4707 20.7895 18523.70 18961.20 164.71
4708 20.7933 18305.80 18956.40 163.74
4709 20.7971 18586.60 18951.60 165.64
4710 20.8008 18470.90 18946.90 164.52
4711 20.8046 18679.40 18942.10 165.60
4712 20.8083 18288.10 18937.40 162.43
4713 20.8121 18721.00 18932.60 165.56
4714 20.8159 18540.80 18927.80 163.60
4715 20.8196 18608.80 18923.10 165.37
4716 20.8234 18394.90 18918.30 162.11
4717 20.8271 18547.70 18913.70 165.53
4718 20.8309 18226.30 18908.90 162.67
4719 20.8347 18609.90 18904.10 164.56
4720 20.8384 18397.60 18899.50 164.49
4721 20.8422 18413.20 18894.70 164.03
4722 20.8459 18444.60 18890.10 164.20
4723 20.8497 18518.90 18885.30 164.22
4724 20.8535 18376.70 18880.60 164.30
4725 20.8572 18690.10 18876.00 166.21
4726 20.8610 18499.20 18871.20 164.88
4727 20.8647 18449.40 18866.60 164.86
4728 20.8685 18235.70 18861.90 162.77
4729 20.8722 18542.90 18857.30 164.34
4730 20.8760 18385.30 18852.60 164.31
4731 20.8798 18821.10 18847.90 166.70
4732 20.8835 18260.60 18843.30 163.92
4733 20.8873 18538.00 18838.60 164.79
4734 20.8910 18254.60 18834.10 163.86
4735 20.8948 18774.70 18829.40 164.54
4736 20.8986 18220.00 18824.70 163.94
4737 20.9023 18504.90 18820.20 164.43
4738 20.9061 18204.50 18815.50 161.54
4739 20.9098 18585.40 18811.00 165.17
4740 20.9136 18505.70 18806.30 164.70
4741 20.9174 18510.60 18801.70 164.43
4742 20.9211 17909.70 18797.20 161.84
4743 20.9249 18373.20 18792.50 163.51
4744 20.9286 18584.20 18788.00 165.35
4745 20.9324 18515.80 18783.40 164.63
4746 20.9361 18160.70 18778.90 163.26
4747 20.9399 18546.90 18774.30 164.78
4748 20.9437 18382.90 18769.70 164.38
4749 20.9474 18600.70 18765.20 165.23
4750 20.9512 18325.80 18760.60 163.69
4751 20.9549 18457.30 18756.10 165.05
4752 20.9587 18093.10 18751.60 162.35
4753 20.9625 18539.30 18747.00 162.96
4754 20.9662 18449.60 18742.50 165.26
4755 20.9700 18835.80 18738.00 166.58
4756 20.9737 18462.20 18733.50 164.52
4757 20.9775 18600.50 18729.00 165.72
4758 20.9813 18250.40 18724.40 163.28
4759 20.9850 18466.50 18720.00 164.02
4760 20.9888 18317.90 18715.40 163.88
4761 20.9925 18415.70 18711.00 164.65
4762 20.9963 18320.80 18706.50 164.43
4763 21.0000 18509.10 18702.10 163.33
4764 21.0038 18201.60 18697.60 161.56
4765 21.0076 18580.10 18693.10 166.31
4766 21.0113 18258.30 18688.70 162.98
4767 21.0151 18305.60 18684.20 164.07
4768 21.0188 18192.70 18679.80 162.64
4769 21.0226 18689.90 18675.30 165.46
4770 21.0264 18238.40 18670.80 163.86
4771 21.0301 18413.60 18666.50 165.14
4772 21.0339 18352.60 18662.00 164.28
4773 21.0376 18370.90 18657.70 164.66
4774 21.0414 18171.40 18653.20 163.43
4775 21.0452 18471.40 18648.70 163.86
4776 21.0489 18295.20 18644.40 161.48
4777 21.0527 18564.50 18640.00 164.39
4778 21.0564 18181.30 18635.70 162.00
4779 21.0602 18373.10 18631.20 163.15
4780 21.0639 18743.90 18626.90 163.88
4781 21.0677 18507.00 18622.50 163.88
4782 21.0715 18523.20 18618.10 163.10
4783 21.0752 18608.80 18613.80 163.79
4784 21.0790 18294.20 18609.40 162.03
4785 21.0827 18644.40 18605.10 164.15
4786 21.0865 18140.60 18600.70 161.02
4787 21.0903 18621.30 18596.30 164.67
4788 21.0940 18532.60 18592.00 163.61
4789 21.0978 18480.70 18587.70 162.57
4790 21.1015 18073.50 18583.40 161.54
4791 21.1053 18750.60 18579.00 164.79
4792 21.1090 18391.80 18574.80 163.27
4793 21.1128 18397.50 18570.40 163.45
4794 21.1166 18003.40 18566.10 161.25
4795 21.1203 18493.40 18561.90 162.04
4796 21.1241 18017.00 18557.50 160.82
4797 21.1278 18446.80 18553.30 163.49
4798 21.1316 18370.60 18549.00 163.80
4799 21.1354 18491.00 18544.70 164.09
4800 21.1391 18087.80 18540.40 161.81
4801 21.1429 18620.60 18536.10 163.72
4802 21.1466 18347.90 18531.90 163.32
4803 21.1504 18774.80 18527.60 166.21
4804 21.1541 18210.30 18523.50 161.83
4805 21.1579 18358.40 18519.20 162.74
4806 21.1617 18267.70 18514.90 162.60
4807 21.1654 18665.50 18510.70 165.57
4808 21.1692 18125.50 18506.40 161.68
4809 21.1729 18507.60 18502.30 161.62
4810 21.1767 18183.10 18498.00 162.21
4811 21.1804 18299.70 18493.90 162.85
4812 21.1842 17849.20 18489.60 159.92
4813 21.1880 18599.80 18485.40 163.61
4814 21.1917 18091.20 18481.30 161.53
4815 21.1955 18438.10 18477.00 162.91
4816 21.1992 17900.70 18472.90 159.55
4817 21.2030 18104.90 18468.70 161.21
4818 21.2068 18262.80 18464.50 162.49
4819 21.2105 18502.00 18460.40 163.66
4820 21.2143 18014.00 18456.20 161.39
4821 21.2180 18447.20 18452.10 162.98
4822 21.2218 18021.30 18447.90 161.13
4823 21.2255 18496.50 18443.80 163.58
4824 21.2293 18162.90 18439.60 162.38
4825 21.2331 18391.50 18435.40 163.24
4826 21.2368 17857.60 18431.30 159.74
4827 21.2406 18585.10 18427.20 162.67
4828 21.2443 18081.20 18423.10 162.06
4829 21.2481 18595.40 18419.00 163.74
4830 21.2518 17846.30 18414.90 160.10
4831 21.2556 18203.90 18410.80 161.34
4832 21.2594 17912.10 18406.60 160.94
4833 21.2631 18362.80 18402.60 162.04
4834 21.2669 18230.70 18398.50 162.60
4835 21.2706 18356.20 18394.40 161.59
4836 21.2744 18244.90 18390.30 162.12
4837 21.2782 18373.50 18386.20 162.63
4838 21.2819 17919.50 18382.20 160.82
4839 21.2857 18461.10 18378.10 163.63
4840 21.2894 18113.40 18374.10 161.45
4841 21.2932 18389.80 18370.00 162.94
4842 21.2969 17848.70 18366.00 160.58
4843 21.3007 18395.90 18361.90 161.98
4844 21.3045 18082.80 18357.90 161.24
4845 21.3082 18414.90 18353.90 163.34
4846 21.3120 18157.40 18349.80 160.67
4847 21.3157 18285.40 18345.90 162.51
4848 21.3195 18060.80 18341.80 160.60
4849 21.3232 18407.80 18337.90 161.90
4850 21.3270 18062.30 18333.80 161.39
4851 21.3308 18263.30 18329.80 162.41
4852 21.3345 18042.90 18325.80 161.63
4853 21.3383 18270.00 18321.80 161.98
4854 21.3420 17983.30 18317.90 160.60
4855 21.3458 18305.50 18313.90 163.24
4856 21.3495 18097.40 18309.90 162.53
4857 21.3533 18317.00 18305.90 162.62
4858 21.3571 17955.90 18301.90 161.13
4859 21.3608 18465.70 18298.00 163.20
4860 21.3646 18210.80 18294.00 161.85
4861 21.3683 18173.60 18290.20 159.94
4862 21.3721 18169.10 18286.20 160.58
4863 21.3758 18534.40 18282.30 164.34
4864 21.3796 17891.00 18278.30 160.97
4865 21.3834 18346.00 18274.30 163.79
4866 21.3871 17849.60 18270.50 160.70
4867 21.3909 18342.40 18266.50 161.21
4868 21.3946 17839.50 18262.70 161.20
4869 21.3984 18358.00 18258.70 162.12
4870 21.4021 17922.90 18254.90 161.52
4871 21.4059 18355.80 18251.00 163.40
4872 21.4097 18090.30 18247.00 160.48
4873 21.4134 18347.20 18243.20 162.57
4874 21.4172 17861.90 18239.30 160.57
4875 21.4209 18299.60 18235.50 161.62
4876 21.4247 17920.20 18231.50 161.03
4877 21.4284 18392.10 18227.70 162.45
4878 21.4322 17986.60 18223.80 162.05
4879 21.4360 18218.20 18219.90 162.08
4880 21.4397 18076.20 18216.10 161.96
4881 21.4435 18249.90 18212.30 162.60
4882 21.4472 17884.60 18208.50 160.09
4883 21.4510 18392.40 18204.60 163.82
4884 21.4547 18022.10 18200.80 161.89
4885 21.4585 18495.70 18197.00 163.93
4886 21.4623 18010.10 18193.10 160.88
4887 21.4660 18131.50 18189.30 161.70
4888 21.4698 17878.20 18185.50 161.84
4889 21.4735 18257.70 18181.80 162.23
4890 21.4773 17949.00 18177.90 161.03
4891 21.4810 18409.10 18174.20 163.08
4892 21.4848 18104.30 18170.30 162.34
4893 21.4886 18397.50 18166.50 163.59
4894 21.4923 18115.10 18162.80 159.23
4895 21.4961 18542.80 18159.00 164.95
4896 21.4998 18290.50 18155.30 163.40
4897 21.5036 18318.70 18151.50 163.09
4898 21.5073 18211.40 18147.80 162.69
4899 21.5111 18635.50 18144.00 165.06
4900 21.5149 18068.40 18140.20 161.81
4901 21.5186 18575.10 18136.50 162.23
4902 21.5224 18456.20 18132.70 164.67
4903 21.5261 18622.80 18129.00 165.69
4904 21.5299 18263.90 18125.30 163.12
4905 21.5336 18566.60 18121.60 161.76
4906 21.5374 18182.20 18117.80 162.42
4907 21.5412 18964.10 18114.10 166.22
4908 21.5449 18554.80 18110.40 164.30
4909 21.5487 18644.10 18106.70 164.37
4910 21.5524 18296.30 18103.00 162.17
4911 21.5562 18369.50 18099.30 162.01
4912 21.5599 18043.30 18095.70 160.79
4913 21.5637 18485.00 18092.00 162.10
4914 21.5674 18118.00 18088.30 161.46
4915 21.5712 18281.90 18084.60 162.31
4916 21.5750 18027.80 18080.90 161.85
4917 21.5787 18349.90 18077.30 163.04
4918 21.5825 18043.10 18073.60 160.59
4919 21.5862 18108.10 18070.00 162.01
4920 21.5900 17989.90 18066.30 161.02
4921 21.5937 18153.20 18062.70 161.37
4922 21.5975 17909.20 18059.00 160.26
4923 21.6013 18271.10 18055.40 162.52
4924 21.6050 17892.00 18051.80 160.55
4925 21.6088 18441.00 18048.10 163.18
4926 21.6125 17852.30 18044.60 160.39
4927 21.6163 18178.80 18040.90 161.73
4928 21.6200 17919.30 18037.30 160.12
4929 21.6238 17831.40 18033.70 160.14
4930 21.6275 17598.90 18030.20 158.48
4931 21.6313 18101.90 18026.50 161.16
4932 21.6351 17967.50 18022.90 160.27
4933 21.6388 18212.80 18019.30 160.68
4934 21.6426 17811.90 18015.70 160.09
4935 21.6463 18436.70 18012.20 162.14
4936 21.6501 18064.60 18008.60 161.22
4937 21.6538 17557.00 18005.10 158.28
4938 21.6576 17807.70 18001.50 158.02
4939 21.6614 18017.10 17997.90 160.04
4940 21.6651 17923.50 17994.40 159.05
4941 21.6689 18196.10 17990.80 161.51
4942 21.6726 17846.90 17987.30 159.40
4943 21.6764 18022.60 17983.70 160.40
4944 21.6801 17832.30 17980.20 159.21
4945 21.6839 18151.90 17976.70 161.22
4946 21.6876 17631.40 17973.20 158.29
4947 21.6914 17990.10 17969.70 160.52
4948 21.6952 17498.80 17966.10 156.52
4949 21.6989 17912.70 17962.60 159.14
4950 21.7027 17694.10 17959.10 159.02
4951 21.7064 17849.80 17955.70 158.57
4952 21.7102 17743.30 17952.10 159.35
4953 21.7139 18176.70 17948.70 161.76
4954 21.7177 17968.00 17945.20 158.64
4955 21.7214 18165.60 17941.70 160.13
4956 21.7252 17699.30 17938.20 157.82
4957 21.7290 18258.30 17934.70 161.70
4958 21.7327 18109.10 17931.30 159.65
4959 21.7365 18031.40 17927.80 161.24
4960 21.7402 17955.20 17924.40 160.26
4961 21.7440 18044.40 17920.90 159.61
4962 21.7477 17684.70 17917.50 159.18
4963 21.7515 17756.80 17914.00 159.02
4964 21.7552 17645.70 17910.60 158.48
4965 21.7590 17933.30 17907.10 159.41
4966 21.7628 17525.10 17903.70 158.33
4967 21.7665 18047.00 17900.30 160.64
4968 21.7703 17486.50 17896.80 158.34
4969 21.7740 17881.80 17893.50 158.63
4970 21.7778 17411.40 17890.00 157.55
4971 21.7815 17930.30 17886.70 159.82
4972 21.7853 17667.30 17883.20 157.96
4973 21.7890 17636.10 17879.90 158.13
4974 21.7928 17502.70 17876.50 155.33
4975 21.7966 17833.60 17873.00 160.16
4976 21.8003 17619.60 17869.70 156.85
4977 21.8041 17969.80 17866.30 161.14
4978 21.8078 17860.20 17863.00 160.26
4979 21.8116 17887.00 17859.60 160.41
4980 21.8153 17628.10 17856.20 158.17
4981 21.8191 18039.20 17852.80 160.35
4982 21.8228 17670.40 17849.50 158.72
4983 21.8266 17723.10 17846.20 159.46
4984 21.8304 17672.30 17842.80 159.00
4985 21.8341 17995.70 17839.50 159.74
4986 21.8379 17534.20 17836.10 158.52
4987 21.8416 17897.50 17832.80 159.74
4988 21.8454 17989.70 17829.50 161.16
4989 21.8491 18157.20 17826.20 161.53
4990 21.8529 17829.60 17822.80 160.47
4991 21.8566 18175.00 17819.60 161.98
4992 21.8604 17598.70 17816.20 157.98
4993 21.8642 18173.40 17812.90 161.26
4994 21.8679 18131.30 17809.60 160.26
4995 21.8717 18002.60 17806.30 160.49
4996 21.8754 18081.70 17803.00 160.09
4997 21.8792 18178.70 17799.70 161.47
4998 21.8829 17788.40 17796.50 159.37
4999 21.8867 18004.00 17793.20 160.93
5000 21.8904 17731.10 17790.00 160.12
5001 21.8942 17772.30 17786.60 159.67
5002 21.8979 17474.50 17783.40 158.00
5003 21.9017 17981.50 17780.10 161.09
5004 21.9055 17548.00 17776.80 158.16
5005 21.9092 17989.10 17773.60 161.70
5006 21.9130 17727.50 17770.40 159.81
5007 21.9167 17981.70 17767.20 160.95
5008 21.9205 17406.40 17763.90 157.51
5009 21.9242 17787.30 17760.70 159.98
5010 21.9280 17648.50 17757.40 160.08
5011 21.9317 18013.90 17754.30 161.17
5012 21.9355 17793.10 17751.00 160.13
5013 21.9392 17898.00 17747.80 160.35
5014 21.9430 17585.10 17744.60 159.44
5015 21.9468 17936.10 17741.30 159.88
5016 21.9505 17884.20 17738.20 160.40
5017 21.9543 17989.60 17735.00 161.98
5018 21.9580 17784.80 17731.80 160.46
5019 21.9618 17926.30 17728.60 160.01
5020 21.9655 17611.50 17725.50 158.98
5021 21.9693 17792.10 17722.20 160.17
5022 21.9730 17577.70 17719.10 158.37
5023 21.9768 17836.50 17715.90 159.59
5024 21.9805 17519.70 17712.80 158.11
5025 21.9822 18076.40 17711.40 162.80
5026 21.9859 17376.90 17708.20 158.88
5027 21.9897 18197.20 17705.00 162.74
5028 21.9934 17565.50 17701.90 159.58
5029 21.9972 17844.50 17698.80 161.22
5030 22.0009 17755.30 17695.70 160.45
5031 22.0047 17625.70 17692.50 157.62
5032 22.0085 17660.90 17689.30 160.77
5033 22.0122 17987.50 17686.20 162.65
5034 22.0160 17710.80 17683.10 160.51
5035 22.0197 17965.90 17680.00 158.96
5036 22.0235 17575.90 17676.80 159.52
5037 22.0272 18018.30 17673.80 161.61
5038 22.0310 17612.30 17670.60 159.66
5039 22.0348 18223.80 17667.50 162.47
5040 22.0385 17527.00 17664.40 158.44
5041 22.0423 17864.60 17661.30 159.68
5042 22.0460 17474.40 17658.30 158.09
5043 22.0498 17764.10 17655.10 158.66
5044 22.0535 17523.80 17652.10 158.63
5045 22.0573 17899.70 17649.00 160.60
5046 22.0611 17486.50 17645.90 159.27
5047 22.0648 17696.60 17642.90 159.91
5048 22.0686 17620.50 17639.80 158.66
5049 22.0723 17625.00 17636.80 159.76
5050 22.0761 17636.80 17633.70 159.44
5051 22.0798 17886.00 17630.70 160.25
5052 22.0836 17942.30 17627.60 160.71
5053 22.0873 17968.50 17624.60 161.23
5054 22.0911 17723.90 17621.50 159.94
5055 22.0949 18034.90 17618.40 161.35
5056 22.0986 17454.40 17615.40 158.57
5057 22.1024 17488.20 17612.40 158.39
5058 22.1061 17488.00 17609.40 158.14
5059 22.1099 18039.30 17606.30 161.49
5060 22.1136 17604.60 17603.40 158.77
5061 22.1174 17686.00 17600.30 159.27
5062 22.1212 17449.50 17597.30 157.84
5063 22.1249 17668.30 17594.30 158.14
5064 22.1287 17430.60 17591.30 158.36
5065 22.1324 17319.00 17588.40 156.62
5066 22.1362 17430.50 17585.30 158.17
5067 22.1399 17647.10 17582.40 159.02
5068 22.1437 17830.30 17579.40 158.40
5069 22.1474 17798.90 17576.40 159.18
5070 22.1512 17697.90 17573.40 158.15
5071 22.1550 17760.20 17570.40 159.52
5072 22.1587 17174.80 17567.50 156.15
5073 22.1625 17659.70 17564.50 158.78
5074 22.1662 17557.90 17561.60 158.05
5075 22.1700 17773.60 17558.60 159.52
5076 22.1737 17210.20 17555.70 156.35
5077 22.1775 17587.10 17552.70 158.69
5078 22.1812 17479.50 17549.80 156.68
5079 22.1850 17432.60 17546.90 156.91
5080 22.1888 17414.80 17543.90 157.82
5081 22.1925 17527.90 17541.00 157.17
5082 22.1963 17448.70 17538.10 158.08
5083 22.2000 17496.80 17535.20 158.48
5084 22.2038 17290.50 17532.20 155.40
5085 22.2075 17638.10 17529.40 157.68
5086 22.2113 17368.80 17526.40 156.37
5087 22.2150 17673.70 17523.60 158.94
5088 22.2167 17814.20 17522.30 158.08
5089 22.2204 17918.20 17519.40 158.94
5090 22.2242 17675.90 17516.50 158.16
5091 22.2279 17963.90 17513.60 160.12
5092 22.2317 17396.70 17510.70 157.15
5093 22.2354 17808.60 17507.90 158.12
5094 22.2392 17556.40 17505.00 158.06
5095 22.2429 17645.80 17502.10 157.79
5096 22.2467 17622.50 17499.20 157.10
5097 22.2505 17836.50 17496.30 159.26
5098 22.2542 17595.10 17493.50 158.23
5099 22.2580 17460.30 17490.60 156.27
5100 22.2617 17643.50 17487.80 157.95
5101 22.2655 17653.10 17484.90 157.64
5102 22.2692 17291.80 17482.10 156.44
5103 22.2730 17630.60 17479.20 158.86
5104 22.2767 17336.00 17476.50 156.44
5105 22.2805 17759.90 17473.60 158.60
5106 22.2842 17527.00 17470.80 157.74
5107 22.2880 17914.90 17467.90 158.21
5108 22.2918 17598.20 17465.10 157.66
5109 22.2955 17735.60 17462.30 158.66
5110 22.2993 17569.50 17459.50 157.80
5111 22.3030 17745.50 17456.70 158.04
5112 22.3068 17471.70 17453.90 156.78
5113 22.3105 17538.60 17451.10 157.34
5114 22.3143 17506.70 17448.30 156.82
5115 22.3180 17595.40 17445.50 156.66
5116 22.3218 17070.00 17442.70 154.92
5117 22.3256 17616.80 17439.90 158.51
5118 22.3293 17311.00 17437.10 156.92
5119 22.3331 17659.50 17434.30 158.25
5120 22.3368 17261.00 17431.60 155.38
5121 22.3406 17866.90 17428.80 158.65
5122 22.3443 17380.50 17426.10 156.93
5123 22.3481 17747.00 17423.30 158.82
5124 22.3518 17312.90 17420.60 155.54
5125 22.3556 17501.40 17417.80 158.05
5126 22.3593 17224.90 17415.10 155.94
5127 22.3631 17520.10 17412.30 157.81
5128 22.3669 17362.40 17409.50 156.82
5129 22.3706 17871.70 17406.80 159.51
5130 22.3744 17569.80 17404.00 157.61
5131 22.3781 17584.30 17401.30 156.74
5132 22.3819 17370.30 17398.60 156.27
5133 22.3856 17690.60 17395.90 159.12
5134 22.3894 17380.10 17393.10 157.28
5135 22.3931 17407.00 17390.50 156.82
5136 22.3969 17242.50 17387.70 156.83
5137 22.4007 17615.70 17385.00 158.69
5138 22.4044 17542.50 17382.30 157.96
5139 22.4082 17634.50 17379.60 158.59
5140 22.4119 17441.80 17376.90 157.06
5141 22.4157 17557.80 17374.20 158.26
5142 22.4194 17334.20 17371.50 154.80
5143 22.4232 17485.60 17368.80 157.07
5144 22.4269 17269.00 17366.20 156.71
5145 22.4307 17693.60 17363.50 158.82
5146 22.4344 17137.30 17360.80 156.09
5147 22.4382 17633.50 17358.10 157.96
5148 22.4420 17343.20 17355.40 156.25
5149 22.4457 17565.30 17352.80 157.89
5150 22.4495 17436.20 17350.10 157.10
5151 22.4532 17443.90 17347.50 157.19
5152 22.4570 17625.00 17344.80 158.91
5153 22.4607 17629.20 17342.20 158.26
5154 22.4645 17207.40 17339.50 155.75
5155 22.4682 17489.10 17336.90 157.82
5156 22.4720 17161.10 17334.30 155.77
5157 22.4758 17537.70 17331.60 157.97
5158 22.4795 17504.80 17329.00 157.99
5159 22.4833 17738.20 17326.30 158.90
5160 22.4870 17508.70 17323.80 158.47
5161 22.4908 17246.80 17321.10 156.88
5162 22.4945 17286.00 17318.50 156.44
5163 22.4983 17737.50 17315.90 159.14
5164 22.5020 17406.50 17313.30 156.63
5165 22.5058 17469.80 17310.70 155.94
5166 22.5096 17410.60 17308.10 157.23
5167 22.5133 17534.80 17305.50 158.16
5168 22.5171 17261.50 17302.90 157.37
5169 22.5208 17467.00 17300.30 157.92
5170 22.5246 17218.60 17297.70 157.07
5171 22.5283 17412.90 17295.20 156.85
5172 22.5321 17243.90 17292.50 156.26
5173 22.5358 17484.80 17290.00 158.41
5174 22.5396 17377.00 17287.40 157.23
5175 22.5434 17615.70 17284.80 158.16
5176 22.5471 17336.70 17282.30 156.81
5177 22.5509 17373.20 17279.70 157.65
5178 22.5546 17356.20 17277.20 157.22
5179 22.5584 17638.60 17274.60 159.02
5180 22.5621 17480.80 17272.10 158.73
5181 22.5659 17297.50 17269.50 156.82
5182 22.5697 17339.50 17266.90 157.10
5183 22.5734 17433.80 17264.40 156.91
5184 22.5772 17267.20 17261.80 157.26
5185 22.5809 17676.10 17259.30 158.70
5186 22.5847 17235.40 17256.80 156.82
5187 22.5884 17291.60 17254.30 157.50
5188 22.5922 17223.30 17251.70 157.01
5189 22.5959 17602.80 17249.30 158.00
5190 22.5997 17250.70 17246.70 156.27
5191 22.6035 17482.90 17244.20 157.85
5192 22.6072 17111.40 17241.70 155.84
5193 22.6110 17704.70 17239.20 159.23
5194 22.6147 17025.30 17236.70 155.13
5195 22.6185 17696.80 17234.20 159.33
5196 22.6222 17292.40 17231.70 157.08
5197 22.6260 17749.70 17229.20 159.90
5198 22.6298 17086.20 17226.70 155.02
5199 22.6335 17565.00 17224.20 157.31
5200 22.6373 17067.50 17221.70 154.35
5201 22.6410 17396.00 17219.30 156.61
5202 22.6448 17363.10 17216.80 156.87
5203 22.6485 17337.50 17214.30 156.97
5204 22.6523 17015.00 17211.80 154.87
5205 22.6560 17587.10 17209.40 157.79
5206 22.6598 17081.20 17206.90 155.43
5207 22.6636 17447.90 17204.40 157.66
5208 22.6673 17177.10 17202.00 156.05
5209 22.6711 17748.50 17199.50 159.43
5210 22.6748 17351.10 17197.10 158.38
5211 22.6786 17505.90 17194.70 157.97
5212 22.6823 17261.70 17192.30 156.46
5213 22.6861 17541.80 17189.80 157.26
5214 22.6899 17251.00 17187.30 157.24
5215 22.6936 17700.20 17184.90 159.28
5216 22.6974 17166.00 17182.50 156.77
5217 22.7011 17692.50 17180.10 158.93
5218 22.7049 17256.40 17177.60 157.15
5219 22.7086 17479.40 17175.30 157.05
5220 22.7124 17327.20 17172.80 157.46
5221 22.7161 17402.40 17170.40 157.76
5222 22.7199 17253.80 17168.00 156.12
5223 22.7237 17311.70 17165.60 156.74
5224 22.7274 17155.20 17163.20 155.29
5225 22.7312 17418.20 17160.80 157.41
5226 22.7349 17115.20 17158.40 156.02
5227 22.7387 17448.90 17156.00 157.87
5228 22.7424 17192.20 17153.70 156.28
5229 22.7462 17431.90 17151.20 156.56
5230 22.7500 17150.20 17148.80 155.99
5231 22.7537 17367.60 17146.50 157.36
5232 22.7575 17216.10 17144.10 156.16
5233 22.7612 17307.30 17141.80 156.14
5234 22.7650 17449.70 17139.40 157.63
5235 22.7687 17635.20 17137.00 158.41
5236 22.7725 17383.30 17134.60 156.59
5237 22.7763 17294.30 17132.30 157.12
5238 22.7800 17144.20 17129.90 156.12
5239 22.7838 17539.10 17127.60 158.52
5240 22.7875 17486.10 17125.20 156.27
5241 22.7913 17633.40 17122.90 158.44
5242 22.7950 17297.40 17120.60 155.11
5243 22.7988 17411.80 17118.20 158.17
5244 22.8026 17254.20 17115.80 156.46
5245 22.8063 17478.00 17113.50 159.07
5246 22.8101 17215.00 17111.20 155.98
5247 22.8138 17546.30 17108.90 158.59
5248 22.8176 17020.60 17106.50 155.15
5249 22.8213 17533.30 17104.30 159.06
5250 22.8251 17259.40 17101.90 157.05
5251 22.8289 17475.70 17099.60 157.46
5252 22.8326 17126.10 17097.30 156.43
5253 22.8364 17479.60 17095.00 157.88
5254 22.8401 16948.20 17092.70 154.72
5255 22.8439 17424.80 17090.40 157.38
5256 22.8476 17129.10 17088.10 156.82
5257 22.8514 17530.30 17085.80 156.57
5258 22.8552 17139.80 17083.50 156.24
5259 22.8589 17450.30 17081.20 156.49
5260 22.8627 17336.80 17078.90 157.16
5261 22.8664 17518.30 17076.60 158.16
5262 22.8702 17190.80 17074.30 157.20
5263 22.8739 17645.90 17072.10 159.11
5264 22.8777 17236.60 17069.80 156.14
5265 22.8815 17853.10 17067.50 159.93
5266 22.8852 17212.90 17065.30 156.35
5267 22.8890 17401.70 17063.00 156.75
5268 22.8927 17153.20 17060.80 155.17
5269 22.8965 17265.00 17058.50 156.17
5270 22.9002 17054.40 17056.20 155.72
5271 22.9040 17838.20 17054.00 159.02
5272 22.9078 17235.30 17051.70 156.48
5273 22.9115 17522.20 17049.50 158.47
5274 22.9153 17412.30 17047.20 157.86
5275 22.9190 17655.50 17045.00 158.66
5276 22.9228 17087.40 17042.80 156.43
5277 22.9265 17181.50 17040.50 156.55
5278 22.9303 17397.10 17038.30 157.41
5279 22.9341 17506.30 17036.00 158.64
5280 22.9378 17381.20 17033.80 155.99
5281 22.9416 17678.00 17031.60 159.53
5282 22.9453 17375.70 17029.40 157.18
5283 22.9491 17769.70 17027.20 159.97
5284 22.9528 17331.00 17025.00 157.46
5285 22.9566 17453.50 17022.80 158.57
5286 22.9604 17203.20 17020.50 156.13
5287 22.9641 17600.30 17018.40 159.35
5288 22.9679 17453.30 17016.10 157.72
5289 22.9716 17678.50 17014.00 159.41
5290 22.9754 17413.80 17011.80 157.26
5291 22.9792 17547.80 17009.50 159.04
5292 22.9829 17337.10 17007.40 158.52
5293 22.9867 17443.10 17005.20 157.51
5294 22.9904 17401.70 17003.00 157.64
5295 22.9942 17923.50 17000.80 161.05
5296 22.9979 17410.10 16998.70 156.93
5297 23.0017 17638.90 16996.50 158.82
5298 23.0055 17548.10 16994.30 158.65
5299 23.0092 17768.10 16992.10 160.42
5300 23.0130 17386.50 16989.90 158.37
5301 23.0167 17642.20 16987.80 158.91
5302 23.0205 17579.90 16985.60 158.88
5303 23.0242 17987.00 16983.50 161.26
5304 23.0280 17657.80 16981.30 158.42
5305 23.0318 17839.60 16979.20 160.32
5306 23.0355 17409.70 16977.00 158.62
5307 23.0393 17723.50 16974.90 158.56
5308 23.0430 17428.50 16972.80 157.49
5309 23.0468 17853.80 16970.60 160.29
5310 23.0506 17426.30 16968.40 158.70
5311 23.0543 17770.00 16966.30 160.24
5312 23.0581 17488.60 16964.20 157.98
5313 23.0618 17714.00 16962.10 160.06
5314 23.0656 17536.60 16959.90 159.07
5315 23.0693 17649.30 16957.80 159.61
5316 23.0731 17753.20 16955.70 158.53
5317 23.0769 17811.30 16953.60 159.96
5318 23.0806 17381.30 16951.50 157.97
5319 23.0844 17807.90 16949.30 159.66
5320 23.0881 17446.20 16947.30 158.73
5321 23.0919 17822.10 16945.10 160.88
5322 23.0956 17625.00 16943.10 159.05
5323 23.0994 17959.70 16940.90 160.59
5324 23.1032 17519.40 16938.80 158.47
5325 23.1069 18074.40 16936.80 162.88
5326 23.1107 17794.00 16934.60 159.22
5327 23.1144 17890.70 17330.00 160.70
5328 23.1182 17753.30 17336.90 160.23
5329 23.1220 17882.90 17344.10 161.33
5330 23.1257 17764.40 17351.40 159.51
5331 23.1295 17677.60 17359.30 160.29
5332 23.1332 17761.20 17367.30 160.22
5333 23.1370 18132.00 17375.90 162.18
5334 23.1407 17877.10 17384.60 160.48
5335 23.1445 17973.30 17394.00 161.87
5336 23.1483 17576.80 17403.80 159.16
5337 23.1520 18096.80 17413.70 162.10
5338 23.1558 17881.40 17424.40 161.22
5339 23.1595 18157.30 17435.40 162.86
5340 23.1633 18006.60 17447.10 161.95
5341 23.1671 17900.10 17459.30 160.70
5342 23.1708 18076.90 17471.80 162.29
5343 23.1746 18501.00 17485.30 165.00
5344 23.1783 18268.80 17499.00 162.83
5345 23.1821 18141.20 17513.80 160.40
5346 23.1858 17934.90 17528.80 160.85
5347 23.1896 18419.60 17545.00 161.92
5348 23.1934 18322.10 17562.00 163.57
5349 23.1971 18330.00 17579.40 162.84
5350 23.2009 18394.60 17598.10 163.65
5351 23.2046 18421.30 17617.30 163.93
5352 23.2084 18542.90 17637.90 163.15
5353 23.2122 18319.30 17659.70 163.65
5354 23.2159 18316.50 17681.90 163.58
5355 23.2197 18698.10 18469.80 165.19
5356 23.2234 18569.10 18511.30 163.93
5357 23.2272 18676.10 18556.00 165.35
5358 23.2310 18729.30 18602.70 165.61
5359 23.2347 18829.50 18650.30 166.66
5360 23.2385 19013.50 18701.50 167.03
5361 23.2422 18985.10 18753.80 166.75
5362 23.2460 18606.90 18810.20 163.34
5363 23.2497 19135.10 18867.80 166.99
5364 23.2535 18858.90 18929.90 165.94
5365 23.2573 19303.80 18995.40 168.39
5366 23.2610 19041.90 19062.50 168.01
5367 23.2648 19430.10 19135.00 169.42
5368 23.2685 19320.90 19209.50 168.56
5369 23.2723 19695.70 19290.30 168.00
5370 23.2761 19328.20 19375.70 168.67
5371 23.2798 19946.70 19463.70 171.91
5372 23.2836 19703.80 19559.40 170.57
5373 23.2873 19809.80 19658.20 169.99
5374 23.2911 19699.10 19766.00 170.36
5375 23.2948 20526.80 19877.50 174.60
5376 23.2986 20136.00 19999.40 172.09
5377 23.3024 20945.50 20129.40 175.77
5378 23.3061 20457.30 20264.60 173.14
5379 23.3099 20833.00 20413.10 175.96
5380 23.3136 21012.30 20568.10 176.67
5381 23.3174 21369.50 20738.80 178.26
5382 23.3212 21249.20 20922.60 178.26
5383 23.3249 21930.10 21115.50 180.89
5384 23.3287 21824.70 21329.30 180.30
5385 23.3324 22568.00 21554.70 182.69
5386 23.3362 22292.00 21805.80 182.31
5387 23.3400 23154.80 22079.20 186.40
5388 23.3437 22815.80 22369.70 185.16
5389 23.3475 23976.50 22696.40 190.75
5390 23.3512 24158.10 23045.00 192.13
5391 23.3550 24621.50 23440.10 194.54
5392 23.3587 24965.00 23865.10 195.61
5393 23.3625 25804.30 24349.60 199.68
5394 23.3663 26368.90 24890.50 201.34
5395 23.3700 27425.10 25480.80 207.36
5396 23.3738 27541.20 26163.30 207.55
5397 23.3775 29095.20 26916.10 214.11
5398 23.3813 29621.50 27796.90 216.90
5399 23.3851 31750.20 28809.80 226.17
5400 23.3888 32155.30 29949.80 227.35
5401 23.3926 34575.30 31314.10 237.79
5402 23.3963 36257.50 32877.20 245.44
5403 23.4001 39227.30 34784.90 257.13
5404 23.4039 41142.70 37084.20 264.20
5405 23.4076 45003.10 39811.80 279.29
5406 23.4114 49085.40 43278.80 295.46
5407 23.4151 55606.80 47525.90 319.49
5408 23.4189 62244.20 53171.30 340.75
5409 23.4227 73107.30 60829.50 378.89
5410 23.4264 86016.80 71678.10 421.99
5411 23.4302 108297.00 89536.70 493.04
5412 23.4339 137255.00 119588.00 575.95
5413 23.4377 189844.00 173565.00 722.36
5414 23.4414 261655.00 260014.00 898.33
5415 23.4452 378039.00 390070.00 1173.49
5416 23.4490 504464.00 550545.00 1460.42
5417 23.4527 623310.00 687987.00 1707.70
5418 23.4565 639784.00 722381.00 1740.23
5419 23.4602 569877.00 624316.00 1585.99
5420 23.4640 430643.00 464963.00 1290.02
5421 23.4678 311928.00 318822.00 1021.60
5422 23.4715 223911.00 214886.00 807.79
5423 23.4753 168036.00 147316.00 651.57
5424 23.4790 129584.00 109611.00 547.57
5425 23.4828 110028.00 88283.30 497.37
5426 23.4866 94263.60 76432.50 444.53
5427 23.4903 86648.50 69651.10 425.45
5428 23.4941 79741.00 65495.50 400.49
5429 23.4978 77089.00 63301.00 390.97
5430 23.5016 74562.30 62546.80 381.47
5431 23.5054 75285.50 63144.40 386.30
5432 23.5091 74953.70 65003.20 385.63
5433 23.5129 78434.40 68326.70 397.05
5434 23.5166 81215.10 73165.20 405.08
5435 23.5204 89017.60 80202.40 432.32
5436 23.5242 96080.60 90118.70 452.68
5437 23.5279 111157.00 104024.00 500.55
5438 23.5317 130004.00 126009.00 553.84
5439 23.5354 164259.00 161839.00 647.86
5440 23.5392 214234.00 226985.00 784.01
5441 23.5430 312284.00 341502.00 1022.96
5442 23.5467 467225.00 521388.00 1370.21
5443 23.5505 742177.00 783471.00 1941.15
5444 23.5542 1080470.00 1081950.00 2633.11
5445 23.5580 1405200.00 1319710.00 3250.03
5446 23.5617 1454320.00 1326660.00 3348.41
5447 23.5655 1220350.00 1096850.00 2904.02
5448 23.5693 828101.00 789802.00 2129.34
5449 23.5730 529326.00 531230.00 1512.06
5450 23.5768 330895.00 342594.00 1058.99
5451 23.5805 225953.00 228027.00 804.48
5452 23.5843 159994.00 160062.00 639.67
5453 23.5881 123636.00 121550.00 537.56
5454 23.5918 98772.60 98800.40 463.98
5455 23.5956 84686.60 83201.00 417.72
5456 23.5993 71912.50 72206.90 375.61
5457 23.6031 64840.20 63603.40 351.65
5458 23.6069 57751.80 56876.90 327.25
5459 23.6106 52988.50 51633.90 309.61
5460 23.6144 48243.20 47257.20 291.81
5461 23.6181 45779.80 43746.50 279.07
5462 23.6219 41854.70 40742.00 267.66
5463 23.6257 40284.50 38217.50 261.78
5464 23.6294 37169.10 36127.20 249.65
5465 23.6332 36053.40 34286.20 244.04
5466 23.6369 34024.90 32738.60 235.16
5467 23.6407 33092.20 31354.10 230.81
5468 23.6445 31577.00 30145.10 223.02
5469 23.6482 30824.60 29108.10 220.65
5470 23.6520 29667.10 28165.10 216.12
5471 23.6557 29020.80 27347.90 212.41
5472 23.6595 28015.50 26597.70 208.58
5473 23.6633 27691.60 25924.90 206.08
5474 23.6670 26448.60 25334.50 200.64
5475 23.6708 26210.60 24786.10 200.05
5476 23.6745 25264.00 24301.20 195.90
5477 23.6783 25393.30 23847.80 196.46
5478 23.6821 24811.30 23434.10 193.04
5479 23.6858 24768.50 23065.10 193.96
5480 23.6896 23413.40 22717.00 186.97
5481 23.6933 23362.30 22404.80 186.81
5482 23.6971 22689.20 22108.70 183.26
5483 23.7009 22951.60 21835.20 185.06
5484 23.7046 21733.30 21588.40 178.12
5485 23.7084 22254.70 21352.90 180.99
5486 23.7121 21797.70 21139.50 178.99
5487 23.7159 21637.30 20935.10 178.11
5488 23.7197 21313.30 20744.30 176.87
5489 23.7234 21191.50 20570.60 177.50
5490 23.7272 20794.70 20403.30 173.61
5491 23.7309 20875.90 20250.50 173.97
5492 23.7347 20689.50 20103.00 174.55
5493 23.7385 20698.40 19964.30 173.99
5494 23.7422 20419.10 19837.00 172.99
5495 23.7460 20246.10 19713.60 171.40
5496 23.7497 19759.20 19600.10 168.26
5497 23.7535 19974.00 19489.80 170.60
5498 23.7573 19801.00 19385.40 169.74
5499 23.7610 19596.20 19289.10 167.96
5500 23.7648 18961.70 19195.30 164.23
5501 23.7685 19381.50 19108.40 167.30
5502 23.7723 19091.00 19023.70 165.72
5503 23.7761 19033.70 18943.00 165.01
5504 23.7798 19016.30 18868.20 165.43
5505 23.7836 19146.20 18794.90 165.60
5506 23.7873 18704.60 18726.90 163.97
5507 23.7911 18821.20 18660.10 164.78
5508 23.7949 18137.40 18596.40 160.39
5509 23.7986 18691.80 18144.00 164.47
5510 23.8024 18471.10 18094.20 162.05
5511 23.8061 18620.60 18047.70 163.87
5512 23.8099 18332.70 18002.10 162.34
5513 23.8137 18406.50 17958.40 162.47
5514 23.8174 18129.40 17917.70 160.88
5515 23.8212 18220.70 17877.50 161.47
5516 23.8249 18067.40 17840.00 161.45
5517 23.8287 18401.40 17803.00 163.15
5518 23.8325 18094.60 17767.50 161.28
5519 23.8362 18362.20 17734.30 162.41
5520 23.8400 18153.80 17701.40 161.48
5521 23.8437 18249.50 17670.60 162.13
5522 23.8475 17722.70 17640.10 159.69
5523 23.8513 18269.50 17610.80 161.79
5524 23.8550 17809.00 17583.20 159.73
5525 23.8588 18206.60 17555.90 161.34
5526 23.8625 17660.00 17530.30 158.71
5527 23.8663 18063.50 17504.80 161.18
5528 23.8701 17762.70 17480.20 159.35
5529 23.8738 17854.00 17457.10 160.44
5530 23.8776 17621.20 17434.10 158.73
5531 23.8813 18052.90 17412.40 160.67
5532 23.8851 17654.00 17390.90 157.75
5533 23.8889 17916.10 17370.00 141.98
5534 23.8964 17864.90 17330.80 145.05
5535 23.9001 17660.90 17312.30 157.99
5536 23.9039 17877.10 16546.00 159.83
5537 23.9077 17408.40 16544.30 157.79
5538 23.9114 18175.50 16542.70 161.61
5539 23.9152 17272.30 16541.10 157.17
5540 23.9189 17427.90 16539.50 158.10
5541 23.9227 17670.30 16537.80 159.54
5542 23.9265 17965.70 16536.20 160.10
5543 23.9302 17529.40 16534.60 158.56
5544 23.9340 17757.00 16532.90 159.83
5545 23.9377 17551.10 16531.40 159.14
5546 23.9415 17824.20 16529.70 160.20
5547 23.9453 17343.60 16528.10 157.91
5548 23.9490 17833.00 16526.50 159.92
5549 23.9528 17460.50 16524.90 157.91
5550 23.9565 17772.30 16523.30 160.27
5551 23.9603 17955.30 16521.70 160.86
5552 23.9641 17375.70 16520.00 157.28
5553 23.9678 17578.10 16518.50 158.40
5554 23.9716 17868.00 16516.80 159.62
5555 23.9753 17974.10 16515.30 161.34
5556 23.9791 17562.30 16513.60 158.14
5557 23.9829 17699.60 16512.00 160.19
5558 23.9866 17946.60 16510.50 159.79
5559 23.9904 17414.70 16508.80 157.93
5560 23.9941 17531.30 16507.30 157.31
5561 23.9979 17645.00 16505.70 159.06
5562 24.0017 17328.70 16504.10 157.54
5563 24.0054 17278.50 16502.50 157.14
5564 24.0092 17644.70 16500.90 158.75
5565 24.0129 17367.80 16499.30 158.71
5566 24.0167 17459.20 16497.70 157.94
5567 24.0205 17183.30 16496.10 156.53
5568 24.0242 17564.90 16494.60 159.16
5569 24.0280 17080.60 16493.00 156.19
5570 24.0317 17601.00 16491.40 159.21
5571 24.0355 17273.80 16489.80 158.10
5572 24.0393 17341.30 16488.20 157.66
5573 24.0430 17286.30 16486.70 157.23
5574 24.0468 17581.50 16485.10 158.34
5575 24.0505 17305.50 16483.50 158.09
5576 24.0543 17286.60 16481.90 157.50
5577 24.0581 17393.30 16480.40 158.38
5578 24.0618 17353.50 16478.80 157.65
5579 24.0656 17158.80 16477.20 156.14
5580 24.0693 17535.50 16475.70 158.25
5581 24.0731 17122.50 16474.10 156.84
5582 24.0769 17490.80 16472.50 158.64
5583 24.0806 16922.10 16471.00 155.41
5584 24.0844 17475.60 16469.40 159.14
5585 24.0881 17257.70 16467.90 157.85
5586 24.0919 17436.40 16466.30 158.17
5587 24.0957 17162.30 16464.70 156.64
5588 24.0994 17337.70 16463.20 157.51
5589 24.1032 17022.60 16461.60 155.83
5590 24.1070 17158.50 16460.10 156.45
5591 24.1107 17151.90 16458.50 157.01
5592 24.1145 17368.90 16457.00 157.86
5593 24.1182 17144.40 16455.50 157.80
5594 24.1220 17237.80 16453.90 154.85
5595 24.1258 17026.60 16452.30 154.21
5596 24.1295 17438.40 16450.80 155.99
5597 24.1333 17209.20 16449.30 155.73
5598 24.1370 17390.40 16447.70 154.97
5599 24.1408 17086.20 16446.20 154.50
5600 24.1446 17289.40 16444.60 155.48
5601 24.1483 17047.80 16443.10 154.16
5602 24.1521 17529.10 16441.60 157.19
5603 24.1558 17052.90 16440.10 154.79
5604 24.1596 17203.60 16438.50 154.79
5605 24.1634 16889.50 16437.00 153.69
5606 24.1671 17330.20 16435.50 155.93
5607 24.1709 17038.20 16433.90 153.80
5608 24.1746 16937.30 16432.40 154.11
5609 24.1784 17099.00 16430.90 154.66
5610 24.1822 17200.20 16429.30 154.77
5611 24.1859 16964.70 16427.80 154.30
5612 24.1897 17179.50 16426.30 155.27
5613 24.1934 16974.90 16424.80 153.79
5614 24.1972 17236.40 16423.20 155.97
5615 24.2010 16949.60 16421.70 153.86
5616 24.2047 17192.50 16420.20 155.01
5617 24.2085 17059.00 16418.70 154.64
5618 24.2122 17157.00 16417.20 155.27
5619 24.2160 16806.70 16415.70 153.00
5620 24.2198 17222.30 16414.10 155.75
5621 24.2235 17139.10 16412.70 154.51
5622 24.2273 17138.50 16411.10 154.32
5623 24.2310 16870.10 16409.60 152.39
5624 24.2348 16958.40 16408.10 153.86
5625 24.2386 16916.80 16406.60 153.69
5626 24.2423 17206.00 16405.10 155.36
5627 24.2461 16861.10 16403.60 153.73
5628 24.2499 16976.60 16402.10 154.37
5629 24.2536 17018.10 16400.60 154.50
5630 24.2574 17356.60 16399.10 156.47
5631 24.2611 16862.80 16397.60 153.71
5632 24.2649 17317.90 16396.10 153.93
5633 24.2687 16854.90 16394.60 153.33
5634 24.2724 17165.20 16393.10 154.84
5635 24.2762 16824.10 16391.60 153.60
5636 24.2799 16962.30 16390.10 153.23
5637 24.2837 16943.50 16388.60 153.85
5638 24.2875 16991.40 16387.10 154.94
5639 24.2912 16537.50 16385.60 151.85
5640 24.2950 17111.70 16384.10 154.02
5641 24.2987 16917.80 16382.70 153.73
5642 24.3025 17288.50 16381.20 155.06
5643 24.3063 16707.90 16379.70 152.50
5644 24.3100 17083.30 16378.20 154.69
5645 24.3138 16863.00 16376.70 152.66
5646 24.3175 17042.40 16375.20 153.68
5647 24.3213 16773.40 16373.80 153.18
5648 24.3251 17035.70 16372.30 153.75
5649 24.3288 16846.50 16370.80 153.65
5650 24.3326 17478.00 16369.30 156.96
5651 24.3363 16754.60 16367.90 153.02
5652 24.3401 17104.60 16366.40 154.94
5653 24.3439 17043.90 16364.90 153.62
5654 24.3476 17164.70 16363.40 154.29
5655 24.3514 16876.70 16361.90 153.98
5656 24.3551 17099.10 16360.50 154.66
5657 24.3589 16680.40 16359.00 152.70
5658 24.3627 16832.60 16357.50 152.86
5659 24.3664 16809.30 16356.10 153.14
5660 24.3702 17181.10 16354.60 155.22
5661 24.3740 16800.70 16353.10 153.34
5662 24.3777 17313.90 16351.70 156.09
5663 24.3815 16602.40 16350.20 152.47
5664 24.3852 16946.60 16348.70 153.58
5665 24.3890 16743.30 16347.30 152.80
5666 24.3928 16756.70 16345.80 152.42
5667 24.3965 16623.10 16344.40 152.26
5668 24.4003 17002.90 16342.90 154.16
5669 24.4040 16838.80 16341.40 153.88
5670 24.4078 17106.10 16340.00 155.27
5671 24.4116 16831.60 16338.50 153.89
5672 24.4153 17072.30 16337.10 154.16
5673 24.4191 16678.70 16335.60 152.73
5674 24.4228 17525.40 16334.20 157.02
5675 24.4266 17266.40 16332.70 155.04
5676 24.4304 17754.30 16331.20 158.01
5677 24.4341 17571.00 16329.80 157.56
5678 24.4379 17654.60 16328.30 158.48
5679 24.4416 17248.00 16326.90 155.69
5680 24.4454 17517.20 16325.50 157.08
5681 24.4492 17261.50 16324.00 155.68
5682 24.4529 17442.50 16322.60 156.98
5683 24.4567 17131.40 16321.10 155.31
5684 24.4604 17126.90 16319.70 155.65
5685 24.4642 16761.70 16318.20 153.22
5686 24.4680 17300.80 16316.80 155.91
5687 24.4717 16758.40 16315.40 153.17
5688 24.4755 17334.30 16313.90 156.07
5689 24.4793 16762.30 16312.40 153.72
5690 24.4830 16992.10 16311.00 154.40
5691 24.4868 16859.20 16309.60 154.46
5692 24.4905 16991.30 16308.20 154.30
5693 24.4943 16560.20 16306.70 151.03
5694 24.4981 17022.40 16305.30 155.74
5695 24.5018 16689.40 16303.90 152.60
5696 24.5056 16932.60 16302.40 154.36
5697 24.5093 16505.70 16301.00 151.59
5698 24.5131 16864.10 16299.60 153.02
5699 24.5169 16691.60 16298.10 153.56
5700 24.5206 16816.40 16296.70 153.94
5701 24.5244 16828.10 16295.30 154.02
5702 24.5281 17034.50 16293.90 155.08
5703 24.5319 16642.80 16292.40 152.91
5704 24.5357 16683.80 16291.00 153.33
5705 24.5394 16672.80 16289.60 152.82
5706 24.5432 16913.90 16288.10 153.77
5707 24.5469 16579.40 16286.70 152.30
5708 24.5507 16834.10 16285.30 153.53
5709 24.5545 16754.10 16283.90 153.10
5710 24.5582 17050.20 16282.50 155.20
5711 24.5620 16803.50 16281.00 153.42
5712 24.5657 16754.50 16279.60 153.03
5713 24.5695 16752.50 16278.20 153.09
5714 24.5733 16723.90 16276.80 153.70
5715 24.5770 16908.60 16275.40 153.81
5716 24.5808 16902.30 16273.90 154.17
5717 24.5846 16703.10 16272.50 153.39
5718 24.5883 16736.50 16271.10 153.79
5719 24.5921 16553.10 16269.70 152.30
5720 24.5958 16943.30 16268.30 154.34
5721 24.5996 16551.30 16266.90 152.70
5722 24.6034 16752.20 16265.40 156.10
5723 24.6071 16686.60 16264.10 154.19
5724 24.6109 16841.60 16262.60 154.66
5725 24.6146 16348.70 16261.20 152.26
5726 24.6184 16752.80 16259.80 153.97
5727 24.6222 16656.50 16258.40 152.96
5728 24.6259 16661.20 16257.00 153.43
5729 24.6297 16519.90 16255.60 152.89
5730 24.6334 16937.00 16254.20 153.75
5731 24.6372 16543.80 16252.80 153.06
5732 24.6410 16896.30 16251.40 154.74
5733 24.6447 16395.00 16250.00 152.07
5734 24.6485 16654.80 16248.60 153.48
5735 24.6522 16574.20 16247.20 153.55
5736 24.6560 16826.90 16245.80 153.84
5737 24.6598 16544.20 16244.40 152.78
5738 24.6635 16857.20 16243.00 154.59
5739 24.6673 16480.80 16241.60 151.92
5740 24.6710 16648.40 16240.20 154.11
5741 24.6748 16527.80 16238.80 152.80
5742 24.6786 16912.90 16237.40 155.54
5743 24.6823 16466.20 16236.00 152.04
5744 24.6861 16723.70 16234.60 154.31
5745 24.6899 16584.80 16233.20 153.38
5746 24.6936 16756.80 16231.80 154.47
5747 24.6974 16487.00 16230.40 152.74
5748 24.7011 16596.80 16229.00 153.08
5749 24.7049 16375.80 16227.60 151.44
5750 24.7087 16749.50 16226.20 154.46
5751 24.7124 16515.00 16224.80 153.01
5752 24.7162 16751.70 16223.40 153.98
5753 24.7199 16399.60 16222.10 152.35
5754 24.7237 16547.60 16220.70 153.24
5755 24.7275 16163.10 16219.30 151.05
5756 24.7312 16867.50 16217.90 154.92
5757 24.7350 16398.90 16216.50 151.90
5758 24.7387 16577.70 16215.10 153.96
5759 24.7425 16524.00 16213.70 153.42
5760 24.7463 16591.90 16212.30 153.79
5761 24.7500 16149.50 16211.00 151.50
5762 24.7538 16730.50 16209.60 153.80
5763 24.7575 16654.10 16208.20 152.97
5764 24.7613 16749.60 16206.80 153.85
5765 24.7651 16292.20 16205.40 151.32
5766 24.7688 16704.00 16204.10 153.87
5767 24.7726 16368.10 16202.70 151.15
5768 24.7763 16645.40 16201.30 153.60
5769 24.7801 16647.20 16199.90 153.83
5770 24.7839 16931.30 16198.50 154.85
5771 24.7876 16474.80 16197.20 152.73
5772 24.7914 16681.50 16195.80 154.14
5773 24.7951 16405.10 16194.40 151.93
5774 24.7989 16589.30 16193.00 153.24
5775 24.8027 16336.30 16191.60 151.28
5776 24.8064 16698.60 16190.30 153.57
5777 24.8102 16623.70 16188.90 153.26
5778 24.8140 16535.20 16187.50 153.65
5779 24.8177 16426.10 16186.20 152.48
5780 24.8215 16677.00 16184.80 153.97
5781 24.8252 16465.50 16183.40 152.35
5782 24.8290 16570.50 16182.00 153.12
5783 24.8328 16205.10 16180.60 151.31
5784 24.8365 16493.00 16179.30 153.58
5785 24.8403 16126.50 16177.90 150.50
5786 24.8440 16854.10 16176.60 155.32
5787 24.8478 16240.00 16175.20 151.65
5788 24.8516 16516.30 16173.80 152.72
5789 24.8553 16129.90 16172.40 150.58
5790 24.8591 16774.00 16171.10 153.41
5791 24.8628 16123.80 16169.70 151.90
5792 24.8666 16545.60 16168.30 153.34
5793 24.8704 16527.60 16166.90 153.27
5794 24.8741 16655.80 16165.60 153.67
5795 24.8779 16272.90 16164.20 152.62
5796 24.8816 16803.60 16162.90 153.92
5797 24.8854 16166.10 16161.50 150.68
5798 24.8892 16604.90 16160.10 153.17
5799 24.8929 16536.40 16158.80 153.26
5800 24.8967 16648.90 16157.40 154.12
5801 24.9004 16501.30 16156.10 152.54
5802 24.9042 16780.70 16154.70 154.21
5803 24.9080 16450.30 16153.30 152.06
5804 24.9117 16632.80 16152.00 153.71
5805 24.9155 16281.30 16150.60 151.66
5806 24.9193 16488.90 16149.20 153.15
5807 24.9230 16163.10 16147.90 151.74
5808 24.9268 16519.00 16146.50 151.72
5809 24.9305 16363.50 16145.20 152.00
5810 24.9343 16707.30 16143.80 153.92
5811 24.9381 16428.50 16142.40 153.09
5812 24.9418 16754.20 16141.10 154.92
5813 24.9456 16462.30 16139.70 152.69
5814 24.9493 16297.60 16138.40 151.68
5815 24.9531 16545.80 16137.00 153.18
5816 24.9569 16676.40 16135.60 154.43
5817 24.9606 16438.80 16134.30 152.14
5818 24.9644 16697.50 16132.90 154.37
5819 24.9681 16325.10 16131.60 151.62
5820 24.9719 16589.50 16130.20 153.64
5821 24.9757 16376.60 16128.80 153.81
5822 24.9794 16604.50 16127.50 153.75
5823 24.9832 16367.60 16126.10 152.37
5824 24.9869 16454.60 16124.80 153.55
5825 24.9907 16358.50 16123.40 152.00
5826 24.9945 16651.60 16122.10 154.54
5827 24.9982 16486.10 16120.70 152.93
5828 25.0020 16409.20 16119.40 153.17
5829 25.0057 16474.80 16118.10 152.17
5830 25.0095 16470.50 16116.70 153.02
5831 25.0133 16273.90 16115.30 151.41
5832 25.0170 16553.80 16114.00 153.75
5833 25.0208 16509.80 16112.60 152.60
5834 25.0245 16569.80 16111.30 153.31
5835 25.0283 16392.30 16109.90 152.87
5836 25.0321 16509.10 16108.60 154.03
5837 25.0358 16426.70 16107.20 152.71
5838 25.0396 16686.70 16105.90 153.71
5839 25.0433 16305.30 16104.50 152.65
5840 25.0471 16599.20 16103.20 153.60
5841 25.0509 16360.90 16101.80 152.32
5842 25.0546 16658.70 16100.50 153.66
5843 25.0584 16387.30 16099.10 152.46
5844 25.0622 16588.00 16097.80 154.14
5845 25.0659 16238.70 16096.40 152.43
5846 25.0697 16617.80 16095.10 153.88
5847 25.0734 16271.00 16093.80 151.74
5848 25.0772 16403.80 16092.40 153.16
5849 25.0810 16206.50 16091.00 152.02
5850 25.0847 16587.30 16089.70 153.99
5851 25.0885 16322.00 16088.40 152.01
5852 25.0922 16669.40 16087.00 153.98
5853 25.0960 16200.60 16085.70 151.37
5854 25.0998 16576.50 16084.30 153.48
5855 25.1035 16116.80 16083.00 150.95
5856 25.1073 16392.90 16081.60 152.09
5857 25.1110 16047.00 16080.30 149.06
5858 25.1148 16527.70 16079.00 152.84
5859 25.1186 16292.40 16077.60 149.71
5860 25.1223 16524.90 16076.30 152.85
5861 25.1261 16235.30 16074.90 151.72
5862 25.1298 16621.70 16073.60 154.15
5863 25.1336 16318.60 16072.20 152.52
5864 25.1374 16582.80 16070.90 153.15
5865 25.1411 16343.50 16069.60 152.39
5866 25.1449 16281.20 16068.20 151.52
5867 25.1486 16138.10 16066.90 151.49
5868 25.1524 16619.20 16065.50 151.20
5869 25.1562 16475.10 16064.20 152.64
5870 25.1599 16324.20 16062.90 152.15
5871 25.1637 16014.00 16061.50 150.51
5872 25.1674 16571.30 16060.20 153.21
5873 25.1712 16151.70 16058.80 151.34
5874 25.1750 16469.00 16057.50 153.13
5875 25.1787 16469.60 16056.20 152.63
5876 25.1825 16694.40 16054.80 154.58
5877 25.1862 16205.80 16053.50 151.60
5878 25.1900 16317.30 16052.10 152.08
5879 25.1938 16158.90 16050.80 150.88
5880 25.1975 16415.00 16049.50 152.82
5881 25.2013 16117.30 16048.10 150.67
5882 25.2050 16493.30 16046.80 152.21
5883 25.2088 16236.80 16045.40 151.97
5884 25.2126 16337.10 16044.10 152.42
5885 25.2163 16130.50 16042.80 150.81
5886 25.2201 16386.40 16041.40 152.06
5887 25.2238 16159.70 16040.10 151.74
5888 25.2276 16383.80 16038.70 152.89
5889 25.2314 15864.70 16037.40 148.98
5890 25.2351 16313.30 16036.10 152.12
5891 25.2389 16182.20 16034.70 151.15
5892 25.2427 16300.50 16033.40 151.28
5893 25.2464 16007.10 16032.10 149.85
5894 25.2502 16650.40 16030.70 153.68
5895 25.2539 16155.70 16029.40 150.05
5896 25.2577 16222.60 16028.00 151.24
5897 25.2615 15991.40 16026.70 150.21
5898 25.2652 16297.50 16025.40 152.09
5899 25.2690 15725.80 16024.00 146.97
5900 25.2727 16196.60 16022.70 150.99
5901 25.2765 16103.90 16021.40 151.50
5902 25.2803 16410.40 16020.00 152.35
5903 25.2840 16119.50 16018.70 150.53
5904 25.2878 16011.20 16017.30 149.48
5905 25.2915 16000.70 16016.00 150.75
5906 25.2953 16361.80 16014.70 151.63
5907 25.2991 16016.90 16018.70 149.88
5908 25.3028 16139.20 16017.50 150.34
5909 25.3066 15973.20 16016.30 149.88
5910 25.3103 15783.80 16015.10 148.14
5911 25.3141 16143.00 16013.90 150.76
5912 25.3179 16314.80 16012.70 151.69
5913 25.3216 16023.30 16011.50 150.06
5914 25.3254 16155.00 16010.30 151.67
5915 25.3291 15770.70 16009.10 148.58
5916 25.3329 16045.60 16007.90 150.32
5917 25.3367 15878.40 16006.70 149.20
5918 25.3404 16173.10 16005.60 150.90
5919 25.3442 15858.50 16004.40 149.06
5920 25.3479 16474.40 16003.20 152.68
5921 25.3517 16134.80 16002.10 150.25
5922 25.3555 16148.60 16000.90 150.20
5923 25.3592 15941.50 15999.80 149.71
5924 25.3630 16304.90 15998.60 151.86
5925 25.3667 16019.10 15997.50 149.80
5926 25.3705 16293.00 15996.40 151.61
5927 25.3743 16026.40 15995.30 150.33
5928 25.3780 16094.50 15994.20 150.34
5929 25.3818 15845.50 15993.10 149.17
5930 25.3855 15946.70 15992.00 150.17
5931 25.3893 16037.00 15991.00 149.64
5932 25.3931 16086.80 15989.90 150.81
5933 25.3968 15742.90 15988.90 148.75
5934 25.4006 16275.30 15987.80 151.96
5935 25.4043 16054.00 15986.80 150.42
5936 25.4081 16033.00 15985.80 151.08
5937 25.4119 15967.00 15984.80 150.06
5938 25.4156 16589.10 15983.90 153.45
5939 25.4194 16099.20 15982.90 150.31
5940 25.4231 16182.10 15982.00 150.57
5941 25.4269 15697.30 15981.10 148.64
5942 25.4307 16204.00 15980.20 151.50
5943 25.4344 15949.90 15979.30 150.67
5944 25.4382 16276.10 15978.50 151.70
5945 25.4419 15852.30 15977.60 150.19
5946 25.4457 16129.30 15976.80 150.68
5947 25.4495 16014.90 15976.10 150.45
5948 25.4532 16281.80 15975.40 151.96
5949 25.4570 15838.80 15974.70 149.01
5950 25.4607 16122.20 15974.00 151.60
5951 25.4645 16048.30 15973.40 150.69
5952 25.4683 16078.40 15972.80 151.04
5953 25.4720 16006.60 15972.30 150.01
5954 25.4758 16385.30 15971.80 151.88
5955 25.4795 16013.10 15971.40 149.83
5956 25.4833 16129.10 15971.10 151.16
5957 25.4871 16058.60 15970.80 150.84
5958 25.4908 16373.10 15970.60 152.84
5959 25.4946 16140.60 15970.40 150.62
5960 25.4983 16063.80 15970.40 151.56
5961 25.5021 16234.80 15970.40 151.52
5962 25.5059 16228.70 15970.60 152.06
5963 25.5096 15976.40 15970.80 150.11
5964 25.5134 16030.70 15971.20 150.95
5965 25.5171 15971.00 15971.80 150.12
5966 25.5209 16331.20 15972.50 152.39
5967 25.5247 15942.10 15973.40 149.81
5968 25.5284 16264.60 15974.40 151.70
5969 25.5322 16016.70 15975.70 150.45
5970 25.5359 16208.10 15977.30 151.11
5971 25.5397 16111.70 15979.10 150.75
5972 25.5435 16328.90 15981.30 151.97
5973 25.5472 16039.20 15983.80 150.78
5974 25.5510 16187.10 15986.80 151.74
5975 25.5547 16057.70 15990.10 150.91
5976 25.5585 16199.50 15994.20 152.05
5977 25.5622 15966.20 15998.80 150.67
5978 25.5660 16215.70 16004.20 152.76
5979 25.5698 16241.40 16010.60 152.24
5980 25.5735 16124.30 16017.90 151.35
5981 25.5773 15948.50 16026.60 150.23
5982 25.5810 16640.90 16036.60 153.80
5983 25.5848 16213.70 16048.80 152.00
5984 25.5886 16178.10 16063.30 151.77
5985 25.5923 16296.80 16080.10 153.16
5986 25.5961 16356.00 16101.00 151.69
5987 25.5998 16243.50 16125.60 151.91
5988 25.6036 16579.00 16156.70 154.53
5989 25.6074 16244.40 16195.50 152.65
5990 25.6111 16769.90 16243.00 155.52
5991 25.6149 16680.80 16305.70 152.70
5992 25.6186 17191.00 16386.70 156.91
5993 25.6224 16872.50 16503.10 155.39
5994 25.6262 17485.30 16680.40 159.48
5995 25.6299 17517.10 16963.10 158.36
5996 25.6337 18142.50 17459.60 161.95
5997 25.6374 18819.10 18267.40 166.00
5998 25.6412 19681.60 19552.10 169.84
5999 25.6450 20948.80 21321.10 175.86
6000 25.6487 21774.00 23278.10 179.60
6001 25.6525 22063.40 24791.40 182.75
6002 25.6562 22384.00 24812.70 182.61
6003 25.6600 21276.80 23323.60 178.32
6004 25.6638 20762.30 21313.50 175.70
6005 25.6675 19261.80 19582.40 168.01
6006 25.6713 18544.30 18282.10 164.56
6007 25.6750 17890.60 17461.40 160.14
6008 25.6788 17311.40 16955.50 157.71
6009 25.6826 16953.70 16660.10 155.53
6010 25.6863 16713.70 16484.10 154.18
6011 25.6901 16247.50 16363.70 152.21
6012 25.6938 16747.40 16279.50 155.00
6013 25.6976 16242.80 16213.60 151.05
6014 25.7014 16592.40 16161.90 153.97
6015 25.7051 16156.00 16121.40 150.86
6016 25.7089 16166.20 16087.50 151.03
6017 25.7126 15690.40 16060.00 148.60
6018 25.7164 16208.50 16036.30 152.57
6019 25.7201 15960.80 16016.80 150.17
6020 25.7239 16164.20 15999.50 151.40
6021 25.7277 15800.30 15984.60 149.24
6022 25.7314 16013.90 15971.90 150.81
6023 25.7352 15853.10 15960.40 149.11
6024 25.7389 15999.80 15950.50 150.30
6025 25.7427 15976.50 15941.30 150.09
6026 25.7465 16035.80 15933.10 150.93
6027 25.7502 15526.50 15925.90 147.83
6028 25.7540 15767.10 15919.10 150.27
6029 25.7577 15636.10 15913.10 147.18
6030 25.7615 15925.70 15907.40 149.88
6031 25.7653 15696.50 15902.10 148.54
6032 25.7690 15863.60 15897.30 149.52
6033 25.7728 15785.20 15892.70 149.55
6034 25.7765 15865.20 15888.60 150.14
6035 25.7803 15685.00 15884.50 148.20
6036 25.7841 15765.70 15880.70 148.54
6037 25.7878 15697.70 15877.20 148.58
6038 25.7916 16385.60 15873.80 152.64
6039 25.7953 15595.10 15870.60 148.46
6040 25.7991 16090.80 15867.50 151.11
6041 25.8028 15774.80 15864.60 148.79
6042 25.8066 16204.20 15861.70 151.86
6043 25.8104 15670.60 15858.90 149.19
6044 25.8141 15842.80 15856.30 149.42
6045 25.8179 15884.10 15853.70 151.19
6046 25.8216 16164.70 15851.30 151.76
6047 25.8254 15989.60 15848.90 150.60
6048 25.8292 15966.10 15846.50 149.66
6049 25.8329 16270.70 15844.30 151.98
6050 25.8367 16606.90 15842.00 153.44
6051 25.8404 16295.20 15839.90 152.08
6052 25.8442 16423.70 15837.70 153.56
6053 25.8480 16348.40 15835.60 153.07
6054 25.8517 16194.30 15833.60 151.77
6055 25.8555 16187.80 15831.60 152.35
6056 25.8592 16454.10 15829.70 152.80
6057 25.8630 16090.20 15827.70 151.48
6058 25.8667 16304.40 15825.90 152.56
6059 25.8705 15873.70 15824.00 150.12
6060 25.8743 16376.50 15822.10 153.44
6061 25.8780 15870.00 15820.30 150.40
6062 25.8818 16121.60 15818.50 150.56
6063 25.8855 16073.10 15816.70 151.57
6064 25.8893 15906.20 15814.90 150.39
6065 25.8931 15379.30 15813.20 148.31
6066 25.8968 15916.90 15811.50 151.06
6067 25.9006 15645.90 15809.70 148.93
6068 25.9043 16153.30 15808.10 152.81
6069 25.9081 15726.60 15806.40 149.37
6070 25.9119 15867.60 15804.70 150.32
6071 25.9156 15767.80 15803.10 150.48
6072 25.9194 15825.30 15801.40 150.08
6073 25.9231 15689.00 15799.80 149.66
6074 25.9269 15970.60 15798.20 150.94
6075 25.9306 15402.20 15796.60 148.17
6076 25.9344 15899.40 15838.00 150.00
6077 25.9382 15544.50 15837.30 148.18
6078 25.9419 15795.40 15836.70 150.16
6079 25.9457 15510.80 15836.10 148.40
6080 25.9494 15742.70 15835.50 149.66
6081 25.9532 15531.70 15835.00 148.93
6082 25.9570 15689.50 15834.50 149.66
6083 25.9607 15609.80 15834.10 149.20
6084 25.9645 16060.20 15833.70 151.64
6085 25.9682 15708.60 15833.30 150.32
6086 25.9720 15786.90 15833.00 150.17
6087 25.9758 15439.20 15832.80 148.13
6088 25.9795 15822.30 15832.60 150.90
6089 25.9833 15550.10 15832.40 148.10
6090 25.9870 15805.90 15832.30 150.51
6091 25.9908 15680.80 15832.30 149.40
6092 25.9945 15878.40 15832.30 151.54
6093 25.9983 15474.70 15832.40 148.87
6094 26.0021 15872.80 15832.50 150.75
6095 26.0058 15599.40 15871.20 149.77
6096 26.0096 15708.20 15872.30 150.06
6097 26.0133 15411.90 15868.20 148.36
6098 26.0171 15887.80 15869.60 152.04
6099 26.0209 15730.20 15871.20 150.19
6100 26.0246 15890.60 15872.80 150.99
6101 26.0284 15319.90 15924.60 148.10
6102 26.0321 15859.40 15927.50 151.40
6103 26.0359 15663.40 15930.70 150.05
6104 26.0396 15675.10 15933.90 149.79
6105 26.0434 15633.50 15937.50 149.78
6106 26.0472 15769.30 15941.20 149.83
6107 26.0509 15679.90 15945.00 149.58
6108 26.0547 15874.70 15949.10 148.51
6109 26.0584 15296.00 15953.40 146.55
6110 26.0622 16113.40 15958.00 152.47
6111 26.0660 15549.80 15962.90 148.73
6112 26.0697 16023.90 15968.00 151.32
6113 26.0735 15734.80 15973.40 150.13
6114 26.0772 15707.60 15979.10 149.58
6115 26.0810 15772.70 15985.20 150.23
6116 26.0847 15938.20 15991.50 150.81
6117 26.0885 15745.50 15998.30 149.58
6118 26.0923 16013.80 16005.60 151.01
6119 26.0960 15800.60 16013.10 150.16
6120 26.0998 16104.70 16021.20 152.65
6121 26.1035 15745.30 16029.60 149.63
6122 26.1073 15845.90 16038.80 150.96
6123 26.1111 15791.30 16048.50 149.28
6124 26.1148 15923.90 16058.60 150.59
6125 26.1186 15800.50 16069.60 150.29
6126 26.1223 15748.80 16081.10 149.92
6127 26.1261 15831.90 16093.60 151.04
6128 26.1298 15952.20 16106.60 150.96
6129 26.1336 15586.50 16120.80 148.99
6130 26.1374 16280.50 16136.00 152.97
6131 26.1411 15857.10 16151.90 150.46
6132 26.1449 15999.60 16169.40 150.98
6133 26.1486 15993.40 16187.60 151.31
6134 26.1524 16086.00 16207.80 150.20
6135 26.1562 15913.10 16229.50 151.13
6136 26.1599 16210.50 16252.30 151.95
6137 26.1637 16083.20 16277.50 151.69
6138 26.1674 16299.30 16304.20 153.45
6139 26.1712 15830.20 16333.80 150.33
6140 26.1749 16086.30 16365.20 151.17
6141 26.1787 16329.80 16400.20 153.52
6142 26.1825 16336.00 16438.60 152.63
6143 26.1862 15973.60 16479.50 150.78
6144 26.1900 16325.40 16525.60 152.38
6145 26.1937 16219.40 16575.00 152.97
6146 26.1975 16336.70 16631.10 152.90
6147 26.2012 16341.20 16691.80 152.92
6148 26.2050 16672.00 16761.10 154.82
6149 26.2088 16470.80 16838.90 154.54
6150 26.2125 16858.50 16924.00 156.39
6151 26.2163 16717.40 17022.80 155.48
6152 26.2200 17090.30 17132.20 156.79
6153 26.2238 17115.70 17260.70 157.61
6154 26.2275 17500.70 17404.90 159.16
6155 26.2313 17379.30 17576.80 159.30
6156 26.2351 17964.00 17778.80 162.26
6157 26.2388 18020.40 18011.40 161.60
6158 26.2426 18422.20 18297.30 163.88
6159 26.2463 18552.10 18634.60 164.85
6160 26.2501 19844.40 19060.50 171.18
6161 26.2539 19985.30 19596.20 171.56
6162 26.2576 21409.00 20269.80 178.64
6163 26.2614 22190.70 21207.10 182.05
6164 26.2651 24279.80 22536.30 192.62
6165 26.2689 26458.90 24694.20 202.60
6166 26.2726 30000.60 28194.50 215.99
6167 26.2764 35079.00 34169.30 240.38
6168 26.2802 43981.10 43542.70 276.56
6169 26.2839 55809.10 56357.80 318.14
6170 26.2877 71591.00 72092.10 371.48
6171 26.2914 84197.40 85486.60 417.27
6172 26.2952 89682.70 89364.10 434.64
6173 26.2989 82445.50 80689.00 409.08
6174 26.3027 69739.70 65540.40 367.37
6175 26.3065 54491.90 51019.70 314.86
6176 26.3102 44406.40 40255.00 277.61
6177 26.3140 36717.10 32961.20 246.99
6178 26.3177 32994.30 28782.70 231.12
6179 26.3215 30124.70 26503.60 217.68
6180 26.3252 28556.30 25483.40 212.19
6181 26.3290 27697.30 25210.20 208.80
6182 26.3328 27671.70 25552.80 208.84
6183 26.3365 28337.30 26549.20 212.14
6184 26.3403 31096.70 28582.80 223.64
6185 26.3440 33492.60 32151.80 233.44
6186 26.3478 39399.90 38326.00 256.92
6187 26.3515 47570.20 47600.00 290.10
6188 26.3553 61802.70 60692.70 342.29
6189 26.3591 78446.30 75947.10 397.08
6190 26.3628 95934.70 88433.50 454.28
6191 26.3666 102129.00 92756.90 472.98
6192 26.3703 100366.00 89479.40 464.89
6193 26.3741 92437.60 86244.70 443.92
6194 26.3778 92571.10 88718.30 441.85
6195 26.3816 98613.80 97442.00 461.72
6196 26.3854 111299.00 106971.00 501.03
6197 26.3891 112161.00 107397.00 499.40
6198 26.3929 102291.00 94610.30 470.65
6199 26.3966 79863.90 75980.40 402.10
6200 26.4004 59238.20 58010.70 332.62
6201 26.4041 43248.20 44579.60 273.83
6202 26.4079 34592.20 35212.80 239.25
6203 26.4117 28470.10 29383.50 211.92
6204 26.4154 25925.60 25937.40 200.71
6205 26.4192 23180.50 23728.70 185.82
6206 26.4229 21823.00 22290.80 181.75
6207 26.4267 20662.10 21224.70 176.21
6208 26.4304 19825.00 20431.40 172.02
6209 26.4342 19069.60 19786.60 168.16
6210 26.4380 19124.10 19265.90 167.78
6211 26.4417 18259.00 18849.20 163.80
6212 26.4455 18459.00 18492.20 164.85
6213 26.4492 17924.20 18199.50 162.49
6214 26.4530 17907.40 17943.70 161.84
6215 26.4567 17507.10 17729.80 158.89
6216 26.4605 17565.90 17539.70 159.94
6217 26.4643 17141.40 17374.20 157.48
6218 26.4680 17276.80 17232.70 157.82
6219 26.4718 17101.80 17104.40 157.11
6220 26.4755 17038.70 16993.50 156.75
6221 26.4793 16740.80 16891.70 155.23
6222 26.4830 16853.40 16802.90 156.33
6223 26.4868 16912.30 16720.80 155.78
6224 26.4906 17001.60 16646.60 157.51
6225 26.4943 16697.40 16581.00 155.90
6226 26.4981 16787.70 16519.70 156.48
6227 26.5018 16521.40 16465.10 154.00
6228 26.5056 16615.60 16413.70 154.71
6229 26.5093 16291.20 16367.60 151.67
6230 26.5131 16480.80 16324.00 154.00
6231 26.5168 16351.00 16284.80 153.48
6232 26.5206 16683.50 16247.50 155.62
6233 26.5244 16321.20 16212.80 154.35
6234 26.5281 16222.60 16181.40 153.59
6235 26.5319 16073.60 16151.30 151.82
6236 26.5356 16042.10 16124.00 151.45
6237 26.5394 15872.40 16097.60 150.43
6238 26.5431 16129.90 16073.60 151.56
6239 26.5469 15710.50 16050.30 149.51
6240 26.5507 15970.10 16028.50 150.56
6241 26.5544 15722.40 16008.40 149.61
6242 26.5582 15869.20 15989.00 150.74
6243 26.5619 15574.40 15971.10 147.92
6244 26.5657 15845.40 15953.60 150.29
6245 26.5694 15688.10 15937.50 149.37
6246 26.5732 15671.70 15921.80 149.18
6247 26.5769 15144.60 15907.30 146.51
6248 26.5807 15642.50 15893.10 149.11
6249 26.5845 15506.10 15879.50 147.71
6250 26.5882 15733.40 15866.90 149.23
6251 26.5920 15383.60 15854.60 147.74
6252 26.5957 15700.50 15843.10 149.37
6253 26.5995 15399.90 15831.80 148.05
6254 26.6032 15614.80 15821.20 148.07
6255 26.6070 15238.90 15810.80 147.23
6256 26.6108 15600.30 15800.80 148.50
6257 26.6145 15142.10 15791.50 146.90
6258 26.6183 15580.10 15782.20 149.03
6259 26.6220 15180.80 15773.50 146.69
6260 26.6258 15476.50 15765.00 148.00
6261 26.6295 15048.90 15756.90 146.00
6262 26.6333 15211.60 15748.90 147.13
6263 26.6370 15267.10 15741.40 147.13
6264 26.6408 15396.30 15733.90 148.00
6265 26.6446 15125.60 15726.70 146.40
6266 26.6483 15237.20 15719.90 146.63
6267 26.6521 15087.40 15713.10 145.39
6268 26.6558 15105.80 15664.00 146.01
6269 26.6596 15167.80 15658.50 146.77
6270 26.6633 15320.20 15653.30 146.55
6271 26.6671 14891.30 15648.10 144.53
6272 26.6708 15232.80 15643.20 146.72
6273 26.6746 15064.20 15638.30 145.70
6274 26.6784 15257.40 15633.50 146.76
6275 26.6821 15140.80 15629.00 146.49
6276 26.6859 15181.30 15624.40 146.88
6277 26.6896 15088.60 15620.10 145.86
6278 26.6934 15365.10 15615.80 147.48
6279 26.6971 15008.40 15611.60 145.05
6280 26.7009 15182.60 15607.50 146.53
6281 26.7047 15095.10 15603.40 145.88
6282 26.7084 15215.70 15599.60 147.01
6283 26.7122 14767.70 15595.70 144.61
6284 26.7159 15139.30 15592.00 146.47
6285 26.7197 15087.60 15588.20 146.07
6286 26.7234 15258.70 15584.70 147.33
6287 26.7272 15098.90 15543.30 144.94
6288 26.7309 15028.80 15540.70 144.74
6289 26.7347 15016.10 15538.00 145.52
6290 26.7385 15144.80 15535.30 146.59
6291 26.7422 15098.50 15532.70 146.25
6292 26.7460 15197.00 15530.10 145.93
6293 26.7497 15034.50 15527.60 145.27
6294 26.7535 15146.80 15476.50 146.15
6295 26.7572 14975.70 15475.00 144.99
6296 26.7610 15015.80 15473.50 145.74
6297 26.7647 15013.60 15472.10 146.06
6298 26.7685 15014.90 15470.50 146.19
6299 26.7723 15054.10 15469.00 145.05
6300 26.7760 15336.70 15467.60 146.67
6301 26.7798 14779.30 15466.00 144.02
6302 26.7835 14995.90 15464.60 145.42
6303 26.7873 15265.10 15463.10 146.77
6304 26.7910 15116.20 15461.60 146.14
6305 26.7948 14881.50 15460.10 145.11
6306 26.7985 15242.20 15458.60 147.50
6307 26.8023 15043.50 15457.10 146.57
6308 26.8060 15277.00 15455.60 147.33
6309 26.8098 15150.60 15454.10 146.47
6310 26.8136 15314.40 15452.60 147.49
6311 26.8173 15083.10 15451.10 146.01
6312 26.8211 15193.50 15449.60 146.93
6313 26.8248 15144.50 15448.10 145.43
6314 26.8286 15413.00 15446.60 147.83
6315 26.8323 15069.80 15445.10 145.46
6316 26.8361 15185.60 15443.60 146.30
6317 26.8398 15084.00 15442.10 146.20
6318 26.8436 14904.60 15440.50 144.89
6319 26.8474 15016.80 15439.00 145.54
6320 26.8511 15011.50 15437.50 145.81
6321 26.8549 14747.40 15436.00 144.53
6322 26.8586 15178.50 15434.50 146.27
6323 26.8624 14895.60 15433.00 144.62
6324 26.8661 15335.20 15431.50 147.90
6325 26.8699 14690.90 15430.00 144.06
6326 26.8736 15022.50 15428.50 145.50
6327 26.8774 14862.20 15426.90 145.18
6328 26.8811 15188.60 15425.40 146.35
6329 26.8849 14925.70 15423.90 143.64
6330 26.8887 15059.00 15422.40 145.24
6331 26.8924 14819.60 15420.90 144.21
6332 26.8962 14792.10 15419.40 144.48
6333 26.8999 14828.40 15417.90 144.98
6334 26.9037 15129.40 15416.30 146.84
6335 26.9074 14769.60 15414.80 144.96
6336 26.9112 14984.40 15413.30 145.22
6337 26.9149 14603.30 15411.80 143.67
6338 26.9187 14921.60 15410.20 145.15
6339 26.9224 14761.10 15408.70 144.26
6340 26.9262 14953.90 15407.20 144.93
6341 26.9300 14992.00 15405.70 144.15
6342 26.9337 14984.70 15404.20 145.36
6343 26.9375 14731.10 15402.60 144.16
6344 26.9412 14828.60 15401.10 144.94
6345 26.9450 14880.30 15399.60 145.65
6346 26.9487 14755.10 15398.10 144.68
6347 26.9525 14712.50 15396.50 144.15
6348 26.9562 15121.30 15395.00 145.84
6349 26.9600 14806.90 15393.40 144.73
6350 26.9637 15325.80 15391.90 147.57
6351 26.9675 14728.40 15390.40 144.47
6352 26.9713 15007.00 15388.80 145.82
6353 26.9750 14787.60 15387.30 144.91
6354 26.9788 15055.30 15385.80 144.93
6355 26.9825 15020.30 15384.30 145.71
6356 26.9863 14982.30 15382.70 145.00
6357 26.9879 14658.10 15382.10 143.98
6358 26.9917 15042.20 15380.50 146.33
6359 26.9954 14916.50 15379.00 144.40
6360 26.9992 15038.00 15377.40 146.32
6361 27.0029 14998.70 15375.90 146.27
6362 27.0067 15053.50 15374.30 146.90
6363 27.0105 14995.50 15372.80 147.24
6364 27.0142 15084.80 15371.30 147.53
6365 27.0180 14634.60 15369.70 144.08
6366 27.0217 14778.10 15368.20 144.70
6367 27.0255 14746.60 15366.60 144.43
6368 27.0292 15111.20 15365.10 146.21
6369 27.0330 14667.30 15363.50 143.96
6370 27.0367 15086.00 15362.00 145.95
6371 27.0405 14838.40 15360.40 144.96
6372 27.0443 14951.80 15358.90 145.90
6373 27.0480 14954.70 15357.40 144.75
6374 27.0518 14899.30 15355.80 145.30
6375 27.0555 14845.50 15354.30 144.94
6376 27.0593 14819.00 15352.70 144.70
6377 27.0630 14841.10 15351.20 145.06
6378 27.0668 14826.30 15349.60 144.83
6379 27.0706 14870.40 15348.00 144.44
6380 27.0743 14967.80 15346.50 145.25
6381 27.0781 14815.40 15344.90 144.82
6382 27.0818 14987.50 15343.40 145.67
6383 27.0856 14743.70 15341.80 144.63
6384 27.0893 15566.90 15340.30 148.06
6385 27.0931 14807.40 15338.70 145.06
6386 27.0968 14955.40 15337.20 145.18
6387 27.1006 14696.40 15335.60 144.65
6388 27.1044 14923.90 15334.00 145.63
6389 27.1081 14912.40 15332.50 145.44
6390 27.1119 15129.10 15330.90 146.33
6391 27.1156 14814.50 15329.30 144.94
6392 27.1194 14899.90 15327.80 145.64
6393 27.1231 14549.80 15326.20 143.36
6394 27.1269 15087.20 15324.60 146.53
6395 27.1307 14676.50 15323.00 144.13
6396 27.1344 14900.30 15321.50 145.01
6397 27.1382 14851.50 15319.90 144.33
6398 27.1419 14845.30 15318.40 144.80
6399 27.1457 14772.30 15316.80 144.80
6400 27.1494 15165.60 15315.20 145.95
6401 27.1532 14669.90 15313.60 143.53
6402 27.1569 14803.40 15312.10 144.57
6403 27.1607 14808.00 15310.50 144.51
6404 27.1645 14904.10 15308.90 145.05
6405 27.1682 14593.40 15307.40 143.67
6406 27.1720 14913.00 15305.80 145.63
6407 27.1757 14854.80 15304.20 144.80
6408 27.1795 14989.20 15302.60 145.64
6409 27.1832 14770.70 15301.10 143.97
6410 27.1870 14741.20 15299.50 144.31
6411 27.1907 14506.60 15297.90 142.83
6412 27.1945 15102.80 15296.30 146.63
6413 27.1983 14903.50 15294.70 145.62
6414 27.2020 15074.50 15293.20 146.36
6415 27.2058 14605.50 15291.60 143.61
6416 27.2095 14860.20 15290.00 145.35
6417 27.2133 14832.90 15288.40 143.71
6418 27.2170 14759.70 15286.80 143.49
6419 27.2178 14861.50 15286.50 142.46
6420 27.2215 14932.90 15284.90 143.10
6421 27.2253 14860.10 15283.30 142.73
6422 27.2290 14950.20 15281.80 143.90
6423 27.2328 14742.70 15280.20 143.29
6424 27.2365 15077.40 15278.60 144.80
6425 27.2403 14964.60 15277.00 144.54
6426 27.2440 14924.80 15275.40 143.28
6427 27.2478 14629.60 15273.80 142.49
6428 27.2515 14826.30 15272.20 143.34
6429 27.2553 14740.80 15270.60 143.12
6430 27.2591 15211.30 15269.00 145.41
6431 27.2628 14786.80 15267.40 143.76
6432 27.2666 14751.80 15265.80 142.95
6433 27.2703 14876.70 15264.30 143.96
6434 27.2741 14974.60 15262.60 143.69
6435 27.2778 14458.70 15261.10 141.48
6436 27.2816 14875.40 15259.40 143.37
6437 27.2853 14826.40 15257.90 142.50
6438 27.2891 14919.60 15256.30 143.93
6439 27.2928 14555.30 15254.70 141.77
6440 27.2966 14997.60 15253.10 144.23
6441 27.3003 14786.70 15251.50 142.96
6442 27.3041 15013.60 15249.90 144.20
6443 27.3079 14662.90 15248.20 142.74
6444 27.3116 14860.60 15246.60 143.36
6445 27.3154 14592.40 15245.00 142.49
6446 27.3191 14909.20 15243.40 144.11
6447 27.3229 14774.50 15241.80 142.41
6448 27.3266 14685.80 15240.20 142.09
6449 27.3304 14704.70 15238.60 142.10
6450 27.3341 14947.70 15237.00 144.35
6451 27.3379 14785.40 15235.40 142.29
6452 27.3416 14848.80 15233.80 143.27
6453 27.3454 14697.50 15232.20 143.05
6454 27.3492 14769.80 15230.50 143.00
6455 27.3529 14589.70 15228.90 142.24
6456 27.3567 14851.70 15227.30 143.48
6457 27.3604 14779.80 15225.70 142.14
6458 27.3642 14932.60 15224.10 143.29
6459 27.3679 14499.80 15222.50 141.03
6460 27.3717 15036.80 15220.90 144.09
6461 27.3754 14745.20 15219.30 143.01
6462 27.3792 14646.00 15217.60 142.75
6463 27.3829 14566.40 15216.00 141.56
6464 27.3867 14909.70 15214.40 144.46
6465 27.3904 14571.40 15212.80 141.75
6466 27.3942 14605.50 15211.10 142.53
6467 27.3980 14672.40 15209.50 142.97
6468 27.4017 14922.50 15207.90 144.29
6469 27.4055 14598.80 15206.30 141.20
6470 27.4092 14823.90 15204.70 142.94
6471 27.4130 14530.40 15203.00 142.11
6472 27.4167 14776.80 15201.40 143.24
6473 27.4205 14810.90 15199.80 143.84
6474 27.4242 14655.70 15198.20 143.08
6475 27.4280 14716.10 15196.50 143.00
6476 27.4317 14911.10 15194.90 144.20
6477 27.4355 14591.60 15193.20 143.19
6478 27.4393 14989.90 15191.60 143.81
6479 27.4430 14615.50 15190.00 142.46
6480 27.4468 14874.50 15188.30 143.92
6481 27.4505 14662.50 15186.70 143.21
6482 27.4543 15022.30 15185.10 145.39
6483 27.4580 14612.50 15183.50 142.45
6484 27.4618 14854.60 15181.80 143.56
6485 27.4655 14641.30 15180.20 141.70
6486 27.4693 14848.00 15178.50 143.83
6487 27.4730 14714.90 15176.90 143.28
6488 27.4768 14965.00 15175.30 144.01
6489 27.4806 14873.70 15173.60 143.93
6490 27.4843 14649.50 15172.00 143.27
6491 27.4881 14690.10 15170.30 143.27
6492 27.4918 14803.00 15168.70 142.78
6493 27.4956 14596.40 15167.00 142.38
6494 27.4993 14648.80 15165.40 142.45
6495 27.5031 14402.60 15163.70 141.56
6496 27.5068 14654.70 15162.10 142.29
6497 27.5106 14587.10 15160.50 142.78
6498 27.5144 14959.80 15158.80 144.96
6499 27.5181 14615.30 15157.20 142.74
6500 27.5219 14834.30 15155.50 143.56
6501 27.5256 14834.50 15153.90 143.96
6502 27.5294 14657.10 15152.20 142.89
6503 27.5331 14607.70 15150.60 142.42
6504 27.5369 14710.30 15148.90 142.25
6505 27.5406 14711.80 15147.30 142.95
6506 27.5444 14846.10 15145.60 144.07
6507 27.5481 14461.80 15144.00 141.43
6508 27.5519 14837.10 15142.30 144.26
6509 27.5557 14820.80 15140.60 144.09
6510 27.5594 14742.90 15139.00 143.89
6511 27.5632 14682.50 15137.30 143.68
6512 27.5669 14862.30 15135.70 143.65
6513 27.5707 14488.50 15134.00 141.54
6514 27.5744 14810.50 15132.30 143.50
6515 27.5782 14555.80 15130.70 142.46
6516 27.5819 14522.00 15129.00 142.03
6517 27.5857 14557.60 15127.30 142.31
6518 27.5895 14685.70 15125.70 142.91
6519 27.5932 14668.00 15124.00 142.94
6520 27.5970 14695.30 15122.30 143.64
6521 27.6007 14706.90 15120.70 143.79
6522 27.6045 14685.50 15119.00 142.63
6523 27.6082 14561.90 15117.40 142.29
6524 27.6120 14758.40 15115.70 143.70
6525 27.6157 14500.20 15114.00 141.02
6526 27.6195 14706.10 15112.30 142.99
6527 27.6233 14423.70 15110.60 142.16
6528 27.6270 14797.30 15109.00 142.34
6529 27.6308 14686.50 15107.30 142.76
6530 27.6345 14667.40 15105.60 142.53
6531 27.6383 14574.50 15104.00 142.77
6532 27.6420 14834.10 15102.30 144.15
6533 27.6458 14382.00 15100.60 139.80
6534 27.6495 14691.30 15099.00 142.53
6535 27.6533 14354.70 15097.30 141.47
6536 27.6571 14845.80 15095.60 144.02
6537 27.6608 14392.10 15093.90 140.82
6538 27.6646 14620.50 15092.20 141.81
6539 27.6683 14199.90 15090.50 139.89
6540 27.6721 14489.00 15088.80 142.14
6541 27.6758 14454.10 15087.20 141.75
6542 27.6796 14746.70 15085.50 142.21
6543 27.6833 14621.60 15083.80 141.87
6544 27.6871 14751.60 15082.10 141.39
6545 27.6909 14446.00 15080.40 140.61
6546 27.6946 14652.00 15078.80 141.35
6547 27.6984 14363.90 15077.00 139.84
6548 27.7021 14552.10 15075.40 140.79
6549 27.7059 14506.90 15073.70 140.76
6550 27.7096 14582.30 15072.00 141.24
6551 27.7134 14396.40 15070.30 140.17
6552 27.7171 14723.90 15068.60 141.58
6553 27.7209 14662.40 15066.90 141.34
6554 27.7247 14587.70 15065.20 141.59
6555 27.7284 14608.00 15063.50 141.13
6556 27.7322 14514.40 15061.80 139.45
6557 27.7359 14104.80 15060.20 138.95
6558 27.7397 14711.50 15058.40 141.63
6559 27.7434 14404.20 15056.80 140.36
6560 27.7472 14547.20 15055.00 141.39
6561 27.7509 14445.60 15053.40 141.05
6562 27.7547 14590.70 15051.70 140.50
6563 27.7585 14494.70 15049.90 139.99
6564 27.7622 14648.20 15048.30 141.59
6565 27.7660 14444.90 15046.50 140.65
6566 27.7697 14832.00 15044.90 142.74
6567 27.7735 14317.50 15043.10 139.38
6568 27.7772 14609.40 15041.50 141.74
6569 27.7810 14452.90 15039.70 140.23
6570 27.7848 14552.80 15038.00 140.93
6571 27.7885 14410.40 15036.30 140.91
6572 27.7923 14602.30 15034.60 141.67
6573 27.7960 14500.20 15032.90 141.02
6574 27.7998 14571.90 15031.20 141.34
6575 27.8035 14760.80 15029.50 142.48
6576 27.8073 14708.50 15027.80 141.60
6577 27.8110 14504.70 15026.10 140.36
6578 27.8148 14832.90 15024.40 142.38
6579 27.8186 14525.90 15022.60 140.46
6580 27.8223 14527.50 15020.90 141.05
6581 27.8261 14612.30 15019.20 141.49
6582 27.8298 14573.40 15017.50 141.26
6583 27.8336 14738.00 15015.80 142.77
6584 27.8373 14649.50 15014.10 142.40
6585 27.8411 14693.00 15012.30 142.28
6586 27.8449 14428.70 15010.60 140.82
6587 27.8486 14477.90 15008.90 141.36
6588 27.8524 14735.30 15007.20 143.35
6589 27.8561 14477.10 15005.50 140.31
6590 27.8599 14651.20 15003.70 141.52
6591 27.8636 14498.30 15002.00 141.04
6592 27.8674 14632.40 15000.30 141.97
6593 27.8711 14485.30 14998.60 140.59
6594 27.8749 14543.30 14996.90 141.43
6595 27.8787 14377.00 14995.10 140.07
6596 27.8824 14677.10 14993.40 142.21
6597 27.8862 14578.10 14991.70 142.05
6598 27.8899 14829.00 14990.00 143.57
6599 27.8937 14442.40 14988.20 140.84
6600 27.8974 14783.60 14986.50 142.62
6601 27.9012 14527.60 14984.80 142.01
6602 27.9050 14580.70 14983.00 141.22
6603 27.9087 14550.50 14981.30 142.00
6604 27.9125 14562.60 14979.60 142.12
6605 27.9162 14469.90 14977.80 141.24
6606 27.9200 14706.80 14976.10 142.60
6607 27.9237 14627.60 14974.40 141.29
6608 27.9275 14779.60 14972.60 143.71
6609 27.9313 14665.80 14970.90 142.39
6610 27.9350 14549.30 14969.20 141.19
6611 27.9388 14788.10 14967.40 143.09
6612 27.9425 14497.90 14965.70 141.33
6613 27.9463 14479.00 14963.90 141.15
6614 27.9500 14585.30 14962.20 141.90
6615 27.9538 14421.70 14960.50 140.65
6616 27.9575 14608.80 14958.70 141.57
6617 27.9613 14551.50 14957.00 141.07
6618 27.9651 14957.40 14955.20 143.65
6619 27.9688 14250.00 14953.50 139.65
6620 27.9726 14815.50 14951.70 142.90
6621 27.9763 14409.70 14950.00 141.10
6622 27.9801 14617.80 14948.30 141.78
6623 27.9838 14278.20 14946.50 139.82
6624 27.9876 14703.60 14944.80 142.79
6625 27.9914 14647.50 14943.00 142.17
6626 27.9951 14830.30 14941.30 142.95
6627 27.9989 14654.20 14939.50 141.98
6628 28.0026 14448.40 14937.80 141.03
6629 28.0064 14448.70 14936.00 140.44
6630 28.0101 14714.40 14934.30 143.31
6631 28.0139 14354.40 14932.50 140.35
6632 28.0177 14705.10 14930.70 142.77
6633 28.0214 14484.70 14929.00 140.92
6634 28.0252 14657.80 14927.20 142.37
6635 28.0289 14425.00 14925.50 140.71
6636 28.0327 14761.10 14923.70 142.23
6637 28.0364 14758.30 14922.00 143.22
6638 28.0402 14619.20 14920.20 142.27
6639 28.0440 14533.40 14918.40 141.26
6640 28.0477 14724.80 14916.70 141.71
6641 28.0515 14603.30 14914.90 141.89
6642 28.0552 14713.50 14913.20 142.55
6643 28.0590 14483.90 14911.40 141.21
6644 28.0627 14625.80 14909.70 141.61
6645 28.0665 14600.90 14907.90 142.54
6646 28.0703 14551.60 14906.10 141.08
6647 28.0740 14520.40 14904.40 141.99
6648 28.0778 14849.50 14902.60 143.36
6649 28.0815 14480.30 14900.80 141.29
6650 28.0853 14741.50 14899.10 143.49
6651 28.0890 14731.00 14897.30 143.09
6652 28.0928 14583.50 14895.50 141.83
6653 28.0966 14708.10 14893.70 142.75
6654 28.1003 14458.50 14892.00 141.57
6655 28.1041 14477.00 14890.20 141.63
6656 28.1078 14871.70 14888.50 143.51
6657 28.1116 14780.90 14886.70 143.14
6658 28.1153 14682.30 14884.90 142.19
6659 28.1191 14662.00 14883.10 141.78
6660 28.1229 15013.10 14881.30 144.34
6661 28.1266 14455.10 14879.60 141.05
6662 28.1304 14966.40 14877.80 143.42
6663 28.1341 14926.10 14876.00 143.74
6664 28.1379 14983.60 14874.30 144.00
6665 28.1417 14512.20 14872.50 141.57
6666 28.1454 14860.30 14870.70 143.50
6667 28.1492 14420.50 14868.90 140.30
6668 28.1529 14883.70 14867.20 143.54
6669 28.1567 14622.60 14865.40 142.94
6670 28.1604 14565.40 14863.60 140.90
6671 28.1642 14623.30 14861.80 141.66
6672 28.1680 14781.70 14860.00 142.28
6673 28.1717 14560.10 14858.20 141.21
6674 28.1755 14806.00 14856.40 143.18
6675 28.1792 14650.90 14854.70 142.55
6676 28.1830 14752.70 14852.90 143.14
6677 28.1867 14810.90 14851.10 142.83
6678 28.1905 14519.00 14849.30 141.00
6679 28.1943 14726.00 14847.50 142.32
6680 28.1980 14743.60 14845.70 141.88
6681 28.2018 14585.40 14843.90 141.38
6682 28.2055 15105.90 14842.20 144.79
6683 28.2093 14761.70 14840.40 141.96
6684 28.2130 15140.60 14838.60 144.40
6685 28.2168 14755.60 14836.80 142.05
6686 28.2206 15154.80 14835.00 144.45
6687 28.2243 14933.10 14833.20 143.23
6688 28.2281 15163.10 14831.40 144.55
6689 28.2318 15086.50 14829.60 143.49
6690 28.2356 15246.20 14827.80 144.88
6691 28.2393 15032.30 14826.00 143.70
6692 28.2431 15291.70 14824.20 144.70
6693 28.2469 15144.10 14822.40 143.84
6694 28.2506 15079.50 14820.60 144.78
6695 28.2544 15039.50 14818.80 143.79
6696 28.2581 15173.80 14817.00 144.62
6697 28.2619 14741.00 14815.20 141.82
6698 28.2657 14993.00 14813.40 143.68
6699 28.2694 14862.10 14811.60 143.23
6700 28.2732 14885.60 14809.80 143.15
6701 28.2769 14594.00 14808.00 142.22
6702 28.2807 14720.00 14806.20 142.41
6703 28.2844 14689.70 14804.40 142.24
6704 28.2882 14896.70 14802.60 142.76
6705 28.2920 14685.40 14800.80 141.38
6706 28.2957 14959.80 14799.00 143.28
6707 28.2995 14733.90 14797.20 141.80
6708 28.3032 14924.30 14795.40 143.33
6709 28.3070 14720.00 14793.60 141.91
6710 28.3108 14766.70 14791.70 142.21
6711 28.3145 14671.90 14789.90 141.50
6712 28.3183 14668.00 14788.10 142.38
6713 28.3220 14665.50 14786.30 141.99
6714 28.3258 14764.50 14784.50 142.23
6715 28.3295 14698.00 14782.70 142.06
6716 28.3333 14543.70 14780.90 141.02
6717 28.3371 14445.30 14779.10 140.97
6718 28.3408 14963.00 14777.30 143.30
6719 28.3446 14749.60 14775.40 142.33
6720 28.3483 15028.00 14773.60 144.32
6721 28.3521 14538.30 14771.80 140.42
6722 28.3558 14735.70 14770.00 142.34
6723 28.3596 14731.00 14768.20 142.15
6724 28.3634 14815.60 14766.30 142.27
6725 28.3671 14698.00 14764.50 141.51
6726 28.3709 14875.00 14762.70 142.84
6727 28.3746 14633.80 14760.90 141.72
6728 28.3784 14698.40 14759.10 141.66
6729 28.3822 14611.70 14757.20 142.05
6730 28.3859 14813.60 14755.40 142.28
6731 28.3897 14713.90 14753.60 142.45
6732 28.3934 14897.20 14751.80 142.49
6733 28.3972 14639.80 14750.00 141.37
6734 28.4009 14722.60 14748.20 142.33
6735 28.4047 14511.90 14746.30 141.42
6736 28.4085 14850.20 14744.50 143.38
6737 28.4122 14432.80 14742.70 140.38
6738 28.4160 14653.50 14740.80 142.18
6739 28.4197 14660.20 14739.00 141.80
6740 28.4235 14878.60 14737.20 142.32
6741 28.4273 14757.80 14735.30 142.33
6742 28.4310 14977.00 14733.50 143.64
6743 28.4348 14622.50 14731.70 141.21
6744 28.4385 14843.60 14729.90 141.82
6745 28.4423 14868.60 14728.00 142.72
6746 28.4460 15071.00 14726.20 144.31
6747 28.4498 14890.00 14724.40 142.73
6748 28.4536 14896.60 14722.50 143.51
6749 28.4573 15045.00 14720.70 144.53
6750 28.4611 15131.00 14718.80 144.85
6751 28.4648 15030.30 14717.00 143.65
6752 28.4686 15201.00 14715.20 145.00
6753 28.4724 14958.50 14713.30 143.51
6754 28.4761 15250.60 14711.50 145.10
6755 28.4799 14756.70 14709.70 142.62
6756 28.4836 15080.80 14707.80 144.43
6757 28.4874 15046.80 14706.00 144.18
6758 28.4911 15166.30 14704.20 144.61
6759 28.4949 15079.40 15139.60 144.23
6760 28.4987 15191.40 15146.60 145.48
6761 28.5024 15100.70 15153.80 144.34
6762 28.5062 15323.20 15161.40 145.58
6763 28.5099 15051.40 15169.00 143.64
6764 28.5137 15033.30 15177.20 144.27
6765 28.5175 15268.90 15185.80 145.38
6766 28.5212 15418.50 15194.40 145.60
6767 28.5250 15270.90 15203.60 144.58
6768 28.5287 15499.30 15212.90 145.87
6769 28.5325 15107.70 15222.90 144.77
6770 28.5363 15343.50 15233.20 145.85
6771 28.5400 15433.90 15243.70 146.87
6772 28.5438 15567.50 15254.90 147.37
6773 28.5475 15294.00 15266.20 145.35
6774 28.5513 15508.10 15278.30 146.50
6775 28.5550 15506.20 15290.60 146.80
6776 28.5588 15541.10 16182.60 146.22
6777 28.5626 15386.20 16214.10 146.31
6778 28.5663 15734.30 16245.90 147.91
6779 28.5701 15470.50 16279.80 145.93
6780 28.5738 15600.00 16313.90 147.74
6781 28.5776 15441.40 16350.30 146.51
6782 28.5814 15775.80 16388.00 148.19
6783 28.5851 15661.60 16426.00 146.80
6784 28.5889 15885.80 16466.60 147.99
6785 28.5926 15501.60 16507.60 146.14
6786 28.5964 16053.20 16551.30 149.08
6787 28.6001 15575.60 16595.60 146.80
6788 28.6039 15945.90 16642.80 148.36
6789 28.6077 15846.80 16691.90 148.24
6790 28.6114 16094.60 16741.60 150.17
6791 28.6152 15951.80 16794.80 148.93
6792 28.6189 15886.30 16848.70 148.94
6793 28.6227 15906.00 16906.40 148.23
6794 28.6265 16176.30 16966.50 150.38
6795 28.6302 15958.10 17027.60 148.58
6796 28.6340 16281.00 17093.10 150.54
6797 28.6377 16144.20 17159.60 150.62
6798 28.6415 16793.60 17231.00 152.97
6799 28.6453 16380.70 17305.60 149.73
6800 28.6490 16977.90 17381.70 153.52
6801 28.6528 16662.30 17463.50 152.41
6802 28.6565 16697.60 17546.90 152.01
6803 28.6603 16713.00 17636.60 152.50
6804 28.6640 17096.50 17728.30 153.99
6805 28.6678 16921.40 17827.10 153.16
6806 28.6716 17246.80 17931.10 155.17
6807 28.6753 17134.90 18037.40 155.03
6808 28.6791 17515.20 18152.40 155.82
6809 28.6828 17307.60 18270.20 154.98
6810 28.6866 17642.80 18397.90 157.03
6811 28.6904 17759.40 18532.80 157.97
6812 28.6941 18004.00 18671.50 158.36
6813 28.6979 17930.50 18822.00 158.19
6814 28.7016 18253.60 18977.30 159.99
6815 28.7054 18318.30 19146.10 160.39
6816 28.7092 18586.80 19325.60 162.29
6817 28.7129 18480.80 19511.10 161.15
6818 28.7167 19266.80 19713.90 165.81
6819 28.7204 19090.90 19924.40 164.83
6820 28.7242 19623.60 20154.70 167.24
6821 28.7280 19351.50 20401.30 165.62
6822 28.7317 19869.70 20658.10 168.40
6823 28.7355 19692.80 20940.90 168.01
6824 28.7392 20390.20 21236.60 171.07
6825 28.7430 20741.30 21563.50 173.21
6826 28.7467 21259.30 21906.50 175.85
6827 28.7505 21383.00 22287.80 175.57
6828 28.7543 22112.90 22700.40 179.22
6829 28.7580 22271.10 23137.10 180.47
6830 28.7618 22834.40 23624.70 182.78
6831 28.7655 23273.80 24143.50 184.68
6832 28.7693 23638.20 24726.20 186.99
6833 28.7731 24280.80 25367.50 189.46
6834 28.7768 25313.80 26055.30 194.68
6835 28.7806 25726.60 26837.20 196.69
6836 28.7843 26813.00 27683.10 201.29
6837 28.7881 27268.90 28651.20 202.47
6838 28.7919 28871.90 29739.00 209.76
6839 28.7956 29155.40 30931.80 211.42
6840 28.7994 31432.80 32321.20 221.02
6841 28.8031 32534.00 33863.10 226.29
6842 28.8069 34830.60 35683.30 235.79
6843 28.8107 36014.40 37794.50 239.51
6844 28.8144 39429.30 40195.50 254.17
6845 28.8182 42161.50 43099.70 265.28
6846 28.8219 45591.30 46474.10 278.75
6847 28.8257 49681.30 50653.60 292.48
6848 28.8294 55980.70 55649.90 315.14
6849 28.8332 62685.10 62077.00 340.01
6850 28.8370 72332.30 70455.70 372.18
6851 28.8407 84755.70 81619.10 411.80
6852 28.8445 103876.00 98478.90 470.63
6853 28.8482 128298.00 124183.00 541.60
6854 28.8520 169943.00 166669.00 653.01
6855 28.8558 225092.00 234055.00 793.92
6856 28.8595 316086.00 330692.00 1006.63
6857 28.8633 432753.00 462682.00 1271.00
6858 28.8670 581431.00 607616.00 1596.74
6859 28.8708 693481.00 725973.00 1829.43
6860 28.8746 739784.00 744408.00 1914.57
6861 28.8783 669563.00 654844.00 1778.81
6862 28.8821 554273.00 515098.00 1543.10
6863 28.8858 419821.00 387254.00 1242.49
6864 28.8896 328822.00 287792.00 1044.05
6865 28.8934 264034.00 223173.00 890.50
6866 28.8971 230611.00 188340.00 810.29
6867 28.9009 210895.00 173967.00 755.57
6868 28.9046 213718.00 175879.00 767.86
6869 28.9084 224998.00 193436.00 798.93
6870 28.9122 260776.00 231695.00 885.24
6871 28.9159 314302.00 299383.00 1009.09
6872 28.9197 417526.00 415932.00 1241.90
6873 28.9234 569787.00 589927.00 1567.27
6874 28.9272 824168.00 836019.00 2101.77
6875 28.9309 1129770.00 1118870.00 2696.29
6876 28.9347 1453210.00 1372270.00 3309.66
6877 28.9385 1579460.00 1449320.00 3545.94
6878 28.9422 1474240.00 1297200.00 3328.92
6879 28.9460 1136890.00 1014470.00 2710.57
6880 28.9497 798367.00 737064.00 2036.32
6881 28.9535 525881.00 508699.00 1487.02
6882 28.9573 358385.00 347936.00 1115.88
6883 28.9610 246684.00 246561.00 847.33
6884 28.9648 184209.00 182092.00 692.07
6885 28.9685 140979.00 143274.00 579.08
6886 28.9723 113888.00 117363.00 497.57
6887 28.9761 93819.00 99402.40 442.15
6888 28.9798 81172.80 86417.80 400.87
6889 28.9836 69758.80 76080.70 364.55
6890 28.9873 62973.50 68044.80 342.51
6891 28.9911 56217.50 61346.50 316.83
6892 28.9949 52041.30 55836.00 304.75
6893 28.9986 48087.60 51364.90 288.27
6894 29.0024 44264.50 47492.60 274.50
6895 29.0061 41580.10 44285.30 262.66
6896 29.0099 39446.10 41462.90 254.86
6897 29.0137 37232.70 39025.90 246.97
6898 29.0174 35480.90 36962.00 238.07
6899 29.0212 33733.80 35103.90 233.08
6900 29.0249 32416.90 33511.20 226.40
6901 29.0287 30939.10 32061.30 220.68
6902 29.0325 30565.60 30772.70 218.67
6903 29.0362 28827.40 29650.70 211.10
6904 29.0400 28122.20 28617.10 207.82
6905 29.0437 26892.80 27708.80 202.64
6906 29.0475 26846.40 26865.80 203.11
6907 29.0513 25305.00 26100.80 196.11
6908 29.0550 25317.30 25422.90 195.29
6909 29.0588 24460.30 24786.40 191.60
6910 29.0625 24139.80 24219.20 190.74
6911 29.0663 23615.40 23683.80 188.75
6912 29.0701 23245.90 23191.40 185.71
6913 29.0738 22484.20 22749.20 182.43
6914 29.0776 22417.10 22328.90 181.74
6915 29.0813 21743.10 21949.90 178.25
6916 29.0851 21702.90 21588.10 178.79
6917 29.0888 21162.50 21260.50 175.99
6918 29.0926 21026.00 20946.70 175.79
6919 29.0964 20529.80 20654.00 173.75
6920 29.1001 20411.10 20387.40 171.88
6921 29.1039 19871.00 20131.20 169.96
6922 29.1076 19895.40 19896.80 169.70
6923 29.1114 19843.30 19671.00 169.91
6924 29.1152 19531.80 19458.60 167.27
6925 29.1189 19543.30 19263.80 168.59
6926 29.1227 19421.00 19075.10 168.07
6927 29.1264 18794.30 18901.60 164.24
6928 29.1302 19360.00 18733.10 167.45
6929 29.1340 18693.90 18573.70 163.40
6930 29.1377 18627.70 18426.80 164.12
6931 29.1415 18272.50 18283.50 162.02
6932 29.1452 18087.30 18151.20 159.35
6933 29.1490 18013.20 18022.00 159.90
6934 29.1528 18091.50 17899.10 160.84
6935 29.1565 17913.70 17785.20 160.62
6936 29.1603 17894.60 17673.90 158.53
6937 29.1640 17431.20 17570.30 157.16
6938 29.1678 17725.10 17469.00 157.40
6939 29.1716 17252.40 17372.10 155.65
6940 29.1753 17544.00 17282.00 156.45
6941 29.1791 17210.80 17193.50 156.30
6942 29.1828 17350.20 17110.90 156.39
6943 29.1866 16868.00 17029.70 153.49
6944 29.1904 16868.00 16951.90 153.56
6945 29.1941 17175.40 16879.20 155.73
6946 29.1979 17046.70 16807.50 152.68
6947 29.2016 16391.20 16740.50 150.40
6948 29.2054 16969.10 16674.30 155.47
6949 29.2092 16215.60 16610.80 151.06
6950 29.2129 16384.30 16551.10 151.58
6951 29.2167 16047.50 16492.20 149.92
6952 29.2204 16186.10 16436.90 150.62
6953 29.2242 16136.50 16382.20 150.76
6954 29.2280 16098.70 16329.50 150.33
6955 29.2317 15719.90 16279.90 147.75
6956 29.2355 15993.80 16230.80 149.46
6957 29.2392 15626.60 16184.60 147.71
6958 29.2430 15445.80 16138.80 146.42
6959 29.2468 15541.80 16094.50 146.68
6960 29.2505 15592.10 16052.80 145.16
6961 29.2543 15425.30 15580.40 147.08
6962 29.2580 15418.50 15549.50 145.71
6963 29.2618 15482.40 15518.90 147.02
6964 29.2656 15621.90 15489.20 147.81
6965 29.2693 15203.90 15461.30 144.57
6966 29.2731 15155.50 15433.50 145.69
6967 29.2768 15170.00 15407.20 145.22
6968 29.2806 15360.20 15381.00 144.34
6969 29.2844 14878.80 15355.70 143.00
6970 29.2881 15284.00 15331.70 146.05
6971 29.2919 15219.20 15307.80 145.24
6972 29.2956 15366.20 15285.20 145.33
6973 29.2994 14839.70 15262.60 142.74
6974 29.3032 15054.70 15240.70 143.46
6975 29.3069 14976.50 15219.90 143.51
6976 29.3107 14901.40 15199.20 143.80
6977 29.3144 14759.30 15179.50 141.82
6978 29.3182 14887.10 14286.80 142.65
6979 29.3220 14890.90 14284.80 142.30
6980 29.3257 14785.90 14282.90 142.77
6981 29.3295 14761.10 14281.00 142.91
6982 29.3332 14703.70 14279.10 141.95
6983 29.3370 14615.00 14277.10 140.22
6984 29.3408 14655.30 14275.10 142.04
6985 29.3445 14471.80 14273.20 138.50
6986 29.3483 14893.10 14271.20 141.72
6987 29.3520 14454.90 14269.30 140.01
6988 29.3558 14738.40 14267.40 142.93
6989 29.3596 14435.20 14265.40 139.96
6990 29.3633 14624.50 14263.50 143.15
6991 29.3671 14635.90 14261.50 140.85
6992 29.3708 14770.00 14259.60 141.62
6993 29.3746 14198.60 14257.70 138.25
6994 29.3784 14776.10 14255.70 142.92
6995 29.3821 14590.10 14253.80 142.42
6996 29.3859 14780.60 14251.80 140.93
6997 29.3896 14435.00 14249.90 140.04
6998 29.3934 14617.40 14247.90 142.39
6999 29.3971 14386.40 14246.00 141.32
7000 29.4009 14564.00 14244.00 141.32
7001 29.4047 14199.80 14242.10 137.75
7002 29.4084 14482.10 14240.20 142.33
7003 29.4122 14243.70 14238.20 140.76
7004 29.4159 14346.40 14236.30 140.87
7005 29.4197 14326.00 14234.30 139.97
7006 29.4235 14490.10 14232.30 141.80
7007 29.4272 14396.80 14230.40 140.22
7008 29.4310 14666.60 14228.50 140.82
7009 29.4347 14286.10 14226.50 140.79
7010 29.4385 14459.90 14224.60 140.18
7011 29.4423 14344.30 14222.60 138.84
7012 29.4460 14463.20 14220.70 140.74
7013 29.4498 14224.90 14218.70 139.12
7014 29.4535 14201.30 14216.80 140.74
7015 29.4573 14312.60 14214.80 140.44
7016 29.4611 14402.80 14212.80 142.03
7017 29.4648 14320.10 14210.90 140.99
7018 29.4686 14537.40 14209.00 142.07
7019 29.4723 14085.10 14207.00 138.56
7020 29.4761 14407.10 14205.10 141.87
7021 29.4799 14012.90 14203.10 138.30
7022 29.4836 14381.40 14201.20 140.88
7023 29.4874 14153.50 14199.20 138.26
7024 29.4911 14495.70 14197.30 142.16
7025 29.4949 14385.00 14195.30 141.55
7026 29.4987 14512.40 14193.30 141.15
7027 29.5024 14100.60 14191.40 139.46
7028 29.5062 14317.20 14189.40 140.69
7029 29.5099 14288.30 14187.50 141.38
7030 29.5137 14206.70 14185.50 139.99
7031 29.5175 14045.80 14183.60 138.96
7032 29.5212 14180.10 14181.70 138.76
7033 29.5250 13908.30 14179.70 139.08
7034 29.5287 14325.60 14177.80 139.84
7035 29.5325 14153.80 14175.80 138.94
7036 29.5363 14147.80 14173.80 137.63
7037 29.5400 13884.20 14171.90 138.08
7038 29.5438 14191.40 14169.90 139.29
7039 29.5475 13939.30 14168.00 138.34
7040 29.5513 14044.30 14166.00 140.04
7041 29.5551 13979.10 14164.00 137.29
7042 29.5588 14128.10 14162.10 140.62
7043 29.5626 13982.60 14160.10 139.63
7044 29.5663 14334.40 14158.20 141.41
7045 29.5701 13791.50 14156.20 135.92
7046 29.5739 14016.40 14154.30 139.13
7047 29.5776 14084.90 14152.30 139.31
7048 29.5814 13923.70 14150.40 138.76
7049 29.5851 14058.50 14148.40 140.28
7050 29.5889 14056.20 14146.50 138.83
7051 29.5927 14018.60 14144.50 139.89
7052 29.5964 14234.70 14142.60 139.76
7053 29.6002 13902.60 14140.60 139.07
7054 29.6039 14224.20 14138.70 140.47
7055 29.6077 13807.60 14136.70 137.65
7056 29.6115 13981.10 14134.70 138.82
7057 29.6152 14003.60 14132.80 138.66
7058 29.6190 14124.80 14130.80 139.04
7059 29.6227 14107.60 14128.90 139.74
7060 29.6265 14287.80 14126.90 140.28
7061 29.6303 13807.00 14124.90 137.14
7062 29.6340 14167.60 14123.00 138.47
7063 29.6378 14048.90 14121.00 138.26
7064 29.6415 14015.00 14119.10 136.62
7065 29.6453 13886.10 14117.10 137.34
7066 29.6491 14197.20 14115.10 139.82
7067 29.6528 13992.70 14113.20 138.52
7068 29.6566 13940.70 14111.20 138.10
7069 29.6603 13909.80 14109.30 137.89
7070 29.6641 13792.80 14107.30 137.07
7071 29.6679 13390.70 14105.30 135.29
7072 29.6716 13813.30 14103.40 137.38
7073 29.6754 13788.90 14101.40 136.65
7074 29.6791 13851.30 14099.50 136.90
7075 29.6829 13577.80 14097.50 135.76
7076 29.6867 14034.40 14095.50 139.02
7077 29.6904 14179.00 14093.60 139.31
7078 29.6942 14071.10 14091.60 138.73
7079 29.6979 13695.40 14089.70 137.23
7080 29.7017 14225.70 14087.70 139.48
7081 29.7055 13909.00 14085.70 137.50
7082 29.7092 14251.20 14083.80 139.73
7083 29.7130 13826.30 14081.80 136.72
7084 29.7167 14043.90 14079.90 137.39
7085 29.7205 14166.70 14077.90 139.58
7086 29.7243 14041.40 14075.90 138.77
7087 29.7280 13839.10 14074.00 136.62
7088 29.7318 14171.70 14072.00 139.39
7089 29.7355 13811.30 14070.10 137.81
7090 29.7393 14046.70 14068.10 137.78
7091 29.7431 13940.00 14066.10 138.50
7092 29.7468 14240.20 14064.20 139.98
7093 29.7506 14017.10 14062.20 139.19
7094 29.7543 14317.00 14060.30 140.69
7095 29.7581 13967.30 14058.30 138.61
7096 29.7619 13982.20 14056.30 138.36
7097 29.7656 13831.00 14054.40 137.56
7098 29.7694 14219.40 14052.40 138.97
7099 29.7731 13829.50 14050.50 137.36
7100 29.7769 14089.60 14048.50 138.95
7101 29.7807 14002.20 14046.50 138.35
7102 29.7844 14026.40 14044.60 139.12
7103 29.7882 14140.20 14042.60 139.47
7104 29.7919 14141.70 14040.70 139.42
7105 29.7957 13770.60 14038.70 136.88
7106 29.7995 14226.10 14036.70 139.47
7107 29.8032 13944.00 14034.80 136.94
7108 29.8070 14059.00 14032.80 138.53
7109 29.8107 13612.60 14030.90 135.64
7110 29.8145 13980.60 14028.90 138.11
7111 29.8183 13626.70 14026.90 135.94
7112 29.8220 13979.60 14025.00 138.73
7113 29.8258 13752.90 14023.00 135.16
7114 29.8295 13890.30 14021.10 137.80
7115 29.8333 13742.70 14019.10 135.07
7116 29.8371 14025.80 14017.10 139.08
7117 29.8408 13619.50 14015.20 135.21
7118 29.8446 13898.40 14013.20 137.95
7119 29.8483 13797.60 14011.30 136.09
7120 29.8521 13999.00 14009.30 139.52
7121 29.8559 13525.10 14007.30 135.46
7122 29.8596 13899.80 14005.40 138.14
7123 29.8634 13776.90 14003.40 136.45
7124 29.8671 13999.30 14001.50 138.56
7125 29.8709 13855.10 13999.50 137.82
7126 29.8747 13812.10 13997.50 136.66
7127 29.8784 13747.80 13995.60 138.02
7128 29.8822 13746.10 13993.60 137.30
7129 29.8859 13919.50 13991.70 137.20
7130 29.8897 13764.40 13989.70 136.87
7131 29.8935 13585.50 13987.70 137.35
7132 29.8972 13759.20 13985.80 135.82
7133 29.9010 13818.90 13983.80 136.94
7134 29.9047 13724.20 13981.90 137.68
7135 29.9085 13655.40 13979.90 137.46
7136 29.9123 14018.20 13977.90 139.44
7137 29.9160 13857.50 13976.00 138.85
7138 29.9198 13660.30 13974.00 137.06
7139 29.9235 13650.90 13972.10 137.47
7140 29.9273 14022.80 13970.10 138.25
7141 29.9311 13639.20 13968.10 136.80
7142 29.9348 13847.50 13966.20 137.44
7143 29.9386 13533.10 13964.20 135.13
7144 29.9423 13924.00 13962.30 137.98
7145 29.9461 13709.80 13960.30 136.44
7146 29.9499 13934.40 13958.30 137.61
7147 29.9536 13561.20 13956.40 135.68
7148 29.9574 13979.00 13954.40 138.06
7149 29.9611 13813.50 13952.50 136.67
7150 29.9649 13916.70 13950.50 137.41
7151 29.9687 13626.30 13948.50 137.47
7152 29.9724 13930.80 13946.60 138.53
7153 29.9762 13740.60 13944.60 137.58
7154 29.9799 13934.90 13942.70 139.12
7155 29.9837 13662.20 13940.70 137.20
7156 29.9875 13839.30 13938.70 137.90
7157 29.9912 13606.20 13936.80 135.02
7158 29.9950 13907.80 13934.80 138.50
7159 29.9987 13706.80 13932.90 137.79
7160 30.0025 13690.80 13930.90 137.49
7161 30.0062 13721.60 13929.00 137.20
7162 30.0100 14073.70 13927.00 138.01
7163 30.0138 13852.30 13925.00 138.07
7164 30.0175 13745.00 13923.10 137.76
7165 30.0213 13639.00 13921.10 136.27
7166 30.0250 13700.30 13919.20 137.34
7167 30.0288 13693.30 13917.20 137.79
7168 30.0326 13878.70 13915.20 138.70
7169 30.0363 13565.00 13913.30 136.64
7170 30.0401 14059.30 13911.30 139.53
7171 30.0438 13715.60 13909.40 137.11
7172 30.0476 13676.30 13907.40 137.44
7173 30.0514 13570.00 13905.40 137.64
7174 30.0551 13865.30 13903.50 137.75
7175 30.0589 13902.70 13901.50 138.23
7176 30.0626 13768.60 13899.60 137.98
7177 30.0664 13817.60 13897.60 138.37
7178 30.0702 13906.00 13895.60 137.41
7179 30.0739 13614.60 13893.70 137.47
7180 30.0777 13863.00 13891.70 136.97
7181 30.0814 13565.30 13889.80 137.53
7182 30.0852 13926.70 13887.80 138.18
7183 30.0890 13669.40 13885.80 136.21
7184 30.0927 13982.20 13883.90 138.14
7185 30.0965 13747.60 13881.90 137.55
7186 30.1002 13698.60 13880.00 136.60
7187 30.1040 13782.30 13878.00 137.14
7188 30.1078 13741.00 13876.00 136.72
7189 30.1115 13682.60 13874.10 137.08
7190 30.1153 14093.00 13872.10 138.22
7191 30.1190 13747.30 13870.20 137.18
7192 30.1228 13960.10 13868.20 137.85
7193 30.1266 13495.40 13866.30 134.99
7194 30.1303 13479.30 13864.30 135.20
7195 30.1341 13494.30 13862.40 134.82
7196 30.1378 13865.10 13860.40 137.80
7197 30.1416 13606.80 13858.50 136.45
7198 30.1454 13816.30 13856.50 136.16
7199 30.1491 13751.70 13854.60 136.42
7200 30.1529 13755.70 13852.60 135.99
7201 30.1566 13539.60 13850.70 136.06
7202 30.1604 13720.90 13848.70 135.78
7203 30.1642 13585.60 13846.70 134.98
7204 30.1679 13673.00 13844.80 134.44
7205 30.1717 13750.80 13842.80 137.31
7206 30.1754 13776.90 13840.90 136.68
7207 30.1792 13612.10 13838.90 134.37
7208 30.1830 13685.40 13836.90 135.18
7209 30.1867 13623.40 13835.00 134.38
7210 30.1905 13810.40 13833.00 136.03
7211 30.1942 13487.20 13831.10 133.91
7212 30.1980 13580.30 13829.20 134.81
7213 30.2018 13434.60 13827.20 134.85
7214 30.2055 13645.70 13825.30 135.26
7215 30.2093 13403.00 13823.30 134.83
7216 30.2130 13887.90 13821.40 137.22
7217 30.2168 13575.50 13819.40 135.19
7218 30.2205 13791.90 13817.50 136.58
7219 30.2243 13787.80 13815.50 137.33
7220 30.2281 13670.70 13813.50 136.75
7221 30.2318 13448.50 13811.60 135.08
7222 30.2356 13436.60 13809.60 134.66
7223 30.2393 13612.00 13807.70 136.17
7224 30.2431 13713.70 13805.70 136.86
7225 30.2469 13528.40 13803.80 133.55
7226 30.2506 13768.40 13801.90 136.26
7227 30.2544 13473.40 13799.90 133.31
7228 30.2581 13716.30 13798.00 135.88
7229 30.2619 13682.60 13796.00 136.66
7230 30.2657 13598.20 13794.00 133.85
7231 30.2694 13261.30 13792.10 134.10
7232 30.2732 13704.40 13790.10 136.60
7233 30.2769 13459.30 13788.20 134.56
7234 30.2807 13605.50 13786.20 134.91
7235 30.2845 13438.10 13784.30 134.26
7236 30.2882 13680.10 13782.40 135.86
7237 30.2920 13376.10 13780.40 134.27
7238 30.2957 13633.00 13778.50 135.45
7239 30.2995 13297.80 13776.50 133.05
7240 30.3033 13598.80 13774.50 135.18
7241 30.3070 13526.40 13772.60 134.64
7242 30.3108 13553.50 13770.70 134.58
7243 30.3145 13403.80 13768.70 134.73
7244 30.3183 13515.10 13766.80 135.15
7245 30.3221 13317.60 13764.80 134.37
7246 30.3258 13628.20 13762.90 136.15
7247 30.3296 13409.60 13760.90 134.48
7248 30.3333 13746.90 13759.00 136.54
7249 30.3371 13297.90 13757.10 133.80
7250 30.3408 13756.40 13755.10 134.44
7251 30.3446 13374.40 13753.20 133.65
7252 30.3484 13553.60 13751.20 134.07
7253 30.3521 13382.30 13749.30 134.39
7254 30.3559 13565.00 13747.30 135.80
7255 30.3596 13243.00 13745.40 133.45
7256 30.3634 13409.00 13745.30 134.17
7257 30.3672 13396.30 13743.40 134.29
7258 30.3709 13478.60 13741.50 134.06
7259 30.3747 13454.30 13739.60 134.85
7260 30.3784 13710.10 13737.70 135.23
7261 30.3822 13434.20 13735.80 132.93
7262 30.3860 13436.10 13733.90 134.14
7263 30.3897 13477.20 13732.00 134.55
7264 30.3935 13505.70 13730.10 134.39
7265 30.3972 13468.70 13728.20 135.02
7266 30.4010 13619.40 13726.30 135.24
7267 30.4048 13320.00 13724.40 133.81
7268 30.4085 13535.80 13722.50 135.24
7269 30.4123 13460.20 13720.60 134.07
7270 30.4160 13511.00 13718.80 135.31
7271 30.4198 13124.70 13716.90 132.39
7272 30.4236 13617.50 13715.00 134.82
7273 30.4273 13549.30 13713.10 135.63
7274 30.4311 13408.40 13711.20 133.48
7275 30.4348 13425.30 13709.40 133.87
7276 30.4386 13633.70 13707.50 135.97
7277 30.4423 13328.20 13705.60 132.38
7278 30.4461 13381.90 13703.80 135.31
7279 30.4499 13287.10 13701.90 133.15
7280 30.4536 13609.50 13700.00 133.71
7281 30.4574 13330.50 13698.20 133.77
7282 30.4611 13439.40 13696.30 134.66
7283 30.4649 13389.20 13694.50 135.13
7284 30.4687 13415.10 13692.60 134.60
7285 30.4724 13484.20 13690.80 134.77
7286 30.4762 13581.90 13688.90 134.78
7287 30.4799 13549.40 13687.10 134.12
7288 30.4837 13677.50 13685.30 136.59
7289 30.4875 13441.70 13683.40 134.90
7290 30.4912 13479.40 13681.70 135.15
7291 30.4950 13378.60 13679.80 134.14
7292 30.4987 13621.00 13678.00 135.64
7293 30.5025 13218.00 13676.20 132.39
7294 30.5062 13452.50 13674.50 135.06
7295 30.5100 13261.00 13672.70 133.83
7296 30.5138 13680.40 13670.90 135.24
7297 30.5175 13511.50 13669.10 135.36
7298 30.5213 13345.30 13667.30 133.70
7299 30.5250 13414.60 13665.60 133.78
7300 30.5288 13450.20 13663.80 134.65
7301 30.5326 13203.60 13662.10 133.31
7302 30.5363 13723.30 13660.40 136.04
7303 30.5401 13456.90 13658.60 134.89
7304 30.5438 13434.40 13657.00 134.88
7305 30.5476 13173.10 13655.20 133.18
7306 30.5514 13584.50 13653.50 134.26
7307 30.5551 13526.20 13651.90 135.48
7308 30.5589 13476.90 13650.20 135.50
7309 30.5626 13220.90 13648.60 134.70
7310 30.5664 13487.70 13647.00 134.77
7311 30.5702 13372.00 13645.40 133.02
7312 30.5739 13376.40 13643.80 133.71
7313 30.5777 13421.30 13642.30 134.69
7314 30.5814 13787.20 13640.80 135.98
7315 30.5852 13158.20 13639.30 132.96
7316 30.5889 13557.60 13637.80 134.64
7317 30.5927 13299.60 13636.40 134.14
7318 30.5965 13499.10 13635.00 135.38
7319 30.6002 13305.10 13633.60 133.58
7320 30.6040 13400.30 13632.30 134.44
7321 30.6077 13296.80 13631.00 132.30
7322 30.6115 13370.90 13629.80 133.73
7323 30.6153 13147.00 13628.60 132.34
7324 30.6190 13395.80 13627.60 132.11
7325 30.6228 13186.30 13626.50 132.73
7326 30.6265 13391.90 13625.60 134.61
7327 30.6303 13209.40 13624.70 133.25
7328 30.6341 13584.00 13624.00 133.66
7329 30.6378 13229.10 13623.40 133.70
7330 30.6416 13266.10 13622.80 133.33
7331 30.6453 13200.90 13622.50 132.95
7332 30.6491 13397.50 13622.30 132.78
7333 30.6528 13208.80 13622.30 133.38
7334 30.6566 13305.30 13622.50 133.68
7335 30.6604 13306.10 13623.00 133.04
7336 30.6641 13307.90 13623.80 132.01
7337 30.6679 13102.20 13625.00 132.29
7338 30.6716 13402.60 13626.50 134.09
7339 30.6754 13448.50 13628.70 134.54
7340 30.6792 13244.10 13631.40 133.28
7341 30.6829 13364.00 13634.70 134.39
7342 30.6867 13228.80 13639.10 132.46
7343 30.6904 13094.20 13644.40 132.57
7344 30.6942 13423.00 13651.30 134.98
7345 30.6979 13565.80 13659.60 134.80
7346 30.7017 13546.70 13670.40 135.57
7347 30.7055 13380.70 13684.20 134.96
7348 30.7092 13589.40 13701.30 134.82
7349 30.7130 13394.80 13724.50 134.73
7350 30.7167 13480.70 13755.00 134.56
7351 30.7205 13423.80 13799.80 134.45
7352 30.7243 13781.50 13868.30 136.16
7353 30.7280 13505.40 13974.30 134.92
7354 30.7318 13670.30 14149.30 135.38
7355 30.7355 13842.90 14413.40 135.93
7356 30.7393 14053.40 14806.50 137.00
7357 30.7430 14905.80 15306.60 142.78
7358 30.7468 15310.30 15878.30 145.40
7359 30.7506 15275.90 16325.40 142.29
7360 30.7543 15677.60 16393.80 146.96
7361 30.7581 15542.20 16035.90 146.17
7362 30.7618 15482.70 15488.10 145.69
7363 30.7656 14782.60 14940.20 141.75
7364 30.7694 14651.20 14503.70 140.10
7365 30.7731 14074.10 14200.90 136.37
7366 30.7769 13777.30 13995.30 135.26
7367 30.7806 13653.20 13868.50 135.14
7368 30.7844 13563.70 13785.90 134.33
7369 30.7881 13279.50 13732.50 133.43
7370 30.7919 13496.50 13693.70 134.93
7371 30.7957 13245.90 13664.60 133.18
7372 30.7994 13396.90 13642.20 132.33
7373 30.8032 13409.40 13623.50 133.86
7374 30.8069 13298.20 13608.40 133.36
7375 30.8107 13297.90 13595.30 133.06
7376 30.8145 13431.00 13584.10 135.00
7377 30.8182 13184.80 13574.70 131.93
7378 30.8220 13618.40 13566.10 135.70
7379 30.8257 13181.50 13558.80 133.64
7380 30.8295 13217.60 13552.00 133.46
7381 30.8332 13356.30 13546.00 133.79
7382 30.8370 13497.00 13540.40 134.60
7383 30.8408 13188.60 13535.30 133.14
7384 30.8445 13318.60 13530.60 133.99
7385 30.8483 13169.50 13526.20 133.60
7386 30.8520 13406.20 13522.10 133.94
7387 30.8558 13039.80 13518.20 132.98
7388 30.8596 13368.10 13514.50 134.34
7389 30.8633 13048.50 13511.10 132.11
7390 30.8671 13190.80 13507.70 133.71
7391 30.8708 13162.20 13504.50 133.39
7392 30.8746 13389.30 13501.40 134.70
7393 30.8783 13078.60 13498.50 132.72
7394 30.8821 13308.70 13495.50 134.29
7395 30.8859 13166.10 13492.70 132.04
7396 30.8896 13208.60 13490.00 133.56
7397 30.8934 13130.40 13487.30 133.41
7398 30.8971 13210.60 13484.80 132.63
7399 30.9009 13197.10 13482.20 133.10
7400 30.9047 13391.60 13479.60 134.04
7401 30.9084 13189.80 13477.20 133.89
7402 30.9122 13485.50 13474.80 134.66
7403 30.9159 13008.60 13472.40 132.43
7404 30.9197 13425.50 13470.10 133.91
7405 30.9234 13295.40 13467.80 133.40
7406 30.9272 13492.40 13465.50 135.54
7407 30.9310 13089.60 13463.20 132.95
7408 30.9347 13539.30 13461.00 134.90
7409 30.9385 13250.10 13458.80 132.91
7410 30.9422 13281.30 13456.60 133.98
7411 30.9460 13009.60 13454.40 132.50
7412 30.9497 13397.30 13452.30 134.86
7413 30.9535 13490.30 13450.10 135.22
7414 30.9573 13082.40 13448.00 132.82
7415 30.9610 13146.40 13445.90 133.27
7416 30.9648 13333.70 13443.80 133.72
7417 30.9685 13278.70 13441.70 133.69
7418 30.9723 13182.20 13439.60 133.05
7419 30.9761 13217.80 13437.50 133.17
7420 30.9798 13434.80 13435.50 134.43
7421 30.9836 13092.30 13433.40 132.70
7422 30.9873 13184.40 13431.40 133.52
7423 30.9911 13253.70 13429.40 133.80
7424 30.9948 13532.60 13427.40 135.86
7425 30.9986 13221.30 13425.30 133.49
7426 31.0024 13689.40 13423.30 137.18
7427 31.0061 13714.00 13421.30 137.07
7428 31.0099 13673.20 13419.30 135.66
7429 31.0136 13308.00 13417.40 134.22
7430 31.0174 13460.40 13415.40 135.11
7431 31.0211 13429.50 13413.40 134.63
7432 31.0249 13738.10 13411.40 135.60
7433 31.0287 13349.80 13409.40 133.91
7434 31.0324 13367.90 13407.50 135.01
7435 31.0362 13182.00 13405.50 133.57
7436 31.0399 13619.20 13403.60 136.15
7437 31.0437 13403.30 13401.60 135.31
7438 31.0474 13785.20 13399.70 137.12
7439 31.0512 13468.50 13397.80 134.88
7440 31.0550 13380.30 13395.80 134.67
7441 31.0587 13395.00 13393.90 133.41
7442 31.0625 13649.20 13392.00 135.70
7443 31.0662 13430.70 13390.10 134.58
7444 31.0700 13321.40 13388.10 133.71
7445 31.0737 13434.20 13386.20 135.24
7446 31.0775 13587.50 13384.30 136.08
7447 31.0813 13475.80 13382.40 134.49
7448 31.0850 13217.10 13380.50 133.09
7449 31.0888 13227.00 13378.50 133.91
7450 31.0925 13448.40 13376.70 134.03
7451 31.0963 13318.50 13374.70 135.01
7452 31.1001 13622.50 13372.80 135.01
7453 31.1038 13300.70 13370.90 134.56
7454 31.1076 13491.00 13369.00 134.69
7455 31.1113 13301.60 13367.20 133.43
7456 31.1151 13356.70 13365.20 134.78
7457 31.1188 13346.70 13363.40 133.91
7458 31.1226 13534.50 13361.50 135.45
7459 31.1264 12983.60 13359.60 132.25
7460 31.1301 13594.40 13357.70 135.68
7461 31.1339 13193.00 13355.80 133.05
7462 31.1376 13409.30 13354.00 134.48
7463 31.1414 13235.60 13352.00 133.52
7464 31.1451 13451.40 13350.20 134.35
7465 31.1489 13272.00 13346.50 133.23
7466 31.1527 13691.60 13344.70 135.82
7467 31.1564 13336.40 13342.80 134.24
7468 31.1602 13526.20 13341.00 135.92
7469 31.1639 13371.50 13339.20 134.65
7470 31.1677 13385.70 13337.30 135.04
7471 31.1714 13240.30 13335.50 133.75
7472 31.1752 13386.90 13333.60 133.85
7473 31.1790 13259.40 13331.80 133.67
7474 31.1827 13341.00 13330.00 135.08
7475 31.1865 13204.80 13328.10 131.60
7476 31.1902 13604.70 13326.30 135.94
7477 31.1940 13556.00 13324.50 134.42
7478 31.1977 13497.80 13322.70 135.39
7479 31.2015 12917.20 13320.80 131.88
7480 31.2053 13317.80 13319.00 133.32
7481 31.2090 13043.00 13317.10 132.16
7482 31.2128 13393.40 13315.30 133.52
7483 31.2165 12990.70 13313.50 131.79
7484 31.2203 13530.60 13311.60 134.69
7485 31.2240 13359.80 13309.80 134.17
7486 31.2278 13078.80 13308.00 132.66
7487 31.2315 13151.10 13306.20 133.09
7488 31.2353 13376.30 13304.40 133.90
7489 31.2391 13119.50 13302.50 132.94
7490 31.2428 13266.60 13300.70 133.66
7491 31.2466 13229.60 13298.90 133.95
7492 31.2503 13385.10 13297.10 133.93
7493 31.2541 12943.70 13295.20 131.13
7494 31.2578 13047.00 13293.40 133.05
7495 31.2616 13068.80 13291.60 131.83
7496 31.2654 13124.40 13289.80 133.43
7497 31.2691 13129.70 13288.00 132.67
7498 31.2729 13086.60 13286.10 132.21
7499 31.2766 13158.90 13284.30 132.71
7500 31.2804 13330.30 13282.50 133.09
7501 31.2841 12935.10 13280.70 131.88
7502 31.2879 13359.40 13278.90 134.58
7503 31.2917 12871.40 13277.00 130.48
7504 31.2954 13047.10 13275.20 132.45
7505 31.2992 13018.20 13273.40 132.07
7506 31.3029 13039.90 13271.60 131.88
7507 31.3067 12773.70 13269.80 131.11
7508 31.3104 13192.70 13268.00 133.31
7509 31.3142 13005.50 13266.20 132.86
7510 31.3180 13036.50 13264.40 132.05
7511 31.3217 13181.00 13262.60 133.55
7512 31.3255 13051.50 13260.70 133.32
7513 31.3292 12979.40 13259.00 132.80
7514 31.3330 13105.70 13257.10 132.92
7515 31.3367 12995.60 13255.40 131.70
7516 31.3405 13224.90 13253.50 134.19
7517 31.3442 12924.00 13251.80 131.97
7518 31.3480 13177.40 13249.90 133.63
7519 31.3518 12956.00 13248.10 130.94
7520 31.3555 12930.30 13246.30 131.77
7521 31.3593 12998.30 13244.50 132.45
7522 31.3630 13274.70 13242.70 133.73
7523 31.3668 12764.40 13240.90 131.32
7524 31.3705 13140.50 13239.10 133.64
7525 31.3743 12949.30 13237.30 132.90
7526 31.3781 13147.60 13235.50 131.32
7527 31.3818 13067.80 13233.70 133.34
7528 31.3856 13231.20 13231.90 133.25
7529 31.3893 13036.90 13230.20 132.40
7530 31.3931 13098.10 13228.30 132.99
7531 31.3968 12847.40 13226.60 132.25
7532 31.4006 13203.00 13224.80 134.23
7533 31.4043 12962.80 13223.00 132.54
7534 31.4081 12982.80 13221.20 132.21
7535 31.4119 13136.00 13219.40 132.58
7536 31.4156 13166.20 13217.60 133.00
7537 31.4194 13037.50 13215.80 133.62
7538 31.4231 13147.70 13214.00 133.04
7539 31.4269 12677.10 13212.20 131.13
7540 31.4306 13179.20 13210.50 133.70
7541 31.4344 12739.00 13208.70 131.54
7542 31.4382 13196.00 13206.90 133.78
7543 31.4419 13006.90 13205.10 132.26
7544 31.4457 13152.90 13203.30 133.02
7545 31.4494 12882.10 13201.60 132.22
7546 31.4532 13121.00 13199.80 132.90
7547 31.4569 12901.00 13198.00 132.36
7548 31.4607 13204.60 13196.20 131.84
7549 31.4644 12995.10 13194.50 131.33
7550 31.4682 12925.80 13192.70 132.64
7551 31.4720 13001.50 13190.90 132.60
7552 31.4757 12950.80 13189.10 132.03
7553 31.4795 12822.00 13187.30 131.46
7554 31.4832 13140.80 13185.60 133.51
7555 31.4870 12864.80 13183.80 130.80
7556 31.4907 13189.90 13182.00 133.20
7557 31.4945 12860.30 13180.20 131.97
7558 31.4983 13194.40 13178.40 133.95
7559 31.5020 12936.70 13176.70 131.81
7560 31.5058 12980.80 13174.90 131.91
7561 31.5095 13157.70 13173.20 133.34
7562 31.5133 12920.60 13171.40 132.98
7563 31.5170 12988.50 13169.60 132.89
7564 31.5208 13130.30 13167.90 133.41
7565 31.5245 13120.10 13166.10 134.75
7566 31.5283 13422.00 13164.30 136.14
7567 31.5321 13021.40 13162.60 132.18
7568 31.5358 13122.50 13160.80 133.03
7569 31.5396 13017.40 13159.00 133.32
7570 31.5433 13077.10 13157.30 133.27
7571 31.5471 13059.60 13155.50 131.33
7572 31.5508 13093.80 13153.80 133.66
7573 31.5546 12995.00 13152.00 130.88
7574 31.5583 13107.60 13150.30 133.32
7575 31.5621 13077.60 13148.50 133.20
7576 31.5659 13259.80 13146.70 133.22
7577 31.5696 12934.00 13145.00 132.32
7578 31.5734 13160.90 13143.20 134.78
7579 31.5771 13181.90 13141.50 133.46
7580 31.5809 12993.30 13139.70 133.45
7581 31.5846 13148.20 13138.00 132.77
7582 31.5884 13290.00 13136.20 133.66
7583 31.5921 13039.50 13134.50 132.89
7584 31.5959 13047.90 13132.70 133.26
7585 31.5997 13013.40 13131.00 132.24
7586 31.6034 13264.00 13129.30 134.28
7587 31.6072 12850.00 13127.50 131.64
7588 31.6109 13355.90 13125.80 133.05
7589 31.6147 12977.80 13124.00 132.87
7590 31.6184 13272.20 13122.30 134.66
7591 31.6222 13060.90 13120.50 133.69
7592 31.6259 13059.10 13118.80 133.07
7593 31.6297 12839.90 13117.10 132.08
7594 31.6334 13078.80 13115.30 131.49
7595 31.6372 12997.00 13113.60 132.86
7596 31.6410 13238.60 13111.80 132.35
7597 31.6447 12889.60 13110.10 132.04
7598 31.6485 12978.70 13108.40 133.02
7599 31.6522 12939.00 13106.60 131.25
7600 31.6560 13154.50 13104.90 134.04
7601 31.6597 13008.60 13103.20 132.73
7602 31.6635 13265.50 13101.40 133.40
7603 31.6672 12969.10 13099.70 132.31
7604 31.6710 13137.60 13098.00 133.17
7605 31.6748 13033.60 13096.20 132.65
7606 31.6785 12890.20 13094.50 132.08
7607 31.6823 12858.00 13092.80 131.71
7608 31.6860 12867.10 13091.10 132.24
7609 31.6898 12549.60 13089.30 129.14
7610 31.6935 13196.10 13087.60 133.84
7611 31.6973 12966.90 13085.90 131.07
7612 31.7010 12991.20 13084.20 132.84
7613 31.7048 13046.50 13082.50 132.64
7614 31.7085 13021.30 13080.80 132.07
7615 31.7123 13025.00 13079.00 133.18
7616 31.7161 13147.70 13077.30 133.10
7617 31.7198 12873.70 13075.60 131.57
7618 31.7236 12853.70 13073.90 131.73
7619 31.7273 13053.10 13072.20 132.56
7620 31.7311 13182.10 13070.40 132.20
7621 31.7348 12870.40 13068.70 131.60
7622 31.7386 13108.40 13067.00 133.66
7623 31.7423 13166.50 13065.30 132.87
7624 31.7461 13099.20 13063.60 133.05
7625 31.7499 13321.30 13061.90 134.75
7626 31.7536 13333.60 13060.20 134.03
7627 31.7574 12865.50 13058.40 131.70
7628 31.7611 13166.10 13056.80 133.75
7629 31.7649 13027.60 13055.00 132.49
7630 31.7686 13080.50 13053.40 133.10
7631 31.7724 12968.30 13051.60 130.41
7632 31.7761 13147.40 13050.00 133.31
7633 31.7799 13083.80 13048.20 133.22
7634 31.7836 13289.20 13046.60 134.45
7635 31.7874 13152.80 13044.80 131.07
7636 31.7912 13261.60 13043.10 134.44
7637 31.7949 12985.80 13041.40 132.13
7638 31.7987 13079.00 13039.70 132.60
7639 31.8024 12932.50 13038.10 132.32
7640 31.8062 13211.50 13036.30 133.70
7641 31.8099 12932.10 13034.70 131.92
7642 31.8137 12898.80 13033.00 132.32
7643 31.8174 12909.30 13031.30 131.99
7644 31.8212 12859.80 13029.60 130.77
7645 31.8249 12837.80 13027.90 131.06
7646 31.8287 13028.50 13026.20 133.07
7647 31.8324 12796.30 13024.50 131.47
7648 31.8362 13178.40 13022.80 133.22
7649 31.8400 12722.40 13021.10 131.38
7650 31.8437 13023.70 13019.50 132.33
7651 31.8475 13018.80 13017.80 131.30
7652 31.8512 12966.50 13016.10 132.87
7653 31.8550 12956.30 13014.40 130.99
7654 31.8587 13131.40 13012.70 133.81
7655 31.8625 12887.70 13011.00 131.84
7656 31.8662 13000.90 13009.40 133.28
7657 31.8700 12770.80 13007.70 131.51
7658 31.8737 13027.60 13006.00 132.38
7659 31.8775 12794.90 13004.30 130.64
7660 31.8813 13021.30 13002.60 132.92
7661 31.8850 12719.90 13001.00 130.92
7662 31.8888 13177.60 12999.30 132.66
7663 31.8925 12890.60 12997.70 131.02
7664 31.8963 13355.10 12996.00 135.05
7665 31.9000 12912.30 12994.30 131.15
7666 31.9038 12896.30 12992.60 131.46
7667 31.9075 12885.70 12991.00 131.12
7668 31.9113 12954.20 12989.30 132.48
7669 31.9150 12821.60 12987.70 131.85
7670 31.9188 13204.20 12986.00 133.27
7671 31.9225 12724.20 12984.30 131.79
7672 31.9263 13172.10 12982.60 134.08
7673 31.9301 12955.50 12981.00 131.66
7674 31.9338 13116.10 12979.30 133.58
7675 31.9376 12695.60 12977.60 131.15
7676 31.9413 12921.20 12976.00 130.12
7677 31.9451 12757.20 12974.30 130.77
7678 31.9488 12970.80 12972.70 131.95
7679 31.9526 12970.90 12971.00 131.69
7680 31.9563 12856.00 12969.40 131.86
7681 31.9601 12814.80 12967.70 131.42
7682 31.9638 12855.40 12966.10 131.63
7683 31.9676 12887.00 12964.40 131.67
7684 31.9713 12862.80 12962.80 131.30
7685 31.9751 12948.90 12961.10 132.05
7686 31.9788 13174.40 12959.50 131.92
7687 31.9826 12717.60 12957.80 130.81
7688 31.9864 12813.40 12956.20 130.20
7689 31.9881 13018.80 12955.40 132.51
7690 31.9919 13166.10 12953.80 133.21
7691 31.9956 12863.90 12952.10 131.86
7692 31.9994 13045.80 12950.50 133.94
7693 32.0031 12877.20 12948.80 132.47
7694 32.0069 13033.30 12947.20 133.07
7695 32.0106 13033.20 12945.60 134.47
7696 32.0144 13109.40 12943.90 134.55
7697 32.0181 12857.90 12942.30 131.46
7698 32.0219 12960.50 12940.60 132.32
7699 32.0257 12815.70 12939.00 132.36
7700 32.0294 13167.20 12937.40 134.03
7701 32.0332 13012.00 12935.70 131.28
7702 32.0369 13006.70 12934.10 133.38
7703 32.0407 12705.50 12932.50 129.43
7704 32.0444 13175.70 12930.90 133.94
7705 32.0482 12826.90 12929.20 131.97
7706 32.0519 13258.20 12927.60 133.45
7707 32.0557 12925.20 12926.00 132.50
7708 32.0595 12940.10 12924.30 133.72
7709 32.0632 13103.60 12922.70 133.24
7710 32.0670 13282.00 12921.10 135.37
7711 32.0707 12903.50 12919.50 131.58
7712 32.0745 13239.70 12917.80 133.60
7713 32.0782 13112.20 12916.20 133.55
7714 32.0820 13274.60 12914.60 134.81
7715 32.0857 13029.30 12913.00 132.56
7716 32.0895 13042.00 12911.40 133.23
7717 32.0933 12900.00 12909.70 132.16
7718 32.0970 13424.50 12908.10 133.67
7719 32.1008 12977.00 12906.50 133.09
7720 32.1045 12978.40 12904.90 133.18
7721 32.1083 12923.60 12903.30 133.12
7722 32.1120 13023.80 12901.70 133.10
7723 32.1158 12845.60 12900.10 132.34
7724 32.1195 13160.00 12898.50 132.19
7725 32.1233 12884.90 12896.90 132.43
7726 32.1271 12842.40 12895.20 130.30
7727 32.1308 12804.60 12893.60 131.77
7728 32.1346 12914.20 12892.00 132.87
7729 32.1383 12951.00 12890.40 131.54
7730 32.1421 12821.60 12888.80 132.32
7731 32.1458 12850.00 12887.20 132.03
7732 32.1496 12898.80 12885.60 131.51
7733 32.1533 12863.80 12884.00 131.92
7734 32.1571 12957.50 12882.40 132.36
7735 32.1608 12665.30 12880.90 130.73
7736 32.1646 12992.50 12879.20 132.90
7737 32.1684 12812.10 12877.60 131.67
7738 32.1721 12680.70 12876.10 131.37
7739 32.1759 12822.50 12874.50 130.96
7740 32.1796 13151.40 12872.90 133.81
7741 32.1834 12881.10 12871.30 130.80
7742 32.1871 12880.00 12869.70 132.42
7743 32.1909 12824.20 12868.10 131.57
7744 32.1946 12700.70 12866.50 130.43
7745 32.1984 12991.10 12864.90 133.21
7746 32.2021 12972.10 12863.40 132.31
7747 32.2059 12940.70 12861.80 132.19
7748 32.2097 12823.70 12860.20 131.78
7749 32.2134 12571.70 12858.60 129.97
7750 32.2172 12831.40 12857.00 130.41
7751 32.2203 12918.70 12855.70 131.91
7752 32.2240 12869.20 12854.20 131.72
7753 32.2278 12708.60 12852.60 130.02
7754 32.2315 12858.80 12851.00 132.49
7755 32.2353 12554.50 12849.40 130.93
7756 32.2390 12664.20 12847.90 131.20
7757 32.2428 12708.80 12846.30 132.01
7758 32.2465 12784.60 12844.70 131.79
7759 32.2503 12568.20 12843.10 130.80
7760 32.2540 12836.10 12841.60 132.73
7761 32.2578 12749.90 12840.00 131.71
7762 32.2616 13151.70 12838.40 133.81
7763 32.2653 12766.40 12836.90 132.20
7764 32.2691 13253.30 12835.30 134.83
7765 32.2728 12718.00 12833.80 131.77
7766 32.2766 13141.60 12832.20 134.27
7767 32.2803 12651.80 12830.60 131.65
7768 32.2841 13024.70 12829.10 133.55
7769 32.2878 12645.40 12827.50 131.42
7770 32.2916 12738.40 12826.00 132.12
7771 32.2953 12671.30 12824.40 131.54
7772 32.2991 13022.40 12822.80 133.33
7773 32.3028 12885.30 12821.30 133.31
7774 32.3066 12919.70 12819.70 132.70
7775 32.3104 12718.90 12818.20 131.29
7776 32.3141 13144.90 12816.60 133.73
7777 32.3179 12912.60 12815.10 133.06
7778 32.3216 13033.80 12813.60 133.89
7779 32.3254 12876.80 12812.00 132.99
7780 32.3291 12968.80 12810.50 133.61
7781 32.3329 12499.90 12808.90 130.16
7782 32.3366 12896.90 12807.40 131.85
7783 32.3404 12818.90 12805.80 132.62
7784 32.3441 12862.70 12804.30 132.82
7785 32.3479 12761.90 12802.70 132.75
7786 32.3516 12958.40 12801.20 133.26
7787 32.3554 12712.20 12799.70 131.80
7788 32.3592 13077.60 12798.10 134.11
7789 32.3629 12739.50 12796.60 132.21
7790 32.3667 12867.40 12795.10 132.56
7791 32.3704 12776.20 12793.50 131.98
7792 32.3742 13117.60 12792.00 133.96
7793 32.3779 12856.40 12790.50 132.56
7794 32.3817 12994.90 12788.90 132.67
7795 32.3854 12800.00 12787.40 131.80
7796 32.3892 13012.70 12785.90 133.80
7797 32.3929 12742.80 12784.40 131.72
7798 32.3967 12942.40 12782.80 133.14
7799 32.4005 12543.30 12781.30 130.94
7800 32.4042 13190.80 12779.80 134.68
7801 32.4080 12787.30 12778.30 132.24
7802 32.4117 12840.40 12776.80 132.10
7803 32.4155 12827.40 12775.20 132.30
7804 32.4192 12823.70 12773.70 132.88
7805 32.4230 12608.80 12772.20 131.51
7806 32.4267 12927.60 12770.70 132.29
7807 32.4305 12848.00 12769.20 132.62
7808 32.4342 13093.40 12767.70 134.16
7809 32.4380 12912.20 12766.20 133.59
7810 32.4418 13163.40 12764.60 134.51
7811 32.4455 12783.50 12763.10 132.79
7812 32.4493 13205.60 12761.60 135.06
7813 32.4530 13103.10 12760.10 133.05
7814 32.4568 13242.10 12758.60 135.07
7815 32.4605 12847.90 12757.10 132.60
7816 32.4643 13142.40 12755.60 134.28
7817 32.4680 13089.20 12754.10 133.73
7818 32.4718 13469.40 12752.60 136.18
7819 32.4756 12879.70 12751.10 133.23
7820 32.4793 13239.90 12749.60 135.01
7821 32.4831 13333.80 12748.10 135.94
7822 32.4868 13479.40 12746.60 136.01
7823 32.4906 13210.80 12745.10 134.83
7824 32.4943 13392.80 12743.60 134.76
7825 32.4981 13216.70 12742.10 135.55
7826 32.5018 13321.40 12740.70 134.71
7827 32.5056 13153.50 12739.20 134.62
7828 32.5093 13162.90 12737.70 134.41
7829 32.5131 13009.00 12736.20 133.18
7830 32.5169 13086.60 12734.70 133.65
7831 32.5206 12939.60 12733.20 133.80
7832 32.5244 12912.90 12731.70 133.32
7833 32.5281 12984.70 12730.30 132.84
7834 32.5319 13210.90 12728.80 135.26
7835 32.5356 12924.10 12727.30 133.42
7836 32.5394 12993.20 12725.80 133.21
7837 32.5431 12726.70 12724.40 131.51
7838 32.5469 12971.90 12722.90 132.18
7839 32.5507 12728.70 12721.40 131.95
7840 32.5544 12817.80 12719.90 132.19
7841 32.5582 12964.20 12718.40 133.80
7842 32.5619 13030.40 12717.00 133.39
7843 32.5657 12839.20 12715.50 132.31
7844 32.5694 12893.50 12714.00 132.39
7845 32.5732 12783.10 12712.60 132.46
7846 32.5769 12929.50 12711.10 132.20
7847 32.5807 12637.40 12709.60 130.64
7848 32.5844 12849.10 12708.20 133.17
7849 32.5882 12720.40 12706.70 132.69
7850 32.5920 12938.90 12705.20 133.00
7851 32.5957 12762.70 12703.80 132.56
7852 32.5995 13046.50 12702.30 134.08
7853 32.6032 12802.30 12700.90 132.12
7854 32.6070 12752.70 12699.40 132.10
7855 32.6107 12788.60 12698.00 132.18
7856 32.6145 12873.50 12696.50 132.95
7857 32.6182 12658.80 12695.10 131.57
7858 32.6220 13041.20 12693.60 133.56
7859 32.6258 12608.10 12692.10 130.45
7860 32.6295 12983.20 12690.70 133.46
7861 32.6333 12806.30 12689.30 132.64
7862 32.6370 12926.90 12687.80 132.98
7863 32.6408 12734.50 12686.40 131.82
7864 32.6445 12806.80 12684.90 131.93
7865 32.6483 12764.80 12683.50 131.71
7866 32.6520 12855.90 12682.10 132.43
7867 32.6558 12545.80 12680.60 131.25
7868 32.6596 13026.40 12679.20 133.73
7869 32.6633 12711.50 12677.70 132.34
7870 32.6671 12854.00 12676.30 132.86
7871 32.6708 12629.20 12674.90 131.16
7872 32.6746 12885.80 12673.40 132.48
7873 32.6783 12571.50 12672.00 132.45
7874 32.6821 13021.10 12670.60 133.46
7875 32.6859 12785.10 12669.10 131.27
7876 32.6896 12819.00 12667.70 131.61
7877 32.6934 12763.50 12666.30 131.77
7878 32.6971 12883.70 12664.90 131.88
7879 32.7009 12643.90 12663.40 129.83
7880 32.7046 12995.40 12662.00 133.21
7881 32.7084 12608.60 12660.60 130.90
7882 32.7121 12652.20 12659.20 130.72
7883 32.7159 12766.20 12657.70 131.21
7884 32.7197 12763.40 12656.30 131.47
7885 32.7234 12564.70 12654.90 130.14
7886 32.7272 13016.30 12653.50 133.02
7887 32.7309 12782.00 12652.10 132.10
7888 32.7347 12935.80 12650.70 131.04
7889 32.7384 12723.40 12649.30 131.35
7890 32.7422 12997.50 12647.80 132.98
7891 32.7459 12768.40 12646.40 131.94
7892 32.7497 12768.00 12645.00 131.99
7893 32.7535 12602.10 12643.60 130.96
7894 32.7572 13232.00 12642.20 134.32
7895 32.7610 12768.10 12640.80 131.11
7896 32.7647 12878.50 12639.40 132.44
7897 32.7685 12857.30 12638.00 133.05
7898 32.7722 13069.40 12636.60 132.47
7899 32.7760 12902.70 12635.20 133.05
7900 32.7798 12967.20 12633.80 132.83
7901 32.7835 12600.20 12632.40 130.16
7902 32.7873 12698.50 12631.00 131.27
7903 32.7910 12791.40 12629.60 131.28
7904 32.7948 12971.90 12628.20 132.07
7905 32.7985 12763.60 12626.80 132.16
7906 32.8023 12800.10 12625.40 131.64
7907 32.8060 12756.70 12624.10 132.33
7908 32.8098 12874.00 12622.70 132.44
7909 32.8136 12665.80 12621.30 130.88
7910 32.8173 12902.60 12619.90 131.72
7911 32.8211 12777.40 12618.50 131.66
7912 32.8248 12952.40 12617.10 132.92
7913 32.8286 12849.40 12615.70 132.23
7914 32.8323 12995.90 12614.40 133.18
7915 32.8361 12593.90 12613.00 130.79
7916 32.8399 12924.10 12611.60 132.79
7917 32.8436 12699.70 12610.20 131.37
7918 32.8474 12987.50 12608.80 132.32
7919 32.8511 12820.20 12607.50 131.31
7920 32.8549 12959.00 12606.10 132.28
7921 32.8586 12876.20 12604.80 131.68
7922 32.8624 12861.70 12603.40 132.11
7923 32.8661 12802.60 12602.00 132.52
7924 32.8699 13130.80 12600.60 133.92
7925 32.8737 12723.40 12599.30 131.46
7926 32.8774 12797.10 12597.90 131.44
7927 32.8812 12871.30 12596.50 132.57
7928 32.8849 13125.40 12595.20 134.29
7929 32.8887 12706.90 12593.80 131.66
7930 32.8924 12939.70 12592.50 133.36
7931 32.8962 12814.60 12591.10 132.51
7932 32.9000 12887.60 12589.70 132.21
7933 32.9037 12736.50 12588.40 130.37
7934 32.9075 12990.60 12587.00 133.19
7935 32.9112 12829.80 12585.70 132.40
7936 32.9150 12950.10 12584.30 133.10
7937 32.9187 12710.70 12583.00 131.62
7938 32.9225 13120.70 12581.60 134.37
7939 32.9263 12718.90 12580.30 131.50
7940 32.9300 12724.90 12579.00 131.27
7941 32.9338 13052.80 12577.60 132.07
7942 32.9375 12940.70 12576.30 132.75
7943 32.9413 12845.60 12574.90 132.07
7944 32.9450 12959.30 12573.60 132.75
7945 32.9488 12745.10 12572.20 132.49
7946 32.9526 13167.30 12570.90 134.05
7947 32.9563 12723.20 12569.60 130.81
7948 32.9601 13013.90 12568.20 133.60
7949 32.9638 12909.10 12566.90 132.75
7950 32.9676 13066.90 12565.60 133.81
7951 32.9713 12672.40 12564.30 131.93
7952 32.9751 13137.20 12562.90 133.65
7953 32.9789 12853.80 12561.60 132.72
7954 32.9826 13122.20 12560.30 134.29
7955 32.9864 12974.30 12558.90 133.82
7956 32.9901 12977.10 12557.60 133.42
7957 32.9939 12895.80 12556.30 132.43
7958 32.9976 13083.80 12555.00 134.60
7959 33.0014 13013.80 12553.60 134.39
7960 33.0052 13109.60 12552.30 133.81
7961 33.0089 12725.20 12551.00 132.35
7962 33.0127 12998.80 12549.70 133.82
7963 33.0164 12964.40 12548.40 133.30
7964 33.0202 13207.10 12547.00 134.88
7965 33.0239 12857.80 12545.80 132.38
7966 33.0277 13242.00 12544.40 134.41
7967 33.0315 12848.90 12543.10 132.88
7968 33.0352 13313.70 12541.80 134.87
7969 33.0390 13130.10 12540.50 134.71
7970 33.0427 13185.60 12539.20 134.73
7971 33.0465 12903.60 12537.90 133.16
7972 33.0502 13284.50 12536.60 135.85
7973 33.0540 13212.70 12535.30 135.05
7974 33.0578 13239.30 12534.00 135.34
7975 33.0615 12935.30 12532.70 133.61
7976 33.0653 13192.80 12531.40 134.85
7977 33.0690 13029.90 12530.10 133.60
7978 33.0728 13317.50 12972.80 134.79
7979 33.0765 13213.50 12979.60 134.56
7980 33.0803 13354.30 12986.70 135.91
7981 33.0841 13424.00 12994.20 136.18
7982 33.0878 13459.90 13001.60 135.04
7983 33.0916 13060.60 13009.50 134.44
7984 33.0953 13428.70 13017.50 135.54
7985 33.0991 13200.10 13026.00 135.79
7986 33.1028 13231.50 13034.50 135.37
7987 33.1066 13165.20 13043.60 134.92
7988 33.1104 13155.30 13052.90 134.20
7989 33.1141 13187.90 13062.40 134.72
7990 33.1179 13557.30 13072.40 137.06
7991 33.1216 13377.90 13082.50 136.22
7992 33.1254 13444.40 13093.30 136.14
7993 33.1291 13503.30 13104.10 136.48
7994 33.1329 13489.10 13115.60 136.51
7995 33.1367 13228.80 13127.60 134.38
7996 33.1404 13664.60 13139.70 137.03
7997 33.1442 13225.60 13152.50 135.16
7998 33.1479 13716.20 13379.50 138.06
7999 33.1517 13247.20 13397.30 135.58
8000 33.1554 13637.80 13415.20 137.63
8001 33.1592 13452.10 13434.30 137.55
8002 33.1630 13591.10 13454.00 137.71
8003 33.1667 13420.00 13473.90 136.68
8004 33.1705 13751.00 13495.10 137.57
8005 33.1742 13631.30 13516.50 137.19
8006 33.1780 13996.80 13539.40 137.65
8007 33.1818 13606.30 13563.00 137.02
8008 33.1855 13667.40 13587.00 137.59
8009 33.1893 13647.40 13612.50 137.85
8010 33.1930 13899.50 13638.30 138.79
8011 33.1968 13896.10 13665.80 139.27
8012 33.2005 13719.50 13693.70 138.00
8013 33.2043 13573.10 13723.50 137.07
8014 33.2081 13889.90 13754.50 137.27
8015 33.2118 13815.60 13785.90 137.04
8016 33.2156 13972.20 13819.50 139.27
8017 33.2193 13764.70 13853.60 137.77
8018 33.2231 13976.40 13890.20 138.57
8019 33.2268 13862.30 13927.20 138.67
8020 33.2306 14044.10 13967.00 137.80
8021 33.2344 13805.40 14008.50 138.26
8022 33.2381 14100.50 14050.80 140.94
8023 33.2419 13975.40 14096.20 138.87
8024 33.2456 14197.40 14142.30 140.32
8025 33.2494 14168.40 14192.00 140.64
8026 33.2532 14315.50 14244.10 140.67
8027 33.2569 14047.00 14297.20 139.37
8028 33.2607 14312.60 14354.40 141.09
8029 33.2644 14426.30 14413.00 141.67
8030 33.2682 14500.40 14476.00 142.47
8031 33.2719 14570.00 14540.70 142.10
8032 33.2757 14657.30 14610.40 142.09
8033 33.2795 14716.40 14684.00 143.56
8034 33.2832 14606.00 14759.50 140.76
8035 33.2870 14668.70 14841.30 143.33
8036 33.2907 15034.40 14925.30 144.39
8037 33.2945 15009.80 15016.70 144.74
8038 33.2982 15117.50 15110.70 145.48
8039 33.3020 15256.30 15212.90 146.24
8040 33.3058 15178.20 15321.50 146.01
8041 33.3095 15143.20 15433.60 145.78
8042 33.3133 15486.30 15556.10 147.38
8043 33.3170 15334.20 15682.90 147.12
8044 33.3208 15829.00 15821.80 149.70
8045 33.3246 15416.80 15970.00 147.82
8046 33.3283 16110.20 16124.40 150.76
8047 33.3321 15942.40 16293.80 150.05
8048 33.3358 16377.90 16470.90 152.29
8049 33.3396 16151.70 16666.00 152.05
8050 33.3433 17018.90 16870.60 155.19
8051 33.3471 16772.20 17096.90 154.74
8052 33.3509 17050.90 17341.50 155.61
8053 33.3546 16980.20 17599.10 156.08
8054 33.3584 17735.80 17886.10 159.51
8055 33.3621 17680.80 18189.90 159.10
8056 33.3659 18490.50 18529.50 163.56
8057 33.3697 18300.10 18901.20 162.19
8058 33.3734 18801.40 19297.40 164.97
8059 33.3772 18948.50 19744.70 165.99
8060 33.3809 19885.10 20224.40 170.71
8061 33.3847 19954.30 20769.50 171.08
8062 33.3884 20821.20 21358.10 174.97
8063 33.3922 20881.40 22032.10 175.47
8064 33.3960 21729.20 22786.50 180.35
8065 33.3997 22334.90 23612.90 182.04
8066 33.4035 23449.90 24571.10 188.63
8067 33.4072 24150.90 25629.50 191.65
8068 33.4110 25719.10 26871.30 199.27
8069 33.4148 26547.20 28300.60 203.43
8070 33.4185 28142.10 29909.20 209.07
8071 33.4223 29770.30 31836.00 217.35
8072 33.4260 31769.30 34041.00 225.72
8073 33.4298 34263.00 36723.30 236.35
8074 33.4335 37654.90 39855.80 248.93
8075 33.4373 40912.30 43753.20 263.85
8076 33.4411 46508.80 48571.70 285.29
8077 33.4448 51624.20 54475.90 303.82
8078 33.4486 61117.60 62378.40 337.77
8079 33.4523 71904.80 72872.30 375.02
8080 33.4561 88703.50 88449.10 430.88
8081 33.4599 109914.00 112173.00 494.21
8082 33.4636 145245.00 147810.00 597.84
8083 33.4674 191058.00 203441.00 720.66
8084 33.4711 268543.00 281650.00 910.87
8085 33.4749 367365.00 389141.00 1148.47
8086 33.4786 505435.00 513742.00 1448.42
8087 33.4824 627122.00 636709.00 1714.87
8088 33.4862 718400.00 703438.00 1892.20
8089 33.4899 697986.00 674438.00 1861.99
8090 33.4937 604756.00 568287.00 1666.52
8091 33.4974 462161.00 442382.00 1352.08
8092 33.5012 347543.00 326498.00 1101.44
8093 33.5050 249537.00 236986.00 866.77
8094 33.5087 191229.00 175706.00 716.50
8095 33.5125 146747.00 134429.00 602.20
8096 33.5162 123002.00 109462.00 531.71
8097 33.5200 103517.00 94124.80 474.18
8098 33.5237 95856.50 85759.20 450.73
8099 33.5275 89185.10 82013.80 431.50
8100 33.5313 90896.60 82704.50 436.56
8101 33.5350 93538.10 88385.80 443.76
8102 33.5388 104876.00 101233.00 477.76
8103 33.5425 121541.00 123100.00 530.20
8104 33.5463 152852.00 157842.00 619.13
8105 33.5501 194652.00 206222.00 724.54
8106 33.5538 257227.00 263674.00 885.71
8107 33.5576 313735.00 321586.00 1026.61
8108 33.5613 361988.00 354220.00 1131.92
8109 33.5651 353950.00 342204.00 1118.34
8110 33.5689 312953.00 291425.00 1016.55
8111 33.5726 238470.00 229710.00 838.36
8112 33.5764 176835.00 171908.00 682.76
8113 33.5801 125204.00 127639.00 539.63
8114 33.5839 93495.40 95023.40 444.17
8115 33.5876 72146.60 73541.70 375.52
8116 33.5914 59096.30 59094.80 329.76
8117 33.5952 48186.70 49622.00 288.24
8118 33.5989 42545.70 43316.30 271.24
8119 33.6027 36877.00 38628.10 248.04
8120 33.6064 34558.20 35152.80 237.79
8121 33.6102 31170.00 32321.80 223.44
8122 33.6140 29230.30 30024.50 215.15
8123 33.6177 27293.70 28171.00 207.03
8124 33.6215 26204.60 26574.20 201.22
8125 33.6252 24369.90 25252.60 192.24
8126 33.6290 23801.10 24090.30 190.10
8127 33.6328 22659.40 23086.40 184.71
8128 33.6365 22167.60 22234.60 182.29
8129 33.6403 21504.40 21467.70 181.66
8130 33.6440 20991.70 20807.70 173.07
8131 33.6478 20292.30 20206.50 169.10
8132 33.6515 20318.10 19683.20 170.22
8133 33.6553 19264.20 19201.60 165.21
8134 33.6591 19291.10 18767.90 165.10
8135 33.6628 18580.10 18386.10 160.92
8136 33.6666 18511.10 18029.70 160.55
8137 33.6703 18027.90 17713.70 158.22
8138 33.6741 17866.60 17416.70 157.80
8139 33.6779 17617.90 17144.60 156.32
8140 33.6816 17444.20 16900.90 155.50
8141 33.6854 17170.40 16670.30 154.13
8142 33.6891 16927.10 16462.50 153.13
8143 33.6929 16500.10 16264.90 150.12
8144 33.6967 16626.00 16081.60 151.24
8145 33.7004 16077.80 15915.40 148.34
8146 33.7042 16294.40 15756.40 149.71
8147 33.7079 15839.90 15611.60 147.53
8148 33.7117 16055.70 15472.60 148.35
8149 33.7155 15653.60 15342.20 145.78
8150 33.7192 15781.50 15223.20 147.16
8151 33.7230 15436.50 15108.20 145.15
8152 33.7267 15608.90 15002.80 146.12
8153 33.7305 15187.50 14900.60 144.35
8154 33.7343 15281.40 14804.30 143.76
8155 33.7380 15093.30 14715.70 143.51
8156 33.7418 15307.70 14629.50 144.37
8157 33.7455 14889.80 14549.90 141.83
8158 33.7493 15015.20 14472.50 143.31
8159 33.7530 14957.20 14400.90 142.77
8160 33.7568 14929.70 14331.00 142.64
8161 33.7606 14622.20 14264.50 140.73
8162 33.7643 14723.80 14202.90 141.64
8163 33.7681 14533.10 14142.60 140.60
8164 33.7718 14736.10 14086.50 141.75
8165 33.7756 14440.80 14031.60 139.67
8166 33.7794 14690.90 13979.10 141.17
8167 33.7831 14515.00 13930.20 140.33
8168 33.7869 14395.50 13882.20 139.46
8169 33.7906 14264.50 13837.40 139.10
8170 33.7944 14485.00 13793.30 139.81
8171 33.7982 14287.10 13751.00 138.77
8172 33.8019 14292.20 13711.50 139.29
8173 33.8057 14176.70 13672.50 137.76
8174 33.8094 14555.40 13636.00 140.78
8175 33.8132 13920.40 13600.00 136.68
8176 33.8170 14364.80 13565.40 139.59
8177 33.8207 13677.60 13532.90 135.43
8178 33.8245 14080.20 13500.80 138.09
8179 33.8282 13921.90 13470.70 137.12
8180 33.8320 14103.10 13440.90 138.29
8181 33.8357 13926.50 13412.80 136.77
8182 33.8395 13996.60 13385.00 137.21
8183 33.8433 13999.30 13358.20 137.63
8184 33.8470 13809.00 13333.00 136.86
8185 33.8508 13832.00 13307.90 136.25
8186 33.8545 13775.80 13284.30 136.48
8187 33.8583 13696.60 13260.90 135.07
8188 33.8621 13757.50 13238.10 135.80
8189 33.8658 13439.50 13216.80 134.51
8190 33.8696 13762.00 13195.50 136.63
8191 33.8733 13153.50 13175.40 132.44
8192 33.8771 13378.10 13155.40 133.82
8193 33.8809 13200.40 13136.00 132.70
8194 33.8846 13503.50 13117.70 134.96
8195 33.8884 13264.90 13099.40 133.56
8196 33.8921 13161.70 13082.20 133.09
8197 33.8959 13186.90 13064.90 133.19
8198 33.8997 13251.50 13048.20 133.49
8199 33.9034 12851.10 12592.90 130.88
8200 33.9072 13466.90 12585.00 134.85
8201 33.9109 13163.00 12577.50 133.28
8202 33.9147 13403.50 12570.00 134.74
8203 33.9185 12981.40 12562.80 131.35
8204 33.9222 13283.50 12555.90 134.34
8205 33.9260 13056.90 12549.00 131.77
8206 33.9297 13049.70 12542.50 132.71
8207 33.9335 13015.40 12535.90 132.17
8208 33.9373 13318.00 12529.60 134.26
8209 33.9410 12755.70 12523.50 131.13
8210 33.9448 13203.60 12517.50 134.09
8211 33.9485 12878.10 12511.70 131.61
8212 33.9523 13092.80 12506.00 132.59
8213 33.9561 12942.90 12500.30 131.84
8214 33.9598 13173.80 12495.00 133.97
8215 33.9636 12901.90 12489.60 131.66
8216 33.9673 13099.10 12484.50 132.93
8217 33.9711 12664.20 12479.40 130.80
8218 33.9749 13035.60 12474.40 132.27
8219 33.9786 12810.20 12257.20 131.14
8220 33.9824 13138.10 12256.20 132.91
8221 33.9861 12764.40 12255.30 131.20
8222 33.9899 12896.40 12254.30 132.01
8223 33.9936 12675.40 12253.40 130.65
8224 33.9974 13016.00 12252.40 132.29
8225 34.0012 12798.70 12251.50 131.48
8226 34.0049 12911.00 12250.50 131.33
8227 34.0087 12696.00 12249.60 130.68
8228 34.0124 12946.60 12248.60 132.60
8229 34.0162 12863.70 12247.70 131.54
8230 34.0200 12729.00 12246.70 131.30
8231 34.0237 12795.00 12245.80 130.80
8232 34.0275 12968.00 12244.90 132.04
8233 34.0312 12606.80 12243.90 130.51
8234 34.0350 12911.90 12243.00 132.20
8235 34.0388 12811.30 12242.00 130.90
8236 34.0425 12823.80 12241.10 131.98
8237 34.0463 12538.30 12240.20 129.68
8238 34.0500 12777.20 12239.30 130.80
8239 34.0538 12686.50 12238.30 130.33
8240 34.0576 12653.70 12237.40 130.49
8241 34.0613 12456.00 12236.50 129.24
8242 34.0651 12864.00 12235.50 132.15
8243 34.0688 12306.70 12234.60 127.96
8244 34.0726 12824.70 12233.70 131.42
8245 34.0764 12536.90 12232.80 129.65
8246 34.0801 12658.70 12231.90 130.93
8247 34.0839 12612.40 12230.90 130.61
8248 34.0876 12795.90 12230.00 131.67
8249 34.0914 12514.70 12229.10 129.25
8250 34.0952 12872.00 12228.20 132.36
8251 34.0989 12850.90 12227.30 131.36
8252 34.1027 12838.80 12226.40 131.80
8253 34.1064 12531.70 12225.50 130.74
8254 34.1102 12861.20 12224.60 131.27
8255 34.1140 12607.90 12223.60 130.24
8256 34.1177 12814.40 12222.70 131.29
8257 34.1215 12660.60 12221.80 130.86
8258 34.1252 12996.60 12220.90 133.21
8259 34.1290 12654.80 12220.00 131.23
8260 34.1328 12705.90 12219.10 131.54
8261 34.1365 12560.00 12218.20 130.41
8262 34.1403 12684.60 12217.30 131.34
8263 34.1440 12625.70 12216.50 130.72
8264 34.1478 12856.50 12215.50 132.38
8265 34.1516 12457.90 12214.60 129.51
8266 34.1553 12623.70 12213.80 131.04
8267 34.1591 12452.10 12212.90 130.48
8268 34.1628 12740.90 12212.00 131.56
8269 34.1666 12371.30 12211.10 129.34
8270 34.1704 12571.70 12210.20 130.09
8271 34.1741 12359.30 12209.30 129.17
8272 34.1779 12771.70 12208.40 131.39
8273 34.1816 12453.90 12207.60 129.97
8274 34.1854 12624.20 12206.70 130.72
8275 34.1892 12406.20 12205.80 129.70
8276 34.1929 12583.80 12204.90 130.53
8277 34.1967 12422.20 12204.00 129.96
8278 34.2004 12683.30 12203.20 130.64
8279 34.2042 12415.00 12202.30 129.16
8280 34.2080 12683.20 12201.40 128.97
8281 34.2117 12524.10 12200.60 130.27
8282 34.2155 12712.10 12199.70 131.07
8283 34.2192 12383.40 12198.80 129.58
8284 34.2230 12479.80 12198.00 129.59
8285 34.2268 12417.00 12197.10 129.73
8286 34.2305 12677.80 12196.20 130.61
8287 34.2343 12514.00 12195.40 130.44
8288 34.2380 12463.20 12194.50 129.76
8289 34.2418 12623.20 12193.70 129.82
8290 34.2456 12494.30 12192.80 130.45
8291 34.2493 12345.20 12191.90 129.57
8292 34.2531 12570.50 12191.10 129.69
8293 34.2568 12321.90 12190.20 128.98
8294 34.2606 12317.60 12189.40 129.38
8295 34.2644 12323.60 12188.50 129.01
8296 34.2681 12564.30 12187.70 130.60
8297 34.2719 12210.70 12186.80 128.08
8298 34.2756 12636.30 12186.00 130.15
8299 34.2794 12354.70 12185.10 129.28
8300 34.2832 12715.70 12184.30 131.18
8301 34.2869 12170.00 12183.50 128.39
8302 34.2907 12555.10 12182.60 130.45
8303 34.2944 12418.50 12181.80 128.65
8304 34.2982 12440.70 12180.90 129.83
8305 34.3020 12445.00 12180.10 129.19
8306 34.3057 12495.40 12179.30 129.34
8307 34.3095 12360.70 12178.40 129.16
8308 34.3132 12512.20 12177.60 129.39
8309 34.3170 12157.40 12176.80 127.47
8310 34.3208 12401.50 12175.90 129.17
8311 34.3245 12159.40 12175.10 127.82
8312 34.3283 12483.50 12174.30 129.72
8313 34.3320 12291.40 12173.50 128.81
8314 34.3358 12301.90 12172.60 129.15
8315 34.3396 12509.80 12171.80 130.04
8316 34.3433 12563.20 12171.00 129.77
8317 34.3471 12298.40 12170.20 128.65
8318 34.3508 12551.60 12169.40 130.08
8319 34.3546 12247.10 12168.50 127.27
8320 34.3584 12346.30 12167.70 129.05
8321 34.3621 12217.70 12166.90 127.71
8322 34.3659 12352.80 12166.10 129.05
8323 34.3696 12110.50 12165.30 126.90
8324 34.3734 12476.20 12164.50 129.81
8325 34.3772 12150.70 12163.70 128.45
8326 34.3809 12460.80 12162.90 129.72
8327 34.3847 12231.70 12162.10 128.27
8328 34.3884 12613.00 12161.30 130.35
8329 34.3922 12180.50 12160.40 128.04
8330 34.3959 12228.40 12159.70 128.70
8331 34.3997 12162.90 12158.90 127.87
8332 34.4035 12503.90 12158.00 129.64
8333 34.4072 12190.00 12157.30 128.02
8334 34.4110 12591.00 12156.50 130.13
8335 34.4148 12274.20 12155.70 128.91
8336 34.4185 12414.30 12154.90 129.81
8337 34.4223 12384.30 12154.10 129.09
8338 34.4260 12541.20 12153.30 129.58
8339 34.4298 12109.30 12152.50 127.42
8340 34.4336 12513.30 12151.70 129.95
8341 34.4373 12146.30 12150.90 128.14
8342 34.4411 12642.40 12150.10 131.07
8343 34.4448 12049.60 12149.40 126.94
8344 34.4486 12288.00 12148.60 128.41
8345 34.4523 12244.90 12147.80 128.76
8346 34.4561 12423.10 12147.00 129.90
8347 34.4599 12262.50 12146.20 128.72
8348 34.4636 12349.70 12145.50 128.61
8349 34.4674 12421.60 12144.70 129.52
8350 34.4712 12396.40 12143.90 129.06
8351 34.4749 12108.30 12143.10 127.64
8352 34.4787 12357.30 12142.40 128.27
8353 34.4824 12129.30 12141.60 127.95
8354 34.4862 12351.50 12140.80 128.97
8355 34.4900 12158.00 12140.10 127.65
8356 34.4937 12410.40 12139.30 128.85
8357 34.4975 12111.40 12138.50 127.03
8358 34.5012 12212.90 12137.80 128.42
8359 34.5050 12078.10 12137.00 127.26
8360 34.5088 12291.90 12136.20 128.78
8361 34.5125 12320.00 12135.50 128.78
8362 34.5163 12332.90 12134.70 128.69
8363 34.5200 12264.70 12134.00 128.51
8364 34.5238 12446.10 12133.20 130.10
8365 34.5276 12040.90 12132.50 126.33
8366 34.5313 12467.00 12131.70 128.65
8367 34.5351 12232.50 12131.00 128.32
8368 34.5388 12344.20 12130.20 128.31
8369 34.5426 12127.90 12129.50 127.61
8370 34.5464 12609.70 12128.70 130.27
8371 34.5501 11976.50 12128.00 126.75
8372 34.5539 12183.20 12127.20 128.19
8373 34.5576 12154.20 12126.50 127.74
8374 34.5614 12561.80 12125.80 129.93
8375 34.5652 12062.20 12125.00 127.22
8376 34.5689 12350.10 12124.30 129.09
8377 34.5727 12272.90 12123.50 128.75
8378 34.5764 12349.60 12122.80 129.25
8379 34.5802 12392.50 12122.10 129.00
8380 34.5840 12620.90 12121.30 130.47
8381 34.5877 12197.70 12120.60 127.63
8382 34.5915 12480.40 12119.90 129.86
8383 34.5952 12172.00 12119.20 127.17
8384 34.5990 12441.30 12118.40 129.26
8385 34.6028 12288.40 12117.70 129.11
8386 34.6065 12575.90 12117.00 131.00
8387 34.6103 12206.20 12117.50 128.56
8388 34.6140 12267.40 12116.80 128.67
8389 34.6178 12120.20 12116.10 127.64
8390 34.6216 12453.00 12115.40 129.98
8391 34.6253 12156.60 12114.70 128.16
8392 34.6291 12309.60 12114.00 129.11
8393 34.6328 12051.30 12113.30 127.87
8394 34.6366 12387.70 12112.60 129.56
8395 34.6404 12120.70 12111.90 127.54
8396 34.6441 12372.50 12111.20 129.10
8397 34.6479 12258.70 12110.60 128.89
8398 34.6516 12437.60 12109.90 129.62
8399 34.6554 12018.10 12109.20 125.78
8400 34.6592 12272.80 12108.50 128.54
8401 34.6629 12361.40 12107.90 129.14
8402 34.6667 12301.40 12107.20 128.58
8403 34.6704 11953.30 12106.50 127.42
8404 34.6742 12308.10 12105.80 129.37
8405 34.6780 12199.70 12105.20 128.54
8406 34.6817 12222.00 12105.50 128.28
8407 34.6855 12031.90 12104.80 127.07
8408 34.6892 12489.90 12104.20 130.15
8409 34.6930 12261.30 12103.50 128.65
8410 34.6968 12265.00 12102.90 128.87
8411 34.7005 12099.50 12102.30 127.78
8412 34.7043 12100.10 12101.70 127.73
8413 34.7080 12291.10 12101.00 129.31
8414 34.7118 12643.90 12100.40 131.52
8415 34.7156 12133.50 12099.80 128.45
8416 34.7193 12430.50 12103.40 129.57
8417 34.7231 12063.20 12102.90 127.43
8418 34.7268 12293.80 12102.40 128.51
8419 34.7306 12166.60 12101.90 127.78
8420 34.7344 12426.10 12101.30 130.32
8421 34.7381 12280.50 12100.90 129.41
8422 34.7419 12450.70 12100.30 130.20
8423 34.7456 12109.50 12099.90 127.15
8424 34.7494 12200.60 12099.40 128.62
8425 34.7532 12062.00 12098.90 127.53
8426 34.7569 12462.50 12098.40 129.46
8427 34.7607 12161.00 12098.00 127.86
8428 34.7644 12379.40 12097.50 129.89
8429 34.7682 12099.90 12097.10 128.13
8430 34.7720 12202.70 12096.60 128.39
8431 34.7757 12057.20 12096.20 127.16
8432 34.7795 12266.90 12095.80 128.90
8433 34.7832 12412.20 12095.40 129.14
8434 34.7870 12427.30 12095.00 130.06
8435 34.7908 12150.40 12094.60 128.10
8436 34.7945 12389.90 12094.30 127.78
8437 34.7983 12033.80 12093.90 126.59
8438 34.8020 12170.00 12093.60 127.91
8439 34.8058 12013.20 12093.20 127.20
8440 34.8096 12301.10 12092.90 129.15
8441 34.8133 12056.60 12092.60 127.87
8442 34.8171 12378.10 12092.30 128.86
8443 34.8208 12080.70 12092.10 127.63
8444 34.8246 12352.80 12091.80 129.65
8445 34.8284 12229.40 12091.60 128.97
8446 34.8321 12333.40 12091.40 128.05
8447 34.8359 11937.00 12091.20 126.98
8448 34.8396 12281.20 12091.00 128.55
8449 34.8434 12048.90 12090.90 127.94
8450 34.8472 12459.50 12090.80 130.01
8451 34.8509 12304.10 12090.70 129.09
8452 34.8547 12256.80 12090.60 129.09
8453 34.8584 11982.10 12090.60 127.99
8454 34.8622 12071.00 12090.60 127.90
8455 34.8660 12131.50 12090.60 128.26
8456 34.8697 12517.40 12090.70 131.02
8457 34.8735 11891.40 12090.80 126.78
8458 34.8772 12410.90 12091.00 128.64
8459 34.8810 12097.90 12091.20 127.80
8460 34.8848 12345.40 12091.50 129.27
8461 34.8885 11974.20 12091.80 126.94
8462 34.8923 12147.80 12092.20 128.34
8463 34.8960 12137.20 12092.60 128.58
8464 34.8998 12386.70 12093.10 129.05
8465 34.9036 12437.80 12093.70 130.27
8466 34.9073 12296.80 12094.40 129.55
8467 34.9111 12218.10 12095.20 128.84
8468 34.9148 12586.00 12096.10 131.48
8469 34.9186 12250.50 12097.10 128.52
8470 34.9224 12398.90 12098.20 130.05
8471 34.9261 12234.40 12099.50 128.30
8472 34.9299 12344.60 12101.00 129.07
8473 34.9336 12206.40 12102.60 128.61
8474 34.9374 12391.40 12104.50 129.40
8475 34.9411 12128.80 12106.50 128.41
8476 34.9449 12535.80 12108.90 129.46
8477 34.9487 12206.70 12111.60 128.84
8478 34.9524 12436.00 12114.60 130.18
8479 34.9562 12276.60 12118.10 129.50
8480 34.9600 12397.20 12122.10 129.93
8481 34.9637 12316.70 12126.60 129.40
8482 34.9675 12308.70 12132.00 129.00
8483 34.9712 12199.30 12138.00 128.77
8484 34.9750 12505.80 12145.20 130.71
8485 34.9788 12294.10 12153.80 129.37
8486 34.9825 12370.40 12163.70 129.84
8487 34.9863 12266.40 12176.00 129.34
8488 34.9900 12576.60 12190.60 131.12
8489 34.9938 12411.40 12209.40 130.18
8490 34.9976 12437.50 12233.60 130.91
8491 35.0013 12202.80 12265.60 128.03
8492 35.0051 12743.90 12312.40 131.98
8493 35.0088 12548.70 12380.00 131.14
8494 35.0126 12789.50 12484.70 132.75
8495 35.0163 12998.80 12635.80 134.11
8496 35.0201 13154.90 12855.40 134.58
8497 35.0239 13113.70 13144.80 134.45
8498 35.0276 13404.20 13476.70 135.83
8499 35.0314 13419.70 13802.40 136.17
8500 35.0351 13509.90 13982.30 137.34
8501 35.0389 13212.70 13921.70 135.46
8502 35.0427 13581.50 13657.10 137.08
8503 35.0464 13177.80 13334.70 134.74
8504 35.0502 13134.60 13033.00 134.35
8505 35.0539 12619.60 12803.90 131.69
8506 35.0577 13016.10 12638.60 133.95
8507 35.0615 12654.80 12534.20 131.78
8508 35.0652 12872.70 12476.60 133.12
8509 35.0690 12716.40 12450.30 131.65
8510 35.0727 12820.90 12448.60 132.49
8511 35.0765 12535.40 12472.60 131.58
8512 35.0803 12675.10 12516.90 130.70
8513 35.0840 12621.20 12590.50 132.06
8514 35.0878 13086.00 12708.00 134.00
8515 35.0915 12961.60 12874.70 134.07
8516 35.0953 13390.70 13106.90 135.81
8517 35.0991 13303.00 13395.30 134.54
8518 35.1028 13837.10 13696.60 138.01
8519 35.1066 13755.70 13948.10 138.02
8520 35.1103 14273.60 14053.90 140.41
8521 35.1141 14071.60 14036.70 140.13
8522 35.1179 14238.70 14019.50 140.38
8523 35.1216 14253.50 14130.70 139.83
8524 35.1254 14632.40 14468.20 143.26
8525 35.1291 14773.00 15066.00 144.20
8526 35.1329 15985.50 15963.30 149.85
8527 35.1367 16639.60 17060.20 154.23
8528 35.1404 17817.20 18071.10 160.30
8529 35.1442 18242.50 18590.80 162.08
8530 35.1479 18675.10 18267.80 164.60
8531 35.1517 17999.10 17274.90 160.78
8532 35.1555 17058.80 16079.60 155.48
8533 35.1592 15999.10 15029.90 150.96
8534 35.1630 15258.60 14213.90 145.01
8535 35.1667 14174.40 13615.40 140.51
8536 35.1705 13786.80 13195.00 138.04
8537 35.1743 13233.00 12918.40 135.00
8538 35.1780 13199.80 12739.80 134.25
8539 35.1818 12868.80 12614.40 132.58
8540 35.1855 13061.10 12526.90 133.20
8541 35.1893 12714.00 12459.20 131.23
8542 35.1931 12747.60 12406.30 132.54
8543 35.1968 12494.90 12364.80 129.74
8544 35.2006 12708.10 12330.00 132.32
8545 35.2043 12437.70 12301.80 130.45
8546 35.2081 12530.80 12277.60 130.28
8547 35.2119 12172.30 12257.20 128.71
8548 35.2156 12430.40 12252.20 130.32
8549 35.2194 12064.20 12237.50 127.77
8550 35.2231 12610.30 12225.20 130.17
8551 35.2269 12397.30 12214.40 129.74
8552 35.2307 12421.10 12205.00 129.97
8553 35.2344 12405.20 12202.80 129.90
8554 35.2382 12329.60 12195.80 129.30
8555 35.2419 12160.80 12190.00 128.50
8556 35.2457 12365.90 12184.70 129.11
8557 35.2494 12204.60 12180.40 129.07
8558 35.2532 12413.00 12176.50 129.29
8559 35.2570 12351.90 12173.20 129.75
8560 35.2607 12404.40 12170.50 129.82
8561 35.2645 12142.90 12168.10 128.66
8562 35.2682 12470.80 12166.30 130.38
8563 35.2720 12210.20 12164.70 128.77
8564 35.2758 12288.80 12163.60 129.23
8565 35.2795 12165.10 12162.80 128.53
8566 35.2833 12365.30 12162.20 130.52
8567 35.2870 12122.90 12162.00 128.63
8568 35.2908 12579.80 12162.10 130.91
8569 35.2946 12233.90 12162.40 129.03
8570 35.2983 12200.50 12163.00 128.47
8571 35.3021 12397.90 12163.80 129.94
8572 35.3058 12372.60 12164.90 129.06
8573 35.3096 12166.10 12166.20 127.58
8574 35.3134 12460.70 12167.80 130.64
8575 35.3171 12252.70 12169.60 129.20
8576 35.3209 12279.80 12171.70 129.48
8577 35.3246 12354.70 12174.00 128.54
8578 35.3284 12536.70 12176.60 129.64
8579 35.3322 12213.30 12179.50 129.34
8580 35.3359 12372.20 12182.60 129.24
8581 35.3397 12170.20 12186.10 128.78
8582 35.3434 12597.50 12189.70 131.04
8583 35.3472 12271.20 12193.80 129.74
8584 35.3510 12536.20 12198.20 131.16
8585 35.3547 12339.70 12202.80 129.87
8586 35.3585 12579.40 12207.90 130.42
8587 35.3622 12126.70 12213.30 128.63
8588 35.3660 12513.60 12219.20 130.62
8589 35.3698 12259.50 12225.60 127.26
8590 35.3735 12392.70 12232.30 129.67
8591 35.3773 12194.80 12239.70 128.98
8592 35.3810 12642.20 12247.40 131.04
8593 35.3848 12261.30 12256.00 129.29
8594 35.3885 12496.00 12265.00 130.49
8595 35.3923 12255.20 12274.90 129.87
8596 35.3961 12328.80 12285.70 130.12
8597 35.3998 12396.00 12297.10 130.78
8598 35.4036 12437.30 12309.80 131.35
8599 35.4073 12335.80 12323.20 130.28
8600 35.4111 12534.10 12338.30 131.05
8601 35.4149 12348.50 12354.70 130.48
8602 35.4186 12590.90 12372.30 131.19
8603 35.4224 12532.70 12392.20 131.07
8604 35.4261 12433.30 12413.50 130.60
8605 35.4299 12589.10 12437.90 131.01
8606 35.4337 12556.00 12465.10 130.73
8607 35.4374 12510.50 12494.90 130.21
8608 35.4412 12714.30 12529.40 132.26
8609 35.4449 12583.10 12567.80 131.37
8610 35.4487 12716.50 12612.90 132.28
8611 35.4525 12522.80 12665.60 130.32
8612 35.4562 12908.10 12725.90 133.97
8613 35.4600 12850.40 12800.20 132.63
8614 35.4637 12992.40 12888.30 133.57
8615 35.4675 12878.90 13006.40 133.69
8616 35.4713 13478.80 13166.40 136.04
8617 35.4750 13309.90 13387.10 134.54
8618 35.4788 14049.10 13718.30 139.63
8619 35.4825 13898.10 14187.90 138.38
8620 35.4863 14625.50 14869.40 143.72
8621 35.4901 15199.30 15778.70 146.45
8622 35.4938 16262.70 16855.00 152.57
8623 35.4976 16449.50 17996.10 153.82
8624 35.5013 17379.30 18800.50 158.02
8625 35.5051 17413.60 18904.70 157.30
8626 35.5088 17176.80 18284.30 157.63
8627 35.5126 16079.70 17300.20 151.06
8628 35.5164 15725.20 16340.40 149.14
8629 35.5201 14957.70 15600.10 144.71
8630 35.5239 15029.40 15079.20 145.04
8631 35.5276 14423.90 14786.80 142.12
8632 35.5314 14674.60 14665.60 143.83
8633 35.5352 14132.00 14684.70 141.47
8634 35.5389 14694.30 14808.50 144.45
8635 35.5427 14815.50 15032.00 145.21
8636 35.5464 15194.30 15344.00 147.17
8637 35.5502 15677.40 15780.10 149.48
8638 35.5540 16533.20 16374.50 153.57
8639 35.5577 17122.80 17182.80 157.00
8640 35.5615 18512.60 18387.00 164.32
8641 35.5652 20241.50 20148.50 173.09
8642 35.5690 22728.80 22891.80 184.61
8643 35.5727 26382.80 26869.80 201.09
8644 35.5765 32405.10 32682.10 227.75
8645 35.5803 39572.00 40422.50 256.39
8646 35.5840 49879.00 49417.70 295.17
8647 35.5878 59700.30 58563.10 332.47
8648 35.5915 68463.70 64195.30 361.66
8649 35.5953 67464.70 63443.80 358.70
8650 35.5991 62319.10 56651.10 341.26
8651 35.6028 52006.00 47719.00 304.17
8652 35.6066 43070.40 39056.50 271.69
8653 35.6103 34732.20 32330.50 237.93
8654 35.6141 30066.30 27420.00 217.45
8655 35.6179 26643.20 24363.10 202.91
8656 35.6216 24961.00 22875.80 194.69
8657 35.6254 23917.50 22630.20 190.68
8658 35.6291 25122.20 23489.80 195.44
8659 35.6329 26541.00 25404.60 203.34
8660 35.6366 29742.60 28131.40 215.95
8661 35.6404 32657.90 31384.30 229.70
8662 35.6442 36625.30 34126.10 244.72
8663 35.6479 37268.60 35129.70 247.85
8664 35.6517 37370.10 34235.10 247.70
8665 35.6554 33873.00 32464.90 233.05
8666 35.6592 31843.40 30612.90 224.66
8667 35.6630 28675.50 28750.40 211.50
8668 35.6667 26829.10 26544.10 202.58
8669 35.6705 23988.60 23886.80 190.58
8670 35.6742 21746.70 21356.80 179.49
8671 35.6780 18768.60 19158.60 162.64
8672 35.6818 17241.50 17461.40 156.19
8673 35.6855 15835.00 16244.10 149.08
8674 35.6893 15177.70 15353.40 145.65
8675 35.6930 14376.70 14741.10 140.91
8676 35.6968 14319.80 14292.70 140.67
8677 35.7005 13591.30 13971.10 136.51
8678 35.7043 13456.70 13718.10 135.10
8679 35.7081 13052.20 13517.10 133.41
8680 35.7118 13234.80 13356.50 134.24
8681 35.7156 12942.90 13218.50 131.61
8682 35.7193 13064.70 13104.20 133.17
8683 35.7231 12801.50 13003.40 131.53
8684 35.7269 12755.40 12916.10 131.65
8685 35.7306 12563.50 12841.80 130.83
8686 35.7344 12991.30 12774.60 133.52
8687 35.7381 12712.90 12716.60 131.90
8688 35.7419 12570.70 12663.50 130.62
8689 35.7457 12524.40 12616.10 130.75
8690 35.7494 12759.50 12574.50 131.96
8691 35.7532 12395.80 12536.00 129.52
8692 35.7569 12513.80 12501.80 130.11
8693 35.7607 12621.50 12470.00 130.96
8694 35.7644 12502.20 12441.60 130.07
8695 35.7682 12335.70 12414.80 128.63
8696 35.7720 12461.60 12390.30 130.73
8697 35.7757 12148.00 12368.30 127.67
8698 35.7795 12180.10 12347.40 129.18
8699 35.7832 12231.90 12328.50 129.06
8700 35.7870 12372.90 12310.50 128.91
8701 35.7908 12199.50 12293.70 128.07
8702 35.7945 12374.40 12278.50 129.23
8703 35.7983 11976.50 12263.90 126.69
8704 35.8020 12090.00 12250.60 128.29
8705 35.8058 12187.10 12237.80 128.59
8706 35.8095 12190.00 12226.10 128.20
8707 35.8133 11925.10 12214.80 127.25
8708 35.8171 12234.90 12204.20 128.91
8709 35.8208 11940.00 12194.40 127.25
8710 35.8246 12307.80 12184.90 128.77
8711 35.8283 12158.00 12176.10 128.76
8712 35.8321 12332.70 12167.60 128.91
8713 35.8359 11912.00 12159.60 126.92
8714 35.8396 12140.20 12152.10 128.89
8715 35.8434 11951.30 12144.80 127.36
8716 35.8471 12271.40 12138.10 129.29
8717 35.8509 11984.40 12131.50 127.68
8718 35.8546 12236.80 12125.40 127.69
8719 35.8584 11957.10 12119.40 127.29
8720 35.8622 12060.70 12113.60 126.18
8721 35.8659 12048.70 12108.30 127.41
8722 35.8697 12350.20 12103.10 130.02
8723 35.8734 12055.70 12098.20 128.04
8724 35.8772 12233.30 12093.40 128.52
8725 35.8810 12134.10 12088.80 128.38
8726 35.8847 12171.80 12084.50 128.67
8727 35.8885 12020.90 12080.20 127.89
8728 35.8922 12214.80 12076.30 129.11
8729 35.8960 12049.50 12072.30 128.42
8730 35.8997 12103.50 12068.70 127.88
8731 35.9035 12055.10 12065.00 128.47
8732 35.9073 11928.40 12061.50 127.22
8733 35.9110 12026.40 12058.20 125.67
8734 35.9148 12062.70 12055.00 128.45
8735 35.9185 11897.90 12051.90 127.39
8736 35.9223 12167.30 12048.80 127.99
8737 35.9260 11903.10 12046.00 127.73
8738 35.9298 12123.70 12043.10 128.77
8739 35.9336 11791.70 12036.40 126.76
8740 35.9373 12136.10 12033.90 128.20
8741 35.9411 11827.60 12031.40 126.61
8742 35.9448 12151.70 12029.00 128.91
8743 35.9486 11907.90 12026.60 127.25
8744 35.9524 11884.50 12024.30 127.61
8745 35.9561 11816.40 12022.20 126.46
8746 35.9599 12067.70 12020.00 127.94
8747 35.9636 11937.70 12018.00 127.43
8748 35.9674 12188.80 12016.00 128.18
8749 35.9711 11735.20 12014.00 124.09
8750 35.9749 12138.40 12012.10 129.12
8751 35.9787 12083.60 12010.20 130.96
8752 35.9824 12072.50 12008.50 128.57
8753 35.9862 12092.80 12006.70 129.26
8754 35.9899 12219.50 12005.00 130.08
8755 35.9937 11773.70 12003.30 126.34
8756 35.9975 12038.30 12001.70 127.94
8757 36.0012 11967.40 12000.20 127.09
8758 36.0050 11986.60 11998.60 127.36
8759 36.0087 12032.40 11997.10 128.63
8760 36.0125 12080.00 11995.60 128.43
8761 36.0162 11800.40 11994.20 126.59
8762 36.0200 12151.80 11992.80 128.74
8763 36.0238 11784.20 11957.30 126.37
8764 36.0275 12210.00 11956.50 129.67
8765 36.0313 11934.60 11955.80 127.43
8766 36.0350 12194.40 11955.10 127.38
8767 36.0388 11878.40 11954.40 127.22
8768 36.0425 12083.60 11953.70 128.00
8769 36.0463 11917.20 11953.00 128.04
8770 36.0501 12221.60 11952.30 128.85
8771 36.0538 11920.00 11951.70 126.42
8772 36.0576 11828.70 11951.00 126.07
8773 36.0613 11793.90 11950.40 125.72
8774 36.0651 12073.60 11949.80 127.11
8775 36.0688 12175.40 11949.20 128.60
8776 36.0726 12064.40 11948.60 127.94
8777 36.0764 11846.40 11948.00 126.38
8778 36.0801 12083.80 11935.70 128.06
8779 36.0839 11863.80 11935.30 126.76
8780 36.0876 12135.00 11934.90 127.34
8781 36.0914 11749.30 11934.60 125.77
8782 36.0951 12068.10 11934.20 127.46
8783 36.0989 11969.90 11928.30 127.07
8784 36.1027 12256.40 11928.00 128.29
8785 36.1064 11813.90 11927.80 126.20
8786 36.1102 12077.00 11927.50 127.05
8787 36.1139 11875.50 11927.30 126.33
8788 36.1177 12103.00 11927.00 128.30
8789 36.1215 11672.90 11926.70 124.89
8790 36.1252 12052.80 11926.50 127.03
8791 36.1290 11902.50 11926.20 125.77
8792 36.1327 12163.00 11926.00 127.04
8793 36.1365 11879.90 11925.80 126.62
8794 36.1402 12066.60 11925.50 127.55
8795 36.1440 11821.50 11925.30 126.00
8796 36.1478 12053.90 11925.00 127.12
8797 36.1515 11745.00 11924.80 125.80
8798 36.1553 11788.00 11924.50 125.58
8799 36.1590 11610.30 11924.30 124.91
8800 36.1628 11795.60 11924.10 125.89
8801 36.1665 11745.20 11923.80 125.26
8802 36.1703 12251.70 11923.60 128.93
8803 36.1741 11800.30 11923.30 126.22
8804 36.1778 11999.40 11923.10 127.58
8805 36.1816 11803.10 11922.90 126.04
8806 36.1853 12079.30 11922.60 127.15
8807 36.1891 11757.20 11922.40 125.83
8808 36.1928 12222.60 11922.20 128.72
8809 36.1966 11655.50 11921.90 125.04
8810 36.2004 11961.80 11921.70 127.14
8811 36.2041 11662.80 11921.50 125.59
8812 36.2079 12018.20 11921.20 127.20
8813 36.2116 11927.30 11921.00 126.78
8814 36.2154 12079.40 11920.80 127.70
8815 36.2191 11663.90 11920.60 125.25
8816 36.2229 11896.90 11920.30 126.35
8817 36.2267 11760.70 11920.10 125.80
8818 36.2304 12173.60 11919.90 127.44
8819 36.2342 11788.00 11919.70 125.79
8820 36.2379 11934.20 11919.40 127.09
8821 36.2417 11591.10 11919.20 124.54
8822 36.2454 12041.50 11919.00 127.64
8823 36.2492 11502.70 11918.80 123.67
8824 36.2530 11910.10 11918.60 126.36
8825 36.2567 11674.20 11918.30 124.73
8826 36.2605 12258.10 11918.10 128.66
8827 36.2642 11627.60 11917.90 124.46
8828 36.2680 11733.10 11917.70 124.89
8829 36.2717 11625.90 11917.50 124.31
8830 36.2755 12129.30 11917.30 127.86
8831 36.2793 11712.90 11917.10 125.58
8832 36.2830 12040.80 11916.80 127.76
8833 36.2868 11781.90 11916.60 125.67
8834 36.2905 11914.50 11916.40 126.75
8835 36.2943 11737.30 11916.20 125.43
8836 36.2980 11698.60 11916.00 125.16
8837 36.3018 11814.90 11915.80 125.49
8838 36.3055 11998.80 11915.60 127.02
8839 36.3093 11746.50 11915.40 125.45
8840 36.3131 11976.00 11915.20 127.34
8841 36.3168 11934.70 11915.00 126.72
8842 36.3206 12297.00 11914.80 128.79
8843 36.3243 11813.90 11914.60 126.21
8844 36.3281 11770.80 11914.40 125.85
8845 36.3318 11664.80 11914.20 124.82
8846 36.3356 12083.40 11914.00 127.36
8847 36.3394 12013.40 11913.80 126.21
8848 36.3431 12064.10 11913.60 126.76
8849 36.3469 11581.20 11913.40 124.06
8850 36.3506 11943.30 11913.20 126.52
8851 36.3544 11693.90 11913.00 125.17
8852 36.3581 11972.40 11912.80 126.78
8853 36.3619 11808.90 11912.60 125.63
8854 36.3657 12066.00 11912.40 127.83
8855 36.3694 11909.10 11912.20 126.66
8856 36.3732 12014.90 11912.00 127.37
8857 36.3769 11983.20 11911.80 127.02
8858 36.3807 11967.00 11911.60 127.10
8859 36.3844 11768.00 11911.50 125.82
8860 36.3882 11878.80 11911.30 126.48
8861 36.3919 11879.40 11911.10 126.55
8862 36.3957 12021.90 11910.90 127.34
8863 36.3995 11429.80 11910.70 123.55
8864 36.4032 12048.70 11910.50 127.59
8865 36.4070 11581.10 11910.30 125.43
8866 36.4107 11982.10 11910.20 126.92
8867 36.4145 11903.80 11910.00 126.70
8868 36.4182 12253.80 11909.80 128.85
8869 36.4220 11981.90 11909.60 126.68
8870 36.4258 12164.30 11909.40 128.36
8871 36.4295 11864.30 11909.30 127.02
8872 36.4333 12419.10 11909.10 129.88
8873 36.4370 12095.60 11908.90 128.17
8874 36.4408 12178.00 11908.70 128.40
8875 36.4445 11966.30 11908.50 126.59
8876 36.4483 12149.00 11908.40 128.74
8877 36.4520 11756.30 11908.20 125.58
8878 36.4558 12168.80 11908.00 128.38
8879 36.4596 11928.50 11907.80 126.86
8880 36.4633 12085.50 11907.70 128.25
8881 36.4671 11777.70 11907.50 125.45
8882 36.4708 11964.80 11907.30 126.92
8883 36.4746 11764.90 11907.20 125.28
8884 36.4783 12069.10 11907.00 125.72
8885 36.4821 11539.70 11906.80 123.61
8886 36.4859 11695.30 11906.70 125.64
8887 36.4896 11800.80 11906.50 125.82
8888 36.4934 11946.20 11906.30 125.91
8889 36.4971 11991.20 11906.20 127.12
8890 36.5009 12000.70 11906.00 126.66
8891 36.5046 11844.80 11905.80 126.73
8892 36.5084 11845.20 11905.70 126.60
8893 36.5121 11832.40 11905.50 126.50
8894 36.5159 12083.60 11905.30 127.72
8895 36.5197 11914.40 11905.20 126.65
8896 36.5234 11870.70 11905.00 126.56
8897 36.5272 11687.20 11904.90 125.60
8898 36.5309 11972.00 11904.70 127.68
8899 36.5347 11717.00 11904.60 125.50
8900 36.5384 11963.80 11904.40 126.83
8901 36.5422 11869.20 11904.20 126.06
8902 36.5459 11869.80 11904.10 126.03
8903 36.5497 11873.70 11903.90 126.69
8904 36.5535 12068.00 11903.80 127.73
8905 36.5572 11833.00 11903.60 126.78
8906 36.5610 11917.10 11903.50 125.22
8907 36.5647 11818.70 11903.30 126.04
8908 36.5685 12208.70 11903.20 128.28
8909 36.5722 11699.90 11903.00 125.15
8910 36.5760 12013.30 11902.90 127.24
8911 36.5797 11757.20 11902.70 124.72
8912 36.5835 11893.50 11902.60 127.38
8913 36.5873 11768.20 11902.40 126.17
8914 36.5910 11956.80 11902.30 127.48
8915 36.5948 11743.70 11902.10 125.52
8916 36.5985 12058.90 11902.00 127.84
8917 36.6023 11583.10 11901.80 123.82
8918 36.6060 11804.10 11901.70 125.46
8919 36.6098 11923.70 11901.60 126.71
8920 36.6135 12049.70 11901.40 127.72
8921 36.6173 11594.80 11901.30 124.95
8922 36.6211 11906.10 11901.10 125.69
8923 36.6248 11561.80 11901.00 124.70
8924 36.6286 11934.70 11900.90 126.81
8925 36.6323 11859.80 11900.70 126.27
8926 36.6361 11979.30 11900.60 126.78
8927 36.6398 11645.40 11900.50 124.75
8928 36.6436 11989.70 11900.30 126.13
8929 36.6473 11827.90 11900.20 124.65
8930 36.6511 11999.70 11900.00 127.16
8931 36.6549 11790.90 11899.90 126.72
8932 36.6586 11726.80 11899.80 125.99
8933 36.6624 11757.30 11899.60 125.88
8934 36.6661 12000.20 11899.50 127.33
8935 36.6699 11650.30 11899.40 124.76
8936 36.6736 11587.50 11899.30 125.14
8937 36.6774 11665.20 11899.10 124.69
8938 36.6811 11863.50 11899.00 126.19
8939 36.6849 11686.30 11898.90 125.22
8940 36.6887 12001.10 11898.70 127.25
8941 36.6924 11625.80 11898.60 125.11
8942 36.6962 12015.80 11898.50 127.29
8943 36.6999 11854.20 11898.40 126.65
8944 36.7037 11796.50 11898.20 125.81
8945 36.7074 11935.40 11898.10 126.36
8946 36.7112 12102.80 11898.00 125.61
8947 36.7149 11977.30 11897.90 126.57
8948 36.7187 11992.80 11897.70 125.46
8949 36.7224 11882.70 11897.60 126.23
8950 36.7262 11845.50 11897.50 126.38
8951 36.7300 11725.30 11897.40 125.40
8952 36.7337 11860.90 11897.30 126.42
8953 36.7375 11685.10 11897.10 124.80
8954 36.7412 11940.40 11897.00 126.17
8955 36.7450 11852.70 11896.90 125.69
8956 36.7487 11905.10 11896.80 126.27
8957 36.7525 11983.40 11896.70 125.40
8958 36.7562 12046.10 11896.60 126.27
8959 36.7600 11772.80 11896.40 124.53
8960 36.7637 12056.60 11896.30 127.70
8961 36.7675 11691.60 11896.20 125.56
8962 36.7713 11981.10 11896.10 127.13
8963 36.7750 11857.20 11896.00 125.94
8964 36.7788 11977.20 11895.90 127.08
8965 36.7825 11903.80 11895.80 126.10
8966 36.7863 11965.60 11895.70 126.43
8967 36.7900 11807.00 11895.50 126.16
8968 36.7938 12132.70 11895.40 127.82
8969 36.7975 11731.80 11895.30 124.98
8970 36.8013 12034.10 11895.20 127.07
8971 36.8050 11892.60 11895.10 126.70
8972 36.8088 11971.00 11895.00 127.35
8973 36.8126 11979.80 11894.90 127.21
8974 36.8163 11898.80 11894.80 126.14
8975 36.8201 11942.20 11894.70 126.14
8976 36.8238 12067.70 11894.60 127.75
8977 36.8276 11947.20 11894.50 126.33
8978 36.8313 11940.80 11894.40 126.83
8979 36.8351 11799.10 11894.30 125.70
8980 36.8388 11706.60 11894.20 125.54
8981 36.8426 11749.40 11894.10 125.79
8982 36.8463 11833.90 11894.00 125.77
8983 36.8501 11802.00 11893.90 126.39
8984 36.8539 12129.50 11893.80 127.43
8985 36.8576 11702.10 11893.70 125.59
8986 36.8614 12066.00 11893.60 127.35
8987 36.8651 11598.50 11893.50 123.83
8988 36.8689 11986.30 11893.40 126.86
8989 36.8726 12058.60 11893.30 127.25
8990 36.8764 12007.50 11893.20 127.17
8991 36.8801 11817.00 11893.10 126.04
8992 36.8839 12178.60 11893.00 128.65
8993 36.8876 11999.90 11892.90 127.28
8994 36.8914 12032.20 11892.80 127.72
8995 36.8951 11876.90 11892.70 126.28
8996 36.8989 11854.90 11892.60 126.71
8997 36.9027 12056.40 11892.50 126.77
8998 36.9064 12049.10 11892.50 127.82
8999 36.9102 11878.90 11892.40 126.20
9000 36.9139 12070.10 11892.30 127.65
9001 36.9177 11719.30 11892.20 125.34
9002 36.9214 12195.50 11892.10 128.16
9003 36.9252 11711.60 11892.00 125.21
9004 36.9289 11888.70 11891.90 126.06
9005 36.9327 11924.70 11891.80 126.87
9006 36.9364 12056.20 11891.80 127.31
9007 36.9402 11974.20 11891.70 127.41
9008 36.9439 12006.00 11891.60 127.63
9009 36.9477 11860.10 11891.50 126.47
9010 36.9515 12113.20 11891.40 127.46
9011 36.9552 12026.60 11891.30 127.92
9012 36.9590 12030.40 11891.20 127.12
9013 36.9627 11902.80 11891.20 126.32
9014 36.9665 12233.00 11891.10 127.13
9015 36.9702 12094.80 11891.00 127.93
9016 36.9740 12089.60 11890.90 127.71
9017 36.9777 11952.30 11890.80 127.40
9018 36.9815 12086.50 11890.80 127.76
9019 36.9852 11848.60 11890.70 125.64
9020 36.9890 12146.90 11890.60 127.38
9021 36.9907 11869.40 11890.60 127.10
9022 36.9945 12043.10 11890.50 128.02
9023 36.9982 11810.40 11890.40 126.59
9024 37.0020 12124.40 11890.30 128.18
9025 37.0057 11940.40 11890.30 127.03
9026 37.0095 12023.80 11890.20 127.71
9027 37.0133 12043.40 11890.10 127.99
9028 37.0170 12229.30 11890.00 129.46
9029 37.0208 11934.80 11890.00 127.04
9030 37.0245 12162.00 11889.90 128.24
9031 37.0283 11939.30 11889.80 126.70
9032 37.0320 12117.20 11889.80 127.74
9033 37.0358 11994.60 11889.70 127.65
9034 37.0395 12249.20 11889.60 129.04
9035 37.0433 11860.50 11889.50 127.17
9036 37.0471 12372.00 11889.50 128.15
9037 37.0508 12074.00 11889.40 127.81
9038 37.0546 12278.20 11889.30 128.92
9039 37.0583 12007.30 11889.30 127.23
9040 37.0621 12225.10 11889.20 128.74
9041 37.0658 12057.70 12066.90 126.75
9042 37.0696 12220.40 12070.00 129.59
9043 37.0733 12053.10 12073.00 128.12
9044 37.0771 12197.30 12076.10 129.16
9045 37.0809 11946.10 12079.40 126.96
9046 37.0846 12052.00 12082.70 128.02
9047 37.0884 12137.00 12086.10 127.37
9048 37.0921 12301.50 12089.50 128.67
9049 37.0959 12003.20 12093.20 127.41
9050 37.0996 12249.10 12096.80 129.15
9051 37.1034 11971.40 12100.60 127.46
9052 37.1071 12236.30 12104.50 127.89
9053 37.1109 11833.90 12108.50 126.57
9054 37.1147 12101.00 12112.70 128.04
9055 37.1184 12089.00 12116.90 127.87
9056 37.1222 12340.80 12121.40 129.17
9057 37.1259 12031.50 12125.80 127.31
9058 37.1297 12255.50 12130.50 127.93
9059 37.1334 12109.00 12135.20 126.55
9060 37.1372 12230.60 12140.20 128.77
9061 37.1409 12142.80 12145.20 129.08
9062 37.1447 12343.70 12150.50 129.94
9063 37.1485 12233.30 12156.00 128.98
9064 37.1522 12436.60 12161.50 130.17
9065 37.1560 11985.30 12167.40 127.01
9066 37.1597 12362.30 12173.20 130.06
9067 37.1635 12169.50 12179.50 127.95
9068 37.1672 12643.20 12185.70 131.07
9069 37.1710 12176.50 12192.40 128.40
9070 37.1747 12570.10 12199.10 130.88
9071 37.1785 12313.70 12206.20 129.49
9072 37.1823 12390.00 12213.60 129.76
9073 37.1860 12162.50 12221.00 128.73
9074 37.1898 12173.00 12228.90 128.30
9075 37.1935 12278.00 12236.80 128.64
9076 37.1973 12411.70 12245.30 127.65
9077 37.2010 12346.80 12418.10 129.00
9078 37.2048 12375.90 12430.10 127.94
9079 37.2085 12354.40 12442.10 129.28
9080 37.2123 12491.30 12454.90 130.48
9081 37.2160 12520.10 12467.80 130.40
9082 37.2177 12386.70 12663.80 130.03
9083 37.2214 12636.80 12680.60 129.22
9084 37.2252 12574.40 12698.40 129.38
9085 37.2289 12547.60 12716.40 128.77
9086 37.2327 12366.50 12735.40 128.67
9087 37.2364 12734.00 12754.70 131.04
9088 37.2402 12560.00 12775.20 129.49
9089 37.2439 12697.50 12795.90 130.51
9090 37.2477 12827.50 12818.00 131.54
9091 37.2514 12759.80 12840.30 131.11
9092 37.2552 12820.70 12864.10 131.68
9093 37.2589 13038.70 12888.20 132.94
9094 37.2627 12771.50 12913.90 131.53
9095 37.2664 13017.10 12940.00 132.65
9096 37.2702 12735.20 12967.90 130.90
9097 37.2740 12977.30 12997.00 132.56
9098 37.2777 12764.80 13026.50 131.16
9099 37.2815 12752.40 13058.10 130.56
9100 37.2852 12744.10 13090.20 130.14
9101 37.2890 13058.30 13124.60 131.10
9102 37.2927 13185.00 13159.70 134.60
9103 37.2965 13489.40 13197.40 134.89
9104 37.3002 13111.00 13235.90 133.19
9105 37.3040 13338.70 13277.20 134.82
9106 37.3077 13090.40 13319.50 132.45
9107 37.3115 13585.60 13365.00 134.54
9108 37.3152 13333.00 13411.70 137.17
9109 37.3190 13475.60 13462.00 136.38
9110 37.3228 13354.80 13515.10 134.34
9111 37.3265 13535.70 13569.60 134.79
9112 37.3303 13458.50 13628.60 134.95
9113 37.3340 13755.90 13689.30 137.16
9114 37.3378 13659.80 13755.30 136.59
9115 37.3415 13810.70 13823.30 137.28
9116 37.3453 13593.10 13897.50 135.63
9117 37.3490 14025.80 13974.10 138.87
9118 37.3528 13828.90 14057.90 137.36
9119 37.3565 14225.80 14144.80 139.73
9120 37.3603 14132.30 14239.90 139.00
9121 37.3641 14395.30 14341.70 140.64
9122 37.3678 14159.70 14447.80 139.68
9123 37.3716 14861.30 14564.70 143.35
9124 37.3753 14745.10 14687.00 141.29
9125 37.3791 15163.40 14822.40 144.40
9126 37.3828 15062.90 14964.70 144.06
9127 37.3866 15454.80 15122.80 145.52
9128 37.3903 15157.80 15289.80 144.36
9129 37.3941 15766.30 15476.40 148.26
9130 37.3978 15831.00 15674.60 148.88
9131 37.4016 16540.20 15897.30 152.66
9132 37.4053 16123.10 16135.20 150.10
9133 37.4091 16887.70 16404.60 151.74
9134 37.4129 17211.40 16702.50 156.58
9135 37.4166 17551.70 17024.90 159.98
9136 37.4204 17567.40 17394.30 157.61
9137 37.4241 18484.80 17796.20 161.50
9138 37.4279 18416.20 18261.90 161.57
9139 37.4316 19534.20 18774.40 167.53
9140 37.4354 19699.40 19374.00 168.05
9141 37.4391 20694.00 20042.50 173.51
9142 37.4429 21514.10 20835.30 177.02
9143 37.4466 22654.80 21732.20 182.68
9144 37.4504 23766.20 22813.20 187.65
9145 37.4542 25420.50 24094.80 194.95
9146 37.4579 27344.90 25590.70 203.51
9147 37.4617 29905.70 27455.20 215.57
9148 37.4654 32423.90 29706.70 226.93
9149 37.4692 36217.90 32651.50 241.21
9150 37.4729 40693.30 36455.00 259.19
9151 37.4767 47639.40 41871.60 287.27
9152 37.4804 55108.90 49510.40 313.73
9153 37.4842 67159.90 61123.70 354.65
9154 37.4879 82354.20 77831.40 403.94
9155 37.4917 104887.00 102404.00 475.21
9156 37.4955 132410.00 135883.00 553.37
9157 37.4992 170858.00 176757.00 657.98
9158 37.5030 206602.00 223243.00 752.63
9159 37.5067 242235.00 262249.00 843.36
9160 37.5105 247486.00 278781.00 842.22
9161 37.5142 244409.00 262830.00 860.31
9162 37.5180 209380.00 223135.00 761.68
9163 37.5217 172473.00 178186.00 662.54
9164 37.5255 134919.00 136624.00 555.53
9165 37.5293 107042.00 103682.00 479.55
9166 37.5330 84146.40 80188.60 412.28
9167 37.5368 69884.70 63463.20 364.89
9168 37.5405 57301.90 52594.00 321.05
9169 37.5443 50212.30 45219.30 295.75
9170 37.5480 44306.90 40432.50 273.20
9171 37.5518 40547.60 37062.50 259.57
9172 37.5555 37731.20 34758.80 249.29
9173 37.5593 35559.40 33083.00 241.57
9174 37.5630 33810.20 31946.20 233.18
9175 37.5668 33418.10 31185.60 231.07
9176 37.5706 32158.80 30772.50 225.11
9177 37.5743 32068.10 30670.80 226.36
9178 37.5781 31640.20 30856.90 223.71
9179 37.5818 32469.80 31318.60 227.04
9180 37.5856 32375.40 32093.50 224.81
9181 37.5893 33749.20 33166.40 231.68
9182 37.5931 34697.50 34642.20 237.75
9183 37.5968 36303.90 36508.70 242.71
9184 37.6006 37930.30 38976.00 251.16
9185 37.6044 41576.30 42172.50 264.29
9186 37.6081 44434.60 46256.30 274.32
9187 37.6119 50283.30 51930.10 294.36
9188 37.6156 57095.40 59645.80 328.73
9189 37.6194 67553.60 71047.90 357.43
9190 37.6231 80984.90 87166.40 400.65
9191 37.6269 103832.00 110990.00 466.63
9192 37.6306 132204.00 143307.00 551.65
9193 37.6344 177412.00 187415.00 675.89
9194 37.6382 231778.00 241991.00 815.67
9195 37.6419 300660.00 299882.00 975.93
9196 37.6457 356893.00 351967.00 1110.17
9197 37.6494 405843.00 383776.00 1218.59
9198 37.6532 420090.00 398620.00 1258.25
9199 37.6569 432104.00 405741.00 1284.82
9200 37.6607 425584.00 406136.00 1267.46
9201 37.6644 416598.00 387869.00 1242.16
9202 37.6682 368498.00 342352.00 1140.63
9203 37.6720 308703.00 280421.00 1000.56
9204 37.6757 231381.00 220130.00 818.59
9205 37.6795 173226.00 167677.00 663.03
9206 37.6832 126188.00 128088.00 528.46
9207 37.6870 97284.30 98433.40 451.06
9208 37.6907 75158.10 78131.40 382.29
9209 37.6945 62123.80 63759.60 340.41
9210 37.6982 51624.70 54041.90 301.45
9211 37.7020 45442.90 46929.60 278.36
9212 37.7058 39115.60 41664.30 253.10
9213 37.7095 36035.90 37703.50 238.18
9214 37.7133 32220.20 34448.40 225.46
9215 37.7170 30687.60 31863.00 222.09
9216 37.7208 28018.70 29649.20 206.64
9217 37.7245 26892.20 27837.60 201.44
9218 37.7283 24958.10 26254.40 192.59
9219 37.7320 24165.90 24932.30 189.63
9220 37.7358 23085.30 23760.20 184.36
9221 37.7396 22353.40 22741.30 181.12
9222 37.7433 21287.30 21873.20 176.32
9223 37.7471 21241.70 21087.30 173.43
9224 37.7508 20185.50 20410.30 170.96
9225 37.7546 19872.70 19791.20 168.63
9226 37.7583 18911.70 19252.70 164.85
9227 37.7621 19014.90 18756.00 164.69
9228 37.7658 18292.50 18320.50 161.23
9229 37.7696 18136.50 17915.80 160.00
9230 37.7734 17672.80 17549.20 158.05
9231 37.7771 17405.90 17223.90 156.64
9232 37.7809 17045.10 16919.20 154.71
9233 37.7846 17211.50 16647.30 155.43
9234 37.7884 16659.00 16390.70 152.41
9235 37.7921 16489.10 16161.30 152.01
9236 37.7959 15984.40 15943.40 149.83
9237 37.7997 15871.40 15742.50 148.38
9238 37.8034 15697.90 15561.00 147.83
9239 37.8072 15763.20 15388.20 147.78
9240 37.8109 15201.80 15231.50 143.03
9241 37.8147 15857.90 15081.70 151.02
9242 37.8184 15133.50 14945.30 146.57
9243 37.8222 15087.90 14814.60 144.07
9244 37.8259 14631.40 14695.20 140.65
9245 37.8297 14916.40 14580.40 142.61
9246 37.8335 14403.50 14472.50 140.86
9247 37.8372 14345.30 14373.80 138.96
9248 37.8410 14127.00 14278.20 138.92
9249 37.8447 14472.20 14190.60 140.89
9250 37.8485 13933.50 14105.50 137.90
9251 37.8522 14289.10 14027.30 140.41
9252 37.8560 14088.90 13951.30 139.17
9253 37.8598 13922.00 13879.30 138.15
9254 37.8635 13826.10 13812.90 137.38
9255 37.8673 14222.30 13748.10 140.01
9256 37.8710 13857.30 13688.20 137.84
9257 37.8748 13992.20 13629.70 137.74
9258 37.8785 13586.00 13575.50 135.49
9259 37.8823 13942.10 13522.50 136.94
9260 37.8860 13517.60 13473.30 135.41
9261 37.8898 13674.60 13425.10 136.03
9262 37.8936 13354.10 13379.10 134.31
9263 37.8973 13580.80 13336.30 136.06
9264 37.9011 13289.70 13294.20 133.30
9265 37.9048 13312.40 13255.10 134.40
9266 37.9086 13194.70 13216.60 133.11
9267 37.9123 13200.00 13180.60 132.75
9268 37.9161 13296.40 13145.30 137.47
9269 37.9199 13160.90 13111.30 134.79
9270 37.9236 13103.00 13079.60 132.72
9271 37.9274 12949.70 13048.30 131.91
9272 37.9311 12958.00 13019.10 132.70
9273 37.9349 12983.00 12990.20 132.68
9274 37.9386 12840.20 12963.10 131.45
9275 37.9424 12993.50 12936.30 132.64
9276 37.9462 12830.30 12910.60 131.12
9277 37.9499 13058.10 12886.40 131.57
9278 37.9537 12877.30 12862.50 131.62
9279 37.9574 12963.10 12663.80 133.17
9280 37.9612 12642.00 12644.50 131.03
9281 37.9649 12874.30 12626.40 132.54
9282 37.9687 12563.90 12608.40 130.52
9283 37.9724 12856.80 12591.60 132.18
9284 37.9762 12662.50 12574.90 129.65
9285 37.9800 12664.10 12558.80 130.17
9286 37.9837 12731.90 12543.60 131.05
9287 37.9875 12742.10 12528.60 131.40
9288 37.9912 12495.40 12514.40 129.60
9289 37.9950 12668.40 12500.40 131.74
9290 37.9987 12508.00 12487.10 130.24
9291 38.0025 12596.30 12474.00 131.09
9292 38.0063 12321.30 12461.20 128.85
9293 38.0100 12711.70 12449.20 129.15
9294 38.0138 12560.50 12437.30 132.14
9295 38.0175 12787.20 12426.00 132.42
9296 38.0213 12217.20 12414.80 128.58
9297 38.0250 12303.00 12404.20 128.97
9298 38.0288 12369.60 12393.70 128.99
9299 38.0326 12238.30 12383.40 128.51
9300 38.0363 12057.20 12373.80 126.98
9301 38.0401 12521.90 12364.10 129.10
9302 38.0438 12172.10 12355.00 128.24
9303 38.0476 12478.70 12345.90 129.59
9304 38.0513 12140.40 12337.30 128.65
9305 38.0551 12400.30 12328.80 129.05
9306 38.0589 12345.40 12320.40 128.93
9307 38.0626 12407.30 12312.50 129.97
9308 38.0664 12106.10 12304.60 128.09
9309 38.0701 12253.40 12297.20 128.45
9310 38.0739 12329.40 12289.70 129.79
9311 38.0776 12446.30 12282.60 130.04
9312 38.0814 12234.90 12275.50 128.40
9313 38.0852 12293.00 12268.60 128.81
9314 38.0889 11953.20 12262.10 126.26
9315 38.0927 12120.80 12255.60 128.35
9316 38.0964 12160.20 12087.20 128.96
9317 38.1002 12134.20 12083.70 128.71
9318 38.1039 12053.90 12080.30 128.05
9319 38.1077 12287.10 12077.00 128.18
9320 38.1115 11911.60 12073.80 124.50
9321 38.1152 12445.40 11884.30 132.29
9322 38.1190 11995.60 11884.30 128.52
9323 38.1227 12200.90 11884.30 127.82
9324 38.1265 11914.90 11884.40 124.96
9325 38.1302 12181.20 11884.40 127.65
9326 38.1340 12087.40 11884.40 127.80
9327 38.1378 12172.90 11884.40 128.06
9328 38.1415 11935.20 11884.40 126.29
9329 38.1453 12164.70 11884.40 127.59
9330 38.1490 12124.20 11884.40 127.87
9331 38.1528 12176.40 11884.40 128.40
9332 38.1566 11964.70 11884.40 128.13
9333 38.1603 12052.50 11884.40 127.26
9334 38.1641 12298.30 11884.50 129.56
9335 38.1678 12137.40 11884.50 127.15
9336 38.1716 11940.00 11884.50 126.37
9337 38.1753 12202.80 11884.50 128.05
9338 38.1791 11903.30 11884.50 126.03
9339 38.1829 12069.20 11884.50 127.51
9340 38.1866 11964.70 11884.50 126.94
9341 38.1904 11857.70 11884.50 125.44
9342 38.1941 12118.50 11884.50 128.51
9343 38.1979 12130.60 11884.50 127.68
9344 38.2016 11900.40 11884.60 126.68
9345 38.2054 12209.80 11884.60 128.32
9346 38.2092 11930.70 11884.60 125.63
9347 38.2129 11873.00 11884.60 126.49
9348 38.2167 11946.20 11884.60 129.22
9349 38.2204 12074.20 11884.60 127.07
9350 38.2242 11893.90 11884.60 125.93
9351 38.2279 11904.70 11884.60 126.11
9352 38.2317 11889.50 11884.60 126.20
9353 38.2355 11866.70 11884.60 126.27
9354 38.2392 11718.70 11884.70 125.56
9355 38.2430 12055.00 11884.70 128.11
9356 38.2467 11892.40 11884.70 126.25
9357 38.2505 12115.60 11884.70 127.50
9358 38.2542 11843.40 11884.70 125.86
9359 38.2580 12026.40 11884.70 127.42
9360 38.2618 12050.50 11884.70 127.44
9361 38.2655 11922.60 11884.70 126.22
9362 38.2693 11927.90 11884.70 126.77
9363 38.2730 12071.70 11884.70 127.39
9364 38.2768 11883.30 11884.70 126.54
9365 38.2806 11864.40 11884.80 126.15
9366 38.2843 11808.70 11884.80 126.10
9367 38.2881 11979.90 11884.80 125.67
9368 38.2918 11612.30 11884.80 124.18
9369 38.2956 11982.90 11884.80 127.43
9370 38.2993 11609.40 11884.80 124.13
9371 38.3031 11934.20 11884.80 127.27
9372 38.3069 11839.00 11884.80 126.05
9373 38.3106 11782.60 11884.80 123.42
9374 38.3144 11724.50 11884.80 125.38
9375 38.3181 11948.80 11884.80 128.63
9376 38.3219 11635.70 11884.90 124.77
9377 38.3256 11788.10 11884.90 123.75
9378 38.3294 11861.20 11884.90 126.05
9379 38.3332 11907.10 11884.90 126.24
9380 38.3369 11837.00 11884.90 126.63
9381 38.3407 11846.40 11884.90 125.43
9382 38.3444 11649.20 11884.90 124.40
9383 38.3482 11883.10 11884.90 125.15
9384 38.3520 11597.90 11884.90 124.56
9385 38.3557 11816.80 11884.90 125.97
9386 38.3595 11685.10 11884.90 124.36
9387 38.3632 11714.80 11884.90 125.13
9388 38.3670 11694.20 11884.90 125.25
9389 38.3707 11770.00 11885.00 125.74
9390 38.3745 11716.50 11885.00 125.59
9391 38.3783 11778.00 11885.00 125.71
9392 38.3820 11624.60 11885.00 125.07
9393 38.3858 11875.00 11885.00 126.09
9394 38.3895 11563.80 11885.00 122.08
9395 38.3933 11843.70 11885.00 126.89
9396 38.3971 11708.40 11885.00 125.17
9397 38.4008 11743.80 11885.00 126.08
9398 38.4046 11477.70 11885.00 123.75
9399 38.4083 11961.10 11885.00 126.57
9400 38.4121 11610.50 11885.00 123.31
9401 38.4158 11920.50 11885.00 128.97
9402 38.4196 11801.90 11885.00 126.92
9403 38.4234 11836.80 11885.10 126.13
9404 38.4271 11693.90 11885.10 125.17
9405 38.4309 11936.20 11885.10 126.52
9406 38.4346 11627.50 11885.10 124.66
9407 38.4384 11763.20 11885.10 126.04
9408 38.4422 11569.30 11885.10 124.93
9409 38.4459 11667.40 11885.10 125.56
9410 38.4497 11629.70 11885.10 125.02
9411 38.4534 11645.40 11885.10 125.15
9412 38.4572 11543.40 11885.10 124.01
9413 38.4609 11796.80 11885.10 126.64
9414 38.4647 11484.60 11885.10 124.07
9415 38.4685 11852.40 11885.10 126.51
9416 38.4722 11558.20 11885.10 124.60
9417 38.4760 11848.50 11885.10 124.69
9418 38.4797 11594.70 11885.10 123.71
9419 38.4835 11943.50 11885.10 126.84
9420 38.4873 11490.00 11885.10 123.76
9421 38.4910 11875.40 11885.10 126.36
9422 38.4948 11753.30 11885.20 127.32
9423 38.4985 11724.10 11885.20 125.54
9424 38.5023 11639.20 11885.20 125.31
9425 38.5060 11759.20 11885.20 125.63
9426 38.5098 11632.30 11885.20 124.57
9427 38.5136 12036.50 11885.20 127.15
9428 38.5173 11685.00 11885.20 127.28
9429 38.5211 11760.70 11885.20 125.80
9430 38.5248 11445.60 11885.20 123.75
9431 38.5286 11739.30 11885.20 125.20
9432 38.5324 11597.70 11885.20 124.83
9433 38.5361 11546.10 11885.20 124.60
9434 38.5399 11630.40 11885.20 125.21
9435 38.5436 11668.20 11885.20 124.82
9436 38.5474 11447.10 11885.20 123.89
9437 38.5511 11733.90 11885.20 125.54
9438 38.5549 11470.30 11885.20 124.28
9439 38.5587 11836.00 11885.20 125.66
9440 38.5624 11647.70 11885.20 124.65
9441 38.5662 11850.40 11885.20 126.44
9442 38.5699 11386.50 11885.20 123.36
9443 38.5737 11846.90 11885.20 126.46
9444 38.5775 11501.30 11885.20 123.50
9445 38.5812 11770.90 11885.20 124.79
9446 38.5850 11437.20 11885.20 123.12
9447 38.5887 11845.50 11885.20 125.85
9448 38.5925 11630.50 11885.20 125.16
9449 38.5963 11734.90 11885.20 125.40
9450 38.6000 11688.80 11885.20 125.61
9451 38.6038 11752.10 11885.20 126.33
9452 38.6075 11725.20 11885.20 124.67
9453 38.6113 11761.70 11887.60 124.27
9454 38.6150 11655.00 11887.60 127.64
9455 38.6188 11699.30 11887.70 126.06
9456 38.6226 11661.20 11887.70 124.95
9457 38.6263 11735.10 11887.80 124.69
9458 38.6301 11482.10 11887.80 123.08
9459 38.6338 11628.20 11887.80 124.98
9460 38.6376 11441.80 11887.90 124.14
9461 38.6414 11677.10 11887.90 125.42
9462 38.6451 11598.00 11888.00 124.83
9463 38.6489 11779.40 11888.00 125.71
9464 38.6526 11630.60 11888.10 124.83
9465 38.6564 11770.00 11888.10 125.37
9466 38.6602 11494.10 11888.20 123.59
9467 38.6639 11767.00 11888.20 125.69
9468 38.6677 11707.10 11888.30 124.75
9469 38.6714 11835.30 11888.30 125.88
9470 38.6752 11408.70 11888.40 122.99
9471 38.6789 11617.50 11888.40 123.91
9472 38.6827 11726.60 11888.50 124.73
9473 38.6865 11906.20 11888.60 125.83
9474 38.6902 11376.60 11888.60 122.06
9475 38.6940 12032.00 11888.70 127.29
9476 38.6977 11507.30 11888.80 123.13
9477 38.7015 11826.30 11888.80 125.08
9478 38.7053 11769.60 11888.90 125.65
9479 38.7090 11498.30 11889.00 123.05
9480 38.7128 11566.80 11889.10 122.35
9481 38.7165 11752.70 11889.10 128.31
9482 38.7203 11304.10 11889.20 123.62
9483 38.7241 11575.40 11889.30 123.87
9484 38.7278 11703.80 11889.40 122.63
9485 38.7316 11699.80 11889.50 124.83
9486 38.7353 11426.00 11889.60 122.99
9487 38.7391 11694.80 11889.70 125.01
9488 38.7428 11590.60 11889.80 124.64
9489 38.7466 11752.70 11889.90 124.90
9490 38.7504 11642.10 11890.00 124.58
9491 38.7541 11830.70 11890.10 126.34
9492 38.7579 11526.30 11890.20 124.21
9493 38.7616 11714.50 11890.30 125.53
9494 38.7654 11665.20 11890.40 124.39
9495 38.7692 11943.10 11890.50 126.49
9496 38.7729 11461.60 11890.70 123.05
9497 38.7767 11605.10 11890.80 123.92
9498 38.7804 11637.90 11891.00 123.35
9499 38.7842 11688.40 11891.10 125.15
9500 38.7880 11485.40 11891.30 123.08
9501 38.7917 11737.80 11891.40 124.93
9502 38.7955 11687.20 11891.60 124.35
9503 38.7992 11801.50 11891.80 125.29
9504 38.8030 11663.10 11892.00 125.31
9505 38.8068 11693.60 11892.10 124.32
9506 38.8105 11569.10 11892.30 122.44
9507 38.8143 11809.80 11892.60 125.83
9508 38.8180 11948.20 11892.80 129.14
9509 38.8218 11835.60 11893.00 125.82
9510 38.8255 11598.90 11893.20 123.99
9511 38.8293 11754.80 11893.50 124.17
9512 38.8331 11705.60 11893.80 124.74
9513 38.8368 11604.40 11894.00 124.05
9514 38.8406 11447.70 11894.30 123.50
9515 38.8443 11598.60 11894.60 123.86
9516 38.8481 11643.70 11895.00 124.36
9517 38.8519 11805.50 11895.30 123.88
9518 38.8556 11567.90 11895.70 124.60
9519 38.8594 11819.40 11896.00 126.13
9520 38.8631 11608.20 11896.40 124.76
9521 38.8669 11642.80 11896.90 124.11
9522 38.8707 11548.90 11897.30 124.31
9523 38.8744 11754.70 11897.80 125.63
9524 38.8782 11483.40 11898.30 123.71
9525 38.8819 11778.70 11898.80 125.54
9526 38.8857 11717.70 11899.40 124.45
9527 38.8895 11642.00 11900.00 124.24
9528 38.8932 11629.30 11900.60 124.93
9529 38.8970 11929.40 11901.30 127.06
9530 38.9007 11519.00 11902.10 124.31
9531 38.9045 11676.10 11902.90 123.76
9532 38.9083 11484.00 11903.70 122.27
9533 38.9120 11739.70 11904.60 123.38
9534 38.9158 11761.30 11905.60 126.79
9535 38.9195 11812.80 11906.60 127.16
9536 38.9233 11386.40 11907.80 123.69
9537 38.9270 11630.50 11909.00 123.81
9538 38.9308 11594.70 11910.30 124.24
9539 38.9346 11827.60 11911.80 125.40
9540 38.9383 11583.80 11913.30 124.67
9541 38.9421 11789.80 11915.00 126.07
9542 38.9458 11562.70 11916.90 124.39
9543 38.9496 11795.80 11918.90 125.25
9544 38.9534 11683.20 11921.20 124.72
9545 38.9571 11761.70 11923.60 125.52
9546 38.9609 11593.60 11926.30 124.85
9547 38.9646 11676.30 11929.30 124.69
9548 38.9684 11632.10 11932.70 124.93
9549 38.9722 11963.30 11936.50 127.02
9550 38.9759 11485.10 11940.60 123.42
9551 38.9797 11640.80 11945.40 124.85
9552 38.9834 11700.50 11950.60 124.64
9553 38.9872 12046.80 11956.70 126.90
9554 38.9910 11502.10 11963.70 123.47
9555 38.9947 11989.20 11971.50 127.00
9556 38.9985 11467.80 11980.80 124.07
9557 39.0022 11923.80 11991.30 127.34
9558 39.0060 11894.10 12003.90 125.89
9559 39.0098 12032.80 12018.90 125.13
9560 39.0135 11868.50 12036.30 125.27
9561 39.0173 11989.50 12057.90 128.23
9562 39.0210 11893.20 12083.60 127.17
9563 39.0248 12001.10 12116.80 126.89
9564 39.0286 11915.70 12160.00 126.11
9565 39.0323 12284.30 12216.40 128.75
9566 39.0361 12124.10 12298.10 127.93
9567 39.0398 12508.90 12413.60 130.51
9568 39.0436 12265.50 12587.50 128.70
9569 39.0474 12846.40 12841.10 131.32
9570 39.0511 12798.90 13185.60 132.57
9571 39.0549 13408.80 13652.70 136.43
9572 39.0586 13705.70 14205.10 136.55
9573 39.0624 14376.90 14805.40 139.74
9574 39.0661 14235.90 15267.30 139.17
9575 39.0699 14689.20 15404.30 143.24
9576 39.0737 14465.20 15122.20 142.33
9577 39.0774 14451.90 14590.70 140.42
9578 39.0812 13597.20 13989.90 136.43
9579 39.0849 13615.50 13469.00 136.73
9580 39.0887 12831.70 13044.20 130.66
9581 39.0925 12591.40 12730.50 129.68
9582 39.0962 12419.30 12515.90 130.95
9583 39.1000 12536.10 12364.90 130.60
9584 39.1037 11929.00 12264.60 127.35
9585 39.1075 11912.90 12192.90 126.72
9586 39.1113 11725.10 12141.30 124.49
9587 39.1150 12123.30 12103.40 128.99
9588 39.1188 11788.00 12072.80 127.90
9589 39.1225 11845.00 12048.90 126.64
9590 39.1263 11968.90 12028.80 126.20
9591 39.1301 12039.50 12012.00 127.45
9592 39.1338 11794.80 11998.30 126.13
9593 39.1376 11920.40 11986.30 126.71
9594 39.1413 11868.60 11976.40 125.25
9595 39.1451 11755.80 11967.50 126.33
9596 39.1489 11601.20 11959.80 124.92
9597 39.1526 12064.70 11953.30 127.54
9598 39.1564 11614.10 11947.40 125.12
9599 39.1601 11808.50 11942.40 126.11
9600 39.1639 11797.90 11937.70 126.20
9601 39.1677 11851.30 11933.60 126.69
9602 39.1714 11687.30 11930.00 125.97
9603 39.1752 11779.60 11926.70 125.95
9604 39.1789 11654.10 11923.80 125.64
9605 39.1827 12038.70 11921.10 126.96
9606 39.1865 11646.90 11918.60 125.30
9607 39.1902 11819.90 11916.40 125.74
9608 39.1940 11733.20 11914.40 126.04
9609 39.1977 11934.00 11912.60 126.76
9610 39.2015 11515.10 11910.80 125.13
9611 39.2053 11904.90 11909.30 127.28
9612 39.2090 11741.90 11907.80 125.47
9613 39.2128 11666.00 11906.50 122.95
9614 39.2165 11884.30 11905.20 129.82
9615 39.2203 12157.80 11904.10 129.97
9616 39.2241 11824.70 11903.00 125.95
9617 39.2278 11839.30 11902.00 125.40
9618 39.2316 11690.30 11901.00 125.01
9619 39.2353 11831.60 11900.20 126.91
9620 39.2391 11859.60 11899.30 126.16
9621 39.2429 11728.10 11898.60 125.79
9622 39.2466 11748.80 11897.90 126.21
9623 39.2504 11787.70 11897.20 126.14
9624 39.2541 11568.10 11896.50 124.90
9625 39.2579 11872.60 11895.90 126.34
9626 39.2616 11626.70 11895.40 125.05
9627 39.2654 11878.40 11894.80 126.06
9628 39.2692 11520.60 11894.30 124.95
9629 39.2729 11960.30 11893.80 126.94
9630 39.2767 11710.60 11893.30 125.78
9631 39.2804 11915.80 11892.90 126.68
9632 39.2842 11540.10 11892.50 124.72
9633 39.2880 11649.00 11892.10 124.92
9634 39.2917 11475.90 11891.70 123.19
9635 39.2955 12116.20 11891.40 128.89
9636 39.2992 11734.00 11891.00 125.23
9637 39.3030 11673.30 11890.70 125.06
9638 39.3068 11736.40 11890.40 125.15
9639 39.3105 11799.20 11890.10 125.48
9640 39.3143 11485.50 11889.80 122.91
9641 39.3180 12006.30 11889.60 130.15
9642 39.3218 11372.10 11889.30 122.52
9643 39.3256 11614.90 11889.10 124.47
9644 39.3293 11681.90 11888.90 124.86
9645 39.3331 11804.10 11888.70 126.44
9646 39.3368 11509.70 11888.50 123.63
9647 39.3406 11590.20 11888.30 125.02
9648 39.3444 11509.10 11888.10 124.23
9649 39.3481 11726.80 11888.00 125.32
9650 39.3519 11416.70 11887.90 124.04
9651 39.3556 11694.20 11887.70 125.29
9652 39.3594 11458.40 11887.60 122.66
9653 39.3632 11690.00 11887.50 124.74
9654 39.3669 11708.60 11887.50 125.28
9655 39.3707 11755.50 11887.40 125.68
9656 39.3744 11471.00 11887.40 123.93
9657 39.3782 11675.40 11887.40 124.88
9658 39.3820 11740.80 11887.50 126.15
9659 39.3857 12042.60 11887.60 127.63
9660 39.3895 11520.10 11887.70 124.11
9661 39.3932 11795.00 11888.00 126.00
9662 39.3970 11749.50 11888.40 126.61
9663 39.4008 11653.60 11889.00 125.17
9664 39.4045 11421.70 11889.90 124.17
9665 39.4083 11853.90 11891.30 126.43
9666 39.4120 11669.00 11893.20 123.39
9667 39.4158 11949.10 11895.80 128.70
9668 39.4196 11792.90 11898.90 127.68
9669 39.4233 11838.50 11902.10 126.23
9670 39.4271 11661.20 11904.60 124.52
9671 39.4308 11956.40 11905.20 127.46
9672 39.4346 11856.40 11903.70 125.25
9673 39.4384 11741.20 11900.90 125.85
9674 39.4421 11812.60 11897.90 126.32
9675 39.4459 11917.50 11895.30 125.77
9676 39.4496 11661.50 11893.40 124.93
9677 39.4534 11702.90 11892.00 124.93
9678 39.4572 11509.40 11891.20 124.62
9679 39.4609 11725.10 11890.80 125.31
9680 39.4647 11473.30 11890.70 123.88
9681 39.4684 11752.40 11890.90 125.57
9682 39.4722 11589.90 11891.20 124.65
9683 39.4760 11909.50 11891.70 126.41
9684 39.4797 11842.60 11892.40 125.61
9685 39.4835 12001.50 11893.30 126.49
9686 39.4872 11749.30 11894.30 126.39
9687 39.4910 11712.30 11895.60 125.66
9688 39.4948 11526.20 11897.10 123.97
9689 39.4985 11832.30 11899.00 126.21
9690 39.5023 11598.70 11901.20 125.31
9691 39.5060 11727.40 11903.90 124.64
9692 39.5098 11768.40 11907.30 125.51
9693 39.5136 11731.00 11911.50 123.63
9694 39.5173 11960.90 11916.70 129.67
9695 39.5211 12060.40 11923.80 128.59
9696 39.5248 11643.20 11933.20 125.49
9697 39.5286 12022.90 11944.60 125.94
9698 39.5324 11815.40 11964.80 125.35
9699 39.5361 11983.40 11993.70 126.16
9700 39.5399 11862.70 12036.10 126.65
9701 39.5436 12026.10 12093.00 127.30
9702 39.5474 12180.00 12168.60 127.52
9703 39.5512 12286.00 12258.00 129.04
9704 39.5549 12475.20 12345.50 129.31
9705 39.5587 12678.30 12408.40 131.56
9706 39.5624 12312.80 12414.10 129.41
9707 39.5662 12673.60 12359.70 132.18
9708 39.5700 12374.20 12272.00 129.58
9709 39.5737 12157.90 12183.40 128.58
9710 39.5775 12081.80 12104.60 128.24
9711 39.5812 12154.30 12044.40 127.54
9712 39.5850 11920.30 11999.00 126.93
9713 39.5888 12152.10 11967.20 128.88
9714 39.5925 11888.50 11945.90 126.67
9715 39.5963 12206.50 11930.90 128.36
9716 39.6000 11677.20 11920.60 126.00
9717 39.6038 12064.40 11912.90 128.39
9718 39.6076 11472.60 11907.00 123.96
9719 39.6113 11884.90 11902.50 125.40
9720 39.6151 11538.40 11898.70 123.38
9721 39.6188 11991.50 11895.60 129.44
9722 39.6226 11616.30 11893.00 125.14
9723 39.6263 11958.70 11890.80 126.18
9724 39.6301 11924.20 11888.80 125.29
9725 39.6339 11868.80 11887.20 125.74
9726 39.6376 11775.70 11885.80 125.71
9727 39.6414 12010.70 11884.50 126.69
9728 39.6452 11688.30 11883.40 124.99
9729 39.6489 11895.20 11882.40 125.65
9730 39.6527 11714.90 11881.50 125.21
9731 39.6564 11928.80 11880.70 124.06
9732 39.6602 11542.60 11879.90 123.95
9733 39.6640 11881.50 11879.30 126.19
9734 39.6677 11770.80 11878.70 124.44
9735 39.6715 11728.40 11878.10 125.37
9736 39.6752 11577.90 11877.60 123.18
9737 39.6790 11940.00 11877.10 126.11
9738 39.6827 11652.30 11876.60 124.77
9739 39.6865 11850.30 11876.20 125.49
9740 39.6903 11673.00 11875.80 124.25
9741 39.6940 11789.40 11875.40 125.10
9742 39.6978 11697.50 11875.10 124.64
9743 39.7015 11817.40 11874.70 125.19
9744 39.7053 11661.80 11874.40 125.34
9745 39.7091 11667.50 11874.10 124.24
9746 39.7128 11609.20 11873.80 122.81
9747 39.7166 11864.30 11873.50 127.53
9748 39.7203 11746.70 11873.30 127.06
9749 39.7241 11724.90 11873.00 125.00
9750 39.7279 11602.00 11872.70 123.94
9751 39.7316 11874.50 11872.50 125.03
9752 39.7354 11710.70 11872.20 124.41
9753 39.7391 11752.80 11872.00 125.03
9754 39.7429 11613.80 11871.80 123.93
9755 39.7467 11700.40 11871.60 124.58
9756 39.7504 11736.00 11871.40 124.99
9757 39.7542 11747.40 11871.10 124.86
9758 39.7579 11387.80 11870.90 123.78
9759 39.7617 11959.60 11870.70 126.98
9760 39.7655 11626.40 11870.50 124.35
9761 39.7692 12020.10 11870.30 126.40
9762 39.7730 11800.70 11870.10 125.33
9763 39.7767 11825.30 11870.00 125.78
9764 39.7805 11710.60 11869.80 124.83
9765 39.7843 11888.20 11869.60 125.17
9766 39.7880 11481.70 11869.40 123.47
9767 39.7918 11837.60 11869.20 125.25
9768 39.7955 11684.20 11869.00 123.79
9769 39.7993 11909.70 11868.80 125.88
9770 39.8031 11649.90 11868.70 125.04
9771 39.8068 11890.10 11868.50 124.79
9772 39.8106 11599.90 11868.30 124.28
9773 39.8143 11807.80 11868.10 123.45
9774 39.8181 11784.20 11868.00 128.13
9775 39.8219 11898.80 11867.80 127.07
9776 39.8256 11832.30 11867.60 124.14
9777 39.8294 11857.40 11867.50 124.92
9778 39.8331 11686.40 11867.30 124.79
9779 39.8369 11947.40 11867.10 125.16
9780 39.8407 11780.90 11866.90 125.07
9781 39.8444 11669.00 11866.80 123.52
9782 39.8482 11857.30 11866.60 125.68
9783 39.8519 11874.00 11866.40 126.12
9784 39.8557 11573.80 11866.30 124.10
9785 39.8595 12041.90 11866.10 127.22
9786 39.8632 11767.70 11865.90 125.14
9787 39.8670 12013.70 11865.80 125.62
9788 39.8707 11754.50 11865.60 125.75
9789 39.8745 12027.40 11865.40 125.29
9790 39.8783 11904.80 11865.30 126.79
9791 39.8820 11974.40 11865.10 126.73
9792 39.8858 11790.80 11864.90 124.11
9793 39.8895 11991.30 11864.80 126.27
9794 39.8933 11667.30 11864.60 124.35
9795 39.8971 11972.70 11864.40 128.12
9796 39.9008 11724.60 11864.30 124.32
9797 39.9046 11905.10 11864.10 125.58
9798 39.9083 11889.40 11863.90 126.93
9799 39.9121 12028.30 11863.80 126.34
9800 39.9159 11680.00 11863.60 124.46
9801 39.9196 12216.90 11863.40 131.15
9802 39.9234 11982.10 11863.30 127.61
9803 39.9271 11866.00 11863.10 125.29
9804 39.9309 11833.90 11862.90 126.16
9805 39.9347 11935.70 11862.80 126.31
9806 39.9384 11694.60 11862.60 124.90
9807 39.9422 11926.10 11862.40 126.93
9808 39.9459 11789.20 11862.30 126.34
9809 39.9497 11979.00 11862.10 127.15
9810 39.9535 11730.00 11861.90 125.15
9811 39.9572 12166.10 11861.70 127.25
9812 39.9610 11770.70 11861.60 125.92
9813 39.9647 12019.50 11861.40 127.15
9814 39.9685 11915.30 11861.20 126.76
9815 39.9723 11922.20 11861.10 126.02
9816 39.9760 11815.10 11860.90 124.34
9817 39.9798 12044.20 11860.70 126.46
9818 39.9835 11946.50 11860.50 126.24
9819 39.9873 12044.40 11860.40 125.82
9820 39.9911 11796.60 11860.20 125.19
9821 39.9948 11938.20 11860.00 126.51
9822 39.9986 11484.10 11859.80 124.19
9823 40.0023 12118.30 11859.70 128.12
9824 40.0061 11777.60 11859.50 125.74
9825 40.0098 11865.80 11859.30 126.04
9826 40.0136 11642.60 11859.10 122.68
9827 40.0174 11988.90 11859.00 129.49
9828 40.0211 12090.30 11858.80 127.93
9829 40.0249 11854.00 11858.20 125.19
9830 40.0286 11714.60 11858.10 125.14
9831 40.0324 11898.20 11857.90 125.89
9832 40.0362 11745.70 11857.70 126.01
9833 40.0399 12199.80 11857.50 128.40
9834 40.0437 11696.90 11857.30 125.86
9835 40.0474 11973.10 11857.20 126.50
9836 40.0512 11933.40 11857.00 125.71
9837 40.0550 11992.00 11856.80 127.39
9838 40.0587 11983.90 11856.60 126.71
9839 40.0625 11910.80 11856.50 126.68
9840 40.0662 11948.20 11856.30 127.05
9841 40.0700 11920.20 11856.10 126.60
9842 40.0738 11789.20 11855.90 125.76
9843 40.0775 11904.40 11855.70 126.19
9844 40.0813 11808.80 11855.50 126.63
9845 40.0850 12020.90 11855.40 127.42
9846 40.0888 11773.10 11855.20 125.31
9847 40.0926 12166.60 11855.00 127.02
9848 40.0963 11913.60 11854.80 126.98
9849 40.1001 11878.40 11854.60 125.39
9850 40.1038 11843.80 11854.40 126.21
9851 40.1076 12222.30 11854.20 127.71
9852 40.1114 11917.30 11854.10 125.62
9853 40.1151 11823.10 11853.90 125.54
9854 40.1189 11787.70 11853.70 127.81
9855 40.1226 12174.70 11853.50 127.98
9856 40.1264 11627.30 11853.30 123.37
9857 40.1302 11927.70 11853.10 125.83
9858 40.1339 11924.40 11852.90 126.30
9859 40.1377 12020.40 11852.70 126.57
9860 40.1414 11794.10 11852.50 125.39
9861 40.1452 12001.80 11852.30 125.71
9862 40.1490 11998.80 11852.10 126.64
9863 40.1527 12094.70 11851.90 127.45
9864 40.1565 11988.60 11851.70 126.61
9865 40.1602 12045.70 11851.50 127.20
9866 40.1640 11714.30 11851.30 124.88
9867 40.1678 11839.10 11851.10 125.21
9868 40.1715 11873.80 11850.90 125.82
9869 40.1753 11826.40 11850.70 125.48
9870 40.1790 11698.80 11850.50 124.75
9871 40.1828 12021.40 11850.30 126.64
9872 40.1865 11576.70 11850.10 122.20
9873 40.1903 11939.90 11849.90 126.15
9874 40.1941 11762.10 11849.70 125.17
9875 40.1978 12136.10 11849.50 128.62
9876 40.2016 11897.60 11849.30 124.51
9877 40.2053 11976.10 11849.10 125.85
9878 40.2091 11642.30 11848.90 123.44
9879 40.2129 11677.70 11848.70 123.76
9880 40.2166 11726.80 11848.50 124.41
9881 40.2204 12078.10 11848.30 129.60
9882 40.2241 11906.20 11848.00 125.21
9883 40.2279 11943.80 11847.80 125.68
9884 40.2317 11639.90 11847.60 123.54
9885 40.2354 11888.50 11847.40 125.08
9886 40.2392 11652.20 11847.20 124.40
9887 40.2429 12048.60 11847.00 126.47
9888 40.2467 11756.80 11846.80 125.05
9889 40.2505 12139.50 11846.50 127.64
9890 40.2542 11714.10 11846.30 124.60
9891 40.2580 11958.30 11846.10 124.93
9892 40.2617 11648.60 11845.90 124.21
9893 40.2655 11917.00 11845.70 126.20
9894 40.2693 11773.90 11845.50 125.65
9895 40.2730 11889.90 11845.20 125.64
9896 40.2768 11786.40 11845.00 125.64
9897 40.2805 12045.20 11844.80 127.00
9898 40.2843 11466.70 11844.60 122.82
9899 40.2881 11890.20 11844.40 125.63
9900 40.2918 11706.90 11844.10 124.46
9901 40.2956 12013.10 11843.90 127.43
9902 40.2993 11674.10 11843.70 125.38
9903 40.3031 11602.20 11843.50 125.03
9904 40.3068 11675.50 11843.20 124.83
9905 40.3106 11894.40 11843.00 124.97
9906 40.3144 11441.10 11842.80 121.41
9907 40.3181 11939.80 11842.50 127.90
9908 40.3219 11800.30 11842.30 126.05
9909 40.3256 11869.90 11842.10 125.39
9910 40.3294 11724.90 11841.80 124.51
9911 40.3332 11962.90 11841.60 126.26
9912 40.3369 11858.60 11841.40 125.13
9913 40.3407 11981.40 11841.10 126.38
9914 40.3444 11787.20 11840.90 125.42
9915 40.3482 11811.10 11840.70 125.82
9916 40.3520 11892.30 11840.40 126.49
9917 40.3557 12317.30 11840.20 128.86
9918 40.3595 11902.00 11840.00 125.60
9919 40.3632 12145.20 11839.70 127.74
9920 40.3670 11737.40 11839.50 125.62
9921 40.3708 11853.20 11839.20 125.88
9922 40.3745 11598.70 11839.00 122.59
9923 40.3783 11907.90 11838.80 126.32
9924 40.3820 11739.00 11838.50 125.42
9925 40.3858 11946.80 11838.30 125.64
9926 40.3896 11899.50 11838.00 125.70
9927 40.3933 11765.80 11837.80 125.10
9928 40.3971 11797.40 11837.50 125.21
9929 40.4008 11850.90 11837.30 126.07
9930 40.4046 11741.80 11837.10 124.87
9931 40.4084 11883.00 11836.80 126.43
9932 40.4121 11858.00 11836.60 125.49
9933 40.4159 11844.10 11836.30 123.46
9934 40.4196 11698.10 11836.10 127.57
9935 40.4234 12081.00 11835.80 126.66
9936 40.4271 11895.00 11835.60 125.56
9937 40.4309 11776.60 11835.30 125.23
9938 40.4347 11883.30 11835.10 125.31
9939 40.4384 11936.80 11834.80 125.54
9940 40.4422 11829.30 11834.50 124.30
9941 40.4459 11949.40 11834.30 126.38
9942 40.4497 11869.60 11834.00 126.51
9943 40.4535 12174.50 11833.80 127.86
9944 40.4572 11858.00 11833.50 125.93
9945 40.4610 12109.60 11833.30 126.49
9946 40.4647 11644.40 11833.00 125.19
9947 40.4685 11914.40 11832.70 127.19
9948 40.4723 11679.30 11832.50 124.63
9949 40.4760 12035.50 11832.20 125.91
9950 40.4798 11808.00 11832.00 126.16
9951 40.4835 12038.80 11831.70 126.12
9952 40.4873 11984.40 11831.40 127.34
9953 40.4910 12099.90 11831.20 125.98
9954 40.4948 11837.90 11830.90 124.20
9955 40.4986 11904.50 11830.60 125.10
9956 40.5023 11902.70 11830.40 126.17
9957 40.5061 12114.70 11830.10 127.93
9958 40.5098 11649.00 11829.80 123.95
9959 40.5136 12080.30 11829.60 126.04
9960 40.5174 11770.20 11829.30 127.49
9961 40.5211 12366.50 11829.00 131.00
9962 40.5249 12003.20 11828.70 126.77
9963 40.5286 12163.00 11828.50 126.37
9964 40.5324 11786.00 11828.20 125.48
9965 40.5362 12002.80 11827.90 126.60
9966 40.5399 11862.70 11827.60 126.37
9967 40.5437 12197.70 11827.40 127.38
9968 40.5474 11757.40 11827.10 125.02
9969 40.5512 11978.60 11826.80 126.84
9970 40.5549 11856.60 11826.50 126.03
9971 40.5587 12118.90 11826.30 127.59
9972 40.5625 11662.70 11826.00 125.40
9973 40.5662 11930.60 11825.70 126.49
9974 40.5700 11942.10 11825.40 126.29
9975 40.5737 12127.80 11825.10 127.28
9976 40.5775 11815.20 11824.90 124.84
9977 40.5813 11922.50 11824.60 125.32
9978 40.5850 11696.70 11824.30 124.55
9979 40.5888 12104.40 11824.00 126.43
9980 40.5925 11859.00 11823.70 125.75
9981 40.5963 11943.30 11823.40 126.62
9982 40.6001 12066.40 11823.10 127.29
9983 40.6038 11902.60 11822.80 126.03
9984 40.6076 11868.90 11822.60 125.95
9985 40.6113 12143.80 11822.30 127.68
9986 40.6151 11935.20 11822.00 124.44
9987 40.6188 11941.00 11821.70 129.02
9988 40.6226 11827.90 11821.40 125.32
9989 40.6264 12207.90 11821.10 127.55
9990 40.6301 11915.70 11820.80 125.30
9991 40.6339 12051.10 11820.50 126.24
9992 40.6376 11748.70 11820.20 125.06
9993 40.6414 11970.60 11819.90 126.04
9994 40.6452 11877.30 11819.60 125.94
9995 40.6489 11762.10 11819.30 125.56
9996 40.6527 11833.60 11819.00 125.27
9997 40.6564 11900.90 11818.70 125.92
9998 40.6602 11646.30 11818.40 124.46
9999 40.6640 12012.80 11818.10 126.15
10000 40.6677 11943.60 11817.80 125.52
10001 40.6715 12011.90 11817.50 124.77
10002 40.6752 12030.50 11817.20 126.37
10003 40.6790 12211.40 11816.90 128.09
10004 40.6827 11785.70 11816.60 125.39
10005 40.6865 12088.90 11816.30 126.25
10006 40.6903 11817.00 11816.00 124.08
10007 40.6940 11941.00 11815.70 125.40
10008 40.6978 11836.40 11815.40 126.29
10009 40.7015 12031.40 11815.10 126.56
10010 40.7053 11828.80 11814.70 126.13
10011 40.7091 12035.70 11814.40 126.48
10012 40.7128 11671.50 11814.10 123.43
10013 40.7166 12241.80 11813.80 127.46
10014 40.7203 11929.00 11813.50 128.44
10015 40.7241 11976.50 11813.20 126.42
10016 40.7278 11580.70 11812.90 123.36
10017 40.7316 11967.70 11812.50 125.86
10018 40.7354 11992.40 11812.20 125.93
10019 40.7391 12223.70 11811.90 127.74
10020 40.7429 11743.50 11811.60 123.89
10021 40.7466 11962.50 11811.30 125.48
10022 40.7504 11738.20 11810.90 125.03
10023 40.7542 12024.00 11810.60 126.08
10024 40.7579 12004.30 11810.30 126.62
10025 40.7617 12154.00 11810.00 127.04
10026 40.7654 11824.80 11809.70 125.38
10027 40.7692 12093.90 11809.30 127.21
10028 40.7729 11866.70 11809.00 125.63
10029 40.7767 11815.00 11808.70 125.78
10030 40.7805 11972.70 11808.30 125.35
10031 40.7842 11891.10 11808.00 125.49
10032 40.7880 11869.30 11807.70 125.77
10033 40.7917 11953.10 11807.40 126.65
10034 40.7955 11775.80 11807.00 125.10
10035 40.7993 12188.20 11806.70 128.21
10036 40.8030 11762.70 11806.40 125.45
10037 40.8068 12117.90 11806.00 126.32
10038 40.8105 11787.80 11805.70 125.26
10039 40.8143 12105.30 11805.40 125.68
10040 40.8180 12035.80 11805.00 127.45
10041 40.8218 12316.80 11804.70 130.48
10042 40.8256 11856.90 11804.40 124.91
10043 40.8293 11969.30 11804.00 125.99
10044 40.8331 11981.30 11803.70 126.31
10045 40.8368 11965.70 11803.30 125.88
10046 40.8406 12098.00 11803.00 126.89
10047 40.8444 12034.00 11802.70 126.88
10048 40.8481 11919.20 11802.30 126.81
10049 40.8519 12004.00 11802.00 127.50
10050 40.8556 11855.10 11801.60 125.24
10051 40.8594 12242.80 11801.30 127.98
10052 40.8631 11665.00 11800.90 124.86
10053 40.8669 12372.70 11800.60 127.18
10054 40.8707 11796.60 11800.20 125.53
10055 40.8744 12100.00 11799.90 127.50
10056 40.8782 11923.30 11991.70 126.36
10057 40.8819 12004.90 11994.40 126.38
10058 40.8857 11780.80 11997.20 124.21
10059 40.8894 12088.80 12000.00 127.39
10060 40.8932 12022.10 12003.00 126.68
10061 40.8970 12377.90 12006.10 130.57
10062 40.9007 11946.90 12009.20 126.43
10063 40.9045 12494.10 12012.40 131.07
10064 40.9082 11898.20 12015.70 126.43
10065 40.9120 12164.30 12019.10 127.56
10066 40.9158 11863.40 12022.60 124.47
10067 40.9195 12433.10 12026.10 132.83
10068 40.9233 11980.70 12029.90 127.74
10069 40.9270 12017.40 12033.60 126.39
10070 40.9308 11883.40 12037.50 124.71
10071 40.9345 12214.70 12041.50 128.00
10072 40.9383 12177.20 12045.70 128.16
10073 40.9421 12195.60 12050.00 128.51
10074 40.9458 11883.90 12054.30 126.30
10075 40.9496 12118.20 12058.90 127.73
10076 40.9533 11834.20 12063.50 126.29
10077 40.9571 12099.70 12068.30 127.43
10078 40.9608 12138.60 12073.20 127.93
10079 40.9646 12089.40 12078.30 127.89
10080 40.9684 11792.50 12083.70 125.53
10081 40.9721 12246.60 12089.00 128.47
10082 40.9759 11938.90 12094.70 126.71
10083 40.9796 12202.80 12100.40 128.70
10084 40.9834 12176.30 12106.40 128.18
10085 40.9872 12340.70 12112.60 129.05
10086 40.9909 12152.30 12118.90 127.87
10087 40.9947 12404.40 12125.60 128.12
10088 40.9984 12075.20 12132.30 127.22
10089 41.0022 12272.30 12139.40 128.26
10090 41.0059 12137.50 12146.50 128.50
10091 41.0097 12135.90 12154.10 127.89
10092 41.0135 12228.00 12162.00 127.48
10093 41.0172 12439.20 12169.90 128.38
10094 41.0210 12365.40 12178.40 132.09
10095 41.0247 12634.60 12186.90 130.73
10096 41.0285 12221.20 12195.90 127.47
10097 41.0322 12547.10 12205.10 129.60
10098 41.0360 12031.00 12214.80 126.78
10099 41.0398 12616.20 12224.90 130.29
10100 41.0435 12246.10 12235.10 128.71
10101 41.0473 12511.10 12246.00 130.27
10102 41.0510 12260.40 12257.00 128.66
10103 41.0548 12422.30 12268.80 128.52
10104 41.0585 12405.60 12280.70 129.43
10105 41.0623 12422.50 12293.40 128.51
10106 41.0661 12180.30 12306.60 127.63
10107 41.0698 12401.70 12320.00 129.32
10108 41.0736 12421.00 12334.40 129.28
10109 41.0773 12587.80 12348.90 130.14
10110 41.0811 12314.90 12364.50 129.20
10111 41.0848 12523.70 12380.30 130.30
10112 41.0886 12441.70 12397.30 129.72
10113 41.0924 12466.40 12415.00 129.61
10114 41.0961 12455.20 12433.00 129.74
10115 41.0999 12519.00 12452.40 130.49
10116 41.1036 12579.20 12472.10 130.97
10117 41.1074 12872.50 12493.30 131.77
10118 41.1111 12465.60 12514.90 130.49
10119 41.1149 12593.80 12538.20 128.74
10120 41.1187 12539.20 12562.60 133.07
10121 41.1224 12916.50 12587.60 132.79
10122 41.1262 12667.90 12614.50 130.76
10123 41.1299 12894.80 12642.10 131.41
10124 41.1337 12628.40 12671.90 131.29
10125 41.1374 12773.60 12702.50 131.33
10126 41.1412 12621.90 12735.50 130.66
10127 41.1450 12924.40 12770.50 133.09
10128 41.1487 12658.10 12806.30 130.89
10129 41.1525 12925.90 12845.30 131.04
10130 41.1562 12793.20 12885.40 132.33
10131 41.1600 13147.10 12929.10 134.60
10132 41.1637 12897.20 12974.10 132.88
10133 41.1675 13108.60 13023.20 133.79
10134 41.1713 13010.90 13075.40 133.10
10135 41.1750 13360.70 13129.50 135.31
10136 41.1788 12934.30 13188.70 133.12
10137 41.1825 13257.60 13250.10 133.97
10138 41.1863 13233.90 13317.60 134.53
10139 41.1900 13398.50 13387.70 134.86
10140 41.1938 13017.70 13465.00 132.25
10141 41.1976 13590.60 13547.80 137.49
10142 41.2013 13469.50 13634.60 135.80
10143 41.2051 13535.70 13730.40 136.90
10144 41.2088 13607.20 13831.10 137.07
10145 41.2126 13908.90 13942.80 137.01
10146 41.2163 13546.30 14060.60 134.46
10147 41.2201 14021.50 14191.60 142.22
10148 41.2239 14025.00 14334.40 138.75
10149 41.2276 14203.50 14485.80 139.19
10150 41.2314 14123.80 14655.80 138.86
10151 41.2351 14354.00 14836.90 141.11
10152 41.2389 14808.60 15041.40 142.57
10153 41.2426 14848.10 15260.50 143.41
10154 41.2464 14780.50 15509.30 143.36
10155 41.2502 15193.30 15785.80 145.76
10156 41.2539 15187.80 16084.90 145.85
10157 41.2577 15702.60 16428.10 148.34
10158 41.2614 15765.90 16802.70 148.73
10159 41.2652 16656.50 17236.20 152.70
10160 41.2689 16366.90 17713.40 151.61
10161 41.2727 17240.00 18271.30 155.78
10162 41.2765 17483.30 18909.80 157.41
10163 41.2802 18242.60 19625.90 160.45
10164 41.2840 18699.90 20476.40 163.80
10165 41.2877 20313.70 21443.30 171.82
10166 41.2915 20641.70 22609.10 173.22
10167 41.2952 22241.90 23957.00 181.40
10168 41.2990 23540.10 25615.50 189.50
10169 41.3027 25576.80 27582.30 196.34
10170 41.3065 28312.30 30087.20 208.94
10171 41.3103 32082.90 33297.90 225.69
10172 41.3140 35868.50 37429.20 238.63
10173 41.3178 42889.80 43272.90 267.34
10174 41.3215 50487.30 51340.10 302.50
10175 41.3253 61514.30 63265.40 335.99
10176 41.3290 75559.50 79905.30 382.28
10177 41.3328 99426.80 103698.00 458.58
10178 41.3366 128120.00 135533.00 541.24
10179 41.3403 172420.00 174189.00 665.38
10180 41.3441 217104.00 219003.00 781.27
10181 41.3478 269698.00 259753.00 906.86
10182 41.3516 297600.00 284556.00 975.76
10183 41.3553 302556.00 280342.00 986.22
10184 41.3591 269001.00 249219.00 897.67
10185 41.3629 224722.00 205309.00 796.24
10186 41.3666 170449.00 162567.00 658.65
10187 41.3704 130288.00 125058.00 549.32
10188 41.3741 97080.50 96377.90 450.61
10189 41.3779 76510.70 74606.40 387.55
10190 41.3816 59292.50 59523.20 329.59
10191 41.3854 48994.50 48739.40 292.16
10192 41.3891 40529.30 41454.80 257.31
10193 41.3929 34795.80 36126.10 235.47
10194 41.3967 30431.60 32230.50 218.63
10195 41.4004 27318.40 29328.40 204.60
10196 41.4042 24469.80 26974.80 192.48
10197 41.4079 22805.10 25115.00 183.88
10198 41.4117 21263.40 23539.50 176.10
10199 41.4154 20276.50 22254.60 169.38
10200 41.4192 19361.40 21140.10 170.62
10201 41.4229 18800.40 20213.60 166.04
10202 41.4267 17745.00 19396.70 158.26
10203 41.4305 17819.40 18690.40 158.53
10204 41.4342 16852.70 18091.90 153.50
10205 41.4380 16504.30 17553.00 153.01
10206 41.4417 15961.20 17090.70 148.67
10207 41.4455 16172.10 16671.00 150.85
10208 41.4492 15526.30 16307.10 146.90
10209 41.4530 15376.50 15973.80 145.79
10210 41.4568 14959.40 15674.80 144.17
10211 41.4605 15070.60 15413.10 145.08
10212 41.4643 14581.30 15170.20 141.51
10213 41.4680 14877.30 14956.10 143.40
10214 41.4718 14194.50 14756.00 139.75
10215 41.4755 14802.60 14578.50 142.97
10216 41.4793 14028.50 14411.80 139.25
10217 41.4830 14283.10 14263.00 140.11
10218 41.4868 13771.70 14122.60 137.40
10219 41.4906 14045.80 13993.60 138.31
10220 41.4943 13722.70 13877.40 136.14
10221 41.4981 13775.50 13767.20 137.90
10222 41.5018 13536.10 13667.70 136.02
10223 41.5056 13814.50 13572.80 136.41
10224 41.5093 13148.10 13486.90 134.19
10225 41.5131 13475.40 13404.70 134.97
10226 41.5168 13227.80 13330.00 132.23
10227 41.5206 13134.40 13258.20 137.00
10228 41.5244 13175.90 13191.10 134.95
10229 41.5281 13115.70 13129.90 133.90
10230 41.5319 12747.10 13070.80 131.13
10231 41.5356 13254.00 13016.70 134.25
10232 41.5394 12929.90 12964.50 132.98
10233 41.5431 13262.20 12916.50 134.26
10234 41.5469 12785.00 12870.00 132.12
10235 41.5506 13064.40 12827.20 130.99
10236 41.5544 12594.90 12785.70 131.25
10237 41.5582 12891.60 12746.40 131.89
10238 41.5619 12712.70 12710.10 132.03
10239 41.5657 13034.60 12674.80 133.04
10240 41.5694 12826.90 12642.10 132.26
10241 41.5732 13023.30 12610.20 132.71
10242 41.5769 12609.30 12580.70 130.90
10243 41.5807 12992.90 12551.80 133.54
10244 41.5844 12479.60 12525.00 130.60
10245 41.5882 12973.50 12498.70 133.72
10246 41.5920 12509.00 12473.70 130.39
10247 41.5957 12744.10 12450.40 130.62
10248 41.5995 12504.20 12427.50 131.39
10249 41.6032 12536.00 12406.20 129.96
10250 41.6070 12516.10 12385.20 130.30
10251 41.6107 12591.80 12365.70 130.79
10252 41.6145 12148.10 12346.50 127.59
10253 41.6182 12614.10 12328.50 130.44
10254 41.6220 12513.10 12310.80 132.07
10255 41.6258 12569.90 12293.80 131.06
10256 41.6295 12335.40 12277.90 128.99
10257 41.6333 12527.30 12262.20 129.57
10258 41.6370 12284.10 12247.40 128.57
10259 41.6408 12401.30 12232.90 129.66
10260 41.6445 12102.90 12219.20 127.91
10261 41.6483 12176.20 12205.70 128.25
10262 41.6520 12203.10 12193.00 128.39
10263 41.6558 12373.50 12180.40 129.24
10264 41.6595 12264.70 12168.60 128.66
10265 41.6633 12228.40 12156.90 128.51
10266 41.6671 12069.60 12145.60 126.82
10267 41.6708 12334.20 12134.90 128.49
10268 41.6746 12201.50 12124.30 128.98
10269 41.6783 12160.00 12114.40 128.12
10270 41.6821 12281.40 12104.40 128.54
10271 41.6858 12545.60 12095.10 130.68
10272 41.6896 12189.10 12085.80 127.69
10273 41.6933 12378.00 12077.00 129.37
10274 41.6971 12021.00 12068.30 126.64
10275 41.7009 12171.10 12059.80 128.76
10276 41.7046 12162.50 12051.80 126.44
10277 41.7084 12213.40 12043.80 128.26
10278 41.7121 12080.30 12036.30 127.46
10279 41.7159 12017.80 12028.70 125.69
10280 41.7196 12051.70 12021.60 128.04
10281 41.7234 12403.20 12014.50 131.66
10282 41.7271 12199.30 12007.70 128.79
10283 41.7309 11981.80 12001.00 125.84
10284 41.7346 11985.60 11994.60 126.47
10285 41.7384 12137.90 11988.20 127.53
10286 41.7422 12082.90 11982.00 127.40
10287 41.7459 11993.10 11976.10 126.73
10288 41.7497 11860.70 11970.20 125.96
10289 41.7534 12213.60 11964.60 128.10
10290 41.7572 12146.50 11959.00 128.04
10291 41.7609 12036.10 11953.70 127.65
10292 41.7647 11913.40 11948.30 126.31
10293 41.7684 12184.60 11943.30 128.33
10294 41.7722 12097.30 11938.20 125.71
10295 41.7759 12200.70 11933.30 128.29
10296 41.7797 12113.30 11928.50 127.57
10297 41.7835 11997.40 11923.70 127.39
10298 41.7872 11969.30 11919.20 127.19
10299 41.7910 11989.80 11914.70 126.74
10300 41.7947 11668.80 11910.40 124.59
10301 41.7985 11965.70 11906.00 127.35
10302 41.8022 11770.50 11901.90 126.10
10303 41.8060 12011.20 11897.70 127.26
10304 41.8097 11921.90 11893.80 127.06
10305 41.8135 12120.80 11889.80 128.28
10306 41.8172 11573.00 11886.00 123.12
10307 41.8210 12138.90 11882.20 130.01
10308 41.8248 11679.90 11878.40 126.26
10309 41.8285 12058.30 11874.80 127.05
10310 41.8323 11754.10 11682.50 124.97
10311 41.8360 12192.70 11681.90 127.92
10312 41.8398 11752.80 11681.40 125.00
10313 41.8435 12067.70 11680.80 127.34
10314 41.8473 11729.60 11680.20 126.04
10315 41.8510 11956.50 11679.60 126.94
10316 41.8548 11859.30 11679.00 126.86
10317 41.8585 12039.50 11678.50 127.30
10318 41.8623 11983.30 11677.90 126.36
10319 41.8660 11836.00 11677.30 126.01
10320 41.8698 12138.60 11676.70 128.87
10321 41.8736 11989.90 11676.10 127.23
10322 41.8773 11803.00 11675.60 126.41
10323 41.8811 12083.70 11675.00 126.50
10324 41.8848 11997.40 11674.40 127.43
10325 41.8886 12126.00 11673.80 127.73
10326 41.8923 11723.10 11673.20 124.69
10327 41.8961 11999.30 11672.60 126.17
10328 41.8998 11693.80 11672.00 126.80
10329 41.9036 12100.40 11671.50 128.36
10330 41.9073 11810.70 11670.90 127.28
10331 41.9111 11991.10 11670.30 127.60
10332 41.9148 11816.80 11669.70 125.62
10333 41.9186 11995.30 11669.10 126.29
10334 41.9224 11963.40 11668.50 130.04
10335 41.9261 12019.20 11667.90 127.90
10336 41.9299 11935.60 11667.30 126.83
10337 41.9336 11928.50 11666.70 126.33
10338 41.9374 11758.10 11666.10 126.07
10339 41.9411 11883.90 11665.50 126.84
10340 41.9449 11592.30 11664.90 124.98
10341 41.9486 11823.40 11664.30 125.62
10342 41.9524 11881.40 11663.70 126.55
10343 41.9561 12012.40 11663.10 127.71
10344 41.9599 11787.20 11662.50 126.13
10345 41.9636 11835.90 11661.90 126.69
10346 41.9674 11750.10 11661.30 124.95
10347 41.9712 11933.50 11660.70 127.14
10348 41.9749 11594.40 11660.10 123.95
10349 41.9787 11746.80 11659.50 125.87
10350 41.9824 11689.00 11658.90 124.99
10351 41.9862 12095.10 11658.30 127.57
10352 41.9879 11713.10 11658.00 125.47
10353 41.9917 12081.70 11657.40 126.58
10354 41.9954 11690.90 11656.80 125.73
10355 41.9992 11819.70 11656.10 125.47
10356 42.0029 11449.40 11655.50 122.01
10357 42.0067 12001.70 11654.90 130.37
10358 42.0105 11906.40 11654.30 127.60
10359 42.0142 11817.20 11653.70 126.40
10360 42.0180 11773.50 11653.10 125.55
10361 42.0217 12063.40 11652.40 127.46
10362 42.0255 11865.00 11651.80 126.85
10363 42.0292 12032.20 11651.20 127.24
10364 42.0330 11779.40 11650.60 126.32
10365 42.0367 12030.40 11650.00 125.20
10366 42.0405 11858.60 11649.30 127.05
10367 42.0442 11928.00 11648.70 126.40
10368 42.0480 11645.40 11648.10 125.82
10369 42.0518 11717.40 11647.50 125.43
10370 42.0555 11727.10 11646.80 125.90
10371 42.0593 12012.50 11646.20 126.96
10372 42.0630 11854.20 11645.60 126.60
10373 42.0668 12204.20 11645.00 129.08
10374 42.0705 11685.50 11644.30 126.03
10375 42.0743 12088.20 11643.70 128.67
10376 42.0780 11841.20 11643.10 126.61
10377 42.0818 12030.40 11642.40 126.62
10378 42.0856 11786.00 11641.80 127.27
10379 42.0893 11838.80 11641.20 126.01
10380 42.0931 11872.00 11640.50 126.66
10381 42.0968 11796.20 11639.90 126.24
10382 42.1006 11740.10 11639.30 125.36
10383 42.1043 11688.70 11638.60 125.13
10384 42.1081 11820.80 11638.00 128.09
10385 42.1118 11875.70 11637.40 127.11
10386 42.1156 11849.90 11636.70 126.29
10387 42.1194 12036.10 11636.10 126.88
10388 42.1231 11680.00 11635.40 125.15
10389 42.1269 11867.30 11634.80 126.67
10390 42.1306 11629.90 11634.10 125.27
10391 42.1344 11834.40 11633.50 126.41
10392 42.1381 11641.90 11632.90 125.22
10393 42.1419 11861.70 11632.20 126.40
10394 42.1456 11545.70 11631.60 124.54
10395 42.1494 11620.20 11630.90 125.06
10396 42.1532 11797.90 11630.30 125.41
10397 42.1569 11857.80 11629.60 125.86
10398 42.1607 11797.30 11629.00 126.75
10399 42.1644 11802.20 11628.30 126.19
10400 42.1682 11619.30 11628.00 124.77
10401 42.1719 11744.60 11627.30 126.09
10402 42.1757 11573.80 11626.70 124.20
10403 42.1794 11871.40 11626.00 126.56
10404 42.1832 11642.80 11625.40 124.57
10405 42.1869 11795.50 11624.80 126.71
10406 42.1907 11754.60 11624.10 124.23
10407 42.1945 11784.60 11623.40 125.90
10408 42.1982 11563.60 11622.80 124.55
10409 42.2020 11845.30 11622.10 124.88
10410 42.2057 11383.80 11621.50 124.18
10411 42.2095 11849.10 11620.80 128.51
10412 42.2132 11795.20 11620.20 126.57
10413 42.2170 11804.90 11619.50 125.00
10414 42.2207 11619.00 11618.90 124.47
10415 42.2235 11692.00 11618.40 125.21
10416 42.2272 11459.40 11617.70 123.36
10417 42.2310 11684.60 11617.10 124.43
10418 42.2347 11630.90 11616.40 124.48
10419 42.2385 11620.40 11615.70 124.31
10420 42.2422 11821.70 11615.10 126.00
10421 42.2460 11666.30 11614.40 125.10
10422 42.2497 12055.10 11613.80 127.14
10423 42.2535 11686.60 11613.10 125.47
10424 42.2572 11681.30 11612.40 124.31
10425 42.2610 11661.20 11612.90 124.55
10426 42.2647 11894.20 11612.30 126.43
10427 42.2685 11527.90 11611.60 123.20
10428 42.2723 11766.40 11611.00 125.71
10429 42.2760 11362.60 11610.30 123.43
10430 42.2798 11504.40 11609.70 123.98
10431 42.2835 11533.00 11609.00 124.15
10432 42.2873 11589.90 11608.40 124.47
10433 42.2910 11410.50 11607.70 123.17
10434 42.2948 11643.10 11607.10 125.20
10435 42.2985 11662.10 11606.40 125.64
10436 42.3023 11685.70 11605.80 125.64
10437 42.3060 11680.80 11605.10 125.97
10438 42.3098 11932.90 11604.50 126.85
10439 42.3135 11493.30 11603.80 124.28
10440 42.3173 11500.20 11603.20 122.41
10441 42.3211 12024.10 11602.50 129.63
10442 42.3248 11818.50 11601.90 126.64
10443 42.3286 11629.00 11601.20 124.63
10444 42.3323 11638.30 11600.60 124.17
10445 42.3361 11631.60 11600.00 124.03
10446 42.3398 11672.00 11599.30 125.27
10447 42.3436 11439.40 11598.70 123.75
10448 42.3473 11548.90 11598.00 124.62
10449 42.3511 11709.50 11597.40 125.48
10450 42.3548 11644.40 11596.80 124.79
10451 42.3586 11455.90 11596.10 124.28
10452 42.3623 11692.10 11595.50 124.89
10453 42.3661 11662.50 11594.80 125.44
10454 42.3699 11866.30 11594.20 126.60
10455 42.3736 11682.70 11593.60 125.15
10456 42.3774 11732.40 11592.90 125.41
10457 42.3811 11403.60 11592.30 123.57
10458 42.3849 11681.30 11591.70 124.36
10459 42.3886 11696.60 11591.00 124.80
10460 42.3924 11517.30 11590.40 123.85
10461 42.3961 11629.50 11589.80 125.36
10462 42.3999 11700.10 11589.10 125.33
10463 42.4036 11558.80 11588.50 124.91
10464 42.4074 11671.70 11587.90 125.02
10465 42.4112 11597.60 11587.30 123.67
10466 42.4149 11688.00 11586.70 123.34
10467 42.4187 11613.30 11586.10 128.01
10468 42.4224 11718.40 11585.50 125.78
10469 42.4262 11525.60 11584.80 124.07
10470 42.4299 11549.60 11584.20 124.04
10471 42.4337 11483.60 11583.60 123.71
10472 42.4374 11651.60 11583.10 125.36
10473 42.4412 11556.60 11582.50 124.30
10474 42.4449 11848.10 11581.90 126.44
10475 42.4487 11719.20 11581.30 124.72
10476 42.4525 11727.60 11580.70 125.61
10477 42.4562 11439.20 11580.20 123.06
10478 42.4600 11721.80 11579.60 124.87
10479 42.4637 11570.80 11579.00 124.66
10480 42.4675 11897.70 11578.50 127.27
10481 42.4712 11685.50 11578.00 125.61
10482 42.4750 11838.40 11577.40 126.95
10483 42.4787 11553.40 11576.90 124.89
10484 42.4825 11918.10 11576.40 125.98
10485 42.4863 11538.40 11575.90 125.10
10486 42.4900 11747.80 11575.40 124.87
10487 42.4938 11634.40 11574.90 124.86
10488 42.4975 11712.90 11574.40 125.37
10489 42.5013 11430.80 11574.00 123.61
10490 42.5050 11558.20 11573.60 124.63
10491 42.5088 11532.10 11573.10 124.87
10492 42.5125 11650.70 11572.70 124.46
10493 42.5163 11598.70 11572.40 123.23
10494 42.5200 11842.00 11572.00 128.63
10495 42.5238 11650.30 11571.70 125.80
10496 42.5276 11727.80 11571.40 125.93
10497 42.5313 11379.40 11571.10 123.07
10498 42.5351 11513.70 11570.90 124.21
10499 42.5388 11504.20 11570.70 124.92
10500 42.5426 11661.50 11570.50 126.12
10501 42.5463 11342.00 11570.40 124.10
10502 42.5501 11654.80 11570.40 124.96
10503 42.5538 11623.90 11570.40 124.83
10504 42.5576 11680.80 11570.50 126.00
10505 42.5614 11530.90 11577.70 124.02
10506 42.5651 11545.50 11578.10 124.93
10507 42.5689 11323.90 11578.60 123.41
10508 42.5726 11676.70 11579.20 125.93
10509 42.5764 11522.80 11579.90 123.87
10510 42.5801 11824.00 11580.80 125.91
10511 42.5839 11581.80 11582.00 124.96
10512 42.5876 11700.60 11583.30 126.04
10513 42.5914 11480.10 11585.00 124.44
10514 42.5952 11656.30 11587.00 125.13
10515 42.5989 11515.80 11589.40 125.42
10516 42.6027 11384.60 11592.40 123.40
10517 42.6064 11393.80 11596.00 124.13
10518 42.6102 11856.40 11600.70 126.81
10519 42.6139 11447.60 11606.60 123.19
10520 42.6177 11679.20 11614.70 125.14
10521 42.6214 11454.70 11625.50 127.06
10522 42.6252 11576.70 11641.20 125.09
10523 42.6290 11390.20 11663.60 122.97
10524 42.6327 11796.00 11694.20 125.81
10525 42.6365 11711.00 11743.20 125.74
10526 42.6402 11912.50 11797.80 126.60
10527 42.6440 11726.50 11866.30 125.96
10528 42.6477 11783.20 11939.60 126.58
10529 42.6515 11587.20 12007.10 125.12
10530 42.6552 12037.80 12043.00 128.07
10531 42.6590 11766.10 12032.20 126.29
10532 42.6628 11761.30 11980.20 125.59
10533 42.6665 11671.90 11912.10 125.99
10534 42.6703 11742.90 11843.90 125.31
10535 42.6740 11685.20 11788.10 125.71
10536 42.6778 11760.20 11744.50 126.23
10537 42.6815 11331.70 11714.70 124.39
10538 42.6853 11675.40 11695.30 125.28
10539 42.6890 11647.70 11685.00 125.43
10540 42.6928 11753.50 11681.40 124.54
10541 42.6966 11538.40 11690.20 123.44
10542 42.7003 11778.70 11697.20 126.26
10543 42.7041 11705.50 11709.80 124.40
10544 42.7078 11673.10 11728.40 124.60
10545 42.7116 11490.00 11756.50 123.26
10546 42.7153 11622.70 11796.70 122.97
10547 42.7191 11732.80 11857.10 125.29
10548 42.7228 11941.50 11942.20 127.30
10549 42.7266 11989.30 12064.90 126.34
10550 42.7304 12101.60 12231.00 126.94
10551 42.7341 12110.90 12436.80 127.38
10552 42.7379 12345.60 12684.60 128.21
10553 42.7416 12612.40 12929.80 130.73
10554 42.7454 13018.30 13119.10 132.94
10555 42.7491 12774.50 13165.00 130.85
10556 42.7529 13014.50 13045.50 132.37
10557 42.7567 12795.90 12815.90 131.30
10558 42.7604 12488.20 12564.90 129.65
10559 42.7642 12292.90 12330.10 128.45
10560 42.7679 12417.10 12142.50 128.97
10561 42.7717 11937.20 11994.90 126.53
10562 42.7754 11941.40 11889.80 126.47
10563 42.7792 11664.70 11813.10 124.68
10564 42.7829 11535.40 11760.80 124.40
10565 42.7867 11575.70 11722.90 124.97
10566 42.7905 11754.50 11695.60 125.00
10567 42.7942 11876.30 11675.70 125.63
10568 42.7980 11655.00 11660.00 124.57
10569 42.8017 11499.50 11647.80 123.90
10570 42.8055 11417.90 11637.70 123.92
10571 42.8092 11331.80 11629.60 122.95
10572 42.8130 11501.20 11622.70 123.98
10573 42.8168 11501.20 11617.10 121.88
10574 42.8205 11853.30 11612.50 128.89
10575 42.8243 11618.90 11608.60 124.65
10576 42.8280 11490.90 11605.50 123.32
10577 42.8318 11176.40 11602.90 121.61
10578 42.8355 11686.00 11600.90 125.08
10579 42.8393 11234.90 11599.30 121.29
10580 42.8430 11682.10 11598.10 125.07
10581 42.8468 11384.80 11597.30 123.54
10582 42.8506 11480.40 11596.80 124.10
10583 42.8543 11395.10 11596.60 123.26
10584 42.8581 11498.70 11596.70 123.17
10585 42.8618 11534.90 11597.10 124.20
10586 42.8656 11651.80 11597.80 124.97
10587 42.8693 11496.00 11598.70 124.26
10588 42.8731 11494.40 11599.90 122.79
10589 42.8769 11551.80 11601.40 125.07
10590 42.8806 11539.00 11603.10 124.59
10591 42.8844 11494.00 11605.20 122.93
10592 42.8881 11741.00 11607.50 125.62
10593 42.8919 11477.90 11610.10 122.94
10594 42.8956 11598.60 11613.00 124.47
10595 42.8994 11599.50 11616.30 125.61
10596 42.9032 11597.60 11620.00 124.47
10597 42.9069 11475.30 11623.90 124.43
10598 42.9107 11692.50 11628.40 124.97
10599 42.9144 11544.60 11633.20 122.78
10600 42.9182 11684.50 11638.70 125.68
10601 42.9219 11505.10 11644.50 125.29
10602 42.9257 11844.60 11651.10 126.82
10603 42.9295 11185.60 11658.30 122.10
10604 42.9332 11519.40 11666.10 123.82
10605 42.9370 11500.20 11674.80 124.40
10606 42.9407 11666.80 11684.30 124.87
10607 42.9445 11496.40 11695.00 124.07
10608 42.9482 11776.80 11706.50 124.89
10609 42.9520 11370.30 11719.70 123.20
10610 42.9558 11647.10 11734.30 124.97
10611 42.9595 11631.10 11750.30 124.61
10612 42.9633 11635.80 11768.70 124.88
10613 42.9670 11540.60 11788.80 124.37
10614 42.9708 11683.20 11812.10 125.81
10615 42.9745 11870.20 11837.90 124.70
10616 42.9783 11981.00 11868.00 126.64
10617 42.9821 11850.40 11902.70 126.11
10618 42.9858 11812.30 11941.70 124.76
10619 42.9896 11582.20 11988.20 124.91
10620 42.9933 11904.30 12041.30 124.95
10621 42.9971 11915.70 12105.90 126.70
10622 43.0008 12246.00 12181.30 128.45
10623 43.0046 12122.30 12275.80 128.57
10624 43.0083 12381.20 12391.00 129.86
10625 43.0121 12295.90 12543.50 129.01
10626 43.0159 12741.90 12748.40 128.29
10627 43.0196 13134.30 13023.70 135.73
10628 43.0234 13165.90 13422.50 135.98
10629 43.0271 13643.30 13970.70 136.83
10630 43.0309 14406.00 14750.20 139.62
10631 43.0347 15269.20 15799.40 145.76
10632 43.0384 16499.30 17094.80 153.10
10633 43.0422 17440.70 18659.60 157.79
10634 43.0459 19245.50 20227.80 168.07
10635 43.0497 19758.70 21485.70 168.89
10636 43.0534 20427.80 21881.20 173.41
10637 43.0572 19425.60 21243.20 166.74
10638 43.0610 18579.50 19882.50 163.05
10639 43.0647 17330.70 18352.30 157.74
10640 43.0685 16347.20 16909.60 152.07
10641 43.0722 15359.20 15761.70 146.81
10642 43.0760 14708.00 14874.90 141.96
10643 43.0797 14052.40 14268.30 139.78
10644 43.0835 13958.10 13864.90 138.31
10645 43.0873 13733.60 13638.50 138.05
10646 43.0910 13757.60 13555.90 138.48
10647 43.0948 13560.50 13598.60 136.47
10648 43.0985 13898.00 13770.10 139.94
10649 43.1023 13494.30 14103.20 136.02
10650 43.1060 14378.60 14614.40 141.19
10651 43.1098 14740.60 15368.70 143.40
10652 43.1136 15912.10 16377.20 149.53
10653 43.1173 17109.30 17581.00 154.85
10654 43.1211 18841.00 18928.40 169.09
10655 43.1248 19398.30 20072.80 166.59
10656 43.1286 20322.60 20653.20 171.76
10657 43.1323 19892.50 20371.20 169.90
10658 43.1361 18828.70 19372.70 164.59
10659 43.1399 17883.90 18086.30 159.90
10660 43.1436 16594.60 16891.00 152.74
10661 43.1474 15685.20 15886.50 148.68
10662 43.1511 14956.40 15179.70 144.61
10663 43.1549 14384.70 14735.80 141.63
10664 43.1586 14195.20 14570.20 140.72
10665 43.1624 14088.70 14669.20 140.53
10666 43.1662 14747.60 15049.50 142.40
10667 43.1699 15343.20 15706.10 145.49
10668 43.1737 15843.90 16686.80 147.20
10669 43.1774 16770.20 17917.90 152.79
10670 43.1812 18295.50 19353.30 161.85
10671 43.1850 19198.50 20681.40 166.23
10672 43.1887 19986.40 21419.60 170.35
10673 43.1925 20232.30 21225.00 171.59
10674 43.1962 19586.60 20179.40 167.85
10675 43.2000 18010.30 18671.90 160.83
10676 43.2037 16376.20 17185.10 151.69
10677 43.2075 14966.70 15857.90 143.73
10678 43.2113 14510.50 14798.70 141.83
10679 43.2150 13318.60 14019.00 133.52
10680 43.2188 13065.90 13435.10 134.29
10681 43.2225 12670.20 13029.60 132.64
10682 43.2263 12477.20 12732.70 130.28
10683 43.2300 12181.10 12523.50 127.95
10684 43.2338 12098.40 12362.80 126.88
10685 43.2376 11962.20 12238.80 126.40
10686 43.2413 12017.70 12141.10 126.50
10687 43.2451 11658.70 12059.80 125.02
10688 43.2488 11883.10 11993.40 126.86
10689 43.2526 11560.00 11935.60 124.34
10690 43.2564 11793.10 11886.10 126.00
10691 43.2601 11601.50 11844.30 124.54
10692 43.2639 11766.70 11806.90 125.30
10693 43.2676 11360.70 11774.80 121.66
10694 43.2714 11774.40 11745.80 125.86
10695 43.2751 11629.60 11720.50 124.99
10696 43.2789 11602.40 11697.40 124.44
10697 43.2827 11434.40 11676.60 123.90
10698 43.2864 11753.40 11658.30 125.55
10699 43.2902 11457.40 11641.20 123.69
10700 43.2939 11537.70 11626.00 123.48
10701 43.2977 11350.00 11611.80 123.01
10702 43.3014 11591.30 11599.10 123.71
10703 43.3052 11535.10 11587.00 124.58
10704 43.3090 11427.30 11575.90 123.95
10705 43.3127 11395.00 11565.90 123.65
10706 43.3165 11470.90 11556.30 120.83
10707 43.3202 11471.40 11547.60 126.03
10708 43.3240 11346.10 11539.30 124.36
10709 43.3278 11399.30 11531.50 122.31
10710 43.3315 11286.00 11524.40 122.11
10711 43.3353 11088.70 11517.50 120.62
10712 43.3390 11461.30 11511.10 123.56
10713 43.3428 11321.40 11505.00 122.77
10714 43.3465 11487.30 11499.30 123.80
10715 43.3503 11215.80 11493.80 121.52
10716 43.3541 11555.80 11488.60 124.64
10717 43.3578 11359.60 11483.70 123.50
10718 43.3616 11451.70 11478.90 123.84
10719 43.3653 11143.70 11474.50 121.65
10720 43.3691 11574.60 11470.20 123.42
10721 43.3729 11168.80 11466.00 122.11
10722 43.3766 11554.60 11462.10 124.39
10723 43.3804 11236.80 11458.30 122.45
10724 43.3841 11451.80 11454.70 123.57
10725 43.3879 11339.10 11451.20 123.26
10726 43.3916 11519.90 11447.80 123.86
10727 43.3954 11255.50 11444.50 122.08
10728 43.3992 11475.00 11441.40 124.46
10729 43.4029 11257.50 11438.40 121.92
10730 43.4067 11434.80 11435.40 123.99
10731 43.4104 11314.50 11432.60 122.81
10732 43.4142 11488.00 11429.80 123.15
10733 43.4180 11163.80 11427.00 120.37
10734 43.4217 11494.10 11424.50 127.06
10735 43.4255 11281.40 11421.90 123.02
10736 43.4292 11348.50 11419.40 122.00
10737 43.4330 11279.00 11417.00 122.73
10738 43.4367 11559.50 11414.70 124.05
10739 43.4405 11259.30 11412.30 122.71
10740 43.4443 11420.60 11410.10 123.75
10741 43.4480 11271.40 11407.90 122.49
10742 43.4518 11537.60 11405.70 124.41
10743 43.4555 11134.90 11403.70 122.01
10744 43.4593 11454.20 11401.60 123.85
10745 43.4631 11246.20 11399.60 121.73
10746 43.4668 11569.50 11397.60 124.75
10747 43.4706 11101.90 11395.60 121.27
10748 43.4743 11373.40 11393.80 123.14
10749 43.4781 11317.60 11391.90 122.92
10750 43.4819 11320.30 11390.00 123.07
10751 43.4856 11312.30 11388.20 121.91
10752 43.4894 11253.40 11386.40 122.31
10753 43.4931 11358.30 11384.70 123.00
10754 43.4969 11455.00 11383.00 123.39
10755 43.5006 11503.40 11381.30 125.14
10756 43.5044 11550.90 11379.60 124.12
10757 43.5082 11275.20 11377.90 123.14
10758 43.5119 11401.60 11376.30 124.18
10759 43.5157 11144.40 11374.70 121.10
10760 43.5194 11296.10 11373.10 122.62
10761 43.5232 11199.40 11371.50 124.13
10762 43.5270 11510.70 11370.00 124.52
10763 43.5307 11346.20 11368.40 122.60
10764 43.5345 11431.70 11366.90 122.71
10765 43.5382 11399.30 11365.40 123.09
10766 43.5420 11370.20 11363.90 123.59
10767 43.5457 11450.90 11362.50 123.99
10768 43.5495 11500.30 11354.10 124.76
10769 43.5533 11140.20 11352.70 121.82
10770 43.5570 11387.10 11351.40 123.81
10771 43.5608 11387.60 11350.10 123.88
10772 43.5645 11293.60 11348.80 122.89
10773 43.5683 11243.20 11347.50 122.98
10774 43.5721 11353.50 11346.20 123.04
10775 43.5758 11449.30 11344.90 124.03
10776 43.5796 11258.80 11343.60 122.93
10777 43.5833 11216.40 11342.40 122.30
10778 43.5871 11372.70 11341.10 123.67
10779 43.5909 11286.40 11339.90 121.07
10780 43.5946 11199.40 11338.60 121.88
10781 43.5984 11201.50 11337.40 122.56
10782 43.6021 11437.70 11336.20 123.78
10783 43.6059 11045.00 11335.00 121.35
10784 43.6097 11361.80 11333.70 123.48
10785 43.6134 10854.40 11332.60 120.22
10786 43.6172 11210.10 11331.30 121.63
10787 43.6209 11137.10 11330.20 122.88
10788 43.6247 11536.90 11323.10 124.99
10789 43.6284 11263.90 11322.00 122.88
10790 43.6322 11088.70 11320.90 121.29
10791 43.6360 11274.20 11319.80 121.72
10792 43.6397 11259.80 11318.70 122.18
10793 43.6435 11090.00 11317.60 121.99
10794 43.6472 11357.00 11316.60 123.11
10795 43.6510 11208.80 11315.50 121.90
10796 43.6548 11345.60 11314.40 122.43
10797 43.6585 11122.60 11313.30 121.44
10798 43.6623 11326.20 11312.20 122.50
10799 43.6660 11164.70 11311.20 121.41
10800 43.6698 11186.10 11310.10 121.98
10801 43.6736 11092.90 11309.00 121.13
10802 43.6773 11344.20 11308.00 122.61
10803 43.6811 11307.90 11306.90 122.38
10804 43.6848 11340.70 11299.20 122.31
10805 43.6886 11041.50 11298.20 120.90
10806 43.6924 11336.40 11297.30 122.23
10807 43.6961 11044.20 11296.30 120.31
10808 43.6999 11171.40 11295.40 122.23
10809 43.7036 11210.30 11294.40 120.67
10810 43.7074 11237.10 11293.50 122.49
10811 43.7111 11117.80 11292.50 121.81
10812 43.7149 11281.10 11291.50 122.09
10813 43.7187 10837.20 11290.60 117.14
10814 43.7224 11509.10 11289.60 126.02
10815 43.7262 11035.60 11288.70 120.42
10816 43.7299 11256.90 11287.70 121.33
10817 43.7337 11186.20 11286.70 120.19
10818 43.7375 11158.00 11285.80 121.30
10819 43.7412 11128.50 11284.80 120.91
10820 43.7450 10886.90 11283.80 119.83
10821 43.7487 11096.70 11282.90 121.14
10822 43.7525 10940.60 11281.90 119.90
10823 43.7563 11035.30 11280.90 121.24
10824 43.7600 11205.70 11280.00 122.37
10825 43.7638 11123.60 11279.00 121.12
10826 43.7675 11249.10 11278.10 121.79
10827 43.7713 11154.10 11277.10 121.57
10828 43.7751 11362.60 11276.10 122.04
10829 43.7788 11042.10 11275.10 120.66
10830 43.7826 11323.70 11274.20 122.41
10831 43.7863 11208.60 11273.20 121.99
10832 43.7901 11184.00 11272.20 121.68
10833 43.7938 11020.60 11271.30 119.83
10834 43.7976 11325.50 11270.30 121.96
10835 43.8014 11221.50 11269.30 122.91
10836 43.8051 11333.70 11268.30 122.22
10837 43.8089 11292.90 11267.40 122.44
10838 43.8126 11275.10 11266.40 122.09
10839 43.8164 11035.70 11265.40 120.33
10840 43.8202 11126.30 11264.40 120.34
10841 43.8239 11232.90 11263.50 124.52
10842 43.8277 11531.70 11262.50 123.49
10843 43.8314 11235.30 11261.50 121.34
10844 43.8352 11335.90 11260.50 121.99
10845 43.8390 11165.10 11259.50 121.78
10846 43.8427 11582.10 11258.60 124.05
10847 43.8465 11189.20 11257.60 121.83
10848 43.8502 11326.70 11256.60 123.12
10849 43.8540 11090.00 11255.60 121.52
10850 43.8578 11375.00 11254.60 123.04
10851 43.8615 11288.30 11253.70 122.86
10852 43.8653 11297.70 11252.70 122.79
10853 43.8690 11174.20 11251.70 122.00
10854 43.8728 11391.80 11250.70 122.87
10855 43.8766 11163.60 11249.70 121.50
10856 43.8803 11537.40 11248.80 124.11
10857 43.8841 11020.20 11247.80 120.94
10858 43.8878 11196.50 11246.80 122.17
10859 43.8916 11280.00 11245.80 122.71
10860 43.8954 11505.30 11244.80 121.89
10861 43.8991 11082.10 11243.80 121.68
10862 43.9029 11444.40 11242.80 124.24
10863 43.9066 11108.00 11241.90 120.47
10864 43.9104 11416.90 11240.90 123.06
10865 43.9142 11114.00 11239.90 120.71
10866 43.9179 11230.70 11238.90 120.37
10867 43.9217 11291.50 11237.90 124.56
10868 43.9254 11425.10 11236.90 125.20
10869 43.9292 11185.80 11235.90 121.75
10870 43.9329 11316.50 11234.90 121.96
10871 43.9367 11077.00 11233.90 120.62
10872 43.9405 11550.70 11232.90 123.46
10873 43.9442 11287.70 11232.00 122.58
10874 43.9480 11321.10 11231.00 122.75
10875 43.9517 11337.70 11230.00 123.66
10876 43.9555 11254.40 11229.00 122.19
10877 43.9593 11440.30 11228.00 123.80
10878 43.9630 11417.20 11227.00 123.99
10879 43.9668 11324.90 11226.00 122.93
10880 43.9705 11550.20 11225.00 124.73
10881 43.9743 11228.40 11224.00 123.02
10882 43.9781 11400.50 11223.00 122.69
10883 43.9818 11273.90 11222.00 122.89
10884 43.9856 11521.30 11221.00 124.03
10885 43.9893 11200.30 11220.00 122.00
10886 43.9931 11392.90 11219.00 123.38
10887 43.9969 11245.50 11218.00 122.91
10888 44.0006 11614.40 11217.00 125.46
10889 44.0044 11323.20 11216.00 122.38
10890 44.0081 11429.20 11215.00 124.13
10891 44.0119 11054.90 11214.00 120.88
10892 44.0157 11396.10 11213.00 122.65
10893 44.0194 11217.00 11212.00 121.45
10894 44.0232 11386.30 11211.00 125.92
10895 44.0269 11302.10 11210.00 123.30
10896 44.0307 11307.10 11209.00 122.30
10897 44.0345 11183.80 11208.00 121.64
10898 44.0382 11515.70 11207.00 124.56
10899 44.0420 11318.00 11206.00 123.32
10900 44.0457 11598.80 11205.00 123.86
10901 44.0495 11194.70 11204.00 121.98
10902 44.0533 11421.60 11203.00 123.11
10903 44.0570 11101.10 11202.00 121.80
10904 44.0608 11342.00 11200.90 123.19
10905 44.0645 11348.60 11199.90 123.01
10906 44.0683 11342.80 11198.90 122.19
10907 44.0721 11140.70 11197.90 121.91
10908 44.0758 11420.20 11196.90 122.47
10909 44.0796 11284.20 11195.90 123.03
10910 44.0833 11453.10 11194.90 123.30
10911 44.0871 11202.90 11193.90 122.25
10912 44.0909 11549.20 11192.90 123.32
10913 44.0946 11150.90 11191.90 122.07
10914 44.0984 11399.80 11190.80 123.35
10915 44.1021 11243.60 11189.80 123.44
10916 44.1059 11277.70 11188.80 122.91
10917 44.1097 11173.50 11187.80 122.84
10918 44.1134 11215.90 11186.80 121.78
10919 44.1172 11118.70 11185.80 120.48
10920 44.1209 11475.50 11184.80 124.33
10921 44.1247 11199.00 11183.70 125.11
10922 44.1285 11452.00 11182.70 124.12
10923 44.1322 11515.00 11181.70 123.56
10924 44.1360 11390.30 11180.70 123.21
10925 44.1397 11316.00 11179.70 122.68
10926 44.1435 11229.60 11178.70 122.94
10927 44.1473 11223.30 11177.60 122.66
10928 44.1510 11161.60 11176.60 121.90
10929 44.1548 11365.90 11175.60 122.68
10930 44.1585 11567.10 11174.60 124.43
10931 44.1623 11332.40 11173.60 123.15
10932 44.1661 11580.50 11172.50 124.73
10933 44.1698 11026.80 11171.50 121.18
10934 44.1736 11445.80 11170.50 123.12
10935 44.1773 11201.90 11169.50 122.18
10936 44.1811 11412.20 11168.50 124.10
10937 44.1849 11341.70 11167.40 122.96
10938 44.1886 11420.50 11166.40 123.74
10939 44.1924 11384.20 11165.40 122.74
10940 44.1961 11289.90 11164.40 122.26
10941 44.1999 11388.30 11163.30 123.58
10942 44.2037 11361.50 11162.30 123.10
10943 44.2074 11211.90 11161.30 122.86
10944 44.2112 11283.40 11160.30 122.56
10945 44.2149 11201.80 11159.30 121.39
10946 44.2187 11339.60 11158.20 120.62
10947 44.2225 11483.80 11157.20 127.52
10948 44.2262 11496.60 11156.20 124.70
10949 44.2300 11380.70 11155.10 121.92
10950 44.2337 11442.70 11154.10 123.20
10951 44.2375 11314.60 11153.10 122.56
10952 44.2413 11477.80 11152.00 123.56
10953 44.2450 11399.80 11151.00 123.60
10954 44.2488 11599.60 11150.00 123.74
10955 44.2525 11201.50 11149.00 122.53
10956 44.2563 11472.10 11147.90 122.99
10957 44.2601 11203.50 11146.90 121.97
10958 44.2638 11660.10 11145.90 124.52
10959 44.2676 11392.00 11336.10 122.95
10960 44.2713 11444.70 11337.90 122.99
10961 44.2751 11231.10 11339.80 121.90
10962 44.2788 11624.40 11341.70 124.12
10963 44.2826 11628.40 11343.80 124.66
10964 44.2864 11523.20 11345.90 123.71
10965 44.2901 11450.50 11348.10 123.36
10966 44.2939 11625.70 11350.30 124.20
10967 44.2977 11474.60 11352.70 123.22
10968 44.3014 11565.40 11355.10 124.63
10969 44.3052 11272.50 11357.60 121.32
10970 44.3089 11662.50 11360.10 125.62
10971 44.3127 11566.40 11362.80 123.41
10972 44.3165 11682.20 11365.60 124.31
10973 44.3202 11262.70 11368.40 120.59
10974 44.3240 11641.50 11371.40 127.83
10975 44.3277 11482.80 11374.40 123.59
10976 44.3315 11658.00 11377.60 124.75
10977 44.3353 11486.80 11380.90 123.56
10978 44.3390 11496.30 11384.20 123.58
10979 44.3428 11440.80 11587.10 123.79
10980 44.3465 11582.60 11593.60 123.72
10981 44.3503 11502.90 11600.40 123.05
10982 44.3541 11587.20 11607.50 123.96
10983 44.3578 11276.30 11614.60 121.62
10984 44.3616 11538.50 11622.10 124.65
10985 44.3653 11488.60 11629.60 123.38
10986 44.3691 11828.40 11637.50 126.60
10987 44.3729 11578.20 11645.70 123.68
10988 44.3766 11783.80 11653.90 126.26
10989 44.3804 11693.40 11662.60 125.36
10990 44.3841 11947.40 11850.30 126.76
10991 44.3879 11617.20 11862.20 124.41
10992 44.3917 11826.40 11874.40 125.76
10993 44.3954 11656.10 11886.70 124.00
10994 44.3992 11752.80 11899.70 125.23
10995 44.4029 11636.90 11912.80 125.34
10996 44.4067 11948.40 11926.50 126.72
10997 44.4105 11604.90 11940.70 123.58
10998 44.4142 11689.60 11955.00 125.48
10999 44.4180 11775.00 11970.00 124.01
11000 44.4217 12005.90 11985.20 129.90
11001 44.4255 11828.20 12001.20 127.24
11002 44.4293 11823.90 12017.70 125.08
11003 44.4330 11811.20 12034.30 125.43
11004 44.4368 12034.40 12051.90 127.63
11005 44.4405 11867.30 12069.60 126.46
11006 44.4443 12272.60 12088.30 128.72
11007 44.4481 11880.40 12107.60 126.17
11008 44.4518 11853.30 12127.10 126.15
11009 44.4556 12005.10 12147.80 126.96
11010 44.4593 12211.80 12168.50 128.51
11011 44.4631 12120.90 12190.60 128.04
11012 44.4669 12190.40 12213.40 128.84
11013 44.4706 12136.60 12236.50 127.93
11014 44.4744 12332.40 12260.90 129.46
11015 44.4781 12224.70 12285.60 128.90
11016 44.4819 12479.90 12311.80 129.55
11017 44.4857 12283.50 12339.00 129.17
11018 44.4894 12605.30 12366.40 130.87
11019 44.4932 12281.60 12395.60 128.26
11020 44.4969 12488.50 12425.20 128.14
11021 44.5007 12409.40 12456.60 129.75
11022 44.5045 12439.60 12489.30 130.60
11023 44.5082 12362.50 12522.30 129.32
11024 44.5120 12651.70 12557.60 131.50
11025 44.5157 12511.80 12593.30 129.78
11026 44.5195 12725.50 12631.50 129.68
11027 44.5233 12658.30 12671.20 134.33
11028 44.5270 12798.70 12711.50 132.01
11029 44.5308 12556.80 12754.50 130.04
11030 44.5345 12922.40 12798.30 132.13
11031 44.5383 12672.90 12845.20 130.91
11032 44.5421 12863.50 12894.10 132.17
11033 44.5458 12784.40 12943.90 131.34
11034 44.5496 12987.10 12997.30 133.57
11035 44.5533 12880.30 13051.70 132.06
11036 44.5571 13435.50 13110.20 136.17
11037 44.5609 12948.80 13171.50 132.79
11038 44.5646 13102.30 13234.00 133.42
11039 44.5684 13199.10 13301.30 133.95
11040 44.5721 13503.20 13370.10 136.90
11041 44.5759 13461.70 13444.40 135.66
11042 44.5797 13560.30 13522.50 136.88
11043 44.5834 13282.50 13602.60 134.82
11044 44.5872 13517.40 13689.10 136.31
11045 44.5909 13443.40 13778.10 136.10
11046 44.5947 13683.30 13874.50 136.76
11047 44.5985 13724.90 13976.40 137.95
11048 44.6022 14048.00 14081.50 140.00
11049 44.6060 14040.00 14195.60 139.20
11050 44.6097 14474.10 14313.60 142.69
11051 44.6135 13978.60 14442.20 137.92
11052 44.6173 14658.20 14579.10 141.67
11053 44.6210 14462.40 14720.90 141.96
11054 44.6248 14861.50 14876.30 145.74
11055 44.6285 15067.30 15037.80 145.43
11056 44.6323 15181.90 15215.30 144.29
11057 44.6361 15207.70 15405.50 144.02
11058 44.6398 15662.60 15604.50 148.34
11059 44.6436 15625.80 15824.20 147.16
11060 44.6473 15762.00 16055.00 148.37
11061 44.6511 15967.00 16310.90 149.87
11062 44.6549 16340.40 16588.10 149.63
11063 44.6586 16492.80 16881.40 152.55
11064 44.6624 17055.50 17208.80 155.78
11065 44.6661 17167.90 17557.10 156.44
11066 44.6699 17835.50 17948.20 160.56
11067 44.6737 17890.80 18379.00 159.84
11068 44.6774 18653.70 18840.50 164.14
11069 44.6812 18993.10 19365.10 166.69
11070 44.6849 19527.10 19932.00 166.97
11071 44.6887 19740.20 20581.70 169.42
11072 44.6925 20954.60 21310.20 173.69
11073 44.6962 21410.90 22110.00 177.87
11074 44.7000 22567.60 23040.10 183.58
11075 44.7037 23571.10 24071.30 189.44
11076 44.7075 25246.70 25286.80 196.25
11077 44.7113 26288.40 26693.10 198.81
11078 44.7150 28338.00 28291.20 210.33
11079 44.7188 29651.40 30223.30 213.59
11080 44.7225 33130.60 32473.90 232.37
11081 44.7263 36129.60 35285.80 247.07
11082 44.7301 40186.10 38815.70 258.82
11083 44.7338 44444.00 43233.90 274.27
11084 44.7376 51701.40 49295.90 302.25
11085 44.7413 59516.10 57366.60 331.33
11086 44.7451 71986.80 68899.30 374.16
11087 44.7489 85334.80 84947.60 415.73
11088 44.7526 106693.00 106218.00 483.33
11089 44.7564 131692.00 134899.00 549.79
11090 44.7601 168029.00 169728.00 655.35
11091 44.7639 203537.00 211093.00 749.82
11092 44.7677 245028.00 252817.00 848.53
11093 44.7714 269759.00 283806.00 903.00
11094 44.7752 282120.00 293440.00 941.17
11095 44.7789 264771.00 277201.00 902.04
11096 44.7827 237772.00 242582.00 836.27
11097 44.7865 198638.00 202391.00 736.57
11098 44.7902 168682.00 166245.00 656.85
11099 44.7940 138368.00 135790.00 574.52
11100 44.7977 120274.00 113538.00 521.22
11101 44.8015 105119.00 97690.40 481.34
11102 44.8053 97304.00 88057.60 448.26
11103 44.8128 92284.30 83927.70 429.49
11104 44.8165 95217.20 88599.60 448.23
11105 44.8203 103506.00 98506.60 468.06
11106 44.8241 117577.00 114504.00 527.12
11107 44.8278 137687.00 136999.00 575.30
11108 44.8316 162904.00 167906.00 640.03
11109 44.8353 204273.00 205395.00 744.35
11110 44.8391 244247.00 248750.00 846.20
11111 44.8429 291393.00 289929.00 961.73
11112 44.8466 318071.00 316157.00 1028.53
11113 44.8504 331336.00 318085.00 1059.94
11114 44.8541 306532.00 296312.00 1001.84
11115 44.8579 277467.00 261514.00 934.86
11116 44.8617 236811.00 227168.00 835.22
11117 44.8654 210890.00 201757.00 766.09
11118 44.8692 192056.00 187625.00 718.49
11119 44.8729 192918.00 186720.00 721.59
11120 44.8767 201694.00 198713.00 740.97
11121 44.8805 230497.00 221878.00 814.74
11122 44.8842 258156.00 250895.00 879.69
11123 44.8880 293737.00 278603.00 970.10
11124 44.8917 306226.00 291657.00 1001.68
11125 44.8955 303803.00 281747.00 993.17
11126 44.8993 269393.00 250911.00 912.06
11127 44.9030 230660.00 211501.00 825.50
11128 44.9068 178164.00 171165.00 680.36
11129 44.9105 140516.00 136978.00 584.24
11130 44.9143 107511.00 108637.00 486.95
11131 44.9181 85051.90 86975.30 413.30
11132 44.9218 68733.10 71341.00 366.14
11133 44.9256 58740.60 59662.50 335.30
11134 44.9293 49116.40 51415.10 293.49
11135 44.9331 43723.60 45171.40 272.21
11136 44.9369 37984.90 40469.60 249.11
11137 44.9406 34303.90 36889.80 234.63
11138 44.9444 31370.90 33933.20 224.14
11139 44.9481 29735.20 31555.90 216.99
11140 44.9519 27125.70 29506.80 205.15
11141 44.9557 25902.60 27763.60 200.11
11142 44.9594 24482.80 26303.80 193.17
11143 44.9632 24076.90 25001.70 191.34
11144 44.9669 22412.10 23894.10 182.93
11145 44.9707 22003.50 22892.60 181.02
11146 44.9745 20763.30 22007.70 175.32
11147 44.9782 20605.10 21241.60 171.87
11148 44.9820 19469.90 20537.00 167.66
11149 44.9857 19287.90 19921.90 167.68
11150 44.9895 18500.90 19351.80 163.68
11151 44.9933 18649.20 18836.80 164.56
11152 44.9970 17892.90 18380.70 159.67
11153 45.0008 17794.30 17954.00 159.18
11154 45.0045 17050.20 17573.70 155.95
11155 45.0083 16979.70 17215.90 156.00
11156 45.0121 17026.00 16886.90 156.69
11157 45.0158 16480.90 16591.70 152.02
11158 45.0196 15857.90 16311.30 147.26
11159 45.0233 16275.80 16058.60 155.32
11160 45.0271 15758.90 15817.50 150.22
11161 45.0309 15675.90 15593.60 148.62
11162 45.0346 15256.90 15390.20 145.40
11163 45.0384 15104.10 15195.00 145.48
11164 45.0421 14950.40 15017.60 143.40
11165 45.0459 15117.30 14846.60 146.12
11166 45.0497 14679.60 14686.50 143.32
11167 45.0534 14567.00 14539.90 142.54
11168 45.0572 14400.20 14398.30 140.28
11169 45.0609 14476.70 14268.30 141.98
11170 45.0647 13901.50 14142.40 138.38
11171 45.0685 14291.60 14023.40 141.80
11172 45.0722 13878.70 13913.90 138.64
11173 45.0760 14134.10 13807.40 140.44
11174 45.0797 13769.10 13709.10 137.74
11175 45.0835 13992.20 13613.20 139.75
11176 45.0873 13679.60 13522.30 139.24
11177 45.0910 13596.20 13438.00 137.68
11178 45.0948 13364.80 13355.70 135.61
11179 45.0985 13618.00 13279.30 136.48
11180 45.1023 13313.50 13204.40 137.04
11181 45.1061 13434.40 13133.10 135.65
11182 45.1098 13157.60 13066.70 135.04
11183 45.1136 13417.70 13001.60 136.35
11184 45.1173 13013.60 12940.90 132.12
11185 45.1211 12787.10 12881.30 132.85
11186 45.1249 12937.70 12824.20 135.80
11187 45.1286 13050.70 12770.90 133.91
11188 45.1324 12608.10 12718.30 130.64
11189 45.1361 12748.30 12669.30 131.29
11190 45.1399 12469.70 12620.80 128.80
11191 45.1437 12786.40 12574.30 132.27
11192 45.1474 12394.10 12530.70 130.46
11193 45.1512 12797.20 12487.70 133.01
11194 45.1549 12551.20 12447.30 130.43
11195 45.1587 12583.40 12407.40 131.35
11196 45.1625 12546.60 12368.90 130.97
11197 45.1662 12620.80 12332.70 131.57
11198 45.1700 12499.10 12297.00 129.79
11199 45.1737 12800.90 12263.30 132.15
11200 45.1775 12302.40 12229.90 129.43
11201 45.1813 12646.30 12197.70 131.46
11202 45.1850 12257.90 12167.30 129.27
11203 45.1888 12456.10 12137.20 129.49
11204 45.1925 12209.80 12108.80 128.67
11205 45.1963 12397.00 12080.50 129.54
11206 45.2000 12228.20 12053.90 128.94
11207 45.2038 12303.90 12027.40 130.09
11208 45.2076 11868.40 12001.80 126.48
11209 45.2113 12058.40 11977.50 128.41
11210 45.2151 12068.60 11953.40 127.58
11211 45.2188 12129.60 11930.60 126.67
11212 45.2226 12050.00 11907.80 129.93
11213 45.2264 12163.40 11885.70 130.47
11214 45.2301 11828.90 11864.80 126.02
11215 45.2339 12006.90 11844.00 126.25
11216 45.2376 11856.90 11824.30 126.63
11217 45.2414 11944.90 11804.60 126.83
11218 45.2452 11809.20 11785.40 126.39
11219 45.2489 11940.90 11767.30 127.18
11220 45.2527 11846.80 11749.10 126.58
11221 45.2564 11794.90 11731.90 126.42
11222 45.2602 11622.00 11714.70 125.85
11223 45.2640 11744.20 11698.00 126.41
11224 45.2677 11470.90 11682.10 124.15
11225 45.2715 11686.40 11666.10 125.02
11226 45.2752 11642.10 11651.00 125.38
11227 45.2790 11609.20 11635.90 125.28
11228 45.2828 11655.40 11430.60 124.72
11229 45.2865 11982.70 11419.30 126.89
11230 45.2903 11439.00 11408.00 124.34
11231 45.2940 11516.90 11397.20 124.38
11232 45.2978 11291.50 11386.40 122.41
11233 45.3016 11807.60 11375.90 127.66
11234 45.3053 11337.90 11365.90 123.34
11235 45.3091 11740.20 11355.90 124.60
11236 45.3128 11234.80 11346.30 123.05
11237 45.3166 11562.90 11336.70 124.03
11238 45.3204 11220.90 11327.30 120.95
11239 45.3241 11601.70 11318.40 128.59
11240 45.3279 11193.90 11309.40 123.44
11241 45.3316 11507.40 11300.80 122.41
11242 45.3354 11135.00 11292.20 121.93
11243 45.3392 11263.70 11283.80 122.85
11244 45.3467 11203.40 11267.70 122.98
11245 45.3504 11281.90 11260.00 122.47
11246 45.3542 11301.30 11252.20 122.88
11247 45.3580 10999.60 11048.10 120.77
11248 45.3617 11354.40 11043.70 123.92
11249 45.3655 11294.40 11039.20 123.78
11250 45.3692 11107.60 11034.90 122.46
11251 45.3730 11263.50 11030.60 122.60
11252 45.3767 11361.80 11026.50 123.63
11253 45.3805 11136.20 11022.30 122.51
11254 45.3843 11322.60 11018.20 123.21
11255 45.3880 11137.50 11014.30 122.07
11256 45.3918 11183.70 11010.30 122.51
11257 45.3955 10895.20 11006.50 120.79
11258 45.3993 11211.00 11002.70 121.98
11259 45.4031 10997.50 10820.90 122.50
11260 45.4068 11202.00 10819.80 122.04
11261 45.4106 11001.20 10818.70 121.02
11262 45.4143 11214.00 10817.60 123.20
11263 45.4181 10996.40 10816.50 120.83
11264 45.4219 11017.10 10815.40 120.23
11265 45.4256 10978.10 10814.30 122.99
11266 45.4294 11092.00 10813.20 122.73
11267 45.4331 11003.60 10812.20 121.23
11268 45.4369 11125.50 10811.10 121.94
11269 45.4407 10987.30 10809.90 121.26
11270 45.4444 11164.40 10808.90 122.06
11271 45.4482 10968.50 10807.80 121.57
11272 45.4519 11285.20 10806.70 122.57
11273 45.4557 10952.90 10805.60 121.23
11274 45.4595 11131.70 10804.50 122.71
11275 45.4632 10788.10 10803.40 120.41
11276 45.4670 11062.60 10802.60 122.13
11277 45.4707 10901.70 10801.50 121.00
11278 45.4745 11090.70 10800.40 122.65
11279 45.4783 10950.00 10799.30 120.97
11280 45.4820 11004.60 10798.20 121.68
11281 45.4858 10901.50 10797.10 120.32
11282 45.4895 11253.20 10796.10 123.19
11283 45.4933 10801.40 10795.00 120.33
11284 45.4970 11184.00 10793.90 122.36
11285 45.5008 10906.40 10792.80 120.49
11286 45.5046 11196.20 10791.70 122.90
11287 45.5083 10829.20 10790.60 119.09
11288 45.5121 11092.00 10789.50 122.25
11289 45.5158 10796.70 10788.40 120.13
11290 45.5196 11014.20 10787.30 120.85
11291 45.5234 10826.30 10786.20 121.49
11292 45.5271 10853.90 10785.20 122.47
11293 45.5309 10687.90 10784.10 119.10
11294 45.5346 11038.00 10783.00 120.65
11295 45.5384 10655.80 10781.90 119.46
11296 45.5422 10878.90 10780.80 120.50
11297 45.5459 10787.00 10779.70 120.12
11298 45.5497 10986.60 10778.60 121.28
11299 45.5534 10665.40 10778.50 119.44
11300 45.5572 10765.40 10777.40 120.45
11301 45.5610 10838.60 10776.40 120.10
11302 45.5647 10964.90 10775.30 121.09
11303 45.5685 10807.50 10774.20 120.65
11304 45.5722 10989.80 10773.20 121.70
11305 45.5760 10735.60 10772.10 119.67
11306 45.5797 10885.80 10771.00 120.78
11307 45.5835 10990.30 10770.00 121.71
11308 45.5873 11133.50 10768.90 122.17
11309 45.5910 10806.60 10767.80 119.25
11310 45.5948 11065.50 10766.70 120.05
11311 45.5985 10537.50 10765.70 118.30
11312 45.6023 10894.30 10764.60 119.46
11313 45.6061 10724.60 10763.50 120.35
11314 45.6098 10859.50 10763.20 121.26
11315 45.6136 10669.10 10762.20 119.95
11316 45.6173 10895.00 10761.10 120.65
11317 45.6211 10671.60 10760.10 117.23
11318 45.6249 11035.50 10759.00 123.28
11319 45.6286 10569.40 10758.00 118.55
11320 45.6324 10905.40 10756.90 120.40
11321 45.6361 10808.70 10755.90 119.26
11322 45.6399 10874.30 10755.00 119.68
11323 45.6436 10688.50 10753.90 119.26
11324 45.6474 10787.10 10752.90 120.23
11325 45.6512 10616.30 10751.80 119.07
11326 45.6549 10681.00 10750.80 119.38
11327 45.6587 10591.90 10749.80 118.23
11328 45.6624 10749.10 10748.80 119.84
11329 45.6662 10621.40 10747.70 118.78
11330 45.6700 10831.70 10746.70 120.42
11331 45.6737 10495.40 10745.70 117.95
11332 45.6775 10829.60 10744.60 119.83
11333 45.6812 10654.40 10743.60 118.82
11334 45.6850 10812.40 10742.60 120.19
11335 45.6888 10576.40 10741.60 119.08
11336 45.6925 10838.00 10740.60 120.36
11337 45.6963 10669.20 10739.60 118.41
11338 45.7000 10693.20 10738.60 119.02
11339 45.7038 10724.30 10737.50 120.02
11340 45.7075 10555.70 10736.60 118.42
11341 45.7113 10385.90 10735.50 118.10
11342 45.7151 10641.70 10734.50 118.88
11343 45.7188 10694.60 10733.60 118.32
11344 45.7226 10759.60 10732.60 118.43
11345 45.7263 10548.40 10731.60 121.49
11346 45.7301 10802.30 10730.60 120.57
11347 45.7339 10604.60 10729.60 118.56
11348 45.7376 10781.00 10728.60 119.81
11349 45.7414 10457.50 10727.70 117.15
11350 45.7451 10704.20 10726.70 119.23
11351 45.7489 10587.20 10725.70 118.81
11352 45.7527 10499.60 10724.80 118.02
11353 45.7564 10479.50 10723.80 116.18
11354 45.7602 10518.90 10722.90 117.71
11355 45.7639 10283.40 10721.90 116.86
11356 45.7677 10624.50 10721.00 118.86
11357 45.7714 10519.10 10720.10 117.97
11358 45.7752 10510.20 10719.10 118.46
11359 45.7790 10440.70 10718.20 118.07
11360 45.7827 10803.40 10717.30 120.78
11361 45.7865 10581.30 10716.40 118.75
11362 45.7902 10670.40 10715.50 119.43
11363 45.7940 10663.40 10714.60 118.66
11364 45.7978 10569.80 10713.80 118.85
11365 45.8015 10408.40 10712.90 117.12
11366 45.8053 10758.30 10712.00 119.92
11367 45.8090 10566.20 10711.20 117.65
11368 45.8128 10488.10 10710.40 118.22
11369 45.8165 10431.40 10709.60 118.64
11370 45.8203 10425.60 10708.80 116.53
11371 45.8241 10323.20 10708.00 117.39
11372 45.8278 10776.10 10707.20 123.11
11373 45.8316 10499.20 10706.50 118.19
11374 45.8353 10764.20 10705.80 119.36
11375 45.8391 10641.60 10705.00 118.99
11376 45.8429 10489.50 10704.40 118.43
11377 45.8466 10588.10 10703.70 119.09
11378 45.8504 10675.40 10703.10 119.42
11379 45.8541 10411.50 10702.50 117.68
11380 45.8579 10549.00 10701.90 118.58
11381 45.8616 10594.80 10701.40 118.85
11382 45.8654 10538.50 10700.90 118.74
11383 45.8692 10498.00 10700.40 118.65
11384 45.8729 10752.70 10700.00 120.21
11385 45.8767 10595.30 10699.70 117.74
11386 45.8804 10778.70 10699.40 119.97
11387 45.8842 10447.80 10699.20 118.54
11388 45.8880 10589.70 10699.00 118.83
11389 45.8917 10479.20 10699.00 118.63
11390 45.8955 10529.50 10699.00 117.20
11391 45.8992 10476.00 10699.20 117.52
11392 45.9030 10650.50 10699.40 119.97
11393 45.9067 10560.00 10699.90 118.88
11394 45.9105 10851.70 10700.50 121.06
11395 45.9143 10655.50 10701.30 120.11
11396 45.9180 10681.70 10702.40 119.66
11397 45.9218 10412.90 10703.80 116.26
11398 45.9255 10723.80 10705.50 123.24
11399 45.9293 10549.80 10707.80 118.68
11400 45.9331 10885.90 10710.60 120.54
11401 45.9368 10454.00 10714.10 117.23
11402 45.9406 10704.40 10718.80 119.81
11403 45.9443 10607.90 10724.80 119.39
11404 45.9481 10621.70 10733.30 118.95
11405 45.9518 10432.60 10744.80 118.53
11406 45.9556 10740.50 10761.20 121.12
11407 45.9594 10648.80 10784.00 118.92
11408 45.9631 10805.20 10814.10 121.63
11409 45.9669 10544.40 10854.40 119.35
11410 45.9706 10869.70 10903.00 121.18
11411 45.9744 10602.40 10960.30 119.91
11412 45.9781 10919.50 11016.60 121.29
11413 45.9819 10859.00 11061.00 120.93
11414 45.9857 10769.90 11075.50 120.73
11415 45.9894 10596.20 11055.10 119.46
11416 45.9932 11020.60 11009.20 122.55
11417 45.9969 10896.20 10956.60 120.15
11418 46.0007 10738.30 10906.30 120.34
11419 46.0045 10811.50 10865.20 121.10
11420 46.0082 10763.50 10835.50 120.02
11421 46.0120 10741.00 10814.90 120.96
11422 46.0157 10816.40 10803.50 120.83
11423 46.0195 10650.60 10799.30 119.37
11424 46.0232 10677.30 10801.70 119.32
11425 46.0270 10657.50 10810.50 122.56
11426 46.0308 10826.60 10826.30 121.43
11427 46.0345 10787.40 10850.10 120.24
11428 46.0383 10953.50 10886.40 121.63
11429 46.0420 10592.60 10937.60 119.17
11430 46.0458 11042.40 11011.60 121.19
11431 46.0495 10906.30 11110.70 121.57
11432 46.0533 11477.60 11244.60 124.40
11433 46.0571 11245.80 11413.00 121.81
11434 46.0608 11681.60 11603.30 125.54
11435 46.0646 11300.40 11803.90 122.77
11436 46.0683 11863.40 11959.80 126.14
11437 46.0721 11647.80 12022.40 125.40
11438 46.0759 11638.40 11959.30 125.19
11439 46.0796 11591.70 11807.90 124.83
11440 46.0834 11486.60 11619.00 124.20
11441 46.0871 11264.30 11445.00 122.97
11442 46.0909 11432.50 11299.10 124.10
11443 46.0946 11043.60 11196.20 121.11
11444 46.0984 10874.20 11132.40 119.84
11445 46.1022 10950.00 11109.90 120.12
11446 46.1059 11078.00 11126.50 122.42
11447 46.1097 10998.70 11181.60 120.96
11448 46.1134 11543.40 11270.50 125.32
11449 46.1172 11113.10 11392.60 121.84
11450 46.1209 11371.30 11528.60 122.55
11451 46.1247 11527.80 11656.90 125.39
11452 46.1285 11692.50 11729.40 127.65
11453 46.1322 11385.70 11713.50 123.40
11454 46.1360 11650.30 11615.70 124.88
11455 46.1397 11268.00 11481.20 123.11
11456 46.1435 11492.60 11342.40 124.40
11457 46.1472 11108.30 11227.50 121.27
11458 46.1510 11311.00 11135.30 123.36
11459 46.1548 10896.20 11064.60 120.46
11460 46.1585 10954.20 11006.50 121.07
11461 46.1623 10639.00 10949.60 118.91
11462 46.1660 10716.10 10895.90 119.50
11463 46.1698 10718.90 10845.30 119.51
11464 46.1735 10866.30 10802.80 118.54
11465 46.1773 10463.40 10766.80 116.33
11466 46.1811 10707.70 10737.80 119.20
11467 46.1848 10585.60 10715.40 118.11
11468 46.1886 10683.00 10697.10 118.64
11469 46.1923 10537.30 10683.00 118.18
11470 46.1961 10487.10 10671.30 117.63
11471 46.1998 10308.60 10661.90 116.27
11472 46.2036 10614.70 10653.80 117.46
11473 46.2074 10472.50 10646.80 117.62
11474 46.2111 10682.80 10640.90 118.44
11475 46.2149 10239.80 10635.50 116.43
11476 46.2186 10616.40 10630.70 116.76
11477 46.2224 10344.20 10626.30 115.42
11478 46.2261 10671.80 10622.40 120.68
11479 46.2299 10520.40 10618.70 118.46
11480 46.2337 10497.20 10615.20 116.75
11481 46.2374 10468.10 10612.10 117.05
11482 46.2412 10492.00 10609.10 117.63
11483 46.2449 10439.80 10606.40 117.14
11484 46.2487 10404.90 10603.70 117.28
11485 46.2524 10447.60 10601.20 117.26
11486 46.2562 10458.70 10598.80 118.00
11487 46.2600 10363.30 10596.50 117.31
11488 46.2637 10452.80 10594.40 116.33
11489 46.2675 10499.20 10592.30 117.97
11490 46.2712 10453.30 10590.30 117.51
11491 46.2750 10442.00 10588.30 117.71
11492 46.2787 10715.30 10586.50 119.42
11493 46.2825 10243.60 10584.60 116.09
11494 46.2863 10415.40 10582.80 116.55
11495 46.2900 10348.60 10581.10 117.16
11496 46.2938 10440.70 10579.40 116.42
11497 46.2975 10268.30 10577.80 116.14
11498 46.3013 10580.00 10576.20 117.85
11499 46.3050 10278.30 10574.60 116.93
11500 46.3088 10399.50 10573.10 117.46
11501 46.3126 10456.80 10571.50 117.79
11502 46.3163 10517.00 10570.10 118.38
11503 46.3201 10363.70 10568.60 116.93
11504 46.3238 10602.60 10567.10 117.28
11505 46.3276 10482.00 10565.70 120.38
11506 46.3313 10407.10 10564.30 117.50
11507 46.3351 10521.70 10562.90 117.62
11508 46.3389 10598.80 10561.50 117.68
11509 46.3426 10128.70 10560.20 116.07
11510 46.3464 10168.00 10558.80 115.82
11511 46.3501 10308.70 10557.50 115.66
11512 46.3539 10567.00 10556.20 118.67
11513 46.3576 10215.70 10554.90 115.95
11514 46.3614 10313.20 10553.60 117.04
11515 46.3651 10339.40 10552.40 116.58
11516 46.3689 10503.70 10551.10 117.34
11517 46.3727 10221.10 10549.80 116.49
11518 46.3764 10664.20 10548.60 118.66
11519 46.3802 10241.20 10547.30 116.71
11520 46.3839 10551.70 10546.10 116.74
11521 46.3877 10237.50 10544.90 115.33
11522 46.3914 10313.90 10543.70 117.19
11523 46.3952 10371.00 10542.50 117.41
11524 46.3990 10356.30 10541.20 117.24
11525 46.4027 10293.70 10540.10 117.37
11526 46.4065 10530.80 10538.90 117.35
11527 46.4102 10274.40 10537.70 116.72
11528 46.4140 10422.20 10536.50 117.69
11529 46.4177 10314.00 10535.30 117.04
11530 46.4215 10320.90 10534.20 113.98
11531 46.4253 10412.90 10533.00 119.69
11532 46.4290 10642.90 10531.80 120.11
11533 46.4328 10314.30 10530.70 116.15
11534 46.4365 10362.40 10529.50 117.30
11535 46.4403 10263.10 10528.40 116.63
11536 46.4440 10520.60 10527.20 117.47
11537 46.4478 10322.70 10526.10 117.22
11538 46.4515 10353.90 10525.00 116.70
11539 46.4553 10120.10 10523.80 115.37
11540 46.4591 10418.10 10522.70 117.91
11541 46.4628 10279.60 10521.60 116.61
11542 46.4666 10451.50 10520.40 118.07
11543 46.4703 10287.80 10519.30 117.15
11544 46.4741 10576.20 10518.20 118.34
11545 46.4778 10415.30 10517.10 118.11
11546 46.4816 10656.80 10516.00 118.94
11547 46.4853 10267.80 10514.90 116.65
11548 46.4891 10412.10 10513.80 116.94
11549 46.4929 10481.50 10512.60 116.79
11550 46.4966 10611.70 10511.50 117.88
11551 46.5004 10446.40 10510.40 116.55
11552 46.5041 10525.30 10509.10 118.44
11553 46.5079 10438.70 10508.00 116.59
11554 46.5116 10445.40 10506.90 118.43
11555 46.5154 10385.40 10505.80 118.16
11556 46.5192 10655.10 10504.70 118.83
11557 46.5229 10196.40 10503.60 114.29
11558 46.5267 10587.40 10502.50 121.36
11559 46.5304 10303.40 10501.50 118.72
11560 46.5342 10376.50 10500.40 117.23
11561 46.5379 10186.40 10499.30 115.15
11562 46.5417 10412.30 10498.20 116.76
11563 46.5454 10416.40 10497.20 116.96
11564 46.5492 10531.40 10496.10 117.43
11565 46.5530 10313.70 10495.00 116.02
11566 46.5567 10565.60 10493.90 117.66
11567 46.5605 10287.20 10492.80 116.00
11568 46.5642 10451.40 10491.80 117.33
11569 46.5680 10366.30 10490.70 116.60
11570 46.5717 10505.00 10489.70 116.61
11571 46.5755 10375.30 10488.60 117.19
11572 46.5792 10600.90 10487.50 118.52
11573 46.5830 10373.50 10486.50 116.55
11574 46.5868 10429.80 10485.40 117.06
11575 46.5905 10398.10 10484.30 116.99
11576 46.5943 10541.90 10482.30 117.82
11577 46.5980 10171.30 10481.30 114.90
11578 46.6018 10237.00 10480.30 115.47
11579 46.6055 10336.10 10479.20 117.99
11580 46.6093 10357.00 10478.20 117.09
11581 46.6130 10378.50 10477.20 117.46
11582 46.6168 10519.60 10476.10 117.09
11583 46.6206 10234.50 10475.00 115.15
11584 46.6243 10545.70 10474.00 118.55
11585 46.6281 10282.20 10473.00 118.45
11586 46.6318 10323.30 10471.90 116.78
11587 46.6356 10326.90 10470.90 115.62
11588 46.6393 10562.00 10469.90 117.39
11589 46.6431 10296.50 10468.80 115.45
11590 46.6468 10203.30 10467.80 115.69
11591 46.6506 10135.70 10466.00 115.21
11592 46.6544 10505.70 10465.00 117.87
11593 46.6581 10204.30 10464.00 115.62
11594 46.6619 10569.00 10463.00 118.22
11595 46.6656 10271.50 10462.00 116.35
11596 46.6694 10351.80 10460.90 116.33
11597 46.6731 10143.30 10459.90 115.57
11598 46.6769 10416.60 10458.90 116.56
11599 46.6806 10186.50 10457.80 114.10
11600 46.6844 10557.00 10456.70 117.75
11601 46.6882 10200.60 10455.70 116.18
11602 46.6919 10399.90 10454.70 117.34
11603 46.6957 10151.10 10453.70 114.61
11604 46.6994 10385.60 10452.70 116.75
11605 46.7032 10187.10 10451.70 113.74
11606 46.7069 10372.90 10450.70 117.53
11607 46.7107 10161.90 10449.60 115.57
11608 46.7144 10331.10 10448.60 116.49
11609 46.7182 10007.30 10447.60 114.98
11610 46.7219 10314.90 10446.60 114.92
11611 46.7257 10313.20 10445.60 116.22
11612 46.7295 10338.00 10444.60 118.36
11613 46.7332 10291.00 10443.60 116.25
11614 46.7370 10465.90 10442.50 116.87
11615 46.7407 10212.80 10441.50 115.93
11616 46.7445 10512.20 10440.50 117.54
11617 46.7482 10193.60 10439.50 116.18
11618 46.7520 10383.50 10438.50 117.17
11619 46.7557 10269.10 10437.50 116.37
11620 46.7595 10707.00 10436.50 118.65
11621 46.7632 10240.50 10435.50 115.09
11622 46.7670 10530.70 10434.50 117.86
11623 46.7708 10344.30 10433.40 117.34
11624 46.7745 10465.30 10432.50 117.63
11625 46.7783 10106.60 10431.40 115.13
11626 46.7820 10375.70 10430.40 116.45
11627 46.7858 10088.80 10429.40 115.38
11628 46.7895 10395.30 10428.40 115.83
11629 46.7933 10309.80 10427.40 115.82
11630 46.7970 10418.70 10426.40 117.42
11631 46.8008 10195.50 10425.40 116.09
11632 46.8045 10391.20 10424.40 117.50
11633 46.8083 10172.60 10423.40 116.01
11634 46.8121 10318.40 10422.40 116.66
11635 46.8158 10353.50 10421.40 116.82
11636 46.8196 10353.40 10420.40 115.95
11637 46.8233 10254.30 10419.40 114.29
11638 46.8271 10389.40 10418.40 117.63
11639 46.8308 10143.20 10417.40 114.79
11640 46.8346 10279.80 10416.40 116.55
11641 46.8383 10243.30 10415.40 115.57
11642 46.8421 10504.20 10414.40 117.57
11643 46.8459 10130.40 10413.40 115.69
11644 46.8496 10196.80 10412.40 116.66
11645 46.8534 10193.40 10411.40 116.12
11646 46.8571 10592.90 10410.40 117.78
11647 46.8609 10103.40 10409.40 115.49
11648 46.8646 10371.40 10408.40 116.87
11649 46.8684 10034.60 10407.40 114.05
11650 46.8721 10250.40 10406.40 116.60
11651 46.8759 10225.00 10405.40 116.46
11652 46.8796 10440.60 10404.50 117.88
11653 46.8834 10151.60 10403.50 115.67
11654 46.8871 10331.70 10402.50 117.00
11655 46.8909 10147.00 10401.50 115.95
11656 46.8947 10431.40 10400.50 118.07
11657 46.8984 10072.20 10399.50 115.24
11658 46.9022 10070.60 10398.50 114.31
11659 46.9059 10174.90 10397.50 116.89
11660 46.9097 10399.00 10396.50 117.15
11661 46.9134 10083.80 10395.50 115.57
11662 46.9172 10365.70 10394.50 116.98
11663 46.9209 10014.70 10393.60 113.82
11664 46.9247 10472.70 10392.60 117.67
11665 46.9284 10367.20 10391.60 118.86
11666 46.9322 10496.60 10390.60 118.18
11667 46.9359 10123.00 10389.60 114.28
11668 46.9397 10147.40 10388.60 115.07
11669 46.9435 10081.20 10387.60 114.35
11670 46.9472 10282.60 10386.60 116.65
11671 46.9510 10113.50 10385.70 115.31
11672 46.9547 10379.80 10384.70 117.40
11673 46.9585 10325.70 10383.70 116.35
11674 46.9622 10249.90 10382.70 116.27
11675 46.9660 10065.40 10381.70 114.81
11676 46.9697 10289.80 10380.80 116.20
11677 46.9735 10184.20 10379.80 115.73
11678 46.9772 10307.40 10378.80 117.00
11679 46.9810 10139.20 10377.80 115.29
11680 46.9847 10289.30 10376.80 116.29
11681 46.9885 10124.10 10375.80 115.46
11682 46.9923 10462.80 10374.90 116.74
11683 46.9940 10272.60 10374.40 115.75
11684 46.9977 10624.70 10373.40 119.78
11685 47.0015 10293.20 10372.50 117.78
11686 47.0052 10575.40 10371.50 118.54
11687 47.0090 10037.00 10370.50 113.47
11688 47.0128 10574.20 10369.50 121.49
11689 47.0165 10254.20 10368.60 118.61
11690 47.0203 10707.10 10367.60 119.53
11691 47.0240 10103.20 10366.60 114.83
11692 47.0278 10397.60 10365.60 116.87
11693 47.0315 10149.40 10364.70 115.46
11694 47.0353 10415.60 10363.70 116.90
11695 47.0390 10271.80 10362.70 115.96
11696 47.0428 10375.10 10361.70 116.67
11697 47.0466 10186.00 10360.80 115.56
11698 47.0503 10363.30 10359.80 116.97
11699 47.0541 10398.30 10358.80 117.01
11700 47.0578 10522.90 10357.90 116.92
11701 47.0616 10107.50 10356.90 115.68
11702 47.0653 10617.60 10355.90 118.84
11703 47.0691 10314.60 10355.00 116.39
11704 47.0728 10399.00 10354.00 117.07
11705 47.0766 10367.90 10353.00 117.00
11706 47.0804 10444.30 10352.00 117.40
11707 47.0841 10306.70 10351.10 115.96
11708 47.0879 10332.20 10350.10 116.28
11709 47.0916 10408.70 10349.20 118.66
11710 47.0954 10301.00 10348.20 116.94
11711 47.0991 10600.80 10347.20 119.08
11712 47.1029 10598.80 10346.30 117.79
11713 47.1066 10264.00 10345.30 115.54
11714 47.1104 10247.80 10344.30 116.86
11715 47.1142 10377.90 10343.40 119.28
11716 47.1179 10436.60 10342.40 117.71
11717 47.1217 10273.90 10341.40 115.49
11718 47.1254 10266.40 10340.50 115.72
11719 47.1292 10178.10 10339.50 114.90
11720 47.1329 10394.90 10338.60 117.12
11721 47.1367 10200.80 10337.60 115.83
11722 47.1404 10405.30 10336.70 117.43
11723 47.1442 10206.50 10335.70 115.84
11724 47.1480 10156.20 10334.70 115.80
11725 47.1517 10156.10 10333.80 115.81
11726 47.1555 10278.00 10332.80 116.07
11727 47.1592 10240.70 10331.90 116.40
11728 47.1630 10361.40 10330.90 116.42
11729 47.1667 10249.10 10330.00 114.69
11730 47.1705 10479.80 10329.00 117.46
11731 47.1742 10340.90 10328.10 117.28
11732 47.1780 10302.70 10327.10 116.93
11733 47.1818 10072.40 10326.20 114.31
11734 47.1855 10324.60 10325.20 116.57
11735 47.1893 10415.50 10324.30 115.37
11736 47.1930 10296.10 10323.30 117.25
11737 47.1968 10219.00 10322.40 116.14
11738 47.2005 10460.00 10321.40 117.51
11739 47.2043 10327.00 10320.50 117.24
11740 47.2080 10506.00 10319.50 116.32
11741 47.2118 10368.90 10318.60 116.78
11742 47.2155 10652.60 10317.60 120.60
11743 47.2186 10463.90 10316.90 115.40
11744 47.2224 10469.00 10315.90 115.34
11745 47.2261 10370.70 10315.00 117.83
11746 47.2299 10512.80 10314.00 117.30
11747 47.2336 10243.00 10313.10 115.24
11748 47.2374 10582.80 10312.10 116.98
11749 47.2411 10223.70 10311.20 115.15
11750 47.2449 10388.20 10310.30 115.67
11751 47.2486 10226.70 10309.30 115.28
11752 47.2524 10353.80 10308.40 116.20
11753 47.2562 10280.70 10307.40 115.49
11754 47.2599 10273.30 10306.50 115.47
11755 47.2637 10211.90 10305.50 115.45
11756 47.2674 10371.90 10304.60 116.04
11757 47.2712 10217.50 10303.70 115.09
11758 47.2749 10439.50 10302.70 116.57
11759 47.2787 10352.70 10301.80 116.04
11760 47.2824 10436.20 10300.90 116.91
11761 47.2862 10162.50 10299.90 114.26
11762 47.2899 10266.50 10299.00 115.28
11763 47.2937 10348.60 10298.10 115.64
11764 47.2975 10332.90 10297.10 115.93
11765 47.3012 10253.70 10296.20 114.95
11766 47.3050 10455.10 10295.30 116.98
11767 47.3087 10084.20 10294.30 114.08
11768 47.3125 10454.40 10293.40 116.46
11769 47.3162 10294.30 10292.50 115.89
11770 47.3200 10633.00 10291.50 117.46
11771 47.3237 10134.30 10290.60 114.56
11772 47.3275 10566.90 10289.70 119.08
11773 47.3312 10232.50 10288.80 115.07
11774 47.3350 10225.50 10287.80 115.29
11775 47.3387 10160.40 10286.90 114.69
11776 47.3425 10303.20 10286.00 115.30
11777 47.3463 10114.50 10285.00 114.80
11778 47.3500 10166.20 10284.10 114.43
11779 47.3538 10378.30 10283.20 116.19
11780 47.3575 10430.70 10282.30 116.56
11781 47.3613 10112.70 10281.40 113.57
11782 47.3650 10591.60 10280.40 117.49
11783 47.3688 10305.30 10279.50 116.16
11784 47.3725 10461.90 10278.60 116.90
11785 47.3763 10387.60 10277.70 116.62
11786 47.3800 10373.00 10276.80 116.76
11787 47.3838 10129.00 10275.80 113.88
11788 47.3875 10398.00 10274.90 117.03
11789 47.3913 10305.10 10274.00 115.78
11790 47.3951 10292.70 10273.10 115.77
11791 47.3988 10283.30 10272.20 115.59
11792 47.4026 10560.70 10271.20 117.88
11793 47.4063 10267.10 10270.30 115.78
11794 47.4101 10196.10 10269.40 115.89
11795 47.4138 10354.20 10268.50 116.42
11796 47.4176 10275.60 10267.60 115.60
11797 47.4213 10203.40 10266.70 114.28
11798 47.4251 10543.60 10265.80 118.63
11799 47.4288 10319.20 10264.90 117.14
11800 47.4326 10279.40 10263.90 115.77
11801 47.4364 10167.90 10289.80 114.96
11802 47.4401 10278.50 10289.30 115.19
11803 47.4439 10222.50 10288.70 115.43
11804 47.4476 10393.00 10288.20 116.42
11805 47.4514 10201.70 10287.70 115.50
11806 47.4551 10602.60 10287.20 117.60
11807 47.4589 10227.10 10286.70 115.24
11808 47.4626 10398.20 10286.30 116.63
11809 47.4664 10229.50 10285.80 115.85
11810 47.4701 10438.30 10285.40 117.35
11811 47.4739 10256.70 10284.90 116.44
11812 47.4777 10287.90 10284.50 115.91
11813 47.4814 10397.50 10284.00 117.46
11814 47.4852 10600.60 10283.60 117.26
11815 47.4889 10200.30 10283.20 115.37
11816 47.4927 10323.70 10282.80 115.85
11817 47.4964 10310.00 10282.50 116.05
11818 47.5002 10571.70 10282.10 117.26
11819 47.5039 10383.40 10281.80 116.31
11820 47.5077 10389.20 10281.40 116.23
11821 47.5115 10309.50 10281.10 116.48
11822 47.5152 10273.20 10280.80 116.84
11823 47.5190 10420.60 10280.50 116.90
11824 47.5227 10406.50 10280.30 115.55
11825 47.5265 10521.40 10280.00 119.14
11826 47.5302 10486.90 10279.80 117.56
11827 47.5340 10201.20 10279.60 115.57
11828 47.5377 10393.90 10279.40 116.54
11829 47.5415 10073.50 10279.20 114.42
11830 47.5452 10332.80 10279.00 116.34
11831 47.5490 10292.90 10278.90 115.50
11832 47.5528 10358.10 10278.70 116.28
11833 47.5565 10486.90 10278.60 117.62
11834 47.5603 10292.50 10278.60 116.31
11835 47.5640 10377.40 10278.50 115.95
11836 47.5678 10554.80 10278.50 117.76
11837 47.5715 10066.10 10278.50 115.05
11838 47.5753 10319.70 10278.50 116.18
11839 47.5790 10225.80 10278.50 115.94
11840 47.5828 10597.60 10278.60 118.40
11841 47.5866 10084.50 10278.70 114.74
11842 47.5903 10362.30 10278.80 116.77
11843 47.5941 10249.40 10279.00 114.30
11844 47.5978 10483.30 10279.20 117.40
11845 47.6016 10262.50 10279.40 115.30
11846 47.6053 10454.50 10279.70 117.97
11847 47.6091 10333.20 10280.00 115.48
11848 47.6128 10617.50 10280.30 118.45
11849 47.6166 10107.60 10280.70 115.18
11850 47.6204 10389.00 10281.10 116.25
11851 47.6241 10279.90 10281.60 115.46
11852 47.6279 10540.00 10282.10 120.11
11853 47.6316 10077.80 10282.60 115.52
11854 47.6354 10334.40 10283.20 115.71
11855 47.6391 10269.50 10283.80 115.27
11856 47.6429 10430.20 10284.60 116.60
11857 47.6466 10126.60 10285.30 114.69
11858 47.6504 10266.00 10286.10 115.83
11859 47.6542 10334.70 10287.00 116.19
11860 47.6579 10522.70 10287.90 117.58
11861 47.6617 10120.90 10338.10 114.98
11862 47.6654 10502.20 10339.80 117.87
11863 47.6692 10375.40 10341.70 116.93
11864 47.6729 10357.50 10343.60 116.32
11865 47.6767 10218.10 10345.70 116.02
11866 47.6804 10378.80 10347.80 116.15
11867 47.6842 10314.80 10350.10 115.51
11868 47.6880 10296.60 10352.50 115.48
11869 47.6917 10162.10 10354.90 114.75
11870 47.6955 10389.80 10357.50 115.47
11871 47.6992 10396.60 10360.20 115.85
11872 47.7030 10546.90 10363.10 116.98
11873 47.7067 10195.20 10366.10 115.34
11874 47.7105 10288.70 10369.30 114.77
11875 47.7142 10269.40 10372.50 115.50
11876 47.7180 10490.60 10376.10 116.84
11877 47.7218 10299.50 10379.70 114.26
11878 47.7255 10433.40 10383.50 116.73
11879 47.7293 10367.40 10387.60 117.21
11880 47.7330 10583.70 10391.80 117.38
11881 47.7368 10468.90 10396.30 116.40
11882 47.7405 10778.50 10400.90 118.43
11883 47.7443 10381.60 10405.90 116.10
11884 47.7480 10452.10 10411.00 116.76
11885 47.7518 10105.00 10416.60 114.25
11886 47.7556 10447.70 10422.40 116.10
11887 47.7593 10464.50 10428.40 117.24
11888 47.7631 10537.80 10435.00 116.71
11889 47.7668 10416.30 10441.70 116.04
11890 47.7706 10603.10 10448.90 117.25
11891 47.7743 10247.00 10456.40 115.78
11892 47.7781 10527.20 10464.60 117.32
11893 47.7819 10383.40 10473.20 116.03
11894 47.7856 10394.60 10482.10 116.28
11895 47.7894 10383.50 10491.90 116.16
11896 47.7931 10590.60 10501.90 117.39
11897 47.7969 10465.60 10512.90 116.71
11898 47.8006 10526.30 10524.30 116.57
11899 47.8044 10472.00 10536.80 116.89
11900 47.8082 10639.70 10550.10 118.31
11901 47.8119 10615.40 10563.90 117.57
11902 47.8157 10648.20 10579.20 118.19
11903 47.8194 10622.50 10595.10 117.81
11904 47.8232 10821.20 10612.60 117.88
11905 47.8269 10711.60 10630.90 119.77
11906 47.8307 11081.40 10651.20 121.58
11907 47.8344 10747.60 10672.50 118.12
11908 47.8382 10766.50 10696.20 118.40
11909 47.8420 10678.00 10721.80 118.35
11910 47.8457 10934.20 10748.90 120.41
11911 47.8495 10843.50 10779.20 119.09
11912 47.8532 10989.90 10811.30 119.83
11913 47.8570 10935.10 10847.40 119.77
11914 47.8607 11092.60 10886.00 121.03
11915 47.8645 10930.80 10929.50 119.81
11916 47.8683 11319.40 10977.50 122.19
11917 47.8720 11215.70 11029.30 121.28
11918 47.8758 11121.30 11088.40 121.12
11919 47.8795 11289.00 11152.50 121.86
11920 47.8833 11447.60 11226.20 122.85
11921 47.8870 11374.00 11306.80 122.87
11922 47.8908 11661.70 11400.50 124.36
11923 47.8945 11605.90 11503.90 124.35
11924 47.8983 11934.90 11625.30 125.56
11925 47.9021 12138.90 11765.00 126.47
11926 47.9058 12440.80 11922.20 130.11
11927 47.9096 12468.80 12110.40 128.60
11928 47.9133 12778.70 12326.00 131.79
11929 47.9171 13228.40 12589.60 133.41
11930 47.9208 13932.10 12899.70 137.42
11931 47.9246 13768.90 13293.50 135.76
11932 47.9284 14812.10 13792.80 144.90
11933 47.9321 15435.60 14427.30 146.05
11934 47.9359 16743.00 15299.20 152.61
11935 47.9396 17441.70 16459.00 157.02
11936 47.9434 19638.00 18093.30 167.40
11937 47.9471 21531.80 20262.80 177.55
11938 47.9509 24489.00 23228.50 190.86
11939 47.9547 27444.10 27061.30 204.77
11940 47.9584 32021.50 31636.30 224.64
11941 47.9622 36332.20 36979.90 242.88
11942 47.9659 40465.90 42204.40 258.46
11943 47.9697 42034.10 46350.80 264.05
11944 47.9734 42822.90 47784.60 268.64
11945 47.9772 40676.50 45934.00 260.34
11946 47.9810 36878.90 41542.90 244.37
11947 47.9847 32121.40 36284.00 224.54
11948 47.9885 28487.80 31013.20 207.94
11949 47.9922 24613.60 26575.10 192.14
11950 47.9960 22036.80 22879.20 179.35
11951 47.9997 19493.50 20106.90 167.27
11952 48.0035 17727.90 17980.90 158.39
11953 48.0073 16436.20 16435.10 152.12
11954 48.0110 15553.90 15346.10 146.47
11955 48.0148 14548.90 14530.30 141.83
11956 48.0185 13977.50 13941.70 137.48
11957 48.0223 13262.20 13481.60 132.52
11958 48.0260 13381.00 13132.50 134.61
11959 48.0298 12811.10 12846.50 132.20
11960 48.0336 12734.80 12615.80 130.93
11961 48.0373 12639.20 12432.10 130.13
11962 48.0411 12330.60 12277.30 128.41
11963 48.0448 12151.10 12153.40 127.81
11964 48.0486 12252.90 12049.70 128.17
11965 48.0523 11991.60 11967.90 127.21
11966 48.0561 12348.70 11901.10 128.94
11967 48.0599 11737.10 11849.70 125.84
11968 48.0636 11935.80 11812.90 126.15
11969 48.0674 11757.60 11787.60 125.63
11970 48.0711 11895.10 11774.20 126.45
11971 48.0749 11765.70 11771.60 125.86
11972 48.0786 11831.30 11779.40 126.11
11973 48.0824 11761.80 11798.10 125.87
11974 48.0862 12018.10 11827.80 126.98
11975 48.0899 11889.20 11867.50 125.21
11976 48.0937 12057.50 11920.10 127.90
11977 48.0974 11928.80 11983.50 126.41
11978 48.1012 12097.10 12062.40 127.06
11979 48.1049 11988.70 12153.90 126.52
11980 48.1087 12266.90 12265.10 128.47
11981 48.1125 12202.70 12395.80 128.00
11982 48.1162 12313.10 12544.90 128.00
11983 48.1200 12314.50 12723.80 128.54
11984 48.1237 12735.60 12928.00 128.93
11985 48.1275 13052.90 13174.30 135.26
11986 48.1312 13135.00 13456.30 134.19
11987 48.1350 12957.20 13799.60 130.94
11988 48.1388 13573.10 14210.40 134.97
11989 48.1425 13635.00 14694.10 135.48
11990 48.1463 14602.60 15303.50 141.50
11991 48.1500 15058.10 16048.80 143.86
11992 48.1538 16064.00 17033.80 149.29
11993 48.1575 17247.30 18304.60 156.46
11994 48.1613 19060.30 20071.40 166.01
11995 48.1651 20668.30 22509.10 172.79
11996 48.1688 24164.20 25762.70 190.03
11997 48.1726 28146.00 30284.00 208.02
11998 48.1763 34456.10 36070.60 234.21
11999 48.1801 41618.00 43589.60 263.39
12000 48.1839 52061.50 52585.40 301.95
12001 48.1876 63537.80 62164.50 341.96
12002 48.1914 75880.00 71278.90 384.96
12003 48.1951 83148.10 76980.20 409.74
12004 48.1989 85898.70 77273.40 416.47
12005 48.2026 79518.70 72012.80 396.70
12006 48.2064 70617.60 63091.70 370.05
12007 48.2102 56790.90 53242.10 320.92
12008 48.2139 45883.90 44356.00 280.49
12009 48.2177 36716.70 36675.10 243.99
12010 48.2214 30441.20 30722.70 216.30
12011 48.2252 25253.90 26061.40 195.26
12012 48.2289 22453.70 22690.00 183.27
12013 48.2327 19654.30 20162.70 168.84
12014 48.2365 18066.00 18324.80 160.21
12015 48.2402 16508.80 17003.60 151.75
12016 48.2440 15838.60 15976.50 148.41
12017 48.2477 14605.00 15199.10 141.15
12018 48.2515 14260.00 14560.10 139.65
12019 48.2552 13491.80 14051.30 135.96
12020 48.2590 13414.80 13615.10 134.70
12021 48.2628 12892.30 13247.90 131.68
12022 48.2665 12613.50 12942.80 130.77
12023 48.2703 12198.90 12672.90 127.94
12024 48.2740 12491.50 12445.20 129.65
12025 48.2778 12164.50 12240.90 127.66
12026 48.2816 11979.70 12062.10 127.04
12027 48.2853 11778.40 11908.30 125.37
12028 48.2891 11845.50 11768.30 125.62
12029 48.2928 11668.20 11646.70 124.60
12030 48.2966 11683.10 11535.10 125.17
12031 48.3003 11486.50 11437.30 123.99
12032 48.3041 11476.70 11346.90 122.52
12033 48.3079 11391.20 11265.00 124.01
12034 48.3116 11439.60 11192.70 122.89
12035 48.3154 11179.60 11125.00 121.68
12036 48.3191 11248.00 11064.90 122.36
12037 48.3229 11067.30 11008.10 120.12
12038 48.3267 11179.10 10956.10 121.58
12039 48.3304 10835.80 10909.50 120.95
12040 48.3342 10966.40 10865.30 120.35
12041 48.3379 10668.90 10825.50 117.83
12042 48.3417 10860.30 10787.60 119.77
12043 48.3454 10635.50 10753.30 118.43
12044 48.3492 10809.50 10720.50 119.25
12045 48.3530 10559.20 10689.90 118.44
12046 48.3567 10486.10 10662.10 118.16
12047 48.3605 10532.90 10635.40 117.66
12048 48.3642 10804.70 10611.00 120.09
12049 48.3680 10671.50 10587.40 118.72
12050 48.3717 10819.90 10565.90 119.67
12051 48.3755 10637.00 10545.00 118.10
12052 48.3793 10735.50 10525.40 118.39
12053 48.3830 10442.20 10507.30 117.39
12054 48.3868 10532.00 10489.80 117.43
12055 48.3905 10426.60 10473.60 117.47
12056 48.3943 10491.40 10457.90 116.99
12057 48.3981 10343.10 10442.90 116.52
12058 48.4018 10783.00 10429.10 119.57
12059 48.4056 10524.10 10415.60 118.39
12060 48.4093 10466.80 10403.10 117.13
12061 48.4131 10460.30 10390.90 117.79
12062 48.4169 10551.60 10379.20 117.65
12063 48.4206 10261.40 10368.40 116.00
12064 48.4244 10349.10 10357.70 115.52
12065 48.4281 10411.90 10347.80 119.31
12066 48.4319 10532.30 10338.00 118.21
12067 48.4356 10354.30 10328.90 116.42
12068 48.4394 10647.80 10320.00 118.49
12069 48.4432 10197.30 10311.40 116.12
12070 48.4469 10203.60 10303.30 115.96
12071 48.4507 10368.10 10295.40 117.04
12072 48.4544 10339.30 10287.90 116.81
12073 48.4582 10321.90 10280.60 116.33
12074 48.4620 10279.90 10273.50 116.80
12075 48.4657 10213.50 10266.80 115.46
12076 48.4695 10544.10 10260.30 117.91
12077 48.4732 10233.80 10254.10 115.57
12078 48.4770 10579.80 10247.90 118.74
12079 48.4807 10270.00 10242.10 116.52
12080 48.4845 10374.60 10236.40 116.26
12081 48.4883 10212.80 10230.80 115.87
12082 48.4920 10349.60 10225.60 116.88
12083 48.4958 10008.10 10220.40 114.99
12084 48.4995 10200.30 10215.50 115.73
12085 48.5033 10266.80 10210.60 116.26
12086 48.5071 10364.50 10205.80 117.35
12087 48.5108 10096.20 10174.60 115.59
12088 48.5146 10233.10 10170.50 115.93
12089 48.5183 9945.16 10166.60 114.34
12090 48.5221 10171.20 10162.80 114.22
12091 48.5258 10161.60 10159.10 117.03
12092 48.5296 10214.90 10155.40 117.15
12093 48.5334 9953.92 10151.90 114.73
12094 48.5371 10157.10 10148.50 115.52
12095 48.5409 9935.94 10145.10 114.64
12096 48.5446 10314.00 10141.90 116.05
12097 48.5484 9984.74 10138.70 114.21
12098 48.5522 10273.30 10135.60 116.46
12099 48.5559 10116.00 10132.60 115.64
12100 48.5597 10248.70 10129.60 115.42
12101 48.5634 9963.70 10126.80 114.44
12102 48.5672 10275.20 10124.00 115.94
12103 48.5709 9935.78 10121.30 114.87
12104 48.5747 10301.60 10118.60 116.78
12105 48.5785 9894.43 10115.90 113.74
12106 48.5822 10084.70 10113.40 115.21
12107 48.5860 9915.61 10110.80 114.13
12108 48.5897 10240.50 10108.40 114.74
12109 48.5935 10126.50 10106.00 116.11
12110 48.5973 10167.10 10103.60 115.94
12111 48.6010 10011.70 10101.30 115.11
12112 48.6048 10261.80 10099.00 116.32
12113 48.6085 10084.70 10096.90 115.78
12114 48.6123 10310.90 10094.70 116.64
12115 48.6161 10031.10 10092.50 114.78
12116 48.6198 9974.52 10090.40 115.11
12117 48.6236 10234.70 10088.40 114.50
12118 48.6273 10182.50 10086.40 117.15
12119 48.6311 10103.70 10084.40 116.38
12120 48.6349 10085.80 10082.40 115.46
12121 48.6386 9929.24 10080.50 114.44
12122 48.6424 10166.60 10078.60 114.78
12123 48.6461 10079.40 10076.80 114.58
12124 48.6499 10053.20 10074.90 114.18
12125 48.6536 9874.01 10073.10 113.24
12126 48.6574 10220.90 10071.40 115.49
12127 48.6612 9990.41 10069.60 113.68
12128 48.6649 10171.00 10067.90 115.17
12129 48.6687 9862.20 10066.20 112.43
12130 48.6724 10191.40 10064.60 115.09
12131 48.6762 9908.87 10062.90 112.95
12132 48.6800 10079.10 10061.30 114.19
12133 48.6837 10089.90 10059.70 114.77
12134 48.6875 10210.00 10058.10 115.05
12135 48.6912 9917.67 10056.60 113.68
12136 48.6950 10015.10 10055.00 113.32
12137 48.6988 10146.60 10053.50 114.65
12138 48.7025 10034.90 10052.10 113.29
12139 48.7063 10013.60 10050.60 114.67
12140 48.7100 10105.60 10049.10 115.01
12141 48.7138 9994.62 10047.70 114.22
12142 48.7175 10169.60 10046.30 114.87
12143 48.7213 9787.63 10044.90 112.66
12144 48.7251 10007.10 10043.50 113.33
12145 48.7288 10062.40 10042.10 116.08
12146 48.7326 10054.80 10040.80 114.29
12147 48.7363 9922.33 10039.50 112.71
12148 48.7401 10053.30 9990.25 113.55
12149 48.7439 10066.70 9989.59 114.19
12150 48.7476 10146.40 9988.95 114.50
12151 48.7514 10120.80 9988.30 115.08
12152 48.7551 10088.80 9987.66 114.68
12153 48.7589 9914.29 9987.01 113.22
12154 48.7627 9960.63 9986.36 113.84
12155 48.7664 9956.35 9985.72 113.93
12156 48.7702 10132.40 9985.07 114.94
12157 48.7739 9982.55 9984.44 113.71
12158 48.7777 10104.80 9983.79 114.39
12159 48.7815 10023.30 9983.14 113.96
12160 48.7852 10117.60 9982.51 115.10
12161 48.7890 9985.52 9981.87 114.27
12162 48.7927 10067.10 9981.24 114.35
12163 48.7965 9897.49 9980.59 112.43
12164 48.8003 9977.77 9979.95 113.60
12165 48.8040 9922.77 9979.32 113.57
12166 48.8078 10351.50 9978.76 117.11
12167 48.8115 10075.30 9978.13 113.48
12168 48.8153 10217.10 9977.50 115.85
12169 48.8190 9899.37 9976.87 113.36
12170 48.8228 10132.50 9976.24 113.62
12171 48.8266 9921.54 9975.60 113.37
12172 48.8303 10223.20 9974.98 117.27
12173 48.8341 9918.10 9974.35 113.07
12174 48.8378 10141.20 9973.73 114.53
12175 48.8416 9990.47 9973.10 113.65
12176 48.8454 9905.86 9972.46 113.00
12177 48.8491 9849.95 9971.85 113.35
12178 48.8529 10171.70 9971.22 115.23
12179 48.8566 9989.11 9970.61 114.25
12180 48.8604 10161.60 9969.98 114.50
12181 48.8642 9846.79 9969.35 113.67
12182 48.8679 9890.83 9968.74 113.20
12183 48.8717 10081.30 9968.11 114.82
12184 48.8754 10224.40 9967.51 115.93
12185 48.8792 10124.80 9966.88 114.82
12186 48.8830 10019.70 9966.26 114.11
12187 48.8867 9986.65 9965.65 113.92
12188 48.8905 10239.60 9965.03 115.12
12189 48.8942 9653.58 9964.43 112.17
12190 48.8980 10084.70 9963.81 114.87
12191 48.9018 9802.41 9963.19 112.46
12192 48.9055 9995.94 9962.59 114.56
12193 48.9093 9998.05 9961.97 113.89
12194 48.9130 10128.20 9961.37 114.78
12195 48.9168 9895.58 9960.76 113.76
12196 48.9206 10004.20 9960.14 113.66
12197 48.9243 9785.79 9959.55 110.95
12198 48.9281 10071.80 9958.93 116.96
12199 48.9318 10049.20 9958.34 115.52
12200 48.9356 10087.00 9957.73 114.74
12201 48.9393 9990.86 9957.13 114.10
12202 48.9431 9992.52 9956.53 114.30
12203 48.9469 9847.64 9955.92 113.64
12204 48.9506 10081.10 9955.33 114.86
12205 48.9544 9958.20 9954.72 113.48
12206 48.9581 9895.44 9954.13 114.15
12207 48.9619 9902.60 9953.53 113.98
12208 48.9657 10155.20 9952.92 115.45
12209 48.9694 9907.11 9952.34 113.29
12210 48.9732 10077.80 9951.74 114.89
12211 48.9769 9971.84 9951.15 114.56
12212 48.9807 10149.50 9950.56 115.38
12213 48.9845 10021.50 9949.96 114.65
12214 48.9882 10195.10 9949.38 115.74
12215 48.9920 9914.28 9948.78 114.04
12216 48.9957 10084.90 9948.20 114.84
12217 48.9995 9852.39 9947.61 112.01
12218 49.0033 9966.69 9947.01 114.19
12219 49.0070 9936.06 9946.44 114.71
12220 49.0108 9881.02 9950.36 113.45
12221 49.0145 9897.06 9949.84 113.99
12222 49.0183 10024.50 9949.32 115.15
12223 49.0221 9989.40 9948.79 114.34
12224 49.0258 10046.90 9948.29 114.21
12225 49.0296 9989.62 9947.77 116.63
12226 49.0333 10267.00 9947.27 116.86
12227 49.0371 10065.20 9946.75 115.28
12228 49.0409 10095.30 9946.24 115.25
12229 49.0446 10093.50 9945.75 115.22
12230 49.0484 10116.70 9945.25 115.55
12231 49.0521 10076.60 9944.76 115.13
12232 49.0559 10142.50 9944.26 115.67
12233 49.0597 9961.96 9943.76 114.99
12234 49.0634 10154.20 9943.28 116.04
12235 49.0672 10116.80 9942.79 115.03
12236 49.0709 10079.50 9942.32 115.63
12237 49.0747 10081.80 9941.83 115.66
12238 49.0785 10102.00 9941.35 115.55
12239 49.0822 9960.01 9940.89 114.65
12240 49.0860 10034.30 9940.41 115.11
12241 49.0897 10097.90 9939.95 115.36
12242 49.0935 9972.65 9939.49 114.29
12243 49.0973 9917.31 9939.02 114.46
12244 49.1010 9987.34 9938.58 114.46
12245 49.1048 9987.96 9941.97 114.85
12246 49.1085 10048.60 9941.58 115.40
12247 49.1123 9852.41 9941.19 113.74
12248 49.1160 10084.70 9940.82 115.47
12249 49.1198 9742.82 9940.43 113.34
12250 49.1236 9916.31 9940.06 113.92
12251 49.1273 10244.40 9939.70 117.73
12252 49.1311 10142.70 9939.33 115.56
12253 49.1348 9975.61 9938.99 114.36
12254 49.1386 10046.70 9938.64 114.52
12255 49.1424 9944.11 9938.29 113.63
12256 49.1461 10140.90 9937.96 115.42
12257 49.1499 9900.54 9937.63 113.84
12258 49.1536 10243.00 9937.32 116.09
12259 49.1574 9929.21 9937.01 113.40
12260 49.1612 10064.10 9936.70 115.46
12261 49.1649 9940.18 9936.41 114.17
12262 49.1687 10140.70 9936.12 115.64
12263 49.1724 9783.12 9944.00 112.89
12264 49.1762 9803.72 9943.84 113.10
12265 49.1800 9835.38 9943.69 113.69
12266 49.1837 10075.70 9943.56 115.30
12267 49.1875 9858.46 9943.44 113.82
12268 49.1912 9814.08 9943.34 113.93
12269 49.1950 9967.39 9943.25 114.46
12270 49.1988 10068.30 9943.17 115.13
12271 49.2025 9821.02 9943.11 113.32
12272 49.2063 10104.10 9943.07 115.67
12273 49.2100 9771.93 9943.04 113.36
12274 49.2138 9958.52 9946.29 114.57
12275 49.2176 9840.31 9946.34 113.07
12276 49.2213 10085.60 9946.42 114.71
12277 49.2251 9828.44 9946.51 112.54
12278 49.2288 10033.30 9952.74 116.93
12279 49.2326 9932.68 9952.98 114.22
12280 49.2364 9774.46 9953.24 112.62
12281 49.2401 9775.39 9953.52 112.93
12282 49.2439 9994.73 9953.84 114.48
12283 49.2476 10080.60 9954.19 114.50
12284 49.2514 9962.40 9954.58 114.65
12285 49.2552 9974.12 9955.01 114.84
12286 49.2589 10041.00 9955.48 115.24
12287 49.2627 9848.37 9956.00 113.63
12288 49.2664 10185.60 9956.55 115.94
12289 49.2702 10002.70 9957.18 114.52
12290 49.2740 9968.17 9957.87 114.09
12291 49.2777 9895.88 9958.60 114.37
12292 49.2815 10012.30 9959.44 114.71
12293 49.2852 9875.06 9960.33 114.24
12294 49.2890 10055.90 9961.35 115.25
12295 49.2928 9792.55 9962.48 112.69
12296 49.2965 10125.70 9963.71 114.86
12297 49.3003 9921.32 9965.15 114.01
12298 49.3040 10107.60 9966.74 115.52
12299 49.3078 9898.71 9968.63 114.46
12300 49.3116 10109.40 9970.88 115.28
12301 49.3153 9768.19 9973.55 112.83
12302 49.3191 10112.90 9976.97 114.86
12303 49.3228 10030.20 9981.23 113.96
12304 49.3266 9927.94 9986.89 114.53
12305 49.3304 10011.50 9994.28 116.41
12306 49.3341 10046.00 10003.50 114.36
12307 49.3379 10076.00 10015.30 114.92
12308 49.3416 10084.80 10029.10 114.98
12309 49.3454 9937.94 10045.00 114.29
12310 49.3492 10229.90 10061.10 116.17
12311 49.3529 9989.28 10073.70 114.21
12312 49.3567 10257.50 10079.80 114.90
12313 49.3604 9936.16 10077.00 114.32
12314 49.3642 10322.30 10067.40 116.60
12315 49.3680 9865.90 10054.70 113.66
12316 49.3717 10181.80 10042.50 115.39
12317 49.3755 9952.52 10031.90 114.76
12318 49.3792 10100.40 10023.90 115.45
12319 49.3830 10053.30 10018.10 113.92
12320 49.3868 10186.90 10014.60 115.82
12321 49.3905 9962.16 10012.80 114.47
12322 49.3943 10066.80 10012.40 115.21
12323 49.3980 10139.60 10013.10 115.99
12324 49.4018 10120.80 10014.70 115.44
12325 49.4056 10297.60 10016.90 116.15
12326 49.4093 10178.20 10019.60 116.48
12327 49.4131 9800.03 10022.80 113.61
12328 49.4168 9910.06 10026.50 114.43
12329 49.4206 9954.71 10030.60 114.23
12330 49.4244 10073.20 10035.20 114.05
12331 49.4281 10082.30 10040.20 117.26
12332 49.4319 10144.10 10045.80 116.49
12333 49.4356 9941.02 10051.80 114.46
12334 49.4394 10322.10 10058.50 116.53
12335 49.4432 9804.98 10065.80 113.58
12336 49.4469 10090.00 10073.70 115.68
12337 49.4507 10130.70 10082.50 116.41
12338 49.4544 10500.60 10092.00 118.25
12339 49.4582 9975.04 10102.60 114.18
12340 49.4620 10212.60 10114.40 116.31
12341 49.4657 10212.40 10127.10 116.45
12342 49.4695 10297.60 10141.60 116.50
12343 49.4732 9992.44 10157.30 114.91
12344 49.4770 10278.40 10175.40 117.46
12345 49.4808 10301.30 10195.80 116.64
12346 49.4845 10182.00 10218.20 116.22
12347 49.4883 9957.45 10244.30 114.29
12348 49.4920 10102.30 10273.40 115.65
12349 49.4958 10264.20 10307.70 116.75
12350 49.4996 10561.30 10347.80 118.23
12351 49.5033 10304.40 10393.60 116.09
12352 49.5071 10662.10 10449.60 119.66
12353 49.5108 10685.20 10515.90 118.92
12354 49.5146 11015.60 10600.70 121.46
12355 49.5184 11117.30 10709.20 122.42
12356 49.5221 11138.80 10847.90 121.81
12357 49.5259 11402.90 11038.60 122.67
12358 49.5296 12038.70 11289.20 129.73
12359 49.5334 12041.40 11635.90 128.20
12360 49.5372 12847.00 12096.10 132.72
12361 49.5409 13179.60 12673.00 134.03
12362 49.5447 14290.40 13403.60 140.81
12363 49.5484 14910.70 14231.80 144.66
12364 49.5522 15949.50 15126.40 149.82
12365 49.5560 16426.00 15905.50 153.11
12366 49.5597 16793.70 16329.00 154.64
12367 49.5635 16156.50 16252.00 151.14
12368 49.5672 15950.00 15717.50 149.11
12369 49.5710 15047.60 14906.20 145.48
12370 49.5748 14295.70 14046.20 140.57
12371 49.5785 13425.10 13287.10 136.23
12372 49.5823 13015.10 12640.30 133.55
12373 49.5860 12326.20 12148.40 129.64
12374 49.5898 12216.80 11772.10 129.15
12375 49.5936 11844.40 11506.30 126.43
12376 49.5973 11418.00 11331.50 123.70
12377 49.6011 11056.20 11219.20 122.06
12378 49.6048 11331.60 11160.50 122.15
12379 49.6086 11300.50 11142.90 123.00
12380 49.6124 11292.90 11164.40 121.87
12381 49.6161 11346.70 11224.50 123.25
12382 49.6199 11342.10 11333.40 122.63
12383 49.6236 11410.40 11496.70 123.18
12384 49.6274 11682.10 11739.70 124.40
12385 49.6312 12042.30 12078.10 129.07
12386 49.6349 12302.20 12516.50 128.38
12387 49.6387 12892.80 13091.40 130.94
12388 49.6424 13494.30 13766.80 134.93
12389 49.6462 14083.10 14542.30 138.49
12390 49.6500 15004.80 15298.10 142.72
12391 49.6537 15342.60 15846.60 145.38
12392 49.6575 15484.10 16030.40 146.55
12393 49.6612 15127.00 15786.90 144.47
12394 49.6650 14820.70 15232.30 142.60
12395 49.6688 14067.40 14571.00 138.02
12396 49.6725 13684.50 13971.70 135.62
12397 49.6763 13471.40 13478.70 135.30
12398 49.6800 12992.50 13149.00 131.83
12399 49.6838 12881.30 12975.20 131.48
12400 49.6876 12967.70 12974.60 132.21
12401 49.6913 13091.10 13150.30 132.61
12402 49.6951 13646.10 13530.10 136.86
12403 49.6988 14153.30 14117.10 138.95
12404 49.7026 14682.00 14974.60 141.35
12405 49.7064 15478.30 16107.70 145.30
12406 49.7101 16794.00 17473.20 153.54
12407 49.7139 18179.90 19073.70 160.30
12408 49.7176 20186.70 20649.80 170.99
12409 49.7214 21078.70 21940.40 175.20
12410 49.7252 22105.10 22494.80 179.09
12411 49.7289 21479.80 22158.50 176.96
12412 49.7327 20919.70 21145.20 176.24
12413 49.7364 19681.30 19930.50 167.99
12414 49.7402 18596.40 18811.20 162.62
12415 49.7440 17333.70 18033.50 156.07
12416 49.7477 17249.40 17694.20 154.84
12417 49.7515 17569.10 17799.80 157.34
12418 49.7552 18724.10 18316.30 163.55
12419 49.7590 19478.60 19177.90 167.37
12420 49.7628 21263.50 20197.40 175.55
12421 49.7665 22312.00 21135.10 181.17
12422 49.7703 23974.30 21868.80 188.69
12423 49.7740 23941.90 22249.00 189.28
12424 49.7778 23989.80 22147.20 188.76
12425 49.7816 22619.50 21409.10 182.85
12426 49.7853 21452.90 20141.70 176.39
12427 49.7891 19234.10 18550.50 166.30
12428 49.7928 17564.00 17002.00 156.98
12429 49.7966 15848.30 15586.40 148.29
12430 49.8004 14706.80 14415.40 141.91
12431 49.8041 13435.50 13508.80 134.02
12432 49.8079 12640.90 12791.40 130.70
12433 49.8116 11973.80 12261.80 125.96
12434 49.8154 11857.40 11853.30 125.89
12435 49.8192 11316.50 11545.40 122.05
12436 49.8229 11489.30 11315.80 123.03
12437 49.8267 10933.10 11131.30 118.18
12438 49.8304 11216.80 10986.80 123.68
12439 49.8342 10718.00 10865.00 119.18
12440 49.8380 10643.00 10763.10 117.97
12441 49.8417 10545.80 10678.60 117.26
12442 49.8455 10581.40 10603.90 118.07
12443 49.8492 10515.80 10540.60 117.27
12444 49.8530 10565.90 10483.70 117.55
12445 49.8567 10445.20 10434.80 117.04
12446 49.8605 10546.00 10390.30 116.65
12447 49.8643 10155.30 10350.80 113.25
12448 49.8680 10547.20 10316.20 117.52
12449 49.8718 10180.70 10284.30 115.55
12450 49.8755 10220.60 10256.20 115.45
12451 49.8793 10250.50 10230.00 116.11
12452 49.8831 10472.60 10206.30 117.24
12453 49.8868 10137.80 10185.10 114.65
12454 49.8906 10181.00 10165.20 115.43
12455 49.8944 10220.00 10147.00 115.02
12456 49.8981 10376.90 10130.60 116.89
12457 49.9019 10097.60 10115.10 115.09
12458 49.9056 10310.60 10101.10 116.05
12459 49.9094 10050.10 10087.60 115.06
12460 49.9131 10207.40 10075.50 115.69
12461 49.9169 10103.30 10064.00 115.17
12462 49.9207 10290.60 10053.20 116.79
12463 49.9244 9754.43 10043.30 111.73
12464 49.9282 10221.80 10033.90 116.23
12465 49.9319 10074.10 10025.20 116.31
12466 49.9357 10139.60 10016.80 114.93
12467 49.9395 10108.80 10008.90 114.73
12468 49.9432 10199.60 10001.70 114.86
12469 49.9470 10101.40 9994.68 114.58
12470 49.9507 10098.20 9988.20 115.02
12471 49.9545 10030.60 9981.91 114.43
12472 49.9583 10055.60 9975.94 114.78
12473 49.9620 9924.84 9970.43 113.29
12474 49.9658 10106.10 9965.04 115.44
12475 49.9695 9877.88 9960.04 114.05
12476 49.9733 10180.20 9955.15 116.06
12477 49.9771 10067.00 9950.49 115.58
12478 49.9808 10072.40 9946.16 115.37
12479 49.9846 9816.04 9941.90 113.34
12480 49.9883 10133.20 9937.94 115.24
12481 49.9921 9962.15 9934.04 114.82
12482 49.9959 10142.80 9930.30 115.50
12483 49.9996 10048.30 9926.81 115.79
12484 50.0034 9937.39 9923.37 113.97
12485 50.0071 10033.90 9920.15 114.86
12486 50.0109 10047.30 9916.97 114.84
12487 50.0147 10199.50 9913.90 115.72
12488 50.0184 9956.41 9911.04 114.14
12489 50.0222 9992.47 9908.19 112.49
12490 50.0259 9773.64 9905.53 111.67
12491 50.0297 10020.00 9902.88 116.89
12492 50.0335 10067.80 9900.32 115.74
12493 50.0372 9770.69 9897.92 113.73
12494 50.0410 10010.40 9895.53 114.90
12495 50.0447 10058.00 9893.28 115.19
12496 50.0485 10078.00 9891.04 115.63
12497 50.0523 9891.76 9888.88 114.36
12498 50.0560 10263.00 9886.83 116.28
12499 50.0598 9776.05 9884.79 113.62
12500 50.0635 10058.90 9882.86 115.62
12501 50.0673 9899.39 9880.94 114.44
12502 50.0711 9971.77 9879.07 114.81
12503 50.0748 9965.41 9877.31 115.12
12504 50.0786 10167.60 9875.55 116.71
12505 50.0823 9869.30 9873.88 114.06
12506 50.0861 10067.90 9872.20 115.14
12507 50.0899 9834.64 9870.58 114.04
12508 50.0936 10139.50 9869.03 116.15
12509 50.0974 9958.71 9867.49 114.42
12510 50.1011 9950.05 9866.02 114.40
12511 50.1049 9878.23 9864.55 114.05
12512 50.1087 10069.00 9863.12 115.68
12513 50.1124 9831.25 9861.75 113.10
12514 50.1162 9992.40 9855.95 115.01
12515 50.1199 9896.04 9854.71 112.80
12516 50.1237 9934.00 9853.46 113.65
12517 50.1275 9912.64 9852.24 113.50
12518 50.1312 10064.30 9851.08 116.77
12519 50.1350 9854.95 9849.91 114.18
12520 50.1387 10051.10 9848.79 114.34
12521 50.1425 9808.97 9847.67 113.15
12522 50.1463 10210.00 9846.58 116.35
12523 50.1500 9758.36 9845.53 112.70
12524 50.1538 10086.70 9844.48 115.17
12525 50.1575 9882.78 9843.47 114.03
12526 50.1613 9967.86 9842.46 114.57
12527 50.1651 9846.78 9841.47 113.71
12528 50.1688 10024.30 9840.52 114.53
12529 50.1726 9869.12 9839.56 114.12
12530 50.1763 9948.54 9838.65 114.05
12531 50.1801 9993.46 9837.73 114.56
12532 50.1838 10051.30 9836.84 114.67
12533 50.1876 9747.74 9835.95 113.32
12534 50.1914 10043.50 9835.07 114.81
12535 50.1951 9681.05 9834.24 112.36
12536 50.1989 10232.40 9833.39 116.12
12537 50.2026 10095.60 9832.58 114.98
12538 50.2064 9947.04 9831.76 114.01
12539 50.2102 9952.50 9827.11 115.20
12540 50.2139 9965.31 9826.39 113.68
12541 50.2177 9625.30 9825.66 112.57
12542 50.2214 10144.00 9824.96 115.45
12543 50.2252 9537.79 9824.24 111.15
12544 50.2290 9871.45 9823.55 113.55
12545 50.2327 9888.96 9822.87 115.78
12546 50.2365 9900.83 9822.19 113.94
12547 50.2402 9757.35 9821.54 112.34
12548 50.2440 9826.19 9820.88 112.31
12549 50.2478 9783.07 9820.22 113.35
12550 50.2515 9856.73 9819.59 113.79
12551 50.2553 9629.01 9818.96 112.01
12552 50.2590 10000.10 9818.34 114.08
12553 50.2628 9752.74 9817.72 113.14
12554 50.2666 9928.98 9817.11 113.47
12555 50.2703 9918.89 9816.52 113.40
12556 50.2741 9904.55 9815.92 114.25
12557 50.2778 9855.87 9815.35 113.84
12558 50.2816 9927.65 9806.72 114.26
12559 50.2854 9675.38 9806.25 111.96
12560 50.2891 9963.58 9805.79 113.85
12561 50.2929 9729.31 9805.33 112.89
12562 50.2966 9654.05 9804.89 112.41
12563 50.3004 9669.07 9804.44 112.46
12564 50.3042 9833.40 9803.99 113.57
12565 50.3079 9909.50 9803.56 114.00
12566 50.3117 9905.17 9803.12 113.95
12567 50.3154 9805.82 9802.69 113.44
12568 50.3192 10035.50 9802.26 114.02
12569 50.3230 9867.61 9798.63 114.01
12570 50.3267 10034.00 9798.26 113.46
12571 50.3305 9750.96 9797.88 114.82
12572 50.3342 10005.50 9791.47 115.57
12573 50.3380 9905.67 9791.18 113.72
12574 50.3417 9772.95 9790.89 113.12
12575 50.3455 9671.20 9790.60 112.21
12576 50.3493 9885.89 9790.31 114.03
12577 50.3530 9618.40 9790.03 112.67
12578 50.3568 9761.68 9789.74 113.14
12579 50.3605 9798.82 9789.46 113.64
12580 50.3643 10031.90 9789.17 114.89
12581 50.3681 9956.64 9788.88 114.62
12582 50.3718 9918.72 9788.61 114.20
12583 50.3756 9958.96 9788.32 113.77
12584 50.3793 9825.76 9788.04 113.64
12585 50.3831 9843.56 9787.76 114.36
12586 50.3869 9818.95 9787.48 113.70
12587 50.3906 9872.26 9787.20 113.83
12588 50.3944 9975.13 9786.92 115.04
12589 50.3981 9628.77 9786.65 112.44
12590 50.4019 9830.95 9786.37 113.70
12591 50.4057 9653.81 9786.09 112.14
12592 50.4094 10020.10 9785.82 115.34
12593 50.4132 9955.35 9785.54 114.60
12594 50.4169 9948.38 9785.27 115.06
12595 50.4207 9860.49 9784.99 113.36
12596 50.4245 9927.18 9784.72 114.64
12597 50.4282 9734.89 9784.45 112.81
12598 50.4320 10140.00 9784.18 117.47
12599 50.4357 9859.30 9783.91 114.27
12600 50.4395 9972.58 9783.64 114.58
12601 50.4432 9886.09 9783.38 113.64
12602 50.4470 9957.16 9783.11 114.38
12603 50.4508 9842.80 9782.84 113.74
12604 50.4545 10068.40 9782.58 115.65
12605 50.4583 9861.40 9782.31 113.34
12606 50.4620 9954.68 9782.05 114.87
12607 50.4658 9756.04 9781.78 112.83
12608 50.4696 10076.40 9781.52 115.79
12609 50.4733 9877.00 9781.26 114.33
12610 50.4771 9920.36 9781.00 115.02
12611 50.4808 9858.92 9780.74 113.97
12612 50.4846 10023.40 9780.48 114.76
12613 50.4884 9906.96 9780.21 113.89
12614 50.4921 10274.40 9779.96 115.65
12615 50.4959 10071.40 9779.70 115.17
12616 50.4996 10042.10 9779.45 114.91
12617 50.5034 9905.25 9779.19 114.03
12618 50.5072 9939.51 9778.93 114.03
12619 50.5109 9938.47 9778.68 115.43
12620 50.5147 9930.58 9778.43 114.77
12621 50.5184 10020.30 9778.18 116.06
12622 50.5222 9960.65 9777.92 114.80
12623 50.5259 9850.62 9777.68 112.59
12624 50.5297 10231.50 9777.42 117.43
12625 50.5335 10086.00 9777.17 117.07
12626 50.5372 10167.40 9776.93 115.78
12627 50.5410 9843.62 9776.68 113.52
12628 50.5447 10106.30 9776.43 115.54
12629 50.5485 9820.54 9832.68 113.91
12630 50.5523 10001.70 9833.21 114.89
12631 50.5560 9973.17 9833.73 115.03
12632 50.5598 10160.70 9834.28 116.34
12633 50.5635 9952.81 9834.84 114.64
12634 50.5673 10072.00 9835.43 115.41
12635 50.5711 10108.60 9836.04 115.18
12636 50.5748 9999.99 9836.65 115.02
12637 50.5786 9919.12 9837.29 113.95
12638 50.5823 10006.70 9837.94 114.95
12639 50.5861 9973.06 9838.62 114.42
12640 50.5899 10039.20 9839.33 115.19
12641 50.5936 9942.50 9840.04 114.56
12642 50.5974 10233.20 9840.79 116.10
12643 50.6011 10037.60 9841.54 114.66
12644 50.6049 10169.60 9842.34 115.88
12645 50.6086 9874.68 9843.13 114.25
12646 50.6124 10087.30 9843.98 115.62
12647 50.6162 9941.03 9844.85 114.07
12648 50.6199 10131.70 9845.72 115.65
12649 50.6237 9951.75 9846.64 114.01
12650 50.6274 9847.06 9847.57 112.55
12651 50.6312 9980.39 9848.55 116.17
12652 50.6350 10271.30 9849.56 117.31
12653 50.6387 9951.37 9902.91 114.57
12654 50.6425 10013.00 9904.69 113.98
12655 50.6462 9863.62 9906.47 113.30
12656 50.6500 10051.40 9908.34 114.76
12657 50.6538 9922.94 9910.26 114.29
12658 50.6575 9995.58 9912.19 115.02
12659 50.6613 10183.40 9914.21 115.92
12660 50.6650 10033.40 9916.24 114.33
12661 50.6688 10015.70 9918.37 114.74
12662 50.6725 9983.58 9920.51 114.31
12663 50.6763 9991.10 9922.76 114.91
12664 50.6801 10103.90 9925.08 115.35
12665 50.6838 10136.20 9927.39 115.47
12666 50.6876 9999.88 9929.84 114.46
12667 50.6913 9958.06 9932.29 114.32
12668 50.6951 10205.10 9934.87 115.67
12669 50.6989 10176.90 9937.53 115.86
12670 50.7026 10303.80 9940.19 116.31
12671 50.7064 10017.50 9942.99 114.90
12672 50.7101 10185.90 9945.81 116.70
12673 50.7139 10115.10 9948.78 115.33
12674 50.7176 10106.50 9951.76 115.88
12675 50.7214 10047.30 9954.90 114.98
12676 50.7252 10083.30 9958.14 114.39
12677 50.7289 10126.10 9961.39 114.86
12678 50.7327 10357.50 9964.82 118.92
12679 50.7364 10236.50 9968.27 116.19
12680 50.7402 10164.10 9971.92 115.48
12681 50.7440 10043.60 10094.20 114.54
12682 50.7477 10020.10 10099.50 114.92
12683 50.7515 10053.10 10105.20 115.41
12684 50.7552 10312.90 10110.80 116.81
12685 50.7590 10137.70 10147.10 116.05
12686 50.7627 10263.00 10153.40 116.42
12687 50.7665 10119.80 10160.10 115.18
12688 50.7703 10185.30 10167.00 115.97
12689 50.7740 10061.80 10173.90 115.22
12690 50.7778 10229.50 10181.30 116.73
12691 50.7815 10074.90 10188.60 114.75
12692 50.7853 10321.10 10196.30 117.06
12693 50.7891 10113.40 10204.30 114.64
12694 50.7928 10434.70 10212.30 117.57
12695 50.7966 10212.90 10220.80 116.10
12696 50.8003 10343.10 10229.30 117.17
12697 50.8041 10401.60 10238.30 117.27
12698 50.8078 10291.90 10247.40 115.85
12699 50.8116 10300.60 10257.00 116.88
12700 50.8154 10554.40 10266.90 117.88
12701 50.8191 10332.70 10276.80 117.54
12702 50.8229 10391.20 10287.40 116.86
12703 50.8266 10296.10 10298.00 115.43
12704 50.8304 10467.80 10309.30 118.38
12705 50.8342 10421.90 10321.00 119.46
12706 50.8379 10491.10 10332.80 117.75
12707 50.8417 10243.50 10345.30 116.54
12708 50.8454 10635.10 10358.00 118.66
12709 50.8492 10340.60 10371.40 117.07
12710 50.8529 10716.50 10385.00 119.61
12711 50.8567 10405.40 10399.40 117.47
12712 50.8605 10515.80 10414.40 116.84
12713 50.8642 10568.60 10429.60 118.86
12714 50.8680 10744.60 10445.80 120.13
12715 50.8717 10671.20 10462.20 119.01
12716 50.8755 10660.60 10479.70 119.23
12717 50.8793 10598.40 10497.90 118.19
12718 50.8830 10647.70 10516.40 118.90
12719 50.8868 10435.80 10536.10 117.66
12720 50.8905 10830.00 10556.20 119.98
12721 50.8943 10624.60 10577.70 119.21
12722 50.8980 10902.50 10599.60 120.69
12723 50.9018 10844.90 10623.10 120.32
12724 50.9056 10810.90 10647.60 120.15
12725 50.9093 10909.40 10672.70 121.67
12726 50.9131 11050.20 10699.60 121.50
12727 50.9168 10987.70 10727.10 120.93
12728 50.9206 11038.50 10756.80 121.20
12729 50.9243 10806.10 10787.10 118.72
12730 50.9281 11010.70 10819.80 121.44
12731 50.9319 10975.80 10854.30 123.22
12732 50.9356 11373.80 10889.70 123.83
12733 50.9394 11015.20 10928.10 121.03
12734 50.9431 11119.60 10967.50 121.81
12735 50.9469 11245.80 11010.40 123.22
12736 50.9507 11348.50 11055.80 122.97
12737 50.9544 11205.00 11102.70 122.79
12738 50.9582 11621.90 11153.80 125.63
12739 50.9619 11571.50 11206.80 125.22
12740 50.9657 11804.20 11264.80 126.02
12741 50.9694 11413.40 11325.00 124.35
12742 50.9732 11818.50 11391.20 126.62
12743 50.9770 11955.60 11462.00 127.31
12744 50.9807 11902.70 11536.20 127.49
12745 50.9845 11952.90 11618.00 127.30
12746 50.9882 11947.30 11703.90 126.86
12747 50.9920 12227.70 11799.20 129.22
12748 50.9957 12564.60 11899.80 131.55
12749 50.9995 12271.80 12011.90 129.37
12750 51.0033 12982.10 12134.30 133.16
12751 51.0070 12485.50 12264.40 130.40
12752 51.0108 13079.80 12411.10 135.02
12753 51.0145 12823.20 12568.00 131.84
12754 51.0183 13513.90 12746.20 137.03
12755 51.0221 13712.80 12944.00 137.70
12756 51.0258 14042.50 13158.60 139.19
12757 51.0296 13731.70 13405.10 136.83
12758 51.0333 14478.10 13674.90 144.31
12759 51.0371 14905.80 13988.50 145.07
12760 51.0408 15282.80 14335.70 146.34
12761 51.0446 15620.40 14744.60 149.00
12762 51.0484 16616.90 15217.50 153.91
12763 51.0521 17004.60 15755.50 155.91
12764 51.0559 17951.70 16408.20 160.91
12765 51.0596 18502.00 17173.10 163.53
12766 51.0634 20515.10 18137.10 174.12
12767 51.0671 21633.20 19320.00 179.29
12768 51.0709 23801.70 20887.40 189.26
12769 51.0747 26086.10 22965.00 200.34
12770 51.0784 29426.20 25666.60 216.04
12771 51.0822 33240.00 29383.10 231.70
12772 51.0859 38442.30 34170.70 251.78
12773 51.0897 44302.60 40551.30 276.27
12774 51.0934 53300.70 48321.40 311.14
12775 51.0972 61036.30 57897.90 336.84
12776 51.1010 72846.20 68575.70 376.14
12777 51.1047 80604.60 78795.70 403.01
12778 51.1085 86863.40 86843.00 423.00
12779 51.1122 86561.40 89767.00 421.47
12780 51.1160 82824.10 86588.20 411.04
12781 51.1198 74662.40 78541.10 383.54
12782 51.1235 66779.20 68589.80 356.48
12783 51.1273 56557.40 58406.80 317.21
12784 51.1310 49918.40 49644.30 302.86
12785 51.1348 42549.30 42280.20 269.61
12786 51.1385 37994.50 36709.70 247.57
12787 51.1423 33586.90 32480.40 231.64
12788 51.1460 31335.00 29575.30 223.46
12789 51.1498 29181.50 27601.40 214.50
12790 51.1536 28284.00 26436.70 210.39
12791 51.1573 27036.60 25942.70 204.92
12792 51.1611 27606.70 26016.20 207.34
12793 51.1648 27902.80 26655.40 208.60
12794 51.1686 29369.10 27967.20 214.33
12795 51.1724 31085.20 30090.10 222.77
12796 51.1761 34070.60 33125.90 234.61
12797 51.1799 37891.90 37470.50 250.20
12798 51.1836 43953.10 43096.00 275.03
12799 51.1874 50573.40 50444.80 299.17
12800 51.1911 59770.90 59049.00 334.11
12801 51.1949 69241.00 68883.50 366.23
12802 51.1986 79007.90 78201.50 395.92
12803 51.2024 84714.90 85332.40 415.04
12804 51.2062 88067.30 87567.50 425.05
12805 51.2099 83367.80 84179.50 413.16
12806 51.2137 76484.60 76425.40 387.47
12807 51.2174 65830.10 67092.00 352.88
12808 51.2212 57176.50 57669.30 324.05
12809 51.2249 48717.30 49635.40 290.72
12810 51.2287 42755.40 42932.00 266.77
12811 51.2325 37911.50 37816.70 255.08
12812 51.2362 34612.60 34189.80 238.79
12813 51.2400 31921.30 31640.40 225.69
12814 51.2437 30494.60 30077.90 218.87
12815 51.2475 29039.40 29227.90 213.24
12816 51.2512 29029.30 28994.40 213.01
12817 51.2550 28863.40 29278.80 213.42
12818 51.2588 29544.40 30065.70 215.49
12819 51.2625 30508.60 31343.80 217.49
12820 51.2663 32692.70 33282.00 228.61
12821 51.2700 34787.00 35947.60 237.17
12822 51.2738 39363.90 39765.00 256.73
12823 51.2775 43546.10 44905.20 272.88
12824 51.2813 51360.20 52158.30 301.54
12825 51.2851 60037.70 62013.60 332.47
12826 51.2888 73221.90 74706.60 378.97
12827 51.2926 89269.80 91485.50 430.36
12828 51.2963 112938.00 111610.00 501.13
12829 51.3001 139415.00 135786.00 575.58
12830 51.3038 171520.00 160848.00 662.42
12831 51.3076 197605.00 184220.00 729.82
12832 51.3114 222156.00 199468.00 800.58
12833 51.3151 223868.00 202399.00 804.70
12834 51.3189 217630.00 193480.00 783.25
12835 51.3226 193384.00 176844.00 722.71
12836 51.3264 169242.00 155496.00 656.38
12837 51.3301 138591.00 133165.00 572.29
12838 51.3339 116345.00 110908.00 520.02
12839 51.3377 93671.60 91019.70 445.10
12840 51.3414 76644.40 74799.20 388.87
12841 51.3452 61154.60 61486.40 336.31
12842 51.3489 51481.90 51410.50 301.43
12843 51.3527 42701.70 43524.40 268.84
12844 51.3564 37286.00 37704.20 248.88
12845 51.3602 32468.50 33173.60 228.25
12846 51.3639 29108.60 29788.90 212.96
12847 51.3677 26128.00 27080.10 200.10
12848 51.3715 24270.80 24932.00 191.51
12849 51.3752 22313.20 23234.30 182.63
12850 51.3790 21487.40 21789.50 177.70
12851 51.3827 19857.10 20606.60 169.59
12852 51.3865 19114.60 19570.30 167.09
12853 51.3902 18141.70 18701.90 161.90
12854 51.3940 17606.50 17926.70 159.20
12855 51.3978 16904.70 17250.00 155.20
12856 51.4015 16436.10 16670.60 153.27
12857 51.4053 15810.20 16143.70 149.20
12858 51.4090 15797.30 15687.90 149.85
12859 51.4128 15187.70 15269.50 144.21
12860 51.4165 15071.10 14904.40 145.57
12861 51.4203 14529.90 14566.50 143.05
12862 51.4240 14579.00 14269.30 142.48
12863 51.4278 14206.10 13992.40 138.67
12864 51.4316 14032.90 13740.70 141.87
12865 51.4353 13783.20 13517.30 138.23
12866 51.4391 13633.30 13307.10 136.51
12867 51.4428 13263.10 13119.30 134.23
12868 51.4466 13335.90 12942.10 133.80
12869 51.4503 12832.90 12782.80 132.21
12870 51.4541 12748.30 12631.80 131.86
12871 51.4579 12892.10 12491.90 132.55
12872 51.4616 12812.00 12365.40 132.38
12873 51.4654 12774.50 12244.80 131.30
12874 51.4691 12477.00 12135.30 130.29
12875 51.4729 12223.00 12030.50 129.04
12876 51.4766 12457.30 11934.90 130.17
12877 51.4804 12216.00 11843.20 128.96
12878 51.4841 12211.50 11759.30 128.59
12879 51.4879 11876.20 11678.50 127.35
12880 51.4917 12038.90 11602.60 126.85
12881 51.4954 11786.30 11532.90 126.95
12882 51.4992 12065.30 11465.50 128.19
12883 51.5029 11629.80 11403.60 125.15
12884 51.5067 11883.80 11343.30 126.06
12885 51.5104 11651.20 11288.00 124.32
12886 51.5142 11632.30 11234.10 125.42
12887 51.5179 11424.20 11184.30 124.21
12888 51.5217 11570.30 11135.80 125.21
12889 51.5255 11431.60 11089.80 123.85
12890 51.5292 11441.80 11047.20 123.43
12891 51.5330 11493.40 11005.50 124.73
12892 51.5367 11439.90 10966.90 124.01
12893 51.5405 11179.20 10929.10 121.86
12894 51.5442 11418.20 10893.90 121.65
12895 51.5480 11078.30 10859.50 121.07
12896 51.5517 11308.10 10827.40 122.80
12897 51.5555 11317.90 10795.90 122.79
12898 51.5593 11234.70 10765.80 122.39
12899 51.5630 11086.90 10737.70 121.48
12900 51.5668 11125.60 10710.10 121.92
12901 51.5705 10975.40 10684.30 120.85
12902 51.5743 11086.10 10658.90 121.28
12903 51.5780 10982.50 10635.10 119.94
12904 51.5818 10976.60 10611.60 120.10
12905 51.5855 10703.60 10589.70 118.92
12906 51.5893 10736.10 10568.00 117.94
12907 51.5931 10656.60 10547.20 118.69
12908 51.5968 10737.80 10527.70 119.43
12909 51.6006 10813.50 10508.30 119.57
12910 51.6043 10848.50 10490.20 119.57
12911 51.6081 10703.90 10472.30 118.74
12912 51.6118 10848.30 10455.40 120.46
12913 51.6156 10796.40 10438.70 118.89
12914 51.6193 10667.10 10423.00 118.87
12915 51.6231 10657.90 10407.40 117.97
12916 51.6269 10518.60 10392.30 116.95
12917 51.6306 10590.00 10378.20 118.22
12918 51.6344 10697.80 10364.10 120.33
12919 51.6381 10555.10 10350.80 117.91
12920 51.6419 10618.90 10337.70 117.57
12921 51.6456 10635.80 10325.20 116.23
12922 51.6494 10650.10 10312.90 118.80
12923 51.6531 10317.10 10301.20 115.59
12924 51.6569 10442.50 10289.60 116.88
12925 51.6607 10539.20 10278.30 116.72
12926 51.6644 10684.10 10267.70 118.42
12927 51.6682 10409.00 10257.10 116.74
12928 51.6719 10621.80 10247.10 115.90
12929 51.6757 10362.20 10237.20 116.35
12930 51.6794 10411.50 10171.90 116.19
12931 51.6832 10304.70 10163.20 115.06
12932 51.6869 10585.30 10155.00 117.22
12933 51.6907 10365.60 10146.80 115.05
12934 51.6944 10326.50 10139.10 116.13
12935 51.6982 10173.10 10131.40 114.88
12936 51.7020 10445.50 10123.90 116.46
12937 51.7057 10116.40 10116.80 114.41
12938 51.7095 10417.50 10109.70 115.75
12939 51.7132 10227.40 10103.00 116.07
12940 51.7170 10217.00 10096.20 113.37
12941 51.7207 10278.30 10089.90 115.14
12942 51.7245 10079.90 10083.50 113.01
12943 51.7282 10325.40 10077.60 115.31
12944 51.7320 10195.10 10071.50 114.25
12945 51.7358 10393.80 10065.70 117.46
12946 51.7395 10365.00 10060.10 116.78
12947 51.7433 10000.20 10054.50 113.22
12948 51.7470 10161.90 10049.20 114.18
12949 51.7508 10147.10 10043.90 114.43
12950 51.7545 10392.50 10038.80 116.18
12951 51.7583 10275.10 10033.80 115.34
12952 51.7620 10307.90 10029.00 116.03
12953 51.7658 10136.80 10024.20 114.63
12954 51.7695 10170.50 10019.60 114.95
12955 51.7733 10092.70 10015.00 114.94
12956 51.7771 10161.00 9958.90 115.24
12957 51.7808 10217.50 9955.30 114.86
12958 51.7846 10168.40 9951.70 114.67
12959 51.7883 10081.20 9948.27 114.31
12960 51.7921 10045.30 9944.83 114.50
12961 51.7958 10014.80 9941.56 113.08
12962 51.7996 10218.90 9938.28 115.53
12963 51.8033 9923.85 9935.50 113.34
12964 51.8071 10089.90 9932.37 114.49
12965 51.8108 10192.20 9929.40 114.00
12966 51.8146 9850.23 9926.41 112.97
12967 51.8184 10098.10 9923.49 113.56
12968 51.8221 10026.20 9920.71 114.33
12969 51.8259 9901.84 9917.92 113.79
12970 51.8296 9997.74 9915.26 112.60
12971 51.8334 9918.79 9912.58 114.44
12972 51.8371 10169.30 9910.04 115.14
12973 51.8409 9981.09 9907.48 113.49
12974 51.8446 9975.27 9905.04 113.28
12975 51.8484 9799.23 9902.59 111.55
12976 51.8521 10072.00 9900.25 113.01
12977 51.8559 10111.90 9897.91 113.79
12978 51.8596 10064.10 9895.66 114.61
12979 51.8634 9977.44 9893.41 113.32
12980 51.8672 10310.80 9891.20 115.87
12981 51.8709 9963.27 9889.10 113.11
12982 51.8747 9949.38 9886.98 114.12
12983 51.8784 9860.47 9884.96 113.45
12984 51.8822 9943.16 9765.42 112.80
12985 51.8859 10054.90 9765.01 113.15
12986 51.8897 10125.20 9764.59 115.16
12987 51.8934 9877.02 9764.20 112.14
12988 51.8972 10042.30 9733.91 114.33
12989 51.9009 9858.63 9733.92 113.33
12990 51.9047 9931.25 9733.93 114.06
12991 51.9085 10084.40 9733.94 113.99
12992 51.9122 9992.89 9733.95 114.29
12993 51.9160 9947.96 9733.96 113.99
12994 51.9197 9928.66 9733.98 112.20
12995 51.9235 9746.97 9733.99 112.64
12996 51.9272 10021.60 9734.01 112.99
12997 51.9310 9900.13 9734.02 113.59
12998 51.9347 10107.30 9734.04 115.86
12999 51.9385 9833.66 9734.06 112.17
13000 51.9422 9787.74 9734.08 112.46
13001 51.9460 10000.40 9734.10 113.97
13002 51.9497 10080.90 9734.12 114.13
13003 51.9535 10006.50 9734.15 113.56
13004 51.9573 9910.91 9734.17 114.13
13005 51.9610 9851.38 9734.20 113.62
13006 51.9648 9912.49 9734.23 112.28
13007 51.9685 9611.85 9734.26 111.93
13008 51.9723 10053.60 9734.29 114.79
13009 51.9760 9990.60 9734.32 112.76
13010 51.9798 9980.19 9734.35 112.83
13011 51.9835 9782.59 9734.38 111.95
13012 51.9873 9853.91 9734.42 112.38
13013 51.9890 9600.77 9734.44 112.51
13014 51.9928 10068.00 9734.48 114.97
13015 51.9965 9880.04 9734.52 113.46
13016 52.0003 10082.40 9734.56 115.88
13017 52.0040 9782.31 9734.60 113.98
13018 52.0078 9924.10 9734.65 115.01
13019 52.0116 9758.05 9734.70 113.46
13020 52.0153 10012.10 9734.75 114.67
13021 52.0191 9857.34 9734.80 114.56
13022 52.0228 10015.30 9734.85 115.24
13023 52.0266 10092.40 9734.91 115.22
13024 52.0303 9869.39 9734.96 112.23
13025 52.0341 9935.07 9735.02 114.05
13026 52.0378 10058.20 9735.09 115.14
13027 52.0416 9784.59 9735.15 113.30
13028 52.0454 9969.70 9735.22 114.60
13029 52.0491 10093.80 9735.29 115.41
13030 52.0529 10056.60 9735.36 115.36
13031 52.0566 10000.90 9735.43 114.87
13032 52.0604 9897.74 9735.51 113.96
13033 52.0641 9899.09 9735.59 113.31
13034 52.0679 10029.70 9735.68 114.34
13035 52.0716 9961.47 9735.76 114.40
13036 52.0754 9911.31 9735.86 112.94
13037 52.0792 9764.89 9735.95 113.18
13038 52.0829 9987.92 9736.05 114.86
13039 52.0867 9828.84 9736.15 113.50
13040 52.0904 9985.60 9736.25 114.30
13041 52.0942 9956.21 9736.37 114.19
13042 52.0979 9939.27 9736.48 114.86
13043 52.1017 9812.47 9736.60 112.85
13044 52.1054 9981.91 9736.72 114.70
13045 52.1092 9847.01 9736.85 113.02
13046 52.1129 9884.39 9736.99 113.12
13047 52.1167 9798.08 9737.13 113.35
13048 52.1205 9866.55 9737.28 115.17
13049 52.1242 9789.43 9737.43 113.21
13050 52.1280 9721.97 9737.59 112.07
13051 52.1317 9855.68 9737.76 111.54
13052 52.1355 9815.33 9737.94 113.66
13053 52.1392 9782.98 9738.12 112.38
13054 52.1430 9893.97 9739.30 113.58
13055 52.1467 9698.84 9739.52 111.57
13056 52.1505 9968.87 9739.74 114.08
13057 52.1543 9844.61 9739.98 113.33
13058 52.1580 9722.92 9740.23 110.46
13059 52.1618 9818.51 9740.50 113.07
13060 52.1655 9971.45 9740.77 113.60
13061 52.1693 9855.30 9741.06 112.40
13062 52.1730 9918.54 9741.37 113.20
13063 52.1768 9657.96 9741.70 110.75
13064 52.1805 9717.82 9742.04 112.42
13065 52.1843 9746.30 9742.41 112.34
13066 52.1881 9837.16 9742.81 112.78
13067 52.1918 9709.08 9743.22 111.99
13068 52.1956 9874.75 9743.67 112.51
13069 52.1993 9820.13 9744.14 113.64
13070 52.2031 9822.22 9744.67 111.07
13071 52.2068 9707.72 9745.21 111.69
13072 52.2106 9704.87 9745.82 110.82
13073 52.2143 9631.52 9746.46 111.08
13074 52.2181 9994.77 9747.17 113.18
13075 52.2182 9597.99 9747.19 112.10
13076 52.2220 9937.23 9747.98 114.29
13077 52.2258 9661.18 9748.84 112.04
13078 52.2295 9792.42 9749.78 113.56
13079 52.2333 9780.75 9750.84 115.14
13080 52.2370 9785.72 9751.99 113.59
13081 52.2408 9895.29 9753.33 113.60
13082 52.2445 9972.13 9755.56 115.33
13083 52.2483 9896.43 9757.33 114.65
13084 52.2520 9883.35 9759.35 113.03
13085 52.2558 9793.49 9761.84 114.21
13086 52.2595 9811.83 9764.82 114.06
13087 52.2633 9769.25 9768.67 114.03
13088 52.2670 9842.86 9773.46 113.74
13089 52.2708 9831.43 9779.84 114.74
13090 52.2746 9943.00 9788.12 114.68
13091 52.2783 9656.73 9798.45 112.68
13092 52.2821 9941.53 9811.73 114.88
13093 52.2858 9802.61 9827.40 113.94
13094 52.2896 9942.26 9845.92 113.92
13095 52.2933 9692.63 9865.08 113.13
13096 52.2971 9963.35 9883.01 114.97
13097 52.3008 9703.69 9894.73 112.76
13098 52.3046 9971.89 9897.26 114.37
13099 52.3083 9697.03 9890.38 112.83
13100 52.3121 10029.30 9877.22 116.01
13101 52.3158 9784.70 9862.67 113.80
13102 52.3196 9832.51 9849.05 114.49
13103 52.3234 9728.20 9838.30 113.11
13104 52.3271 9768.39 9831.20 112.74
13105 52.3309 9666.65 9827.51 112.94
13106 52.3346 10129.40 9827.43 117.64
13107 52.3384 9684.62 9831.06 113.33
13108 52.3421 9923.65 9838.54 112.78
13109 52.3459 9764.54 9850.89 113.48
13110 52.3496 9864.18 9868.45 114.04
13111 52.3534 9955.88 9893.39 114.68
13112 52.3571 9968.48 9925.75 114.65
13113 52.3609 9785.20 9968.36 113.92
13114 52.3647 10193.70 10021.00 116.12
13115 52.3684 10124.90 10080.50 115.60
13116 52.3722 9889.94 10145.60 114.82
13117 52.3759 9951.76 10203.30 114.80
13118 52.3797 10201.40 10242.20 116.25
13119 52.3834 10081.70 10247.70 115.35
13120 52.3872 10194.00 10219.40 116.52
13121 52.3909 10060.80 10170.30 116.02
13122 52.3947 10064.80 10112.70 115.80
13123 52.3984 9845.90 10060.20 114.03
13124 52.4022 10016.10 10015.40 114.81
13125 52.4060 9958.31 9981.73 114.85
13126 52.4097 10150.50 9959.93 116.39
13127 52.4135 9797.90 9948.45 113.43
13128 52.4172 9899.97 9947.65 113.74
13129 52.4210 10066.20 9957.72 115.68
13130 52.4247 9976.98 9979.12 115.27
13131 52.4285 9995.59 10014.90 113.04
13132 52.4322 10262.60 10065.80 119.10
13133 52.4360 10178.50 10137.30 117.00
13134 52.4397 10413.20 10228.20 117.59
13135 52.4435 10035.20 10344.10 115.40
13136 52.4473 10696.90 10479.60 119.59
13137 52.4510 10682.50 10620.30 119.20
13138 52.4548 10957.80 10750.60 121.70
13139 52.4585 10863.20 10830.70 120.53
13140 52.4623 11199.60 10835.00 123.25
13141 52.4660 11067.40 10761.20 122.16
13142 52.4698 11311.70 10632.30 123.57
13143 52.4735 10752.70 10488.80 119.23
13144 52.4773 10637.80 10347.50 119.79
13145 52.4810 10327.50 10227.90 116.52
13146 52.4848 10397.70 10126.50 117.85
13147 52.4886 10065.30 10046.80 115.75
13148 52.4923 10137.80 9987.16 116.20
13149 52.4961 9898.74 9940.99 114.97
13150 52.4998 9993.78 9907.35 114.44
13151 52.5036 9663.48 9881.49 112.82
13152 52.5073 9976.72 9862.36 114.78
13153 52.5111 9861.44 9847.16 115.36
13154 52.5148 10183.70 9835.44 116.54
13155 52.5186 9798.99 9825.71 114.55
13156 52.5224 9867.41 9817.73 114.66
13157 52.5261 9823.64 9811.24 113.32
13158 52.5299 9989.24 9805.63 115.69
13159 52.5336 9595.15 9801.00 113.80
13160 52.5374 9875.67 9796.95 114.56
13161 52.5411 9776.39 9793.59 113.87
13162 52.5449 9778.24 9790.64 113.56
13163 52.5486 9521.02 9788.20 112.29
13164 52.5524 9742.09 9786.07 113.46
13165 52.5562 9666.92 9784.27 112.88
13166 52.5599 9744.46 9782.81 113.66
13167 52.5637 9641.16 9781.57 113.52
13168 52.5674 9812.60 9780.61 113.94
13169 52.5712 9353.40 9779.83 111.06
13170 52.5749 9848.01 9779.28 114.63
13171 52.5787 9618.11 9778.90 112.68
13172 52.5824 9694.61 9778.72 113.57
13173 52.5862 9807.55 9778.71 114.11
13174 52.5899 9905.38 9778.88 115.53
13175 52.5937 9676.38 9779.22 113.14
13176 52.5975 9861.57 9779.75 114.30
13177 52.6012 9714.97 9780.45 113.54
13178 52.6050 9870.28 9781.36 114.05
13179 52.6087 9782.89 9782.44 113.88
13180 52.6125 10003.10 9783.77 116.08
13181 52.6162 9867.86 9785.30 113.51
13182 52.6200 9701.09 9787.12 113.69
13183 52.6238 9675.91 9789.25 112.58
13184 52.6275 9733.89 9791.62 112.57
13185 52.6350 10070.10 9797.57 116.95
13186 52.6388 9719.79 9801.28 113.52
13187 52.6425 9725.70 9805.42 113.17
13188 52.6463 9489.29 9810.33 111.86
13189 52.6500 9919.75 9815.86 114.94
13190 52.6538 9629.41 9822.47 113.15
13191 52.6575 9875.83 9830.00 114.14
13192 52.6613 9777.66 9839.14 114.45
13193 52.6651 9662.55 9850.08 112.79
13194 52.6688 9861.63 9863.04 114.60
13195 52.6726 9833.36 9879.53 114.76
13196 52.6763 9742.11 9899.91 113.85
13197 52.6801 10117.00 9927.02 115.16
13198 52.6838 9791.00 9961.91 112.55
13199 52.6876 10162.70 10009.60 115.12
13200 52.6914 10202.00 10073.50 115.56
13201 52.6951 10313.60 10155.20 113.88
13202 52.7026 10883.80 10394.20 116.74
13203 52.7101 11285.80 10728.50 123.09
13204 52.7139 11256.90 10905.60 121.46
13205 52.7176 11528.50 11042.30 123.89
13206 52.7214 11396.90 11103.10 122.60
13207 52.7252 11735.00 11060.50 124.83
13208 52.7289 11017.50 10936.30 118.79
13209 52.7327 11042.30 10765.20 122.43
13210 52.7364 10688.60 10593.00 119.04
13211 52.7402 10592.80 10432.50 117.01
13212 52.7439 10189.70 10301.10 114.39
13213 52.7477 10212.10 10193.20 114.43
13214 52.7515 10082.50 10110.50 114.17
13215 52.7552 10156.20 10050.60 115.03
13216 52.7590 9974.01 10006.20 113.55
13217 52.7627 10349.70 9975.97 116.14
13218 52.7665 9852.78 9955.00 113.32
13219 52.7702 9770.35 9942.26 112.58
13220 52.7740 9870.60 9935.61 113.65
13221 52.7777 9867.74 9934.77 113.41
13222 52.7815 9954.01 9939.78 113.87
13223 52.7853 9969.80 9951.58 113.59
13224 52.7890 9884.75 9971.11 113.69
13225 52.7928 10059.60 10001.60 114.78
13226 52.7965 9900.86 10044.20 113.82
13227 52.8003 10249.70 10104.10 115.62
13228 52.8040 10086.70 10181.00 114.92
13229 52.8078 10341.10 10280.50 116.42
13230 52.8116 10360.40 10399.60 117.39
13231 52.8153 10734.40 10527.70 118.59
13232 52.8191 10538.20 10655.30 117.83
13233 52.8228 10826.80 10748.20 119.62
13234 52.8266 10831.20 10780.20 118.99
13235 52.8303 11082.10 10736.80 119.84
13236 52.8341 10738.70 10631.70 121.50
13237 52.8378 10691.50 10501.60 119.77
13238 52.8416 10457.40 10366.30 117.05
13239 52.8454 10381.10 10244.70 115.97
13240 52.8491 10093.90 10145.30 114.63
13241 52.8529 9903.91 10063.10 113.41
13242 52.8566 9844.53 10000.80 113.24
13243 52.8604 9795.50 9952.02 113.39
13244 52.8641 9616.26 9916.22 111.88
13245 52.8679 9857.72 9888.50 113.89
13246 52.8717 9682.80 9867.52 112.32
13247 52.8754 9884.59 9851.68 113.52
13248 52.8792 9758.85 9838.79 113.14
13249 52.8829 9857.90 9828.51 113.63
13250 52.8867 9702.86 9819.86 112.51
13251 52.8904 9853.53 9812.75 113.44
13252 52.8942 9708.13 9806.53 112.40
13253 52.8980 9877.05 9801.17 113.32
13254 52.9017 9804.51 9796.64 112.88
13255 52.9055 9958.32 9792.56 113.12
13256 52.9092 9654.29 9789.07 112.56
13257 52.9130 9744.97 9785.89 112.47
13258 52.9167 9735.58 9783.15 112.87
13259 52.9205 9930.05 9780.63 114.47
13260 52.9243 9757.65 9778.37 112.95
13261 52.9280 9574.12 9776.40 110.03
13262 52.9318 9840.16 9774.56 115.84
13263 52.9355 9968.36 9772.95 115.04
13264 52.9393 9663.30 9771.44 112.26
13265 52.9430 9757.91 9770.10 112.40
13266 52.9468 9565.39 9768.85 110.29
13267 52.9505 9909.26 9767.73 114.11
13268 52.9543 9654.40 9766.67 112.22
13269 52.9581 9748.33 9765.71 112.90
13270 52.9618 9758.83 9764.50 113.12
13271 52.9656 9679.87 9763.69 111.93
13272 52.9693 9524.94 9762.95 111.56
13273 52.9731 9691.55 9762.25 112.60
13274 52.9768 9564.85 9761.63 112.17
13275 52.9806 9685.21 9761.03 112.55
13276 52.9844 9559.13 9760.47 111.40
13277 52.9881 9852.07 9759.97 113.89
13278 52.9919 9622.38 9759.49 112.42
13279 52.9956 9733.29 9759.05 112.78
13280 52.9994 9518.18 9758.64 111.00
13281 53.0032 9842.62 9758.25 113.42
13282 53.0069 9522.68 9757.90 111.24
13283 53.0107 9754.81 9757.56 113.34
13284 53.0144 9624.22 9757.25 111.37
13285 53.0182 9622.32 9756.96 112.04
13286 53.0219 9675.41 9756.69 111.31
13287 53.0257 9679.01 9756.44 112.16
13288 53.0294 9692.42 9756.20 111.16
13289 53.0332 9743.67 9755.98 115.22
13290 53.0370 9651.66 9755.77 112.92
13291 53.0407 9874.23 9754.79 113.61
13292 53.0445 9507.47 9754.62 111.05
13293 53.0482 9786.34 9754.46 112.98
13294 53.0520 9658.45 9754.31 111.70
13295 53.0558 9728.64 9754.18 111.65
13296 53.0595 9523.31 9754.05 111.94
13297 53.0633 9745.91 9753.94 113.17
13298 53.0670 9537.44 9753.83 111.58
13299 53.0708 9715.91 9753.73 112.44
13300 53.0745 9709.23 9753.64 112.68
13301 53.0783 9760.45 9753.55 113.10
13302 53.0821 9724.14 9753.48 113.00
13303 53.0858 9904.93 9753.41 114.08
13304 53.0896 9648.28 9753.34 112.12
13305 53.0933 9750.38 9753.29 112.75
13306 53.0971 9758.06 9753.24 112.87
13307 53.1008 9876.22 9753.19 113.88
13308 53.1046 9884.17 9753.15 113.90
13309 53.1084 9871.30 9753.11 114.00
13310 53.1121 9799.58 9753.08 114.25
13311 53.1159 9960.38 9753.05 113.60
13312 53.1196 9694.75 9753.03 113.08
13313 53.1234 9888.40 9753.01 114.31
13314 53.1271 9462.35 9753.00 109.61
13315 53.1309 9903.97 9752.99 114.19
13316 53.1347 9528.89 9752.98 113.69
13317 53.1384 9814.03 9752.97 113.40
13318 53.1422 9603.06 9752.97 111.17
13319 53.1459 9696.47 9752.98 112.55
13320 53.1497 9558.60 9752.98 112.06
13321 53.1534 9896.78 9752.99 114.44
13322 53.1572 9758.41 9753.00 113.71
13323 53.1610 9675.23 9753.02 112.87
13324 53.1647 9787.39 9753.03 114.06
13325 53.1685 9974.12 9753.05 115.24
13326 53.1722 9634.05 9753.07 113.51
13327 53.1760 9752.10 9753.10 113.86
13328 53.1798 9664.02 9753.12 112.70
13329 53.1835 9875.70 9753.15 114.03
13330 53.1873 9687.29 9753.18 113.60
13331 53.1910 9754.83 9753.21 113.25
13332 53.1948 9398.67 9753.25 111.35
13333 53.1985 9734.71 9753.28 113.41
13334 53.2023 9731.90 9753.32 111.99
13335 53.2061 9916.30 9753.36 114.00
13336 53.2098 9782.07 9753.40 114.31
13337 53.2136 9928.00 9753.44 115.01
13338 53.2173 9606.70 9753.49 112.95
13339 53.2211 9759.54 9753.53 113.68
13340 53.2248 9718.93 9753.58 113.56
13341 53.2286 9533.05 9753.63 110.59
13342 53.2324 9736.90 9753.68 115.31
13343 53.2361 9711.92 9753.73 114.54
13344 53.2399 9667.61 9753.78 113.02
13345 53.2436 9793.02 9753.84 113.04
13346 53.2474 9669.43 9753.89 112.86
13347 53.2512 9804.58 9753.95 113.86
13348 53.2549 9497.03 9754.01 111.72
13349 53.2587 9916.24 9754.07 114.24
13350 53.2624 9380.16 9754.12 111.31
13351 53.2662 9950.38 9754.19 115.20
13352 53.2699 9509.19 9754.25 110.49
13353 53.2737 9767.04 9754.31 113.46
13354 53.2775 9717.54 9754.37 112.64
13355 53.2812 9725.43 9754.44 113.15
13356 53.2850 9583.77 9754.50 112.39
13357 53.2887 9792.73 9754.57 113.46
13358 53.2925 9425.97 9754.64 111.28
13359 53.2962 9833.46 9754.70 113.43
13360 53.3000 9720.81 9754.77 112.20
13361 53.3038 9776.62 9754.84 113.67
13362 53.3075 9712.22 9753.95 113.27
13363 53.3113 9538.21 9754.03 112.19
13364 53.3150 9805.78 9754.11 112.22
13365 53.3188 9672.91 9754.20 113.32
13366 53.3226 9492.67 9754.28 112.14
13367 53.3263 9860.11 9754.37 113.72
13368 53.3301 9624.39 9754.45 110.97
13369 53.3338 9937.92 9754.54 117.77
13370 53.3376 9524.12 9754.63 112.50
13371 53.3413 9746.31 9754.71 113.02
13372 53.3451 9553.36 9754.80 110.61
13373 53.3489 9555.71 9754.89 110.90
13374 53.3526 9584.80 9754.98 112.24
13375 53.3564 9830.70 9755.06 113.12
13376 53.3601 9648.58 9755.15 113.03
13377 53.3639 9758.84 9755.24 112.46
13378 53.3677 9772.97 9755.33 112.28
13379 53.3714 9828.96 9755.42 113.89
13380 53.3752 9687.75 9755.51 112.92
13381 53.3789 9752.95 9755.60 112.92
13382 53.3827 9663.30 9755.69 112.55
13383 53.3864 9705.39 9755.78 112.81
13384 53.3902 9770.77 9755.88 113.78
13385 53.3940 9629.21 9755.97 112.79
13386 53.3977 9726.08 9756.06 112.41
13387 53.4015 9766.27 9756.15 113.75
13388 53.4052 9772.49 9756.24 113.38
13389 53.4090 9836.38 9756.34 113.87
13390 53.4128 9663.84 9755.70 113.57
13391 53.4165 9932.13 9755.80 114.82
13392 53.4203 9663.95 9755.91 112.96
13393 53.4240 9806.87 9756.01 112.84
13394 53.4278 9618.02 9756.11 110.91
13395 53.4315 9765.60 9756.21 114.89
13396 53.4353 9735.32 9756.32 115.15
13397 53.4391 9779.81 9756.42 111.75
13398 53.4428 9511.95 9756.53 110.99
13399 53.4466 9918.29 9756.63 114.08
13400 53.4503 9674.29 9756.73 112.54
13401 53.4541 9695.89 9756.84 113.15
13402 53.4579 9578.72 9756.94 112.04
13403 53.4616 9714.67 9757.04 113.51
13404 53.4654 9691.51 9757.15 112.57
13405 53.4691 10019.90 9757.25 114.96
13406 53.4729 9649.34 9757.35 112.88
13407 53.4766 9873.90 9757.46 114.54
13408 53.4804 9583.73 9757.56 112.10
13409 53.4842 9937.16 9757.67 114.73
13410 53.4879 9830.98 9757.77 113.77
13411 53.4917 9909.70 9757.88 114.08
13412 53.4954 9562.64 9757.98 110.95
13413 53.4992 9709.52 9758.08 113.35
13414 53.5030 9520.91 9758.19 111.94
13415 53.5067 9843.06 9758.29 113.83
13416 53.5105 9553.55 9758.40 112.12
13417 53.5142 9866.65 9758.50 113.97
13418 53.5180 9597.41 9758.61 112.47
13419 53.5218 9872.51 9820.67 112.78
13420 53.5255 9675.12 9821.55 113.00
13421 53.5293 9969.68 9822.47 112.55
13422 53.5330 9849.48 9823.38 116.30
13423 53.5368 9664.51 9824.33 113.84
13424 53.5405 9641.03 9825.27 112.86
13425 53.5443 9879.60 9826.25 114.18
13426 53.5481 9652.29 9827.25 112.87
13427 53.5518 9674.56 9828.25 112.21
13428 53.5556 9748.24 9829.28 112.68
13429 53.5593 9888.78 9830.31 114.37
13430 53.5631 9657.31 9831.39 112.40
13431 53.5669 10005.20 9832.48 115.72
13432 53.5706 9673.26 9833.57 113.00
13433 53.5744 9923.21 9834.71 114.37
13434 53.5781 9740.80 9835.84 113.36
13435 53.5819 9700.03 9837.02 113.28
13436 53.5857 9808.24 9838.22 114.14
13437 53.5894 9986.93 9839.42 115.32
13438 53.5932 9891.96 9840.67 114.46
13439 53.5969 9690.18 9841.91 112.07
13440 53.6007 9918.76 9843.21 114.78
13441 53.6044 9875.32 9844.51 114.34
13442 53.6082 9829.78 9845.86 114.13
13443 53.6120 9915.25 9847.25 114.48
13444 53.6157 9936.25 9848.62 114.89
13445 53.6195 9942.52 9850.06 113.36
13446 53.6232 9518.81 9851.50 112.15
13447 53.6270 9846.39 9853.00 114.54
13448 53.6308 9633.58 9854.54 110.92
13449 53.6345 9981.01 9856.07 117.56
13450 53.6383 9809.61 9857.67 115.43
13451 53.6420 9892.54 9859.27 113.81
13452 53.6458 9878.31 9860.94 112.91
13453 53.6496 9972.55 9862.66 114.44
13454 53.6533 9580.12 9864.37 111.88
13455 53.6571 10022.60 9866.16 114.32
13456 53.6608 9842.35 9867.95 113.17
13457 53.6646 10092.70 9869.83 115.29
13458 53.6684 9873.88 9871.75 113.74
13459 53.6721 9894.51 9873.67 114.18
13460 53.6759 9629.60 9934.10 111.28
13461 53.6796 9915.24 9936.85 113.74
13462 53.6834 9803.49 9939.73 112.70
13463 53.6871 9931.21 9942.60 114.03
13464 53.6909 9605.92 9945.62 111.46
13465 53.6947 10066.10 9948.72 114.66
13466 53.6984 9825.51 9951.80 113.22
13467 53.7022 10004.20 9955.05 114.78
13468 53.7059 9806.66 9958.28 113.33
13469 53.7097 9900.28 9961.69 113.37
13470 53.7135 9874.10 9965.18 114.34
13471 53.7172 10010.70 9968.67 114.11
13472 53.7210 9730.82 9972.34 113.10
13473 53.7247 9891.09 9976.01 114.01
13474 53.7285 9866.63 10037.20 112.72
13475 53.7323 10008.40 10041.90 113.81
13476 53.7360 9926.82 10046.60 116.29
13477 53.7398 10127.40 10051.60 114.84
13478 53.7435 9910.85 10056.50 113.41
13479 53.7473 10194.10 10061.70 114.82
13480 53.7511 9782.04 10067.10 112.65
13481 53.7548 9838.21 10072.40 112.91
13482 53.7586 9779.68 10078.10 113.10
13483 53.7623 10153.40 10083.70 114.86
13484 53.7661 9922.32 10089.70 113.89
13485 53.7699 9947.36 10095.80 114.00
13486 53.7736 9880.10 10102.00 112.07
13487 53.7774 9969.12 10108.40 113.35
13488 53.7811 9829.04 10114.90 113.37
13489 53.7849 10059.00 10121.80 114.93
13490 53.7886 10163.70 10128.70 115.44
13491 53.7924 10325.90 10136.00 116.87
13492 53.7962 9992.04 10143.50 114.76
13493 53.7999 10084.90 10151.00 115.01
13494 53.8037 10157.70 10159.00 115.12
13495 53.8074 10190.10 10167.00 115.57
13496 53.8112 9985.78 10175.50 114.40
13497 53.8150 10224.30 10184.30 116.16
13498 53.8187 10021.30 10193.10 114.81
13499 53.8225 10235.80 10202.50 115.15
13500 53.8262 9801.12 10211.90 113.03
13501 53.8300 10119.20 10221.90 113.77
13502 53.8338 10125.00 10232.30 116.72
13503 53.8375 10276.60 10242.70 117.33
13504 53.8413 10329.50 10253.80 116.64
13505 53.8450 10319.80 10265.00 115.52
13506 53.8488 10195.60 10277.00 115.49
13507 53.8526 10276.80 10289.30 116.45
13508 53.8563 10162.30 10301.90 115.75
13509 53.8601 10400.90 10315.20 116.25
13510 53.8638 10033.90 10328.70 114.96
13511 53.8676 10343.50 10343.10 116.97
13512 53.8714 10127.50 10358.10 115.54
13513 53.8751 10372.90 10373.30 117.21
13514 53.8789 10243.70 10389.50 116.24
13515 53.8826 10604.20 10406.00 118.68
13516 53.8864 10295.50 10423.70 116.79
13517 53.8902 10736.50 10442.10 120.03
13518 53.8939 10265.50 10460.90 117.07
13519 53.8977 10425.10 10481.00 117.52
13520 53.9014 10439.60 10501.50 117.36
13521 53.9052 10604.30 10523.60 118.17
13522 53.9089 10504.70 10546.10 118.05
13523 53.9127 10710.00 10570.30 119.90
13524 53.9165 10487.60 10595.70 117.49
13525 53.9202 10680.00 10621.80 119.24
13526 53.9240 10502.30 10649.90 118.21
13527 53.9277 10716.70 10678.70 119.00
13528 53.9315 10318.90 10709.90 115.33
13529 53.9353 11080.50 10742.80 124.70
13530 53.9390 10652.20 10776.70 119.78
13531 53.9428 10892.00 10813.50 120.26
13532 53.9465 10718.50 10851.50 119.02
13533 53.9503 11111.30 10892.80 121.94
13534 53.9541 10920.30 10936.70 120.96
13535 53.9578 11087.70 10982.10 122.21
13536 53.9616 11048.10 11031.80 121.40
13537 53.9653 11156.00 11083.40 121.69
13538 53.9691 10989.40 11140.10 120.79
13539 53.9729 11540.50 11200.80 125.11
13540 53.9766 11258.90 11264.10 123.15
13541 53.9804 11190.20 11334.00 122.35
13542 53.9841 11510.70 11407.30 125.04
13543 53.9879 11855.90 11488.40 126.37
13544 53.9917 11695.40 11576.30 125.55
13545 53.9954 11615.50 11669.00 125.25
13546 53.9992 11701.10 11772.50 125.47
13547 54.0029 11953.30 11882.20 127.18
13548 54.0067 11960.00 12005.50 126.98
13549 54.0105 12374.50 12140.70 129.08
13550 54.0142 12243.70 12285.30 129.83
13551 54.0180 12658.50 12449.30 130.29
13552 54.0217 12647.60 12625.90 132.22
13553 54.0255 13145.50 12827.80 134.61
13554 54.0293 12870.70 13053.20 131.78
13555 54.0330 13611.70 13299.50 137.94
13556 54.0368 13538.00 13584.30 139.56
13557 54.0405 14249.90 13898.70 140.71
13558 54.0443 14367.90 14266.10 140.61
13559 54.0481 15236.30 14688.70 145.98
13560 54.0518 15490.70 15164.00 147.64
13561 54.0556 16575.30 15734.30 153.05
13562 54.0593 16946.00 16389.90 155.78
13563 54.0631 18109.80 17199.70 162.00
13564 54.0669 19303.10 18193.00 166.61
13565 54.0706 21212.30 19402.50 177.38
13566 54.0744 22203.10 20993.50 182.20
13567 54.0781 24958.40 23012.10 196.01
13568 54.0819 27125.30 25749.70 205.47
13569 54.0857 31323.20 29379.30 222.15
13570 54.0894 35528.90 34018.30 239.94
13571 54.0932 41903.40 40149.40 265.21
13572 54.0969 47899.20 47645.40 289.51
13573 54.1007 57982.50 56937.70 326.19
13574 54.1045 66514.90 67597.40 356.51
13575 54.1082 76034.20 78455.60 385.44
13576 54.1120 82018.50 88382.70 407.34
13577 54.1157 86454.30 94439.60 422.93
13578 54.1195 83536.30 94858.60 414.99
13579 54.1233 79283.70 89263.10 400.44
13580 54.1270 69843.20 79960.90 366.36
13581 54.1308 61837.90 68957.60 335.20
13582 54.1345 52811.40 58607.80 312.63
13583 54.1383 46288.60 49262.40 286.45
13584 54.1421 38910.40 41543.60 254.80
13585 54.1458 34655.60 35556.10 234.40
13586 54.1496 30120.30 30813.50 217.29
13587 54.1533 27667.10 27323.60 207.71
13588 54.1571 24724.00 24659.50 193.04
13589 54.1609 23143.50 22696.30 185.57
13590 54.1646 21272.80 21283.70 176.76
13591 54.1684 21126.10 20204.60 176.17
13592 54.1721 19503.10 19421.00 168.74
13593 54.1759 19110.80 18821.10 166.08
13594 54.1797 18236.20 18383.40 162.22
13595 54.1834 18302.20 18084.60 161.94
13596 54.1872 17766.80 17889.30 157.65
13597 54.1909 17817.80 17797.30 159.53
13598 54.1947 17464.50 17797.20 157.13
13599 54.1985 17782.80 17890.80 159.74
13600 54.2022 17714.30 18074.00 158.53
13601 54.2060 18392.20 18362.30 162.27
13602 54.2097 18457.60 18752.10 162.01
13603 54.2135 19295.50 19281.40 168.29
13604 54.2173 19550.70 19970.70 168.75
13605 54.2210 20894.70 20836.20 175.52
13606 54.2248 21832.30 21989.60 179.65
13607 54.2285 23324.70 23458.20 184.82
13608 54.2323 25130.40 25452.50 193.17
13609 54.2360 28089.50 28028.80 213.00
13610 54.2398 30492.40 31538.00 218.70
13611 54.2436 35163.60 36157.10 236.83
13612 54.2473 40413.90 41941.60 258.59
13613 54.2511 48131.50 49398.80 288.28
13614 54.2549 56022.60 58412.80 316.56
13615 54.2586 67698.90 68477.10 358.93
13616 54.2624 78968.50 79331.90 396.99
13617 54.2661 91099.70 88888.10 433.48
13618 54.2699 96384.70 95352.80 452.08
13619 54.2737 100348.00 96517.20 460.72
13620 54.2774 94653.90 92519.80 446.38
13621 54.2812 88496.60 85072.40 426.37
13622 54.2849 78197.80 76977.50 393.56
13623 54.2887 70920.30 69669.00 369.28
13624 54.2924 64337.50 64578.30 345.12
13625 54.2962 62222.40 61941.80 340.00
13626 54.3000 60956.70 62129.60 334.64
13627 54.3037 64624.70 64993.90 348.38
13628 54.3075 69043.10 70429.50 361.05
13629 54.3112 78496.90 77539.80 390.17
13630 54.3150 86392.70 85489.40 421.60
13631 54.3188 94462.00 92000.80 443.45
13632 54.3225 96264.30 94608.00 453.24
13633 54.3263 95846.90 91955.80 448.49
13634 54.3301 86491.50 84493.20 417.63
13635 54.3338 77160.90 74647.20 391.11
13636 54.3376 64416.30 63983.70 354.24
13637 54.3413 54082.40 54363.80 312.50
13638 54.3451 43620.40 45850.50 271.61
13639 54.3488 37617.80 39041.00 248.73
13640 54.3526 31264.50 33470.50 223.10
13641 54.3564 27636.00 29150.80 206.25
13642 54.3601 24144.30 25924.90 191.03
13643 54.3639 22123.90 23389.70 180.98
13644 54.3676 20216.50 21493.10 171.25
13645 54.3714 18934.90 19972.70 165.51
13646 54.3752 17671.70 18766.80 159.30
13647 54.3789 17250.80 17812.00 157.20
13648 54.3827 16099.80 16999.10 150.20
13649 54.3865 15743.00 16313.50 148.48
13650 54.3902 15188.80 15742.30 145.27
13651 54.3940 14600.30 15234.20 141.80
13652 54.3977 14218.40 14802.50 139.68
13653 54.4015 13830.10 14412.40 138.00
13654 54.4052 13498.10 14076.70 136.21
13655 54.4090 13476.40 13769.90 135.39
13656 54.4128 12839.90 13496.30 131.92
13657 54.4165 12986.90 13257.30 133.55
13658 54.4203 12752.10 13035.90 132.19
13659 54.4240 12629.80 12841.20 131.44
13660 54.4278 12307.50 12659.40 127.99
13661 54.4316 12293.00 12494.20 127.83
13662 54.4353 12166.00 12347.20 131.24
13663 54.4391 12183.00 12208.90 129.20
13664 54.4429 11623.30 12081.90 124.97
13665 54.4466 12016.60 11968.20 127.45
13666 54.4504 11445.00 11860.20 122.54
13667 54.4541 11747.80 11763.00 125.70
13668 54.4579 11504.50 11670.40 124.46
13669 54.4617 11623.00 11584.40 123.97
13670 54.4654 11402.20 11506.50 122.75
13671 54.4692 11514.60 11431.80 124.65
13672 54.4729 11224.10 11363.90 123.30
13673 54.4767 11332.90 11298.50 123.29
13674 54.4805 11147.00 11237.40 122.04
13675 54.4842 11380.50 11181.50 123.11
13676 54.4880 10933.10 11127.50 119.85
13677 54.4917 11076.80 11078.00 122.06
13678 54.4955 10895.70 11030.10 120.52
13679 54.4993 11187.30 10984.90 122.54
13680 54.5030 10827.40 10943.40 120.30
13681 54.5068 10965.30 10903.00 121.18
13682 54.5105 10791.90 10865.70 119.49
13683 54.5143 10830.50 10829.40 121.04
13684 54.5181 10501.40 10795.00 117.94
13685 54.5218 10904.10 10763.20 120.95
13686 54.5256 10656.00 10732.20 119.04
13687 54.5293 10820.80 10703.40 118.46
13688 54.5331 10521.40 10675.20 119.65
13689 54.5369 10959.70 10648.40 121.77
13690 54.5406 10559.80 10623.40 118.29
13691 54.5444 10602.30 10599.00 117.17
13692 54.5481 10330.90 10576.20 116.52
13693 54.5519 10663.90 10553.80 119.25
13694 54.5557 10420.40 10532.40 118.01
13695 54.5594 10609.80 10512.50 118.37
13696 54.5632 10481.50 10492.90 117.96
13697 54.5669 10475.40 10474.60 118.26
13698 54.5707 10240.40 10456.50 116.09
13699 54.5745 10543.20 10439.20 118.84
13700 54.5782 10270.10 10423.00 115.05
13701 54.5820 10268.20 10407.00 117.11
13702 54.5857 10379.00 10392.00 117.28
13703 54.5895 10360.30 10377.20 117.29
13704 54.5933 10068.10 10363.00 114.79
13705 54.5970 10403.20 10349.60 117.71
13706 54.6008 9974.71 10336.40 115.57
13707 54.6045 10363.60 10324.00 117.28
13708 54.6083 10156.20 10311.70 115.34
13709 54.6121 10351.30 10299.80 117.01
13710 54.6158 10172.70 10288.60 116.33
13711 54.6196 10160.50 10277.60 116.04
13712 54.6233 10132.80 10267.20 116.24
13713 54.6271 10295.30 10256.80 117.39
13714 54.6309 10211.40 10246.80 115.68
13715 54.6346 10195.40 10237.40 116.50
13716 54.6384 10062.90 10228.00 117.94
13717 54.6421 10175.70 10219.20 116.94
13718 54.6459 10053.20 10210.50 114.98
13719 54.6497 10399.70 10202.00 117.42
13720 54.6534 9973.78 10193.90 114.43
13721 54.6572 10101.30 10186.30 115.59
13722 54.6609 9977.65 10178.70 114.45
13723 54.6647 10297.40 10171.20 116.77
13724 54.6685 9946.43 10163.90 115.16
13725 54.6722 10360.00 10157.10 116.91
13726 54.6760 9940.86 10150.20 114.46
13727 54.6797 10295.10 10143.70 117.57
13728 54.6835 10078.20 10137.20 115.52
13729 54.6873 10282.00 10130.90 116.97
13730 54.6910 10018.10 10124.90 114.18
13731 54.6948 10146.00 10119.00 116.24
13732 54.6985 9960.39 10113.30 115.47
13733 54.7023 10010.40 10107.70 114.59
13734 54.7061 9711.72 10102.20 113.72
13735 54.7098 9979.47 10097.00 114.62
13736 54.7136 9974.02 10091.80 115.51
13737 54.7173 10154.50 10025.50 114.35
13738 54.7211 9854.62 10021.40 114.11
13739 54.7249 10049.50 10017.30 115.81
13740 54.7286 9874.97 10013.50 113.53
13741 54.7324 10011.20 10009.70 113.43
13742 54.7361 9729.12 10006.10 115.61
13743 54.7399 10113.20 10002.40 114.56
13744 54.7437 9802.66 9998.90 113.58
13745 54.7474 9891.60 9995.55 114.06
13746 54.7512 9653.27 9992.19 112.64
13747 54.7549 9972.49 9989.00 115.00
13748 54.7587 10045.90 9985.81 114.51
13749 54.7625 9996.39 9982.70 114.46
13750 54.7662 9849.16 9979.74 113.47
13751 54.7700 10098.90 9976.78 113.75
13752 54.7737 9781.85 9973.97 112.79
13753 54.7775 9964.43 9971.16 114.09
13754 54.7813 9978.01 9968.97 114.27
13755 54.7850 10009.60 9966.37 114.93
13756 54.7888 9748.16 9963.75 113.65
13757 54.7925 10088.70 9961.27 114.66
13758 54.7963 9857.45 9958.78 114.66
13759 54.8001 9823.81 9956.34 114.04
13760 54.8038 9952.28 9954.03 114.26
13761 54.8076 10154.80 9951.84 115.16
13762 54.8113 9782.44 9949.64 111.45
13763 54.8151 10105.20 9947.42 117.02
13764 54.8189 9815.17 9945.26 113.46
13765 54.8226 9881.20 9943.20 114.92
13766 54.8264 9763.93 9941.13 112.64
13767 54.8301 9907.26 9939.16 113.62
13768 54.8339 9711.40 9937.18 112.08
13769 54.8377 10083.50 9935.25 118.60
13770 54.8414 9710.58 9933.41 113.40
13771 54.8452 9747.51 9931.56 113.05
13772 54.8489 9724.90 9929.80 113.32
13773 54.8527 9840.82 9928.03 113.88
13774 54.8565 9832.58 9926.29 113.63
13775 54.8602 9867.37 9924.64 113.20
13776 54.8640 9658.55 9922.98 113.34
13777 54.8677 9836.72 9921.40 113.57
13778 54.8715 9873.48 9861.95 114.41
13779 54.8753 10009.70 9861.12 114.96
13780 54.8790 9656.85 9860.32 111.94
13781 54.8828 9882.60 9859.53 114.46
13782 54.8865 9770.53 9858.78 113.47
13783 54.8903 9804.37 9858.02 114.01
13784 54.8941 9703.03 9857.28 113.05
13785 54.8978 9824.66 9856.58 114.37
13786 54.9016 9819.26 9855.87 113.99
13787 54.9053 10056.30 9855.20 115.59
13788 54.9091 9668.41 9854.53 112.25
13789 54.9129 9892.35 9853.87 114.33
13790 54.9166 9653.96 9853.24 113.11
13791 54.9204 9930.85 9852.62 113.95
13792 54.9241 9654.56 9795.71 112.88
13793 54.9279 9946.58 9795.82 114.24
13794 54.9317 9536.11 9795.93 109.60
13795 54.9354 10075.80 9796.03 117.84
13796 54.9392 9795.10 9796.14 114.70
13797 54.9429 9807.93 9796.25 112.63
13798 54.9467 9568.08 9796.36 111.88
13799 54.9505 9900.46 9796.47 114.33
13800 54.9542 9729.69 9796.58 113.32
13801 54.9580 9932.56 9796.70 114.28
13802 54.9617 9786.18 9796.81 114.64
13803 54.9655 9844.06 9796.93 114.44
13804 54.9693 9605.64 9803.54 112.99
13805 54.9730 9805.81 9803.74 114.32
13806 54.9768 9525.05 9803.95 112.41
13807 54.9805 9794.38 9804.15 113.01
13808 54.9843 9709.34 9804.37 113.84
13809 54.9881 9867.88 9804.59 114.77
13810 54.9918 9742.63 9804.80 112.86
13811 54.9956 9825.74 9805.03 114.46
13812 54.9993 9757.02 9805.25 113.32
13813 55.0031 9902.37 9805.49 113.96
13814 55.0069 9583.95 9805.73 112.92
13815 55.0106 9731.56 9805.97 113.57
13816 55.0144 9923.44 9806.22 115.25
13817 55.0181 9746.10 9806.47 113.57
13818 55.0219 9609.78 9806.73 112.07
13819 55.0257 9779.48 9807.00 114.01
13820 55.0294 9636.03 9807.27 112.46
13821 55.0332 9681.32 9807.55 110.94
13822 55.0369 9934.41 9807.83 117.15
13823 55.0407 10043.80 9808.13 115.77
13824 55.0445 9764.48 9808.43 113.67
13825 55.0482 9877.42 9808.73 113.98
13826 55.0520 9635.90 9809.05 112.95
13827 55.0557 9961.13 9809.37 114.96
13828 55.0595 9862.12 9809.71 114.39
13829 55.0633 9792.56 9810.06 114.18
13830 55.0670 9522.71 9810.41 112.76
13831 55.0708 9914.39 9810.79 114.92
13832 55.0745 9630.36 9811.16 113.39
13833 55.0783 9835.87 9811.56 114.20
13834 55.0821 9623.17 9811.97 113.83
13835 55.0858 9803.25 9812.38 114.43
13836 55.0896 9667.94 9812.82 113.31
13837 55.0933 9863.84 9813.27 114.89
13838 55.0971 9687.60 9813.75 113.51
13839 55.1009 9704.53 9814.24 112.48
13840 55.1046 9675.28 9814.75 113.46
13841 55.1084 9945.38 9815.28 114.64
13842 55.1121 9589.90 9815.83 112.77
13843 55.1159 9822.57 9816.42 114.21
13844 55.1197 9581.96 9824.86 112.75
13845 55.1234 9715.72 9825.59 113.17
13846 55.1272 9665.23 9826.38 113.59
13847 55.1309 9892.23 9827.18 113.18
13848 55.1347 9776.72 9828.04 116.04
13849 55.1385 9861.21 9828.96 115.90
13850 55.1422 9733.62 9829.90 113.37
13851 55.1460 9809.09 9830.92 113.87
13852 55.1497 9589.19 9831.98 112.32
13853 55.1535 9861.04 9833.14 114.60
13854 55.1572 9651.63 9838.47 112.92
13855 55.1610 9770.22 9839.84 113.73
13856 55.1648 9657.02 9841.33 113.60
13857 55.1685 10094.10 9842.88 114.77
13858 55.1723 9635.40 9844.60 112.83
13859 55.1760 9689.82 9846.43 113.48
13860 55.1798 9732.37 9848.48 113.84
13861 55.1836 9904.91 9850.73 114.43
13862 55.1873 9753.05 9853.16 113.29
13863 55.1911 9965.42 9855.93 113.64
13864 55.1948 9867.82 9858.95 114.64
13865 55.1986 9491.26 9862.46 111.43
13866 55.2024 9839.98 9866.48 113.93
13867 55.2061 9821.43 9871.02 114.57
13868 55.2099 9682.10 9876.54 113.12
13869 55.2136 9885.53 9883.00 114.85
13870 55.2174 9748.45 9891.21 113.87
13871 55.2212 9960.31 9901.58 115.01
13872 55.2249 9593.82 9914.54 112.79
13873 55.2287 9886.72 9931.79 114.72
13874 55.2324 9623.83 9953.50 111.29
13875 55.2362 10001.20 9982.09 117.65
13876 55.2400 9729.79 10018.20 114.29
13877 55.2437 9978.94 10061.00 114.43
13878 55.2475 9817.51 10112.70 112.77
13879 55.2512 9937.86 10168.00 114.67
13880 55.2550 9797.54 10224.20 112.97
13881 55.2588 9937.98 10269.10 114.93
13882 55.2625 9850.38 10290.10 114.36
13883 55.2663 9897.23 10281.40 114.50
13884 55.2700 9787.88 10247.20 113.68
13885 55.2738 9858.62 10197.30 113.46
13886 55.2776 9796.44 10144.00 114.14
13887 55.2813 9767.14 10096.00 113.47
13888 55.2851 9731.16 10054.10 113.48
13889 55.2888 9908.25 10021.30 114.53
13890 55.2926 9784.53 9995.48 113.59
13891 55.2964 9822.98 9976.84 113.43
13892 55.3001 9676.71 9964.52 112.12
13893 55.3039 9824.36 9956.80 114.20
13894 55.3076 9688.01 9953.27 112.87
13895 55.3114 10011.20 9953.07 113.83
13896 55.3152 9723.68 9955.92 114.15
13897 55.3189 9865.63 9961.33 113.91
13898 55.3227 9661.43 9969.37 112.77
13899 55.3264 9903.95 9979.33 114.74
13900 55.3302 9890.84 9991.22 114.54
13901 55.3340 9895.38 10003.80 113.60
13902 55.3377 9913.64 10015.70 117.85
13903 55.3415 10100.30 10027.00 115.46
13904 55.3452 9639.80 10038.00 112.46
13905 55.3490 10147.30 10051.80 115.54
13906 55.3527 9836.49 10070.50 113.96
13907 55.3565 9935.53 10098.00 114.42
13908 55.3603 9904.10 10136.60 114.51
13909 55.3640 10153.50 10187.10 115.81
13910 55.3678 10026.90 10254.00 114.46
13911 55.3715 10312.60 10334.70 117.27
13912 55.3753 10258.90 10432.10 116.06
13913 55.3791 10379.30 10538.30 117.53
13914 55.3828 10571.80 10637.90 118.83
13915 55.3866 10621.50 10716.30 118.80
13916 55.3903 10617.90 10749.80 118.87
13917 55.3941 10621.60 10733.70 118.54
13918 55.3979 10504.10 10679.10 118.54
13919 55.4016 10543.30 10609.40 118.22
13920 55.4054 10185.60 10537.70 116.05
13921 55.4091 10448.60 10474.30 118.08
13922 55.4129 10411.30 10415.40 117.77
13923 55.4167 10411.10 10359.10 116.97
13924 55.4204 10209.00 10305.40 117.15
13925 55.4242 10311.90 10253.40 117.78
13926 55.4279 9918.42 10208.60 114.94
13927 55.4317 10044.80 10170.50 113.17
13928 55.4355 10239.80 10140.60 119.78
13929 55.4392 10243.20 10118.90 117.33
13930 55.4430 10026.00 10103.10 114.07
13931 55.4467 10115.70 10093.10 115.62
13932 55.4505 9947.28 10087.40 114.82
13933 55.4543 10182.20 10085.60 115.35
13934 55.4580 9998.89 10087.00 115.52
13935 55.4618 10106.80 10091.20 115.83
13936 55.4655 10151.20 10097.70 116.75
13937 55.4693 10029.50 10106.70 115.30
13938 55.4730 9851.95 10117.50 114.91
13939 55.4768 10286.80 10130.90 117.84
13940 55.4806 10106.70 10146.60 115.99
13941 55.4843 10386.60 10164.40 116.46
13942 55.4881 10122.00 10185.40 115.96
13943 55.4918 10378.00 10208.90 118.51
13944 55.4956 10173.40 10236.50 117.09
13945 55.4994 10201.90 10268.30 115.92
13946 55.5031 10068.90 10303.90 116.62
13947 55.5069 10301.10 10346.00 117.18
13948 55.5106 10125.60 10393.60 115.83
13949 55.5144 10428.00 10450.80 118.45
13950 55.5182 10542.70 10518.40 118.55
13951 55.5219 10760.10 10597.40 121.05
13952 55.5257 10791.90 10696.20 118.99
13953 55.5294 11213.40 10816.00 122.84
13954 55.5332 11194.70 10972.00 121.48
13955 55.5370 11746.70 11174.70 129.60
13956 55.5407 11646.40 11432.30 125.67
13957 55.5445 12244.90 11780.60 128.80
13958 55.5482 12341.30 12223.10 129.02
13959 55.5520 13274.60 12806.90 135.90
13960 55.5558 14073.20 13543.40 139.62
13961 55.5595 15120.70 14415.10 146.95
13962 55.5633 15924.60 15456.20 151.50
13963 55.5670 17408.30 16552.60 157.40
13964 55.5708 17777.80 17629.30 158.99
13965 55.5745 18928.70 18414.90 165.30
13966 55.5783 18692.30 18715.00 163.48
13967 55.5821 18470.90 18396.50 163.12
13968 55.5858 17505.60 17603.30 158.21
13969 55.5896 16822.60 16534.80 154.24
13970 55.5933 15396.30 15454.70 146.77
13971 55.5971 14495.50 14438.00 141.53
13972 55.6009 13575.20 13569.20 136.63
13973 55.6046 13098.80 12880.90 132.99
13974 55.6084 12458.20 12322.20 129.31
13975 55.6121 11956.40 11905.10 125.79
13976 55.6159 11637.10 11582.90 125.09
13977 55.6197 11448.80 11344.50 123.16
13978 55.6234 11091.60 11173.50 121.85
13979 55.6272 11266.20 11044.40 122.96
13980 55.6309 10908.10 10952.50 119.92
13981 55.6347 10850.30 10884.10 118.68
13982 55.6384 10827.80 10837.40 121.97
13983 55.6422 10894.40 10805.90 120.79
13984 55.6460 10683.40 10788.80 118.39
13985 55.6497 10801.50 10784.50 118.32
13986 55.6535 10745.50 10792.30 118.48
13987 55.6572 10772.80 10811.70 119.66
13988 55.6610 10548.70 10844.20 117.56
13989 55.6648 10742.50 10890.70 119.02
13990 55.6685 10790.30 10951.20 118.28
13991 55.6723 11168.50 11032.00 121.57
13992 55.6760 10854.70 11133.30 119.26
13993 55.6798 11192.50 11267.20 121.65
13994 55.6836 11334.40 11441.80 122.99
13995 55.6873 11581.40 11664.30 122.67
13996 55.6911 11700.10 11965.80 124.42
13997 55.6948 12339.00 12352.90 128.24
13998 55.6986 12634.30 12875.00 130.77
13999 55.7023 13395.90 13532.20 134.83
14000 55.7061 14014.50 14388.00 138.05
14001 55.7099 15197.40 15442.90 144.78
14002 55.7136 16286.50 16658.90 150.43
14003 55.7174 18152.10 18049.10 161.47
14004 55.7211 19410.50 19419.10 165.74
14005 55.7249 20554.10 20608.40 173.64
14006 55.7287 21211.90 21291.80 176.23
14007 55.7324 21606.20 21299.30 176.57
14008 55.7362 21168.90 20713.20 177.18
14009 55.7399 20524.60 19835.10 175.16
14010 55.7437 18968.10 18913.10 163.84
14011 55.7475 18776.80 18166.10 163.53
14012 55.7512 18185.80 17691.90 159.40
14013 55.7550 18411.30 17464.50 160.36
14014 55.7587 17997.10 17424.80 159.87
14015 55.7625 18506.10 17426.10 162.32
14016 55.7662 18139.20 17291.90 159.91
14017 55.7700 18320.90 16881.90 161.54
14018 55.7738 17265.40 16197.90 156.01
14019 55.7775 16600.20 15378.50 153.17
14020 55.7813 14970.50 14514.20 143.75
14021 55.7850 14029.00 13735.20 138.42
14022 55.7888 13041.50 13042.70 132.74
14023 55.7926 12410.70 12467.00 129.01
14024 55.7963 11876.10 12014.50 126.04
14025 55.8001 11581.50 11645.50 123.62
14026 55.8038 10983.60 11363.70 119.99
14027 55.8076 10850.30 11137.70 119.63
14028 55.8113 10602.90 10964.80 118.10
14029 55.8151 10672.80 10823.80 118.32
14030 55.8189 10247.50 10710.20 115.60
14031 55.8226 10457.60 10619.10 116.37
14032 55.8264 10091.70 10540.70 115.67
14033 55.8301 10236.20 10475.70 115.75
14034 55.8339 10039.60 10418.10 113.48
14035 55.8377 10466.70 10368.00 119.63
14036 55.8414 10048.10 10325.10 115.43
14037 55.8452 9919.61 10286.10 113.56
14038 55.8489 9997.19 10252.30 113.80
14039 55.8527 9860.59 10221.30 113.02
14040 55.8564 9716.99 10194.20 112.45
14041 55.8602 9989.23 10169.10 114.84
14042 55.8640 9821.42 10146.40 112.72
14043 55.8677 9987.52 10126.30 114.51
14044 55.8715 9767.69 10107.20 112.51
14045 55.8752 9888.60 10090.50 114.08
14046 55.8790 9812.26 10074.70 113.41
14047 55.8828 10185.30 10060.30 115.74
14048 55.8865 9764.72 10047.30 113.07
14049 55.8903 9837.85 10035.00 113.11
14050 55.8940 9711.63 10023.90 113.04
14051 55.8978 9957.78 10013.30 114.07
14052 55.9015 9633.57 10003.70 111.90
14053 55.9053 9851.96 9994.56 113.43
14054 55.9091 9783.77 9986.01 112.96
14055 55.9128 9537.64 9978.23 111.58
14056 55.9166 9772.87 9970.75 113.44
14057 55.9203 9800.35 9963.92 112.90
14058 55.9241 9786.54 9957.32 114.06
14059 55.9278 9827.16 9951.29 113.80
14060 55.9316 9563.62 9945.44 110.36
14061 55.9354 9825.63 9939.94 113.68
14062 55.9391 9848.25 9934.87 116.63
14063 55.9429 9776.10 9929.96 113.66
14064 55.9466 9686.63 9925.42 112.47
14065 55.9504 9804.38 9920.98 112.61
14066 55.9542 9741.61 9916.79 112.95
14067 55.9579 9711.17 9912.93 113.18
14068 55.9617 9617.46 9909.15 112.02
14069 55.9654 9874.64 9905.65 113.70
14070 55.9692 9619.94 9902.23 112.03
14071 55.9729 9819.25 9899.05 114.08
14072 55.9767 9754.73 9895.94 113.38
14073 55.9805 9879.22 9892.97 113.96
14074 55.9842 9605.99 9890.20 112.39
14075 55.9880 9827.40 9887.49 113.97
14076 55.9917 9485.99 9884.95 110.94
14077 55.9955 9868.24 9882.46 113.64
14078 55.9993 9526.50 9879.50 111.83
14079 56.0030 9717.24 9877.28 113.15
14080 56.0068 9565.60 9875.09 112.24
14081 56.0105 9778.27 9873.04 113.73
14082 56.0143 9609.24 9871.02 111.89
14083 56.0180 9890.79 9869.12 114.61
14084 56.0218 9852.66 9867.25 113.40
14085 56.0256 9762.27 9865.32 113.18
14086 56.0293 9552.58 9863.63 112.04
14087 56.0331 9716.37 9861.96 112.04
14088 56.0368 9807.96 9860.39 115.70
14089 56.0406 9903.61 9858.83 115.89
14090 56.0443 9676.77 9857.37 112.76
14091 56.0481 9846.04 9855.92 114.05
14092 56.0519 9708.27 9854.52 113.24
14093 56.0556 10029.70 9853.20 114.95
14094 56.0594 9572.91 9851.88 112.03
14095 56.0631 9667.71 9850.65 112.51
14096 56.0669 9626.72 9849.42 112.68
14097 56.0706 9589.65 9848.26 112.11
14098 56.0744 9734.29 9847.11 113.41
14099 56.0782 9775.97 9845.99 113.93
14100 56.0819 9546.90 9844.93 111.22
14101 56.0857 9689.68 9843.88 112.56
14102 56.0894 9711.63 9842.88 113.21
14103 56.0932 9788.45 9841.89 113.36
14104 56.0969 9593.20 9840.95 112.50
14105 56.1007 9838.85 9840.01 113.73
14106 56.1045 9597.20 9839.10 112.48
14107 56.1082 9795.60 9838.23 113.16
14108 56.1120 9743.99 9837.37 112.06
14109 56.1157 9719.54 9836.55 113.47
14110 56.1195 9729.84 9835.73 113.52
14111 56.1233 9761.41 9834.94 113.34
14112 56.1270 9625.97 9834.18 112.36
14113 56.1308 9730.27 9833.42 113.02
14114 56.1345 9773.25 9832.70 110.65
14115 56.1383 9809.55 9831.98 114.19
14116 56.1420 9613.23 9831.30 113.35
14117 56.1458 9690.99 9830.61 112.00
14118 56.1496 9560.86 9829.95 111.43
14119 56.1533 9733.87 9829.31 113.11
14120 56.1571 9605.57 9828.67 112.40
14121 56.1608 9734.87 9828.06 112.54
14122 56.1646 9611.58 9827.45 112.01
14123 56.1683 9722.66 9826.87 113.33
14124 56.1721 9469.64 9826.29 110.97
14125 56.1759 9826.63 9825.71 113.57
14126 56.1796 9673.36 9825.17 112.36
14127 56.1834 9738.52 9824.62 113.46
14128 56.1871 9524.26 9824.10 112.02
14129 56.1909 9748.16 9817.15 113.44
14130 56.1946 9727.05 9816.72 112.91
14131 56.1984 9657.57 9816.30 112.73
14132 56.2022 9652.40 9815.88 112.91
14133 56.2059 9583.81 9815.48 112.58
14134 56.2097 9388.26 9815.08 110.51
14135 56.2134 9778.38 9814.69 113.29
14136 56.2172 9643.28 9814.30 112.80
14137 56.2209 9643.05 9813.93 112.32
14138 56.2247 9574.12 9813.56 112.61
14139 56.2285 9799.54 9813.20 113.85
14140 56.2322 9476.48 9812.84 111.10
14141 56.2360 9650.82 9812.49 111.89
14142 56.2397 9509.89 9812.15 113.60
14143 56.2435 9858.69 9811.81 113.96
14144 56.2472 9542.09 9811.48 111.39
14145 56.2510 9689.79 9811.15 112.33
14146 56.2548 9583.54 9810.83 112.25
14147 56.2585 9680.12 9810.51 112.82
14148 56.2623 9527.41 9810.20 112.04
14149 56.2660 9765.82 9809.90 111.87
14150 56.2698 9427.79 9809.59 111.25
14151 56.2735 9639.03 9809.30 112.83
14152 56.2773 9780.90 9809.00 113.62
14153 56.2811 9542.13 9808.71 112.40
14154 56.2848 9519.74 9808.43 111.69
14155 56.2886 9675.33 9808.14 112.63
14156 56.2923 9517.63 9807.87 111.60
14157 56.2961 9729.43 9807.59 112.88
14158 56.2998 9509.42 9807.33 112.16
14159 56.3036 9789.05 9807.06 112.89
14160 56.3074 9588.79 9806.79 112.69
14161 56.3111 9653.29 9806.53 112.22
14162 56.3149 9609.33 9806.28 112.09
14163 56.3186 9721.44 9806.03 113.71
14164 56.3224 9426.09 9805.77 111.39
14165 56.3261 9925.65 9805.53 114.77
14166 56.3299 9406.82 9805.28 110.94
14167 56.3336 9596.93 9805.04 110.79
14168 56.3374 9644.60 9804.80 113.36
14169 56.3412 9727.86 9804.56 114.71
14170 56.3449 9700.12 9796.63 112.64
14171 56.3487 9605.11 9796.49 111.77
14172 56.3524 9481.89 9796.35 111.06
14173 56.3562 9518.25 9796.21 111.72
14174 56.3599 9586.16 9796.08 112.70
14175 56.3637 9815.09 9795.94 114.34
14176 56.3675 9449.30 9795.80 110.60
14177 56.3712 9602.58 9795.67 112.66
14178 56.3750 9427.85 9795.54 110.66
14179 56.3787 9661.29 9795.40 112.62
14180 56.3825 9569.31 9791.20 111.45
14181 56.3862 9632.17 9791.12 112.61
14182 56.3900 9609.61 9791.04 111.70
14183 56.3938 9723.50 9790.95 112.87
14184 56.3975 9684.00 9790.87 112.98
14185 56.4013 9687.45 9790.78 112.76
14186 56.4050 9478.21 9790.69 112.20
14187 56.4088 9599.41 9790.61 111.60
14188 56.4125 9631.69 9790.52 111.77
14189 56.4163 9588.97 9790.43 111.86
14190 56.4200 9382.94 9790.35 110.76
14191 56.4238 9810.72 9790.26 114.61
14192 56.4276 9503.88 9790.17 112.40
14193 56.4313 9800.74 9790.08 113.01
14194 56.4351 9440.56 9789.99 110.27
14195 56.4388 9950.31 9789.90 117.65
14196 56.4426 9752.17 9789.81 114.44
14197 56.4463 9842.45 9789.72 113.64
14198 56.4501 9719.85 9789.62 112.72
14199 56.4539 9617.67 9789.53 112.28
14200 56.4576 9602.44 9789.44 112.60
14201 56.4614 9630.99 9789.35 112.78
14202 56.4651 9505.13 9789.25 111.61
14203 56.4689 9629.23 9789.16 112.58
14204 56.4726 9605.68 9789.07 112.08
14205 56.4764 9704.76 9858.07 112.88
14206 56.4801 9682.50 9858.80 112.64
14207 56.4839 9591.52 9859.57 112.63
14208 56.4877 9536.67 9860.35 112.08
14209 56.4914 9724.63 9861.13 113.54
14210 56.4952 9668.99 9861.95 112.83
14211 56.4989 9664.09 9862.76 112.36
14212 56.5027 9651.09 9863.61 112.71
14213 56.5064 9771.78 9864.45 112.89
14214 56.5102 9434.62 9865.34 111.12
14215 56.5139 9636.64 9866.21 112.12
14216 56.5177 9804.91 9867.14 113.38
14217 56.5215 9819.30 9868.08 114.39
14218 56.5252 9705.15 9869.02 113.56
14219 56.5290 9698.85 9870.00 113.07
14220 56.5327 9503.19 9870.97 110.05
14221 56.5365 9929.36 9910.33 115.68
14222 56.5402 9659.21 9911.80 114.10
14223 56.5440 9709.39 9913.35 112.44
14224 56.5478 9781.26 9914.93 113.07
14225 56.5515 9700.08 9916.51 112.50
14226 56.5553 9753.42 9918.15 113.03
14227 56.5590 9909.05 9919.79 114.03
14228 56.5628 9509.90 9921.51 111.25
14229 56.5665 9800.59 9923.22 113.40
14230 56.5703 9729.41 9925.01 113.08
14231 56.5740 9905.20 9926.80 114.39
14232 56.5778 9619.49 9928.67 112.51
14233 56.5816 10005.90 9930.59 114.46
14234 56.5853 9693.85 9932.49 112.55
14235 56.5891 9726.29 9934.49 112.58
14236 56.5928 9582.40 9936.49 112.21
14237 56.5966 9960.42 9938.58 113.94
14238 56.6003 9718.88 9940.66 112.54
14239 56.6041 9736.00 9942.85 112.54
14240 56.6078 9540.56 9945.03 111.40
14241 56.6116 9841.86 9947.32 113.64
14242 56.6154 9579.93 9949.67 111.62
14243 56.6191 9839.00 9952.01 114.46
14244 56.6229 9673.86 9954.46 112.85
14245 56.6266 9718.88 9956.91 112.98
14246 56.6304 9825.98 9959.49 113.76
14247 56.6341 9848.93 9962.06 111.30
14248 56.6379 9897.27 9964.77 114.83
14249 56.6416 9875.30 9967.46 115.82
14250 56.6454 9731.49 9970.30 112.64
14251 56.6492 9835.11 9973.21 113.08
14252 56.6529 9724.37 9976.12 112.93
14253 56.6567 9825.43 9979.18 113.09
14254 56.6604 9669.33 9982.24 112.58
14255 56.6642 9774.00 9985.45 113.19
14256 56.6679 9478.24 9988.67 111.29
14257 56.6717 10123.10 9992.06 115.68
14258 56.6754 9909.01 9995.45 113.65
14259 56.6792 9754.95 9999.01 112.26
14260 56.6829 9643.74 10002.60 112.15
14261 56.6867 9810.80 10006.30 113.09
14262 56.6905 9729.79 10010.20 112.96
14263 56.6942 9678.38 10014.10 112.67
14264 56.6980 9699.52 10018.20 112.63
14265 56.7017 9699.73 10022.30 110.97
14266 56.7055 9668.18 10026.60 111.88
14267 56.7092 9962.15 10030.90 114.88
14268 56.7130 9628.15 10035.50 111.95
14269 56.7167 10081.10 10040.10 115.89
14270 56.7205 9728.96 10044.90 113.31
14271 56.7243 9656.00 10049.90 112.79
14272 56.7280 9673.63 10054.90 112.69
14273 56.7318 9766.72 10060.20 112.07
14274 56.7355 9648.71 10065.50 110.96
14275 56.7393 9915.91 10071.10 116.11
14276 56.7430 10013.60 10076.70 114.31
14277 56.7468 9734.09 10082.70 112.37
14278 56.7505 9807.39 10088.70 112.76
14279 56.7543 9919.01 10095.00 113.85
14280 56.7580 9769.60 10101.40 112.93
14281 56.7618 9846.13 10108.20 113.52
14282 56.7656 9869.93 10115.20 113.24
14283 56.7693 10015.00 10122.20 114.51
14284 56.7731 9804.47 10129.70 113.43
14285 56.7768 10011.00 10137.20 114.47
14286 56.7806 9830.26 10145.20 114.17
14287 56.7843 10075.20 10153.20 113.28
14288 56.7881 10080.90 10161.80 115.29
14289 56.7918 9915.21 10170.40 113.84
14290 56.7956 9901.29 10179.60 113.93
14291 56.7993 10165.40 10188.90 115.05
14292 56.8031 9963.68 10198.70 114.04
14293 56.8069 10047.30 10209.00 115.19
14294 56.8106 9926.22 10219.30 113.89
14295 56.8144 10150.50 10230.30 115.00
14296 56.8181 9982.99 10241.50 115.23
14297 56.8219 10025.30 10253.40 114.18
14298 56.8256 9981.31 10265.40 113.85
14299 56.8294 10025.80 10278.30 114.96
14300 56.8331 9939.19 10291.30 113.06
14301 56.8369 10088.30 10305.30 114.21
14302 56.8406 10032.80 10319.40 116.59
14303 56.8444 10283.20 10334.50 117.06
14304 56.8482 10078.50 10350.30 114.00
14305 56.8519 10217.60 10366.40 115.37
14306 56.8557 10192.40 10383.60 115.14
14307 56.8594 10359.40 10401.10 117.04
14308 56.8632 10113.30 10419.90 114.90
14309 56.8669 10274.80 10439.00 116.81
14310 56.8707 10358.80 10459.60 117.34
14311 56.8744 10409.10 10480.60 117.17
14312 56.8782 10437.00 10503.30 117.57
14313 56.8819 10304.60 10526.40 116.51
14314 56.8857 10202.00 10551.30 115.73
14315 56.8895 10303.10 10577.50 116.86
14316 56.8932 10487.10 10604.40 117.36
14317 56.8970 10389.60 10633.40 117.75
14318 56.9007 10477.50 10663.20 117.27
14319 56.9045 10517.60 10695.50 118.48
14320 56.9082 10494.40 10728.60 117.75
14321 56.9120 10615.10 10764.70 118.83
14322 56.9157 10518.00 10801.70 118.49
14323 56.9195 10571.70 10842.10 116.65
14324 56.9232 10397.10 10883.80 117.56
14325 56.9270 10624.90 10929.10 118.63
14326 56.9307 10649.40 10976.20 118.96
14327 56.9345 10665.40 11027.50 117.43
14328 56.9383 10670.70 11082.30 120.48
14329 56.9420 11075.90 11139.20 121.74
14330 56.9458 10799.50 11201.70 119.62
14331 56.9495 10960.60 11266.70 120.49
14332 56.9533 10945.60 11338.50 120.74
14333 56.9570 11062.00 11413.50 120.98
14334 56.9608 11242.60 11496.20 122.91
14335 56.9645 11311.90 11583.20 122.94
14336 56.9683 11080.90 11679.60 121.12
14337 56.9720 11292.70 11781.20 122.83
14338 56.9758 11369.20 11894.30 123.02
14339 56.9795 11362.40 12014.10 122.65
14340 56.9833 11479.10 12148.00 124.47
14341 56.9871 11954.40 12294.80 126.75
14342 56.9888 11670.70 12364.80 125.70
14343 56.9925 12093.10 12527.80 127.58
14344 56.9963 12104.00 12712.20 128.15
14345 57.0000 12345.40 12910.20 129.21
14346 57.0038 12567.40 13135.50 130.72
14347 57.0076 12897.80 13386.60 133.74
14348 57.0113 12863.80 13658.70 133.44
14349 57.0151 13398.60 13972.60 136.05
14350 57.0188 13487.30 14316.10 134.45
14351 57.0226 14179.00 14715.50 141.88
14352 57.0263 14639.20 15157.60 144.76
14353 57.0301 14952.30 15677.90 143.98
14354 57.0338 15394.70 16262.20 146.63
14355 57.0376 16260.60 16962.30 151.29
14356 57.0414 16967.20 17790.00 155.31
14357 57.0451 18304.60 18757.50 162.28
14358 57.0489 19393.60 19969.80 167.58
14359 57.0526 21589.50 21441.70 178.84
14360 57.0564 22912.60 23358.30 185.44
14361 57.0601 25910.60 25763.90 199.75
14362 57.0639 28625.80 28967.30 211.95
14363 57.0676 32603.70 33018.20 228.06
14364 57.0714 38148.60 38367.70 251.11
14365 57.0752 44894.70 45145.80 277.05
14366 57.0789 52538.60 53294.60 307.01
14367 57.0827 63753.20 63267.40 344.53
14368 57.0864 74845.50 74272.10 382.20
14369 57.0902 87791.50 86105.80 423.28
14370 57.0939 98007.20 96576.70 455.39
14371 57.0977 107243.00 103895.00 484.35
14372 57.1014 106787.00 105636.00 481.65
14373 57.1052 104645.00 101424.00 480.11
14374 57.1090 93102.00 92732.30 442.57
14375 57.1127 83826.30 82376.40 412.78
14376 57.1165 72635.40 71827.70 376.66
14377 57.1202 63647.70 62825.10 338.34
14378 57.1240 55286.00 55436.40 318.53
14379 57.1277 51585.10 50249.10 308.05
14380 57.1315 47433.70 46988.90 286.70
14381 57.1352 46467.00 45758.90 282.50
14382 57.1390 45850.20 46369.30 281.59
14383 57.1428 48987.20 48708.10 292.08
14384 57.1465 51975.90 52395.20 304.44
14385 57.1503 56577.90 57191.20 320.82
14386 57.1540 60396.60 62079.90 334.39
14387 57.1578 65869.00 66111.60 353.87
14388 57.1615 66506.50 67701.00 354.04
14389 57.1653 65266.00 66075.20 348.61
14390 57.1690 60212.40 61603.40 333.07
14391 57.1728 54214.70 55225.70 311.41
14392 57.1766 46513.80 48344.00 284.08
14393 57.1803 40187.30 41990.70 259.73
14394 57.1841 33630.20 36256.80 232.69
14395 57.1878 29833.70 31574.30 213.29
14396 57.1916 25571.10 27661.60 196.50
14397 57.1953 23282.50 24634.70 187.68
14398 57.1991 20478.00 22196.90 172.87
14399 57.2028 18995.20 20350.80 166.90
14400 57.2066 17543.80 18871.30 158.96
14401 57.2103 16703.40 17738.40 154.45
14402 57.2141 15122.90 16807.80 145.55
14403 57.2173 15123.30 16161.80 142.68
14404 57.2211 14629.20 15518.30 139.45
14405 57.2248 14195.20 14989.60 137.38
14406 57.2286 13700.70 14525.70 134.49
14407 57.2323 12958.90 14134.20 129.27
14408 57.2361 13310.70 13783.20 132.22
14409 57.2398 12677.80 13481.90 130.99
14410 57.2436 12778.80 13207.70 129.07
14411 57.2473 12205.60 12969.90 124.87
14412 57.2511 12146.80 12750.90 124.29
14413 57.2548 11955.00 12559.40 123.89
14414 57.2586 12043.00 12381.80 124.01
14415 57.2624 11536.30 12221.10 121.82
14416 57.2661 11723.60 12078.70 122.80
14417 57.2699 11302.30 11945.40 120.17
14418 57.2736 11273.30 11826.50 120.15
14419 57.2774 11124.90 11714.60 118.59
14420 57.2811 11294.90 11614.30 120.33
14421 57.2849 11011.70 11519.30 118.68
14422 57.2886 11116.40 11433.80 117.98
14423 57.2924 10984.30 11352.50 118.02
14424 57.2961 11167.30 11278.90 119.13
14425 57.2999 10865.90 11208.60 117.60
14426 57.3036 10944.20 11144.90 118.14
14427 57.3074 10496.70 11083.70 114.95
14428 57.3111 10998.30 11028.00 117.28
14429 57.3149 10804.70 10974.50 118.28
14430 57.3187 10799.40 10924.20 116.13
14431 57.3224 10679.00 10878.40 116.98
14432 57.3262 10747.00 10833.90 116.78
14433 57.3299 10513.60 10793.30 115.07
14434 57.3337 10655.80 10753.80 114.80
14435 57.3374 10575.80 10717.60 118.30
14436 57.3412 10556.80 10682.40 116.35
14437 57.3449 10491.80 10650.00 114.90
14438 57.3487 10453.50 10618.40 114.45
14439 57.3524 10355.00 10589.30 113.78
14440 57.3562 10428.60 10560.80 115.17
14441 57.3599 10195.50 10534.50 113.92
14442 57.3637 10607.00 10508.80 116.70
14443 57.3675 10275.80 10484.40 114.24
14444 57.3712 10567.90 10461.70 115.83
14445 57.3750 10339.30 10439.50 114.89
14446 57.3787 10349.50 10418.80 114.53
14447 57.3825 10294.10 10398.50 113.89
14448 57.3862 10452.50 10379.70 115.25
14449 57.3900 10258.40 10361.20 113.71
14450 57.3937 10360.90 10343.90 114.95
14451 57.3975 10287.60 10326.90 113.70
14452 57.4012 10283.30 10311.10 114.03
14453 57.4050 10232.00 10295.40 113.64
14454 57.4087 10163.80 10280.80 112.94
14455 57.4125 9998.04 10266.40 111.91
14456 57.4163 10542.40 10252.60 115.98
14457 57.4200 10157.20 10239.60 113.79
14458 57.4238 10317.80 10226.80 114.48
14459 57.4275 10191.60 10214.80 114.49
14460 57.4313 10019.90 10202.90 112.56
14461 57.4350 9955.19 10191.80 111.53
14462 57.4388 10379.20 10180.80 117.01
14463 57.4425 10107.90 10170.40 113.24
14464 57.4463 10167.30 10160.10 113.17
14465 57.4500 10197.60 10150.50 113.05
14466 57.4538 10159.10 10140.90 113.34
14467 57.4575 10037.50 10131.90 112.18
14468 57.4613 10168.40 10123.00 113.79
14469 57.4651 10039.10 10114.30 113.14
14470 57.4688 10288.50 10106.20 114.72
14471 57.4726 10007.90 10098.10 112.11
14472 57.4763 10252.10 10090.40 113.82
14473 57.4801 9841.92 10082.80 111.01
14474 57.4838 10159.50 10075.60 113.82
14475 57.4876 10062.70 10068.50 112.74
14476 57.4913 10047.00 10061.70 112.37
14477 57.4951 10081.60 10055.00 112.63
14478 57.4988 10187.80 10048.70 113.88
14479 57.5026 10036.80 10042.30 112.61
14480 57.5064 10004.10 10036.20 113.14
14481 57.5101 10043.50 10030.40 112.70
14482 57.5139 10185.70 10024.60 114.33
14483 57.5176 10126.90 10019.10 113.22
14484 57.5214 10033.50 10013.60 112.63
14485 57.5251 10071.50 10008.40 113.17
14486 57.5289 10132.20 10003.20 113.39
14487 57.5326 9847.81 9998.27 109.39
14488 57.5364 10170.20 9993.34 115.61
14489 57.5401 10103.10 9988.67 114.09
14490 57.5439 10030.90 9984.00 112.69
14491 57.5477 9951.81 9979.44 111.17
14492 57.5514 10154.40 9975.12 113.11
14493 57.5552 9906.20 9970.79 112.06
14494 57.5589 10137.70 9966.68 113.24
14495 57.5627 9831.73 9962.56 111.64
14496 57.5664 9953.89 9958.65 112.54
14497 57.5702 10135.10 9954.73 113.17
14498 57.5739 10096.60 9950.99 112.47
14499 57.5777 9932.47 9947.26 112.39
14500 57.5814 9929.75 9943.70 112.53
14501 57.5852 9641.46 9940.13 110.49
14502 57.5890 9857.55 9936.64 111.90
14503 57.5927 9913.59 9933.33 111.01
14504 57.5965 9916.44 9929.99 111.64
14505 57.6002 9854.21 9926.82 112.06
14506 57.6040 10034.30 9923.63 112.43
14507 57.6077 9780.14 9920.69 110.69
14508 57.6115 10045.50 9917.64 111.85
14509 57.6152 9860.40 9914.74 112.67
14510 57.6227 9769.59 9909.02 111.04
14511 57.6265 10174.40 9906.22 113.99
14512 57.6303 9699.03 9903.79 110.76
14513 57.6340 9882.54 9901.18 110.00
14514 57.6378 9989.32 9898.55 114.45
14515 57.6415 10097.50 9896.04 113.89
14516 57.6453 9842.49 9893.50 111.48
14517 57.6490 9987.73 9891.09 111.76
14518 57.6528 9898.48 9888.66 110.98
14519 57.6565 9950.26 9886.34 111.54
14520 57.6603 9869.39 9884.00 112.23
14521 57.6641 10024.60 9881.70 112.61
14522 57.6678 9949.70 9879.51 112.10
14523 57.6716 10070.70 9877.30 113.26
14524 57.6753 9642.06 9875.19 110.56
14525 57.6791 9774.90 9873.05 112.53
14526 57.6828 9742.05 9871.02 111.57
14527 57.6866 9908.35 9868.96 112.91
14528 57.6903 9718.21 9867.00 111.77
14529 57.6941 9773.92 9865.01 112.03
14530 57.6979 9925.88 9863.06 113.03
14531 57.7016 9951.64 9861.20 113.64
14532 57.7054 9508.54 9859.31 110.41
14533 57.7091 9744.68 9857.51 111.44
14534 57.7129 9715.13 9855.69 111.28
14535 57.7166 9856.46 9853.95 112.68
14536 57.7204 9637.96 9852.19 110.95
14537 57.7241 9875.12 9850.50 112.90
14538 57.7279 9560.57 9780.32 110.79
14539 57.7317 9865.42 9779.47 112.22
14540 57.7354 9611.68 9778.65 110.44
14541 57.7392 10041.10 9777.82 115.14
14542 57.7429 9762.18 9777.02 112.17
14543 57.7467 9791.87 9776.21 111.37
14544 57.7504 9429.41 9775.44 110.01
14545 57.7542 9819.03 9774.66 111.99
14546 57.7579 9600.61 9773.90 110.60
14547 57.7617 9664.92 9773.14 111.28
14548 57.7655 9800.61 9772.38 111.71
14549 57.7692 9750.80 9771.66 111.78
14550 57.7730 9702.41 9770.92 111.62
14551 57.7767 9695.93 9770.22 111.41
14552 57.7805 9811.50 9769.50 112.68
14553 57.7842 9998.71 9768.82 113.79
14554 57.7880 9583.10 9768.12 110.62
14555 57.7917 9825.37 9729.45 112.24
14556 57.7955 9774.83 9729.23 112.17
14557 57.7993 9785.63 9729.00 111.10
14558 57.8030 9548.50 9728.79 110.71
14559 57.8068 9713.52 9728.57 111.87
14560 57.8105 9603.83 9728.35 110.88
14561 57.8143 9787.22 9728.13 111.70
14562 57.8180 9815.81 9727.92 112.63
14563 57.8218 9707.27 9727.70 111.67
14564 57.8255 9692.03 9727.49 111.89
14565 57.8293 9792.31 9727.28 111.86
14566 57.8331 9708.77 9727.06 110.04
14567 57.8368 9648.50 9726.86 112.21
14568 57.8406 9783.92 9726.65 114.50
14569 57.8443 9792.99 9726.45 112.15
14570 57.8481 9793.32 9726.24 111.88
14571 57.8518 9798.44 9726.04 112.07
14572 57.8556 9664.67 9725.84 111.18
14573 57.8593 9655.78 9725.65 111.43
14574 57.8631 9622.94 9725.46 111.45
14575 57.8669 9864.06 9725.27 112.76
14576 57.8706 9621.59 9725.09 111.25
14577 57.8744 9794.71 9724.91 112.33
14578 57.8781 9671.90 9724.74 111.70
14579 57.8819 9823.62 9724.56 112.85
14580 57.8856 9723.21 9724.40 111.90
14581 57.8894 9835.95 9724.24 112.68
14582 57.8932 9643.15 9724.09 111.43
14583 57.8969 9958.69 9723.95 114.31
14584 57.9007 9630.07 9723.82 111.54
14585 57.9044 9648.95 9723.70 111.67
14586 57.9082 9649.25 9723.58 111.41
14587 57.9119 9793.95 9723.49 112.20
14588 57.9157 9494.96 9723.40 110.82
14589 57.9194 9903.89 9723.33 113.51
14590 57.9232 9746.88 9723.28 112.87
14591 57.9270 9988.22 9723.25 114.52
14592 57.9307 9710.02 9723.25 112.02
14593 57.9345 9735.47 9723.27 110.53
14594 57.9382 9643.07 9723.33 113.95
14595 57.9420 9865.36 9723.43 113.71
14596 57.9457 9568.08 9723.57 110.90
14597 57.9495 9901.32 9723.77 112.80
14598 57.9533 9558.96 9724.04 111.39
14599 57.9570 9868.91 9724.38 112.85
14600 57.9608 9813.44 9724.84 113.48
14601 57.9645 10020.60 9725.41 113.92
14602 57.9683 9580.19 9726.17 112.05
14603 57.9720 9757.30 9727.15 112.86
14604 57.9758 9631.10 9728.46 111.82
14605 57.9795 9876.20 9730.17 113.21
14606 57.9833 9582.85 9732.50 110.87
14607 57.9871 9870.85 9735.62 113.44
14608 57.9908 9583.13 9739.60 110.86
14609 57.9946 9849.76 9744.90 113.16
14610 57.9983 9604.91 9751.42 112.10
14611 58.0021 9861.81 9759.62 112.89
14612 58.0058 9637.25 9769.02 112.49
14613 58.0096 9841.50 9779.74 112.50
14614 58.0134 9864.27 9790.57 112.64
14615 58.0171 9848.37 9799.46 113.69
14616 58.0209 9581.23 9804.67 111.19
14617 58.0246 9846.26 9804.25 113.88
14618 58.0284 9689.44 9798.27 112.43
14619 58.0321 9823.26 9788.80 112.56
14620 58.0359 9630.68 9777.55 111.54
14621 58.0397 9931.96 9766.53 116.71
14622 58.0434 9746.20 9756.88 113.46
14623 58.0472 9873.88 9748.46 113.05
14624 58.0509 9564.86 9741.72 110.81
14625 58.0547 9723.20 9736.18 112.56
14626 58.0584 9637.30 9731.94 111.77
14627 58.0622 9641.26 9728.56 112.09
14628 58.0659 9564.65 9726.01 111.53
14629 58.0697 9739.12 9723.97 112.64
14630 58.0735 9780.76 9722.36 113.24
14631 58.0772 9778.55 9721.12 113.19
14632 58.0810 9856.89 9720.07 114.16
14633 58.0847 9903.19 9719.24 113.73
14634 58.0885 9631.18 9718.52 111.31
14635 58.0922 9695.10 9717.94 112.13
14636 58.0960 9711.85 9717.43 112.70
14637 58.0998 9876.53 9717.01 113.36
14638 58.1035 9780.11 9716.68 112.31
14639 58.1073 9968.76 9716.40 113.72
14640 58.1110 9741.27 9716.20 111.65
14641 58.1148 9751.83 9716.04 111.92
14642 58.1185 9800.45 9715.95 113.11
14643 58.1223 9759.76 9715.91 112.79
14644 58.1261 9708.76 9715.94 112.72
14645 58.1298 9545.52 9716.02 111.45
14646 58.1336 9671.88 9716.16 110.95
14647 58.1373 9830.37 9716.37 112.98
14648 58.1411 9547.80 9716.65 112.78
14649 58.1448 9743.72 9717.01 112.59
14650 58.1486 9649.98 9717.46 111.57
14651 58.1524 9886.70 9718.00 112.83
14652 58.1561 9606.40 9718.64 111.95
14653 58.1599 9788.64 9719.41 112.36
14654 58.1636 9695.12 9720.30 111.34
14655 58.1674 9887.31 9721.37 112.58
14656 58.1711 9456.26 9722.60 110.00
14657 58.1749 9835.13 9724.07 111.99
14658 58.1787 9572.06 9725.81 110.85
14659 58.1824 9836.69 9727.81 112.74
14660 58.1862 9537.98 9730.25 110.75
14661 58.1899 9802.09 9733.10 111.65
14662 58.1937 9707.79 9736.64 111.69
14663 58.1974 9656.02 9740.88 111.35
14664 58.2012 9799.88 9746.28 112.50
14665 58.2050 9677.73 9753.08 111.67
14666 58.2087 9535.32 9761.42 110.88
14667 58.2125 9844.40 9772.28 112.04
14668 58.2162 9490.45 9785.60 109.42
14669 58.2200 9931.43 9802.79 113.16
14670 58.2237 9628.58 9823.49 111.04
14671 58.2275 9809.88 9849.41 112.74
14672 58.2313 9854.50 9880.06 112.07
14673 58.2350 9971.05 9913.86 112.24
14674 58.2388 9895.98 9950.80 113.68
14675 58.2425 10124.90 9986.80 115.49
14676 58.2463 9884.33 10022.40 112.42
14677 58.2500 10073.40 10056.70 112.92
14678 58.2538 9940.91 10093.00 112.60
14679 58.2576 10303.60 10129.80 114.85
14680 58.2613 10011.50 10161.10 113.70
14681 58.2651 10253.20 10179.40 115.03
14682 58.2688 10126.40 10174.70 113.70
14683 58.2726 10303.50 10144.50 115.64
14684 58.2763 10044.10 10096.40 114.36
14685 58.2801 10169.00 10038.50 114.16
14686 58.2839 10003.20 9980.82 113.07
14687 58.2876 9939.62 9929.79 113.06
14688 58.2914 9763.39 9884.91 111.88
14689 58.2951 9945.56 9848.77 112.93
14690 58.2989 9703.42 9818.91 110.97
14691 58.3026 9760.66 9795.92 110.97
14692 58.3064 9614.36 9777.47 110.77
14693 58.3102 9678.34 9763.14 110.66
14694 58.3139 9555.99 9752.25 109.97
14695 58.3177 9799.31 9743.38 111.98
14696 58.3214 9603.48 9736.45 110.84
14697 58.3252 9900.24 9730.61 112.71
14698 58.3290 9584.81 9725.74 111.41
14699 58.3327 9736.15 9721.71 111.68
14700 58.3365 9442.70 9718.14 107.97
14701 58.3402 9726.95 9715.10 113.82
14702 58.3440 9655.98 9712.35 111.62
14703 58.3477 9762.32 9709.96 111.22
14704 58.3515 9422.63 9707.77 109.29
14705 58.3553 9831.74 9705.79 112.29
14706 58.3590 9611.08 9704.04 110.76
14707 58.3628 9689.96 9702.40 111.74
14708 58.3665 9588.07 9700.94 110.47
14709 58.3703 9749.33 9699.56 112.11
14710 58.3740 9695.52 9698.31 111.67
14711 58.3778 9812.51 9697.12 112.67
14712 58.3816 9578.84 9696.02 111.07
14713 58.3853 9932.92 9695.00 113.39
14714 58.3891 9668.21 9694.03 111.05
14715 58.3928 9729.67 9693.12 111.98
14716 58.3966 9728.77 9692.25 111.29
14717 58.4003 9709.52 9691.44 111.75
14718 58.4041 9665.68 9690.65 111.75
14719 58.4079 9782.83 9689.89 111.91
14720 58.4116 9534.20 9689.19 110.56
14721 58.4154 9669.01 9688.49 110.69
14722 58.4191 9462.87 9687.84 110.73
14723 58.4229 9827.01 9687.20 112.38
14724 58.4267 9601.46 9686.57 111.01
14725 58.4304 9912.10 9685.98 113.51
14726 58.4342 9357.00 9685.39 108.22
14727 58.4379 9725.98 9684.84 112.63
14728 58.4417 9512.76 9684.28 112.82
14729 58.4454 9777.08 9683.76 112.52
14730 58.4492 9562.83 9683.23 110.12
14731 58.4530 9872.65 9682.71 113.04
14732 58.4567 9642.32 9682.21 111.54
14733 58.4605 9613.33 9681.72 111.56
14734 58.4642 9628.30 9681.24 111.14
14735 58.4680 9705.04 9680.76 111.69
14736 58.4718 9732.03 9680.29 112.17
14737 58.4755 9872.46 9679.84 113.07
14738 58.4793 9584.33 9679.38 110.58
14739 58.4830 9883.71 9678.94 113.01
14740 58.4868 9572.39 9678.50 111.29
14741 58.4905 9759.83 9678.06 112.37
14742 58.4943 9670.74 9677.63 111.67
14743 58.4981 9640.83 9677.20 112.03
14744 58.5018 9513.63 9676.79 110.62
14745 58.5056 9813.35 9676.36 113.25
14746 58.5093 9664.86 9675.96 111.85
14747 58.5131 9722.39 9675.54 111.20
14748 58.5168 9646.92 9675.14 110.42
14749 58.5206 9677.50 9674.73 111.70
14750 58.5244 9470.22 9674.33 110.57
14751 58.5281 9647.32 9673.94 111.54
14752 58.5319 9600.71 9673.54 111.35
14753 58.5356 9598.94 9673.15 109.39
14754 58.5394 9794.60 9672.76 114.99
14755 58.5432 9812.78 9672.37 112.85
14756 58.5469 9548.44 9671.99 110.90
14757 58.5507 9683.65 9671.60 110.74
14758 58.5544 9733.39 9671.22 111.56
14759 58.5582 9643.63 9670.84 111.79
14760 58.5619 9740.00 9670.46 111.79
14761 58.5657 9719.48 9670.08 111.12
14762 58.5695 9649.37 9669.70 110.63
14763 58.5732 9626.83 9669.33 111.93
14764 58.5770 9612.23 9668.95 111.44
14765 58.5807 9689.17 9668.58 110.18
14766 58.5845 9511.43 9668.21 110.84
14767 58.5883 9637.00 9667.83 111.42
14768 58.5920 9636.72 9667.47 112.11
14769 58.5958 9649.21 9667.10 111.35
14770 58.5995 9645.61 9666.74 111.48
14771 58.6033 9810.96 9666.37 111.98
14772 58.6070 9731.08 9666.01 112.05
14773 58.6108 9635.88 9665.64 111.63
14774 58.6146 9510.33 9665.27 110.53
14775 58.6183 9625.54 9664.91 111.58
14776 58.6221 9595.60 9664.54 111.50
14777 58.6258 9783.33 9664.18 112.85
14778 58.6296 9518.80 9663.82 111.15
14779 58.6334 9602.48 9663.45 110.93
14780 58.6371 9560.71 9663.10 109.63
14781 58.6409 9668.20 9662.73 114.99
14782 58.6446 9719.65 9662.38 112.38
14783 58.6484 9643.48 9662.01 111.41
14784 58.6521 9589.94 9661.66 109.18
14785 58.6559 9602.67 9661.29 111.05
14786 58.6597 9666.04 9660.86 110.94
14787 58.6634 9716.55 9660.51 111.67
14788 58.6672 9615.45 9660.15 111.36
14789 58.6709 9824.07 9659.79 112.77
14790 58.6747 9728.98 9659.43 112.06
14791 58.6785 9789.67 9659.07 110.77
14792 58.6822 9576.14 9658.72 111.29
14793 58.6860 9642.15 9658.36 111.58
14794 58.6897 9570.86 9658.01 111.49
14795 58.6935 9647.80 9657.65 111.87
14796 58.6972 9482.00 9657.29 110.18
14797 58.7010 9670.61 9656.93 111.58
14798 58.7048 9506.12 9656.57 110.64
14799 58.7085 9637.95 9656.22 112.02
14800 58.7123 9732.86 9655.86 111.84
14801 58.7160 9594.60 9655.51 111.28
14802 58.7198 9525.65 9655.15 110.69
14803 58.7236 9519.13 9654.79 111.07
14804 58.7273 9534.95 9654.44 110.96
14805 58.7311 9578.41 9654.08 111.38
14806 58.7348 9556.55 9653.72 109.23
14807 58.7386 9706.49 9653.36 112.52
14808 58.7424 9608.19 9653.00 112.69
14809 58.7461 9689.46 9652.65 111.91
14810 58.7499 9582.51 9652.29 110.63
14811 58.7536 9617.27 9651.94 110.77
14812 58.7574 9418.38 9651.58 108.79
14813 58.7611 9704.88 9651.23 111.47
14814 58.7649 9694.75 9650.87 111.96
14815 58.7687 9684.64 9650.51 111.01
14816 58.7724 9458.08 9650.16 110.21
14817 58.7762 9773.50 9649.79 111.87
14818 58.7799 9564.30 9649.44 111.02
14819 58.7837 9713.25 9649.08 111.37
14820 58.7875 9578.90 9648.72 111.25
14821 58.7912 9749.94 9648.37 111.95
14822 58.7950 9490.11 9648.00 110.81
14823 58.7987 9686.57 9647.65 110.86
14824 58.8025 9649.49 9647.29 111.66
14825 58.8062 9504.30 9646.94 110.83
14826 58.8100 9487.15 9646.57 110.59
14827 58.8138 9802.27 9646.21 112.64
14828 58.8175 9456.68 9645.86 108.53
14829 58.8213 9860.33 9645.50 112.89
14830 58.8250 9502.46 9645.14 110.50
14831 58.8288 9725.20 9644.78 112.44
14832 58.8326 9504.35 9644.42 110.12
14833 58.8363 9901.61 9644.06 111.66
14834 58.8401 9696.51 9643.70 113.30
14835 58.8438 9742.90 9643.34 113.08
14836 58.8476 9688.05 9642.98 111.95
14837 58.8514 9786.45 9642.61 112.26
14838 58.8551 9442.85 9642.26 109.58
14839 58.8589 9736.25 9641.89 111.69
14840 58.8626 9404.99 9641.54 109.86
14841 58.8664 9769.76 9641.17 112.24
14842 58.8701 9858.12 9640.82 113.20
14843 58.8739 9622.48 9640.45 110.31
14844 58.8777 9652.44 9640.09 111.46
14845 58.8814 9480.40 9639.73 110.21
14846 58.8852 9548.29 9639.27 110.64
14847 58.8889 9688.92 9638.91 111.79
14848 58.8927 9585.74 9638.55 111.34
14849 58.8965 9792.28 9638.18 111.81
14850 58.9002 9703.88 9637.83 111.93
14851 58.9040 9610.56 9637.46 111.31
14852 58.9077 9586.57 9636.78 110.97
14853 58.9115 9689.99 9636.42 111.78
14854 58.9153 9625.36 9636.05 110.64
14855 58.9190 9667.87 9635.70 112.27
14856 58.9228 9519.10 9635.34 109.99
14857 58.9265 9837.94 9634.98 112.85
14858 58.9303 9671.25 9634.62 111.53
14859 58.9340 9607.18 9634.26 110.53
14860 58.9378 9552.02 9633.90 110.93
14861 58.9416 9881.82 9633.53 115.73
14862 58.9453 9554.12 9633.18 111.32
14863 58.9491 9682.29 9632.81 111.07
14864 58.9528 9812.68 9632.46 112.30
14865 58.9566 9705.69 9632.09 111.88
14866 58.9604 9558.80 9631.72 111.26
14867 58.9641 9862.54 9631.37 113.51
14868 58.9679 9543.69 9631.00 110.54
14869 58.9716 9865.12 9630.64 113.06
14870 58.9754 9657.74 9630.27 111.59
14871 58.9792 9770.75 9629.91 112.26
14872 58.9829 9731.81 9629.55 112.96
14873 58.9867 9608.33 9629.18 111.26
14874 58.9904 9695.14 9628.82 111.36
14875 58.9942 9804.30 9628.45 112.60
14876 58.9980 9769.55 9628.08 112.10
14877 59.0017 9630.31 9627.72 111.27
14878 59.0055 9572.61 9627.35 111.04
14879 59.0092 9625.55 9626.99 111.59
14880 59.0130 9814.67 9626.62 112.86
14881 59.0167 9903.76 9626.26 112.99
14882 59.0205 9504.94 9625.89 111.72
14883 59.0243 9845.82 9625.52 112.86
14884 59.0280 9699.59 9625.15 112.60
14885 59.0318 9748.76 9624.78 112.95
14886 59.0355 9692.33 9624.42 110.83
14887 59.0393 9669.03 9624.05 112.80
14888 59.0431 9798.16 9623.67 114.33
14889 59.0468 9776.91 9623.31 113.10
14890 59.0506 9640.45 9622.94 111.29
14891 59.0543 9926.77 9622.57 112.96
14892 59.0581 9749.97 9622.20 112.86
14893 59.0619 9811.92 9621.83 112.66
14894 59.0656 9659.46 9621.46 112.12
14895 59.0694 9774.94 9621.09 113.22
14896 59.0731 9582.45 9620.72 111.70
14897 59.0769 9913.37 9620.35 113.39
14898 59.0806 9736.94 9619.98 112.44
14899 59.0844 9835.00 9619.60 112.66
14900 59.0882 9554.45 9619.23 111.62
14901 59.0919 10045.70 9618.86 114.10
14902 59.0957 9695.64 9618.48 112.09
14903 59.0994 9619.52 9618.12 111.83
14904 59.1032 9591.50 9617.74 111.35
14905 59.1070 9863.67 9617.36 113.82
14906 59.1107 9698.92 9616.99 112.57
14907 59.1145 9804.97 9616.62 112.26
14908 59.1182 9713.98 9616.25 113.78
14909 59.1220 9911.01 9615.87 112.87
14910 59.1258 9441.51 9615.49 110.61
14911 59.1295 9882.83 9615.12 112.45
14912 59.1333 9685.63 9614.74 111.59
14913 59.1370 9933.05 9614.37 112.08
14914 59.1408 9710.83 9613.99 114.77
14915 59.1446 9858.62 9613.61 113.29
14916 59.1483 9723.51 9613.24 111.55
14917 59.1521 9822.19 9612.86 111.53
14918 59.1558 9569.94 9612.49 109.72
14919 59.1596 9880.09 9612.11 112.28
14920 59.1634 9661.19 9650.55 111.15
14921 59.1671 9711.36 9650.62 112.25
14922 59.1709 9822.93 9650.70 112.78
14923 59.1746 9686.83 9650.79 111.16
14924 59.1784 9647.97 9650.89 111.46
14925 59.1822 9551.51 9650.99 110.65
14926 59.1859 9504.02 9651.10 110.86
14927 59.1897 9840.31 9651.22 112.97
14928 59.1934 9664.65 9651.35 112.10
14929 59.1972 9724.50 9651.49 111.91
14930 59.2009 9624.53 9651.64 110.46
14931 59.2047 9738.40 9651.80 112.40
14932 59.2085 9652.73 9651.97 111.77
14933 59.2122 9797.00 9652.14 112.27
14934 59.2160 9693.79 9652.33 112.10
14935 59.2197 9646.80 9652.52 111.64
14936 59.2235 9660.59 9652.74 110.75
14937 59.2273 9763.39 9652.96 112.60
14938 59.2310 9649.96 9653.19 111.10
14939 59.2348 9820.65 9653.43 112.90
14940 59.2385 9511.58 9653.68 109.41
14941 59.2423 9875.35 9653.95 115.08
14942 59.2461 9604.19 9654.23 111.16
14943 59.2498 9536.82 9654.52 110.58
14944 59.2536 9563.93 9654.83 110.98
14945 59.2573 9815.89 9655.15 112.46
14946 59.2611 9579.77 9655.48 110.48
14947 59.2649 9673.47 9655.84 112.00
14948 59.2686 9709.84 9656.19 111.54
14949 59.2724 9799.25 9656.58 112.17
14950 59.2761 9532.11 9656.96 110.50
14951 59.2799 9892.63 9657.38 113.08
14952 59.2837 9586.28 9657.81 111.06
14953 59.2874 9594.76 9658.25 110.75
14954 59.2912 9680.60 9658.71 111.71
14955 59.2949 9889.44 9659.18 113.20
14956 59.2987 9381.70 9659.69 109.72
14957 59.3024 9834.98 9660.20 112.65
14958 59.3062 9561.47 9733.91 111.29
14959 59.3100 9929.14 9735.33 112.68
14960 59.3137 9750.40 9736.74 111.85
14961 59.3175 9794.32 9738.24 112.27
14962 59.3212 9701.78 9739.73 111.93
14963 59.3250 9904.35 9741.29 113.30
14964 59.3288 9703.27 9742.91 112.08
14965 59.3325 9623.74 9744.51 110.94
14966 59.3363 9654.75 9746.21 109.63
14967 59.3400 9883.36 9747.90 115.28
14968 59.3438 9799.18 9749.68 114.19
14969 59.3476 9884.41 9751.51 112.41
14970 59.3513 9765.77 9753.34 112.37
14971 59.3551 9937.89 9755.27 113.94
14972 59.3588 9657.08 9757.19 111.27
14973 59.3626 9921.94 9759.22 113.87
14974 59.3664 9744.30 9761.30 112.19
14975 59.3701 9911.38 9763.39 112.46
14976 59.3739 9799.55 9765.58 112.04
14977 59.3776 10050.90 9767.78 113.98
14978 59.3814 9828.89 9770.09 112.87
14979 59.3852 9921.97 9772.47 113.95
14980 59.3889 9597.83 9774.85 110.76
14981 59.3927 9822.15 9777.36 112.55
14982 59.3964 9785.79 9779.87 112.92
14983 59.4002 9788.36 9782.52 112.58
14984 59.4040 9764.54 9785.24 111.92
14985 59.4077 9921.30 9787.97 113.11
14986 59.4115 9831.93 9790.84 112.15
14987 59.4152 10042.30 9793.73 113.66
14988 59.4190 10027.80 9796.78 114.31
14989 59.4227 9756.00 9799.82 112.67
14990 59.4265 9790.56 9803.04 113.54
14991 59.4303 9832.04 9806.36 113.33
14992 59.4340 9920.48 9809.68 113.34
14993 59.4378 9794.04 9813.19 110.72
14994 59.4415 9779.45 9816.71 115.16
14995 59.4453 9904.54 9820.43 113.97
14996 59.4491 9911.21 9824.26 113.49
14997 59.4528 9941.21 9828.10 112.03
14998 59.4566 9715.21 9832.18 111.60
14999 59.4603 10004.30 9836.25 113.81
15000 59.4641 9705.16 9840.58 111.74
15001 59.4679 9970.10 9845.04 113.94
15002 59.4716 9817.35 9849.52 112.77
15003 59.4754 10063.90 9854.25 114.62
15004 59.4791 9942.21 9859.02 113.99
15005 59.4829 10006.50 9864.08 114.43
15006 59.4867 9809.86 9869.29 112.62
15007 59.4904 10003.40 9874.54 114.20
15008 59.4942 9828.32 9880.09 113.69
15009 59.4979 10226.90 9885.69 115.85
15010 59.5017 9933.30 9891.63 114.05
15011 59.5055 9978.69 9897.77 114.38
15012 59.5092 10015.00 9903.96 114.72
15013 59.5130 10185.50 9910.53 114.85
15014 59.5167 9834.60 9917.16 112.78
15015 59.5205 10262.30 9924.20 116.16
15016 59.5243 9886.04 9931.49 113.96
15017 59.5280 10233.50 9938.86 115.77
15018 59.5318 9785.83 9946.69 112.63
15019 59.5355 10128.60 9954.61 113.44
15020 59.5393 9950.62 9963.05 115.32
15021 59.5431 10127.80 9971.80 116.77
15022 59.5468 9944.20 9980.65 113.26
15023 59.5506 10244.00 9990.08 115.09
15024 59.5543 9986.40 9999.64 114.04
15025 59.5581 10125.30 10009.80 114.75
15026 59.5618 10081.80 10020.20 114.97
15027 59.5656 10136.60 10031.20 115.11
15028 59.5694 10138.70 10042.70 114.97
15029 59.5731 10319.30 10054.40 115.93
15030 59.5769 10059.00 10066.90 114.39
15031 59.5806 10222.40 10079.50 115.29
15032 59.5844 10217.80 10093.20 116.04
15033 59.5882 10276.40 10107.40 115.58
15034 59.5919 10092.40 10121.80 115.11
15035 59.5957 10397.40 10137.40 116.83
15036 59.5994 10225.50 10153.20 115.83
15037 59.6032 10320.00 10170.20 116.85
15038 59.6070 10166.40 10188.10 115.84
15039 59.6107 10362.40 10206.40 117.16
15040 59.6145 10171.50 10226.00 114.80
15041 59.6182 10427.40 10246.20 117.16
15042 59.6220 10359.40 10267.90 116.06
15043 59.6258 10481.50 10290.80 117.04
15044 59.6295 10519.30 10314.30 117.36
15045 59.6333 10488.30 10339.80 117.22
15046 59.6370 10174.70 10366.00 113.66
15047 59.6408 10698.20 10394.40 121.00
15048 59.6446 10337.00 10424.40 117.07
15049 59.6483 10582.70 10455.50 117.45
15050 59.6521 10436.60 10489.40 116.75
15051 59.6558 10621.00 10524.40 117.97
15052 59.6596 10529.20 10562.70 117.64
15053 59.6634 10689.40 10603.50 118.48
15054 59.6671 10510.20 10645.90 117.57
15055 59.6709 10969.20 10692.40 119.86
15056 59.6746 10809.90 10740.90 119.25
15057 59.6784 10804.80 10794.40 118.71
15058 59.6822 10938.00 10851.90 119.93
15059 59.6859 10933.70 10912.10 118.17
15060 59.6897 10878.90 10979.00 119.00
15061 59.6934 10908.40 11049.30 118.98
15062 59.6972 10959.70 11127.80 120.13
15063 59.7009 11268.90 11210.60 121.74
15064 59.7047 11043.00 11303.40 120.66
15065 59.7085 11377.90 11404.90 122.75
15066 59.7122 11360.00 11513.30 122.35
15067 59.7160 11722.80 11635.60 124.52
15068 59.7197 11606.90 11767.10 125.05
15069 59.7235 11981.40 11916.60 125.84
15070 59.7273 11977.00 12083.20 126.43
15071 59.7310 12166.90 12264.00 127.20
15072 59.7348 12317.50 12472.80 128.22
15073 59.7385 12720.90 12701.80 128.57
15074 59.7423 13046.70 12968.40 134.92
15075 59.7461 13491.10 13273.40 134.90
15076 59.7498 13686.50 13616.00 135.54
15077 59.7536 14377.00 14025.20 139.67
15078 59.7573 14696.40 14495.90 141.51
15079 59.7611 15529.00 15074.60 146.48
15080 59.7649 16017.40 15783.80 148.41
15081 59.7686 17150.70 16639.50 154.00
15082 59.7724 18121.10 17751.90 159.80
15083 59.7761 20000.50 19131.40 169.61
15084 59.7799 21484.10 20954.60 177.39
15085 59.7837 24058.10 23292.80 188.55
15086 59.7874 26250.80 26182.90 199.21
15087 59.7912 29835.10 29881.10 214.79
15088 59.7949 34212.90 34273.60 232.83
15089 59.7987 39468.50 39589.40 254.97
15090 59.8025 44117.20 45591.80 271.38
15091 59.8062 49925.30 51678.30 295.31
15092 59.8100 53701.90 57418.10 305.40
15093 59.8137 57141.50 61376.60 320.49
15094 59.8175 56400.20 62683.10 316.64
15095 59.8213 54956.00 60793.30 315.42
15096 59.8250 50753.60 56476.60 297.70
15097 59.8288 46319.50 50682.50 281.38
15098 59.8325 40154.50 44747.60 258.58
15099 59.8363 35856.30 39055.80 236.27
15100 59.8400 31397.50 34213.80 223.03
15101 59.8438 28902.80 30073.80 214.99
15102 59.8476 25538.50 26748.50 195.04
15103 59.8513 23591.80 24210.10 185.91
15104 59.8551 22055.80 22216.00 178.22
15105 59.8588 20881.40 20767.00 172.53
15106 59.8626 19430.90 19673.80 166.81
15107 59.8664 18980.40 18897.30 164.66
15108 59.8701 18384.20 18375.80 162.00
15109 59.8739 18430.10 18031.50 161.26
15110 59.8776 17586.60 17847.80 157.98
15111 59.8814 17902.70 17793.00 159.93
15112 59.8852 17595.80 17861.40 157.90
15113 59.8889 18024.10 18042.20 159.10
15114 59.8927 18354.80 18349.60 161.53
15115 59.8964 19151.40 18776.50 166.41
15116 59.9002 19336.50 19367.90 166.26
15117 59.9040 20260.80 20144.10 171.29
15118 59.9077 21037.90 21125.80 174.71
15119 59.9115 22436.10 22432.60 180.91
15120 59.9152 23654.00 24091.40 187.30
15121 59.9190 26843.90 26315.70 201.75
15122 59.9228 29034.30 29239.40 211.55
15123 59.9265 32748.70 32932.80 226.20
15124 59.9303 36927.80 37826.60 245.30
15125 59.9340 43649.10 43854.00 272.31
15126 59.9378 50089.80 51505.50 292.90
15127 59.9416 61030.70 60717.60 343.77
15128 59.9453 70012.70 71073.00 368.43
15129 59.9491 83010.10 82589.90 406.49
15130 59.9528 94385.70 93583.30 441.48
15131 59.9566 105566.00 102725.00 476.25
15132 59.9603 108975.00 107384.00 487.35
15133 59.9641 109331.00 106332.00 485.82
15134 59.9679 101503.00 99716.20 464.84
15135 59.9716 90502.60 89747.00 429.24
15136 59.9754 76361.60 78127.30 385.52
15137 59.9791 65501.00 67029.00 350.29
15138 59.9829 53923.90 56758.40 310.11
15139 59.9867 45654.40 48011.60 279.10
15140 59.9904 38237.10 40973.90 251.41
15141 59.9942 33439.20 35164.00 230.56
15142 59.9979 28421.10 30689.60 209.43
15143 60.0017 25904.80 27105.00 196.21
15144 60.0055 23048.10 24323.30 183.05
15145 60.0092 21051.60 22217.70 175.56
15146 60.0130 19119.80 20511.40 165.23
15147 60.0167 18324.40 19188.00 161.76
15148 60.0205 16854.50 18080.60 155.92
15149 60.0243 16107.80 17168.40 150.27
15150 60.0280 15417.50 16420.70 146.68
15151 60.0318 14941.90 15766.70 143.90
15152 60.0355 14390.20 15217.10 140.88
15153 60.0393 14021.50 14726.60 137.96
15154 60.0431 13446.70 14296.70 139.06
15155 60.0468 13317.50 13927.90 134.72
15156 60.0506 13032.90 13592.50 132.57
15157 60.0543 12800.10 13301.30 130.82
15158 60.0581 12638.20 13034.10 129.03
15159 60.0618 12234.30 12800.20 128.99
15160 60.0656 11972.30 12583.90 126.93
15161 60.0694 12164.50 12388.40 128.45
15162 60.0731 11881.30 12215.50 126.39
15163 60.0769 11782.20 12054.10 125.52
15164 60.0806 11453.30 11910.40 123.99
15165 60.0844 11511.40 11775.40 124.24
15166 60.0882 11464.10 11651.60 123.83
15167 60.0919 11562.20 11540.60 124.51
15168 60.0957 11147.70 11435.60 122.02
15169 60.0994 11447.40 11341.00 123.12
15170 60.1032 11192.50 11251.00 122.51
15171 60.1070 11162.40 11167.50 121.93
15172 60.1107 11158.40 11091.90 121.58
15173 60.1145 11202.60 11019.60 122.36
15174 60.1182 10730.50 10953.90 118.85
15175 60.1220 11039.50 10890.90 121.32
15176 60.1258 10595.70 10831.80 117.83
15177 60.1295 10876.50 10778.00 119.99
15178 60.1333 10678.40 10726.00 118.69
15179 60.1370 10568.30 10678.50 117.86
15180 60.1408 10585.80 10632.40 118.93
15181 60.1445 10844.90 10590.30 121.89
15182 60.1483 10764.90 10549.30 118.77
15183 60.1521 10576.80 10510.60 116.41
15184 60.1558 10726.70 10475.00 118.36
15185 60.1596 10565.60 10440.30 117.89
15186 60.1633 10509.20 10408.30 117.17
15187 60.1671 10535.70 10377.10 117.50
15188 60.1709 10150.30 10347.50 115.63
15189 60.1746 10442.20 10320.00 117.25
15190 60.1784 10460.60 10293.20 117.48
15191 60.1821 10470.30 10268.30 117.06
15192 60.1859 10080.20 10244.00 114.63
15193 60.1897 10571.80 10220.80 118.02
15194 60.1934 10351.30 10199.10 117.26
15195 60.1972 10212.80 10177.90 115.32
15196 60.2009 10051.90 10158.10 113.80
15197 60.2047 10284.70 10138.70 116.12
15198 60.2085 10211.60 10120.10 115.58
15199 60.2122 10223.90 10102.70 116.11
15200 60.2160 10243.00 10085.60 115.23
15201 60.2197 10107.80 10069.60 114.71
15202 60.2235 10237.50 10053.90 116.77
15203 60.2272 10162.80 10039.20 113.69
15204 60.2310 10187.60 10024.60 114.97
15205 60.2348 10237.90 10010.60 115.32
15206 60.2385 9936.95 9997.41 112.69
15207 60.2423 10188.90 9984.40 116.28
15208 60.2460 10113.30 9972.18 115.81
15209 60.2498 9990.36 9960.08 114.36
15210 60.2536 9942.49 9948.39 113.15
15211 60.2573 10270.90 9937.43 115.96
15212 60.2611 9867.43 9926.54 112.63
15213 60.2648 10192.50 9916.31 115.35
15214 60.2686 9850.74 9906.12 113.12
15215 60.2724 10023.20 9896.29 114.12
15216 60.2761 9823.44 9887.02 113.29
15217 60.2799 10030.60 9877.82 114.49
15218 60.2836 9985.02 9869.12 113.70
15219 60.2874 10044.90 9860.48 114.50
15220 60.2912 9952.59 9852.09 113.29
15221 60.2949 9931.72 9844.19 114.36
15222 60.2987 9812.85 9836.61 112.75
15223 60.3024 9838.49 9829.16 113.73
15224 60.3062 9974.36 9821.74 113.34
15225 60.3099 10057.30 9814.72 114.35
15226 60.3137 9745.90 9807.72 112.10
15227 60.3175 9839.63 9800.91 113.27
15228 60.3212 10074.00 9794.46 114.46
15229 60.3250 9801.49 9788.03 113.18
15230 60.3287 9815.18 9781.93 113.45
15231 60.3325 9746.96 9775.83 113.07
15232 60.3363 9636.00 9769.90 111.65
15233 60.3400 9878.69 9764.28 110.63
15234 60.3438 9734.29 9758.88 114.85
15235 60.3475 10033.10 9753.55 114.32
15236 60.3513 9626.63 9748.20 111.21
15237 60.3551 10070.80 9742.99 113.04
15238 60.3588 9631.13 9738.04 111.61
15239 60.3626 9815.39 9733.08 112.87
15240 60.3663 9808.53 9728.37 113.32
15241 60.3701 9855.54 9723.65 112.90
15242 60.3738 9895.88 9719.16 113.54
15243 60.3776 9762.07 9714.66 112.61
15244 60.3814 9700.99 9710.25 111.88
15245 60.3851 10005.30 9706.07 113.91
15246 60.3889 9765.41 9701.86 112.89
15247 60.3926 9901.92 9697.87 114.17
15248 60.3964 9592.51 9693.84 111.71
15249 60.4002 9958.62 9689.91 114.07
15250 60.4039 9820.31 9686.17 113.23
15251 60.4077 10099.60 9682.41 114.17
15252 60.4114 9655.42 9678.82 111.18
15253 60.4152 9798.00 9675.77 112.74
15254 60.4189 9701.42 9672.34 111.76
15255 60.4227 9713.10 9668.89 112.72
15256 60.4265 9516.66 9665.50 111.35
15257 60.4302 9857.58 9662.27 112.55
15258 60.4340 9746.25 9659.02 112.56
15259 60.4377 9754.80 9655.92 111.82
15260 60.4415 9686.28 9652.80 112.81
15261 60.4453 9801.07 9649.74 113.60
15262 60.4490 9615.33 9646.81 112.29
15263 60.4528 9608.93 9643.87 111.59
15264 60.4565 9739.86 9641.05 112.50
15265 60.4603 9727.21 9638.21 111.93
15266 60.4641 9545.02 9635.42 111.86
15267 60.4678 9809.06 9632.76 113.57
15268 60.4716 9718.33 9630.07 113.08
15269 60.4753 9891.21 9589.13 113.73
15270 60.4791 9603.58 9586.98 112.27
15271 60.4828 9763.64 9584.92 113.17
15272 60.4866 9548.60 9582.84 110.91
15273 60.4904 9759.09 9580.80 113.07
15274 60.4941 9669.29 9578.84 111.98
15275 60.4979 9782.25 9576.87 113.41
15276 60.5016 9555.87 9574.98 111.65
15277 60.5054 9831.68 9573.08 112.99
15278 60.5092 9849.95 9571.20 111.42
15279 60.5129 9830.34 9569.41 113.41
15280 60.5167 9498.64 9567.59 110.95
15281 60.5204 9759.93 9567.68 113.20
15282 60.5242 9704.59 9565.95 111.07
15283 60.5279 9450.29 9564.28 111.38
15284 60.5317 9680.05 9562.60 112.20
15285 60.5355 9779.74 9560.95 112.73
15286 60.5392 9593.28 9559.36 109.33
15287 60.5430 9860.41 9557.76 116.29
15288 60.5467 9569.64 9556.23 112.31
15289 60.5505 9800.43 9554.67 111.84
15290 60.5543 9675.10 9553.14 111.44
15291 60.5580 9597.62 9551.68 111.13
15292 60.5618 9549.31 9550.20 111.92
15293 60.5655 9841.89 9548.77 113.32
15294 60.5693 9487.50 9547.34 110.46
15295 60.5731 9752.51 9545.92 112.62
15296 60.5768 9436.49 9544.56 110.40
15297 60.5806 9581.34 9543.19 111.30
15298 60.5843 9626.37 9541.87 111.41
15299 60.5881 9705.97 9540.54 110.72
15300 60.5918 9762.50 9539.26 112.66
15301 60.5956 9428.74 9537.97 110.10
15302 60.5994 9579.42 9536.69 110.83
15303 60.6031 9589.55 9537.15 111.16
15304 60.6069 9695.15 9535.93 111.06
15305 60.6106 9779.68 9534.76 112.07
15306 60.6144 9661.12 9533.58 111.57
15307 60.6182 9699.69 9532.42 112.28
15308 60.6219 9506.31 9459.04 110.43
15309 60.6257 9625.69 9458.74 109.86
15310 60.6294 9591.87 9458.45 111.81
15311 60.6332 9729.64 9458.15 112.10
15312 60.6369 9387.72 9457.87 109.62
15313 60.6407 9541.00 9457.58 109.44
15314 60.6445 9608.06 9457.30 114.32
15315 60.6482 9684.43 9457.03 112.45
15316 60.6520 9395.77 9456.75 109.73
15317 60.6557 9528.49 9456.49 110.41
15318 60.6595 9374.66 9456.23 109.79
15319 60.6632 9820.12 9455.98 112.50
15320 60.6670 9503.43 9455.73 110.29
15321 60.6708 9675.68 9455.48 111.53
15322 60.6745 9471.69 9455.25 110.09
15323 60.6783 9490.94 9455.02 110.13
15324 60.6820 9474.95 9454.80 110.34
15325 60.6858 9553.04 9454.58 111.47
15326 60.6896 9398.75 9454.38 109.62
15327 60.6933 9449.72 9454.18 110.33
15328 60.6971 9701.85 9453.99 111.66
15329 60.7008 9546.86 9453.81 110.87
15330 60.7046 9351.22 9453.64 109.69
15331 60.7083 9498.63 9456.55 110.28
15332 60.7121 9385.72 9456.44 109.58
15333 60.7159 9541.69 9456.34 110.54
15334 60.7196 9622.35 9456.25 111.02
15335 60.7234 9719.19 9456.17 112.19
15336 60.7271 9399.40 9456.11 110.02
15337 60.7309 9638.48 9456.07 111.57
15338 60.7347 9436.59 9456.04 109.73
15339 60.7384 9513.11 9456.03 108.93
15340 60.7422 9476.68 9456.04 111.84
15341 60.7459 9645.87 9456.07 113.01
15342 60.7497 9377.61 9456.13 109.52
15343 60.7534 9691.87 9456.21 111.57
15344 60.7572 9660.64 9456.31 111.30
15345 60.7610 9497.41 9456.44 110.63
15346 60.7647 9495.59 9456.60 110.48
15347 60.7685 9489.21 9456.80 110.19
15348 60.7722 9417.03 9457.03 110.09
15349 60.7760 9557.26 9457.30 109.74
15350 60.7797 9395.76 9457.62 109.67
15351 60.7835 9639.20 9457.99 111.55
15352 60.7873 9457.03 9458.41 109.89
15353 60.7910 9575.69 9458.88 111.01
15354 60.7948 9409.22 9459.43 108.78
15355 60.7985 9410.87 9460.04 109.77
15356 60.8023 9391.83 9460.75 110.11
15357 60.8061 9653.79 9461.56 110.39
15358 60.8098 9481.23 9462.46 108.66
15359 60.8136 9707.10 9463.50 111.60
15360 60.8173 9483.79 9464.67 110.73
15361 60.8211 9554.05 9466.04 111.39
15362 60.8248 9517.23 9467.57 111.13
15363 60.8286 9676.48 9469.39 111.62
15364 60.8324 9461.88 9471.53 110.28
15365 60.8361 9645.90 9474.00 111.30
15366 60.8399 9555.90 9477.05 109.26
15367 60.8436 9605.21 9480.68 113.17
15368 60.8474 9670.76 9485.28 112.11
15369 60.8511 9613.00 9490.89 111.35
15370 60.8549 9492.84 9498.13 109.39
15371 60.8587 9717.53 9507.24 111.33
15372 60.8624 9639.65 9518.33 111.34
15373 60.8662 9606.50 9532.32 111.54
15374 60.8699 9601.39 9548.76 111.18
15375 60.8737 9804.88 9568.54 112.08
15376 60.8774 9660.67 9590.22 111.70
15377 60.8812 9825.71 9613.70 112.61
15378 60.8850 9529.19 9635.76 110.83
15379 60.8887 9611.29 9652.32 111.96
15380 60.8925 9560.74 9660.52 111.21
15381 60.8962 9843.37 9658.48 113.25
15382 60.9000 9557.09 9647.91 111.26
15383 60.9038 9525.21 9632.72 110.31
15384 60.9075 9579.86 9617.39 110.44
15385 60.9113 9888.57 9603.80 112.04
15386 60.9150 9516.87 9594.30 110.82
15387 60.9188 9616.88 9589.27 111.53
15388 60.9225 9665.51 9589.58 112.67
15389 60.9263 9937.41 9595.76 113.83
15390 60.9301 9822.13 9608.38 113.01
15391 60.9338 9880.61 9627.42 113.17
15392 60.9376 9615.59 9654.35 110.90
15393 60.9413 9811.54 9688.12 112.33
15394 60.9451 9958.15 9730.39 114.65
15395 60.9488 9893.37 9777.66 113.74
15396 60.9526 9807.31 9829.70 111.82
15397 60.9564 9969.80 9879.16 113.14
15398 60.9601 9880.38 9916.63 113.50
15399 60.9639 9925.81 9935.48 113.61
15400 60.9676 9876.61 9931.33 113.81
15401 60.9714 9972.28 9908.20 113.99
15402 60.9751 9674.76 9876.31 112.15
15403 60.9789 9928.59 9843.46 113.43
15404 60.9827 10020.10 9817.20 114.55
15405 60.9864 10002.00 9801.50 114.32
15406 60.9902 9851.51 9797.01 112.93
15407 60.9939 9923.60 9803.79 113.54
15408 60.9977 9912.62 9820.46 113.38
15409 61.0014 9896.62 9842.62 114.02
15410 61.0052 9900.90 9865.31 113.35
15411 61.0090 9985.90 9880.08 113.85
15412 61.0127 9978.07 9880.33 114.14
15413 61.0165 10083.40 9864.44 114.76
15414 61.0202 9935.14 9837.35 113.04
15415 61.0240 10000.20 9804.68 114.86
15416 61.0277 9747.94 9774.16 112.69
15417 61.0315 9786.35 9748.41 112.50
15418 61.0353 9758.26 9730.74 112.91
15419 61.0390 9816.90 9722.65 111.81
15420 61.0428 9739.25 9724.71 114.34
15421 61.0465 10115.60 9737.64 116.08
15422 61.0503 9950.54 9762.98 113.87
15423 61.0540 10089.30 9800.24 113.67
15424 61.0578 9975.00 9852.03 113.74
15425 61.0616 10087.90 9917.34 114.38
15426 61.0653 9969.29 9992.72 114.43
15427 61.0691 10122.20 10078.00 115.33
15428 61.0728 9973.69 10160.70 112.92
15429 61.0766 10175.10 10231.40 115.14
15430 61.0803 10168.80 10270.80 113.38
15431 61.0841 10301.40 10269.50 115.95
15432 61.0879 9901.89 10227.30 113.68
15433 61.0916 10101.00 10159.70 114.32
15434 61.0954 9823.92 10079.10 113.14
15435 61.0991 10138.90 10002.30 114.85
15436 61.1029 9947.81 9931.93 113.71
15437 61.1066 9846.09 9875.25 113.01
15438 61.1104 9735.46 9829.68 111.70
15439 61.1142 10031.00 9796.66 114.43
15440 61.1179 9988.99 9775.49 113.07
15441 61.1217 10008.40 9763.97 115.12
15442 61.1254 9974.25 9761.76 113.59
15443 61.1292 9934.83 9768.16 113.66
15444 61.1329 9930.08 9782.79 114.20
15445 61.1367 10227.00 9807.03 115.18
15446 61.1405 10069.70 9842.07 113.13
15447 61.1442 10249.20 9888.87 118.38
15448 61.1480 10131.20 9953.22 115.23
15449 61.1517 10256.50 10035.40 115.28
15450 61.1555 10224.40 10145.10 114.51
15451 61.1592 10599.40 10280.90 118.07
15452 61.1630 10516.30 10454.70 117.42
15453 61.1667 10989.40 10660.40 119.95
15454 61.1705 11230.00 10908.30 121.52
15455 61.1743 11351.30 11186.40 122.16
15456 61.1780 11585.80 11468.20 124.70
15457 61.1818 11882.50 11732.50 124.96
15458 61.1855 11937.00 11916.90 126.46
15459 61.1893 12027.60 11982.40 126.59
15460 61.1930 11916.80 11908.70 125.35
15461 61.1968 11738.90 11717.80 124.79
15462 61.2006 11400.40 11461.80 122.44
15463 61.2043 11345.50 11198.80 122.20
15464 61.2081 10906.30 10945.90 119.33
15465 61.2118 11165.10 10733.80 121.03
15466 61.2156 10484.60 10556.30 117.13
15467 61.2193 10735.10 10424.60 117.34
15468 61.2231 10709.90 10329.20 119.44
15469 61.2269 10512.90 10272.50 117.38
15470 61.2306 10354.60 10252.50 116.82
15471 61.2344 10502.70 10267.20 117.33
15472 61.2381 10278.00 10316.10 114.37
15473 61.2419 10581.70 10403.10 116.76
15474 61.2456 10950.60 10524.90 122.39
15475 61.2494 10915.00 10689.70 119.94
15476 61.2531 11112.10 10886.90 121.10
15477 61.2569 11459.90 11121.70 123.01
15478 61.2607 11426.90 11372.00 122.18
15479 61.2644 11935.10 11601.20 125.53
15480 61.2682 11759.30 11775.70 124.86
15481 61.2719 12112.40 11841.80 127.23
15482 61.2757 11893.30 11781.10 125.48
15483 61.2794 11629.90 11614.20 124.15
15484 61.2832 11388.20 11377.30 122.83
15485 61.2870 11215.50 11120.30 120.69
15486 61.2907 10842.70 10882.90 119.59
15487 61.2945 10544.50 10667.60 117.68
15488 61.2982 10404.30 10492.80 116.36
15489 61.3020 10494.00 10349.50 117.18
15490 61.3057 10233.90 10242.50 115.01
15491 61.3095 10273.70 10162.60 115.22
15492 61.3132 10005.50 10110.20 113.34
15493 61.3170 10229.00 10079.20 115.39
15494 61.3208 10210.40 10068.80 115.26
15495 61.3245 10088.70 10077.30 114.78
15496 61.3283 10060.20 10105.50 114.94
15497 61.3320 10380.70 10154.20 116.47
15498 61.3358 10098.50 10229.50 114.74
15499 61.3395 10175.00 10333.00 113.09
15500 61.3433 10388.90 10476.90 118.94
15501 61.3471 10480.50 10667.00 118.18
15502 61.3508 10709.60 10904.30 118.30
15503 61.3546 10925.70 11207.50 119.61
15504 61.3583 11308.80 11564.00 121.33
15505 61.3621 11618.00 11988.30 123.82
15506 61.3658 11997.00 12438.40 126.22
15507 61.3696 12556.20 12898.40 129.70
15508 61.3733 12965.70 13273.90 131.80
15509 61.3771 13133.80 13496.70 133.35
15510 61.3809 13152.50 13489.00 132.90
15511 61.3846 13078.20 13259.70 132.24
15512 61.3884 12546.40 12862.60 129.13
15513 61.3921 12004.10 12402.80 126.83
15514 61.3959 11728.90 11927.80 125.12
15515 61.3996 11393.70 11502.10 122.05
15516 61.4034 10964.30 11122.40 119.05
15517 61.4071 10822.90 10812.20 119.31
15518 61.4109 10464.30 10552.60 116.95
15519 61.4147 10237.70 10345.00 114.98
15520 61.4184 10190.60 10185.70 115.32
15521 61.4222 10455.80 10056.90 117.26
15522 61.4259 9871.29 9958.72 113.26
15523 61.4297 10003.00 9878.79 114.13
15524 61.4334 9891.31 9816.54 113.26
15525 61.4372 10008.80 9764.60 114.23
15526 61.4409 9855.62 9722.70 111.16
15527 61.4447 9898.87 9686.54 115.96
15528 61.4485 9952.11 9655.68 114.87
15529 61.4522 9818.19 9629.79 112.54
15530 61.4560 9525.25 9606.51 110.25
15531 61.4597 9663.19 9586.62 111.91
15532 61.4635 9737.57 9568.49 112.38
15533 61.4672 9815.46 9552.79 113.19
15534 61.4710 9531.59 9538.32 111.18
15535 61.4747 9769.34 9525.68 113.06
15536 61.4785 9788.11 9513.92 113.16
15537 61.4823 9705.21 9503.28 112.64
15538 61.4860 9632.06 9493.84 112.03
15539 61.4898 9690.44 9484.99 112.54
15540 61.4935 9487.40 9477.09 110.66
15541 61.4973 9786.84 9469.62 112.93
15542 61.5010 9574.16 9462.91 111.94
15543 61.5048 9548.18 9456.53 111.10
15544 61.5085 9503.61 9450.78 111.17
15545 61.5123 9817.65 9445.28 113.17
15546 61.5161 9643.87 9440.16 111.80
15547 61.5198 9738.48 9435.50 112.27
15548 61.5236 9461.39 9431.02 111.44
15549 61.5273 9817.62 9426.92 113.77
15550 61.5311 9618.22 9422.97 112.36
15551 61.5348 9590.12 9419.33 112.12
15552 61.5386 9613.79 9415.81 110.44
15553 61.5423 9783.16 9412.56 114.16
15554 61.5461 9772.63 9409.41 113.93
15555 61.5498 9617.24 9406.49 111.21
15556 61.5536 9521.21 9403.64 110.02
15557 61.5574 9648.13 9400.93 110.99
15558 61.5611 9515.73 9398.28 111.24
15559 61.5649 9734.73 9395.81 112.36
15560 61.5686 9638.79 9393.51 112.07
15561 61.5724 9622.18 9391.25 109.98
15562 61.5761 9667.85 9389.14 111.81
15563 61.5799 9760.29 9387.06 112.75
15564 61.5836 9543.64 9385.11 111.76
15565 61.5874 9673.96 9383.19 111.86
15566 61.5912 9599.12 9381.33 112.06
15567 61.5949 9737.43 9379.59 111.73
15568 61.5987 9702.95 9377.87 111.66
15569 61.6024 9623.26 9376.24 111.88
15570 61.6062 9805.76 9374.63 113.21
15571 61.6099 9516.98 9373.11 110.89
15572 61.6137 9647.31 9371.59 112.45
15573 61.6174 9492.01 9370.16 110.61
15574 61.6212 9665.08 9368.74 111.97
15575 61.6249 9648.73 9367.39 112.12
15576 61.6287 9498.26 9366.04 111.72
15577 61.6325 9641.09 9364.41 112.28
15578 61.6362 9418.27 9363.17 110.11
15579 61.6400 9429.46 9361.93 109.07
15580 61.6437 9763.86 9360.75 114.22
15581 61.6475 9854.30 9359.56 113.30
15582 61.6512 9431.60 9358.44 110.48
15583 61.6550 9572.81 9357.31 109.23
15584 61.6587 9631.25 9356.23 111.63
15585 61.6625 9603.83 9355.15 111.14
15586 61.6663 9648.83 9354.09 111.31
15587 61.6700 9684.79 9353.08 111.89
15588 61.6738 9629.95 9352.07 112.29
15589 61.6775 9651.82 9351.10 111.69
15590 61.6813 9519.90 9349.87 110.53
15591 61.6850 9706.89 9348.94 111.79
15592 61.6888 9642.19 9348.00 111.07
15593 61.6925 9610.45 9347.10 111.64
15594 61.6963 9541.60 9346.19 110.63
15595 61.7000 9504.86 9345.32 111.03
15596 61.7038 9311.04 9344.44 108.87
15597 61.7075 9620.73 9343.59 111.66
15598 61.7113 9544.88 9342.74 109.83
15599 61.7151 9725.26 9341.89 111.61
15600 61.7188 9474.64 9341.09 109.58
15601 61.7226 9671.06 9340.27 112.33
15602 61.7263 9406.31 9339.48 109.91
15603 61.7301 9625.45 9338.68 111.82
15604 61.7338 9391.44 9337.92 110.24
15605 61.7376 9612.41 9337.14 111.19
15606 61.7413 9502.06 9336.39 108.98
15607 61.7451 9775.44 9335.63 114.77
15608 61.7488 9497.71 9334.90 111.26
15609 61.7526 9581.76 9333.60 111.36
15610 61.7564 9470.28 9356.84 109.94
15611 61.7601 9719.72 9356.40 111.77
15612 61.7639 9545.68 9355.96 110.75
15613 61.7676 9675.03 9355.55 112.05
15614 61.7714 9766.58 9355.13 113.24
15615 61.7751 9653.00 9354.74 111.67
15616 61.7789 9546.08 9354.35 110.38
15617 61.7826 9752.41 9353.98 112.90
15618 61.7864 9519.14 9353.61 111.35
15619 61.7901 9694.89 9353.26 111.92
15620 61.7939 9534.24 9352.91 110.54
15621 61.7976 9731.94 9352.58 112.19
15622 61.8014 9541.21 9352.25 111.25
15623 61.8052 9666.72 9351.94 111.66
15624 61.8089 9392.43 9351.64 110.06
15625 61.8127 9770.66 9351.35 111.94
15626 61.8164 9651.91 9351.07 111.40
15627 61.8202 9648.76 9350.80 111.91
15628 61.8239 9719.36 9350.55 113.18
15629 61.8277 9658.73 9350.30 111.51
15630 61.8314 9528.34 9350.06 111.69
15631 61.8352 9807.64 9349.83 112.88
15632 61.8389 9547.54 9349.62 109.99
15633 61.8427 9601.42 9349.42 111.58
15634 61.8464 9626.41 9349.23 113.40
15635 61.8502 9837.94 9349.04 113.56
15636 61.8540 9573.95 9348.87 110.78
15637 61.8577 9627.29 9348.71 110.34
15638 61.8615 9733.74 9396.66 112.18
15639 61.8652 9764.36 9397.09 112.83
15640 61.8690 9778.74 9397.55 113.06
15641 61.8727 9784.93 9398.03 112.68
15642 61.8765 9502.00 9398.54 110.94
15643 61.8802 9787.27 9399.05 112.80
15644 61.8840 9608.60 9399.60 111.61
15645 61.8877 9760.26 9400.16 112.22
15646 61.8915 9693.19 9400.76 112.16
15647 61.8952 9697.66 9401.37 112.12
15648 61.8990 9587.19 9402.01 111.84
15649 61.9028 9812.22 9402.68 113.14
15650 61.9065 9705.17 9403.36 112.21
15651 61.9103 9679.63 9404.08 112.38
15652 61.9140 9650.23 9404.81 112.92
15653 61.9178 9633.56 9405.59 112.03
15654 61.9215 9371.08 9406.38 110.78
15655 61.9253 9750.70 9407.21 113.54
15656 61.9290 9840.89 9408.05 113.55
15657 61.9328 9671.65 9408.94 112.37
15658 61.9365 9551.85 9409.84 111.20
15659 61.9403 9875.17 9461.35 112.28
15660 61.9440 9692.54 9461.19 114.11
15661 61.9478 9859.01 9462.80 114.42
15662 61.9515 9761.49 9464.41 112.99
15663 61.9553 9846.04 9466.11 112.46
15664 61.9591 9767.58 9467.86 113.07
15665 61.9628 9710.19 9469.60 112.68
15666 61.9666 9642.60 9471.44 111.47
15667 61.9703 9797.75 9473.28 113.52
15668 61.9741 9716.33 9475.22 113.04
15669 61.9778 9746.71 9477.16 111.84
15670 61.9816 9635.95 9479.20 112.13
15671 61.9853 9756.25 9481.24 111.93
15672 61.9871 9558.47 9482.26 112.03
15673 61.9909 9906.46 9484.44 113.63
15674 61.9946 9684.37 9486.62 112.55
15675 61.9984 9828.33 9488.92 113.44
15676 62.0021 9699.83 9491.22 112.36
15677 62.0059 9956.88 9493.65 113.88
15678 62.0097 9677.80 9496.14 113.06
15679 62.0134 10022.30 9498.63 115.30
15680 62.0172 9810.66 9501.26 113.82
15681 62.0209 10007.30 9503.89 115.04
15682 62.0247 9645.84 9506.66 110.85
15683 62.0284 9985.39 9509.44 115.69
15684 62.0322 9988.64 9581.66 115.54
15685 62.0359 9954.03 9585.35 113.58
15686 62.0397 9925.11 9589.22 112.82
15687 62.0435 9889.51 9593.21 112.75
15688 62.0472 9824.76 9623.27 113.45
15689 62.0510 9908.64 9627.75 113.69
15690 62.0547 9855.23 9629.19 113.68
15691 62.0585 10039.30 9633.95 112.84
15692 62.0622 9934.71 9638.69 113.74
15693 62.0660 9954.87 9643.68 114.21
15694 62.0697 9736.50 9648.67 113.23
15695 62.0735 9850.34 9653.93 113.20
15696 62.0772 10019.60 9659.18 115.00
15697 62.0810 9983.69 9664.71 113.51
15698 62.0848 10026.70 9670.40 113.94
15699 62.0885 9859.35 9676.09 113.61
15700 62.0923 9850.44 9682.08 113.71
15701 62.0960 9963.70 9688.08 113.99
15702 62.0998 9870.86 9694.41 114.11
15703 62.1035 9683.40 9700.75 112.05
15704 62.1073 9943.62 9707.44 113.97
15705 62.1110 10064.60 9714.13 115.02
15706 62.1148 9986.42 9721.21 115.12
15707 62.1185 10180.00 9728.29 115.97
15708 62.1223 10070.20 9735.79 114.54
15709 62.1261 10017.50 9743.49 113.04
15710 62.1298 10078.40 9751.22 116.49
15711 62.1336 10077.10 9759.39 114.94
15712 62.1373 9885.08 9767.60 113.64
15713 62.1411 10077.00 9776.27 112.63
15714 62.1448 10045.50 9784.99 114.51
15715 62.1486 10119.90 9794.21 114.67
15716 62.1523 10019.70 9803.48 113.90
15717 62.1561 10211.90 9813.29 115.48
15718 62.1599 10207.90 9823.44 116.24
15719 62.1636 9932.44 9833.62 113.70
15720 62.1674 9949.01 9844.45 113.51
15721 62.1711 10166.80 9855.34 114.95
15722 62.1749 10210.80 9866.89 114.92
15723 62.1786 10033.60 9878.53 114.58
15724 62.1824 10273.80 9890.89 115.53
15725 62.1861 10074.00 9903.36 114.92
15726 62.1899 10062.80 9916.60 113.93
15727 62.1936 10215.10 9929.98 115.70
15728 62.1974 10163.70 9944.21 113.99
15729 62.2011 10301.10 9958.59 115.49
15730 62.2049 10070.00 9973.90 113.61
15731 62.2087 10393.40 9989.84 117.18
15732 62.2124 10250.10 10005.90 115.56
15733 62.2162 10288.10 10023.10 116.30
15734 62.2164 10179.80 10024.00 114.55
15735 62.2202 10363.50 10041.90 116.68
15736 62.2239 10436.30 10060.10 118.43
15737 62.2277 10481.60 10079.50 117.19
15738 62.2314 10440.20 10099.30 117.98
15739 62.2352 10282.40 10120.40 116.81
15740 62.2389 10519.30 10141.80 117.43
15741 62.2427 10585.60 10164.90 119.41
15742 62.2464 10557.50 10188.30 120.21
15743 62.2502 10615.50 10213.50 118.68
15744 62.2539 10494.60 10239.10 117.96
15745 62.2577 10713.90 10266.80 119.50
15746 62.2614 10696.50 10295.00 117.02
15747 62.2652 10742.80 10325.50 119.14
15748 62.2690 10723.40 10357.60 119.68
15749 62.2727 10728.90 10390.40 119.28
15750 62.2765 10702.70 10426.00 118.67
15751 62.2802 10768.30 10462.50 118.90
15752 62.2840 10655.50 10502.20 118.53
15753 62.2877 10993.20 10543.00 121.21
15754 62.2915 10928.50 10587.50 121.15
15755 62.2952 10949.50 10633.40 120.47
15756 62.2990 11075.40 10683.60 121.85
15757 62.3027 11155.60 10735.60 122.16
15758 62.3065 11216.10 10792.60 122.30
15759 62.3102 11196.10 10851.90 122.50
15760 62.3140 11194.50 10917.10 122.18
15761 62.3177 11346.20 10985.30 122.43
15762 62.3215 11527.30 11060.80 123.44
15763 62.3252 11518.00 11139.90 123.51
15764 62.3290 11554.80 11227.90 125.17
15765 62.3328 11821.70 11323.40 127.01
15766 62.3365 11938.90 11424.60 126.32
15767 62.3403 11991.60 11538.00 125.59
15768 62.3440 12263.20 11659.10 131.60
15769 62.3478 12164.40 11795.70 128.94
15770 62.3515 12308.40 11942.70 129.09
15771 62.3553 12540.20 12110.10 129.84
15772 62.3590 12595.70 12292.20 129.81
15773 62.3628 13051.30 12501.80 133.39
15774 62.3665 13430.10 12732.80 135.71
15775 62.3703 13809.50 13003.20 137.26
15776 62.3740 14103.40 13307.50 139.27
15777 62.3778 14972.00 13672.50 144.37
15778 62.3815 14905.30 14095.10 143.82
15779 62.3853 15821.30 14618.70 148.93
15780 62.3891 16353.40 15262.80 151.59
15781 62.3928 17503.80 16043.60 158.08
15782 62.3966 18382.80 17050.40 162.70
15783 62.4003 19867.30 18280.30 170.45
15784 62.4041 20827.50 19867.30 175.28
15785 62.4078 23011.30 21783.60 184.35
15786 62.4116 24984.40 24184.10 194.27
15787 62.4153 27840.20 26977.80 207.79
15788 62.4191 30434.40 30292.60 218.26
15789 62.4228 33860.10 33859.40 234.44
15790 62.4266 35494.60 37604.90 239.70
15791 62.4303 37963.40 40890.40 252.26
15792 62.4341 38475.70 43251.10 251.90
15793 62.4379 38835.10 44009.20 254.02
15794 62.4416 36439.70 43034.30 242.63
15795 62.4454 35641.00 40623.70 244.71
15796 62.4491 32414.40 37514.20 227.10
15797 62.4529 30305.30 34142.50 218.20
15798 62.4566 27752.10 31062.70 205.04
15799 62.4604 25966.80 28320.00 199.14
15800 62.4641 24511.40 26126.10 192.18
15801 62.4679 23177.30 24372.40 184.51
15802 62.4716 22621.00 23117.40 183.95
15803 62.4754 22263.80 22251.50 182.60
15804 62.4791 21945.30 21774.50 179.21
15805 62.4829 22309.40 21624.80 182.03
15806 62.4866 22802.90 21789.20 184.27
15807 62.4904 23414.10 22276.40 187.54
15808 62.4942 24369.50 23108.10 192.50
15809 62.4979 25569.10 24299.20 197.08
15810 62.5017 27796.80 25986.70 208.96
15811 62.5054 30191.50 28181.00 217.46
15812 62.5092 33054.20 31111.00 230.64
15813 62.5129 37001.20 34746.40 246.50
15814 62.5167 41620.90 39384.20 265.99
15815 62.5204 47703.30 44858.60 287.76
15816 62.5242 53942.00 51435.50 312.61
15817 62.5279 61685.40 58606.10 339.45
15818 62.5317 68620.10 66265.80 362.43
15819 62.5355 76093.70 73338.40 384.90
15820 62.5392 78555.80 78388.00 391.27
15821 62.5430 80369.50 80458.60 405.27
15822 62.5467 77432.00 78915.10 397.42
15823 62.5505 73645.70 74245.70 379.04
15824 62.5542 66454.20 67915.20 353.52
15825 62.5580 60228.20 60886.80 333.96
15826 62.5617 54305.10 54391.50 311.77
15827 62.5655 48941.60 48590.50 291.49
15828 62.5692 44753.70 43983.60 276.76
15829 62.5730 42391.10 40392.50 266.81
15830 62.5767 40388.60 37986.50 259.96
15831 62.5805 38967.00 36606.60 252.69
15832 62.5843 38605.80 36300.30 253.14
15833 62.5880 39564.70 37025.80 256.36
15834 62.5918 41448.60 38843.40 264.80
15835 62.5955 44337.50 41683.40 272.97
15836 62.5993 47859.60 45752.50 286.72
15837 62.6030 54037.70 50826.40 310.91
15838 62.6068 60037.80 57132.90 332.24
15839 62.6105 67032.80 64087.00 356.45
15840 62.6143 74333.90 71508.20 380.76
15841 62.6180 81404.60 78078.00 399.58
15842 62.6218 85184.40 82798.00 413.31
15843 62.6256 87011.60 84224.40 420.04
15844 62.6293 83261.10 82034.00 410.20
15845 62.6331 77505.00 76781.70 390.76
15846 62.6368 70116.90 70045.80 362.84
15847 62.6406 62526.80 62702.10 336.67
15848 62.6443 54937.50 56003.20 316.06
15849 62.6481 49691.70 50006.80 299.28
15850 62.6518 44561.90 45229.40 275.90
15851 62.6556 40906.00 41415.50 257.81
15852 62.6594 38521.30 38680.80 251.42
15853 62.6631 37169.50 36979.70 244.69
15854 62.6669 36285.50 36164.20 242.09
15855 62.6706 36141.40 36245.00 243.31
15856 62.6744 37102.80 37238.40 246.90
15857 62.6781 39839.30 39155.50 258.09
15858 62.6819 42052.60 42209.30 266.58
15859 62.6856 46655.70 46398.00 283.81
15860 62.6894 51866.40 52120.20 302.24
15861 62.6931 59378.20 59261.20 328.96
15862 62.6969 68000.10 68319.50 359.25
15863 62.7007 79898.80 79154.90 398.20
15864 62.7044 92964.00 91115.40 439.52
15865 62.7082 108792.00 104192.00 486.07
15866 62.7119 122204.00 116350.00 525.46
15867 62.7157 133785.00 126310.00 562.14
15868 62.7194 139785.00 131710.00 574.35
15869 62.7232 140440.00 131804.00 580.36
15870 62.7269 134599.00 126854.00 561.85
15871 62.7307 125500.00 117762.00 539.04
15872 62.7344 110412.00 106390.00 488.78
15873 62.7382 96903.70 93599.40 450.07
15874 62.7420 81092.80 80936.60 398.20
15875 62.7457 69512.60 69570.50 371.04
15876 62.7495 57566.40 59372.70 321.68
15877 62.7532 49402.80 50985.30 293.33
15878 62.7570 41173.80 43906.80 261.46
15879 62.7607 36090.40 38329.20 241.32
15880 62.7645 31805.20 33755.10 223.37
15881 62.7682 28623.30 30210.20 211.10
15882 62.7720 26289.70 27317.90 200.56
15883 62.7758 23718.10 25007.80 187.89
15884 62.7795 21709.70 23195.50 178.77
15885 62.7833 20525.50 21668.20 173.60
15886 62.7870 19202.80 20434.20 167.32
15887 62.7908 18447.10 19367.50 162.93
15888 62.7945 17391.60 18479.60 157.40
15889 62.7983 16940.80 17692.60 155.13
15890 62.8020 16363.80 17023.50 151.83
15891 62.8058 15760.60 16419.90 148.20
15892 62.8096 15215.20 15885.40 145.69
15893 62.8133 14841.80 15423.30 143.69
15894 62.8171 14304.70 14997.60 140.00
15895 62.8208 14243.90 14626.10 139.28
15896 62.8246 14322.60 14281.00 141.33
15897 62.8283 13544.70 13977.50 135.99
15898 62.8321 13417.80 13693.60 136.00
15899 62.8358 13391.60 13442.30 135.14
15900 62.8396 12963.10 13205.80 132.54
15901 62.8434 12835.60 12989.60 131.30
15902 62.8471 12646.70 12795.90 132.85
15903 62.8509 12690.80 12612.50 130.17
15904 62.8546 12365.90 12448.00 128.11
15905 62.8584 12555.90 12291.10 130.35
15906 62.8621 12128.20 12149.80 127.41
15907 62.8659 12181.00 12014.50 128.40
15908 62.8696 11887.20 11892.20 126.41
15909 62.8734 11974.60 11774.60 127.22
15910 62.8772 11823.40 11665.00 126.36
15911 62.8809 11772.30 11565.00 126.12
15912 62.8847 11628.70 11468.80 125.64
15913 62.8884 11625.10 11380.80 125.28
15914 62.8922 11389.70 11295.80 124.18
15915 62.8959 11457.20 11217.80 123.82
15916 62.8997 11593.70 11142.30 124.93
15917 62.9034 11375.70 11072.80 124.06
15918 62.9072 11331.10 11005.50 121.85
15919 62.9110 11361.20 10941.70 123.37
15920 62.9147 11081.20 10882.90 121.28
15921 62.9185 10907.90 10825.60 120.52
15922 62.9222 11231.40 10772.60 123.03
15923 62.9260 11169.70 10720.80 122.87
15924 62.9297 10881.70 10672.90 121.05
15925 62.9335 10874.20 10626.00 120.90
15926 62.9372 10670.70 10582.40 119.16
15927 62.9410 10694.70 10539.80 118.02
15928 62.9448 10816.10 10499.20 122.50
15929 62.9485 10814.90 10461.30 121.20
15930 62.9523 10752.00 10424.20 119.97
15931 62.9560 10552.30 10389.50 118.07
15932 62.9598 10758.70 10355.50 119.48
15933 62.9635 10660.70 10323.70 119.03
15934 62.9673 10470.10 10292.40 117.87
15935 62.9710 10491.80 10263.20 118.57
15936 62.9748 10510.50 10234.30 116.71
15937 62.9786 10536.30 10206.60 118.94
15938 62.9823 10653.40 10180.60 118.69
15939 62.9861 10556.20 10155.00 118.93
15940 62.9898 10417.90 10131.00 117.80
15941 62.9936 10379.00 10107.20 117.09
15942 62.9973 10305.70 10084.90 115.63
15943 63.0011 10346.60 10062.80 116.77
15944 63.0049 10276.10 10041.50 115.91
15945 63.0086 10560.60 10021.40 118.98
15946 63.0124 10213.10 10001.60 116.12
15947 63.0161 10386.80 9982.91 117.15
15948 63.0199 10118.10 9964.37 114.39
15949 63.0236 10352.90 9946.91 118.05
15950 63.0274 10213.20 9929.57 116.61
15951 63.0311 10388.10 9913.21 118.44
15952 63.0349 10161.70 9896.97 116.51
15953 63.0387 10220.30 9881.21 115.99
15954 63.0424 10034.60 9866.37 114.69
15955 63.0462 10198.50 9851.57 119.54
15956 63.0499 10123.10 9837.60 116.42
15957 63.0537 10121.90 9823.69 116.04
15958 63.0574 9829.63 9810.54 112.81
15959 63.0612 9919.41 9797.44 114.57
15960 63.0650 10019.90 9784.69 115.68
15961 63.0687 9881.96 9772.67 114.59
15962 63.0725 10016.80 9760.63 113.54
15963 63.0762 9886.17 9749.27 114.31
15964 63.0800 9981.38 9738.25 115.11
15965 63.0837 9942.18 9727.51 115.21
15966 63.0875 9863.16 9716.74 114.27
15967 63.0912 10008.60 9706.56 115.45
15968 63.0950 9850.46 9696.36 112.82
15969 63.0988 10014.40 9686.44 115.14
15970 63.1025 9807.66 9677.02 113.58
15971 63.1063 9688.26 9667.61 113.33
15972 63.1100 10081.80 9658.66 115.29
15973 63.1138 9908.50 9649.71 113.95
15974 63.1175 9805.29 9641.19 113.77
15975 63.1213 9883.74 9608.87 114.52
15976 63.1251 9846.52 9600.82 114.89
15977 63.1288 9919.40 9593.17 114.90
15978 63.1326 9742.28 9585.49 113.27
15979 63.1363 9764.86 9578.21 113.67
15980 63.1401 9716.95 9570.89 111.77
15981 63.1438 9975.18 9563.93 116.53
15982 63.1476 9777.76 9556.95 115.22
15983 63.1514 9889.55 9550.14 114.70
15984 63.1551 9800.60 9543.64 113.18
15985 63.1589 9694.91 9537.13 112.72
15986 63.1626 9745.55 9530.92 112.36
15987 63.1664 9763.49 9524.70 112.89
15988 63.1701 9854.17 9518.75 113.67
15989 63.1739 9711.37 9512.79 112.36
15990 63.1776 9754.69 9507.10 113.36
15991 63.1814 9727.31 9501.39 112.45
15992 63.1852 9585.47 9495.79 111.68
15993 63.1889 9505.10 9490.45 110.81
15994 63.1927 9699.33 9485.08 112.29
15995 63.1964 9781.82 9479.97 112.68
15996 63.2002 9665.28 9474.81 112.61
15997 63.2039 9698.81 9469.90 111.52
15998 63.2077 9779.56 9464.94 112.71
15999 63.2115 9578.50 9460.09 111.47
16000 63.2152 9505.17 9455.45 110.98
16001 63.2190 9577.35 9450.79 111.04
16002 63.2227 9694.62 9446.33 110.76
16003 63.2265 9747.87 9441.83 113.09
16004 63.2302 9518.60 9388.34 111.51
16005 63.2340 9481.64 9384.55 111.45
16006 63.2378 9582.79 9380.83 111.58
16007 63.2415 9616.84 9377.28 110.03
16008 63.2453 9475.35 9373.71 111.66
16009 63.2490 9624.66 9370.28 112.88
16010 63.2528 9470.61 9366.84 110.82
16011 63.2565 9478.39 9363.54 110.21
16012 63.2603 9573.00 9360.21 110.61
16013 63.2641 9512.25 9357.55 111.14
16014 63.2678 9370.30 9354.43 110.26
16015 63.2716 9482.60 9351.28 110.88
16016 63.2753 9332.93 9348.28 110.05
16017 63.2791 9471.67 9345.23 110.35
16018 63.2828 9388.17 9342.33 110.35
16019 63.2866 9518.07 9339.39 110.91
16020 63.2904 9555.08 9336.50 111.14
16021 63.2941 9545.04 9333.74 111.22
16022 63.2979 9277.18 9330.95 109.44
16023 63.3016 9516.82 9328.27 110.92
16024 63.3054 9307.21 9325.58 110.19
16025 63.3091 9298.52 9322.99 110.02
16026 63.3129 9477.53 9270.11 111.04
16027 63.3167 9317.86 9268.09 109.46
16028 63.3204 9246.29 9266.16 109.04
16029 63.3242 9422.90 9264.20 111.54
16030 63.3279 9235.26 9262.33 108.94
16031 63.3317 9411.75 9260.44 110.77
16032 63.3354 9424.86 9258.62 110.32
16033 63.3392 9281.97 9256.79 107.81
16034 63.3430 9394.21 9254.98 109.70
16035 63.3467 9474.94 9253.25 113.42
16036 63.3505 9307.93 9251.51 109.82
16037 63.3542 9438.57 9251.19 110.32
16038 63.3580 9465.36 9249.51 110.35
16039 63.3617 9573.97 9247.91 111.10
16040 63.3655 9171.04 9246.29 108.76
16041 63.3693 9511.95 9244.70 111.14
16042 63.3730 9353.99 9243.17 110.59
16043 63.3768 9625.51 9241.63 112.08
16044 63.3805 9319.30 9240.17 109.44
16045 63.3843 9425.32 9238.68 110.21
16046 63.3880 9391.85 9237.27 110.06
16047 63.3918 9438.14 9235.84 110.65
16048 63.3956 9554.25 9234.45 112.04
16049 63.3993 9537.51 9233.12 111.08
16050 63.4031 9257.77 9231.79 110.08
16051 63.4068 9487.71 9161.27 110.97
16052 63.4106 9211.46 9160.77 109.41
16053 63.4143 9534.20 9160.30 111.51
16054 63.4181 9378.26 9133.99 109.86
16055 63.4219 9291.88 9133.85 108.33
16056 63.4256 9550.46 9133.75 112.21
16057 63.4294 9343.33 9133.68 108.56
16058 63.4331 9373.57 9133.66 110.94
16059 63.4369 9213.24 9133.70 109.68
16060 63.4407 9128.01 9133.82 107.85
16061 63.4444 9423.82 9134.04 109.67
16062 63.4482 9335.68 9134.40 112.00
16063 63.4519 9155.98 9134.92 109.15
16064 63.4557 9369.72 9135.68 109.50
16065 63.4594 9340.01 9136.71 108.83
16066 63.4632 9383.68 9138.12 110.22
16067 63.4670 9220.12 9139.98 109.34
16068 63.4707 9319.58 9142.28 110.44
16069 63.4745 9332.31 9145.19 110.38
16070 63.4782 9333.85 9148.56 110.60
16071 63.4820 9239.81 9152.51 109.64
16072 63.4857 9254.23 9156.60 109.70
16073 63.4895 9245.22 9160.61 109.88
16074 63.4933 9217.31 9163.72 109.71
16075 63.4970 9288.11 9165.14 110.11
16076 63.5008 9232.74 9164.50 109.22
16077 63.5045 9125.93 9161.94 109.11
16078 63.5083 9256.33 9157.98 108.87
16079 63.5120 9262.41 9153.55 109.84
16080 63.5158 9398.14 9149.05 111.06
16081 63.5196 9223.94 9144.93 109.29
16082 63.5233 9184.77 9141.45 109.57
16083 63.5271 9269.61 9138.47 109.58
16084 63.5308 9316.00 9136.13 109.62
16085 63.5346 9284.00 9134.25 109.46
16086 63.5383 9175.89 9132.87 109.40
16087 63.5421 9124.79 9131.88 107.72
16088 63.5459 9354.30 9131.27 112.89
16089 63.5496 9223.87 9131.01 110.11
16090 63.5534 9271.36 9131.08 109.78
16091 63.5571 9302.42 9131.49 109.92
16092 63.5609 9275.97 9132.26 108.83
16093 63.5647 9308.59 9133.40 110.27
16094 63.5684 9316.19 9134.89 110.41
16095 63.5722 9274.62 9136.79 108.81
16096 63.5759 9192.41 9138.94 109.28
16097 63.5797 9339.46 9141.31 109.60
16098 63.5834 9185.34 9143.52 109.53
16099 63.5872 9246.04 9145.28 110.37
16100 63.5910 9044.64 9146.16 108.57
16101 63.5947 9308.72 9145.99 110.15
16102 63.5985 9289.15 9144.92 109.83
16103 63.6022 9098.41 9143.41 108.99
16104 63.6060 9318.75 9141.81 110.03
16105 63.6097 9146.41 9140.57 109.38
16106 63.6135 9279.78 9139.83 110.34
16107 63.6173 9150.54 9139.82 109.29
16108 63.6210 9139.57 9140.61 108.03
16109 63.6248 9313.36 9142.38 110.98
16110 63.6285 9133.46 9145.12 108.64
16111 63.6323 9165.73 9149.07 109.85
16112 63.6361 9136.20 9154.26 109.85
16113 63.6398 9197.98 9160.51 108.61
16114 63.6436 9197.77 9168.04 108.21
16115 63.6473 9294.28 9176.13 112.01
16116 63.6511 9176.64 9184.52 108.86
16117 63.6548 9211.21 9191.60 108.30
16118 63.6586 9032.17 9196.32 106.99
16119 63.6624 9230.66 9197.27 108.35
16120 63.6661 9021.00 9194.42 107.31
16121 63.6699 9279.14 9188.57 109.37
16122 63.6736 9289.58 9181.43 109.89
16123 63.6774 9352.92 9173.94 109.26
16124 63.6812 9133.88 9167.11 108.46
16125 63.6849 9138.90 9161.56 108.31
16126 63.6887 9094.86 9157.11 107.68
16127 63.6924 9121.59 9154.05 108.33
16128 63.6962 9296.13 9152.16 107.24
16129 63.6999 9395.02 9151.46 110.01
16130 63.7037 9112.08 9151.87 108.01
16131 63.7075 9149.48 9153.36 106.88
16132 63.7112 9206.11 9155.85 108.44
16133 63.7150 9150.25 9159.51 108.10
16134 63.7187 9115.98 9164.25 107.93
16135 63.7225 9250.39 9170.48 108.22
16136 63.7262 9144.34 9178.11 108.52
16137 63.7300 9240.71 9187.90 109.16
16138 63.7338 9299.97 9200.23 109.39
16139 63.7375 9413.50 9215.44 110.29
16140 63.7413 9213.92 9235.29 107.63
16141 63.7450 9406.78 9259.60 110.64
16142 63.7488 9311.66 9290.67 110.96
16143 63.7526 9356.56 9328.40 109.90
16144 63.7563 9450.84 9371.66 110.05
16145 63.7601 9659.26 9421.65 111.24
16146 63.7638 9493.99 9473.11 110.82
16147 63.7676 9610.22 9523.16 109.61
16148 63.7713 9544.86 9561.23 111.31
16149 63.7751 9652.58 9580.23 111.26
16150 63.7789 9600.54 9573.53 110.97
16151 63.7826 9730.48 9544.16 111.93
16152 63.7864 9309.72 9498.13 109.22
16153 63.7901 9343.05 9446.88 109.11
16154 63.7939 9300.09 9394.44 109.47
16155 63.7977 9388.20 9346.57 109.60
16156 63.8014 9401.40 9305.98 110.23
16157 63.8052 9297.70 9271.01 108.71
16158 63.8089 9308.91 9243.12 108.27
16159 63.8127 9336.45 9220.18 109.65
16160 63.8164 9120.59 9202.52 108.16
16161 63.8202 9059.85 9188.39 107.38
16162 63.8240 9288.43 9177.45 108.21
16163 63.8277 9261.44 9169.24 109.25
16164 63.8315 9214.56 9162.74 109.40
16165 63.8352 9120.57 9157.87 107.55
16166 63.8390 9122.25 9154.03 107.32
16167 63.8428 9164.35 9151.14 106.60
16168 63.8465 9119.12 9149.06 109.56
16169 63.8503 9221.58 9147.59 109.65
16170 63.8540 9267.22 9146.72 108.07
16171 63.8578 9361.09 9146.35 109.05
16172 63.8615 9177.68 9146.47 106.80
16173 63.8653 9146.32 9147.08 108.23
16174 63.8691 9215.84 9148.20 109.21
16175 63.8728 9249.74 9149.77 109.48
16176 63.8766 8989.47 9151.92 107.40
16177 63.8803 9174.52 9154.57 108.64
16178 63.8841 9159.39 9157.93 108.34
16179 63.8879 9067.26 9162.02 107.90
16180 63.8916 9005.14 9166.83 108.06
16181 63.8954 9351.98 9172.76 109.79
16182 63.8991 9106.95 9179.75 107.51
16183 63.9029 9193.61 9188.45 109.27
16184 63.9066 9240.41 9198.86 109.73
16185 63.9104 9221.50 9212.09 108.85
16186 63.9142 9483.01 9228.74 111.10
16187 63.9179 9228.25 9249.10 109.42
16188 63.9217 9203.81 9275.59 108.69
16189 63.9254 9430.09 9308.00 111.60
16190 63.9292 9328.81 9349.71 108.67
16191 63.9330 9456.31 9401.21 111.22
16192 63.9367 9550.31 9461.98 111.21
16193 63.9405 9677.88 9535.78 111.05
16194 63.9442 9774.55 9617.59 114.20
16195 63.9480 10042.70 9708.93 116.39
16196 63.9518 10051.90 9799.91 114.88
16197 63.9555 10045.60 9876.56 113.97
16198 63.9593 10088.70 9927.63 114.42
16199 63.9630 10076.50 9938.82 114.76
16200 63.9668 9841.98 9908.94 112.95
16201 63.9705 9808.70 9848.97 113.17
16202 63.9743 9731.62 9771.13 112.74
16203 63.9781 9679.18 9690.64 112.11
16204 63.9818 9884.32 9618.38 112.50
16205 63.9856 9510.35 9555.32 110.31
16206 63.9893 9560.06 9506.51 111.51
16207 63.9931 9526.72 9469.90 111.23
16208 63.9969 9496.35 9446.72 111.35
16209 64.0006 9252.06 9436.88 109.48
16210 64.0044 9583.18 9439.83 111.52
16211 64.0081 9297.43 9455.88 109.71
16212 64.0119 9267.15 9486.95 109.77
16213 64.0156 9571.60 9533.18 110.63
16214 64.0194 9567.70 9599.23 111.51
16215 64.0232 9555.99 9686.76 111.00
16216 64.0269 9640.71 9795.18 112.38
16217 64.0307 10063.10 9931.81 114.98
16218 64.0344 9918.36 10089.70 114.29
16219 64.0382 10255.60 10273.10 115.80
16220 64.0420 10423.10 10468.40 116.06
16221 64.0457 10831.20 10649.70 121.76
16222 64.0495 10667.80 10796.90 119.58
16223 64.0532 10781.80 10869.10 119.87
16224 64.0570 10957.40 10849.20 120.30
16225 64.0608 10779.60 10739.00 119.48
16226 64.0645 10608.80 10571.80 118.49
16227 64.0683 10415.60 10372.90 117.01
16228 64.0720 10350.40 10178.40 117.11
16229 64.0758 10097.90 9994.34 115.18
16230 64.0796 9738.12 9833.36 112.50
16231 64.0833 9565.72 9700.57 111.40
16232 64.0871 9579.51 9588.09 111.81
16233 64.0908 9455.23 9499.19 109.92
16234 64.0946 9305.73 9426.05 110.18
16235 64.0983 9542.62 9369.59 110.42
16236 64.1021 9317.40 9323.42 110.14
16237 64.1059 9240.66 9286.71 109.93
16238 64.1096 9190.59 9257.98 109.12
16239 64.1134 9188.04 9233.82 109.73
16240 64.1171 9123.19 9214.32 109.20
16241 64.1209 9144.85 9197.46 108.02
16242 64.1247 9148.04 9183.08 108.23
16243 64.1284 9200.87 9170.96 108.83
16244 64.1322 9228.76 9160.08 109.29
16245 64.1359 9244.63 9150.72 109.89
16246 64.1397 9323.49 9142.19 109.58
16247 64.1434 8894.06 9134.77 105.08
16248 64.1472 9220.15 9127.92 110.97
16249 64.1510 9076.11 9121.75 109.21
16250 64.1547 9019.91 9116.30 107.55
16251 64.1585 9035.02 9111.21 107.38
16252 64.1622 9095.34 9106.67 107.74
16253 64.1660 9257.50 9102.39 109.20
16254 64.1698 9047.01 9098.45 107.94
16255 64.1735 9039.62 9094.92 107.97
16256 64.1773 9053.15 9091.55 106.97
16257 64.1810 9076.26 9088.51 106.93
16258 64.1848 9120.89 9085.59 108.23
16259 64.1886 9041.33 9082.87 107.62
16260 64.1923 9249.82 9080.38 109.45
16261 64.1961 9127.22 9077.96 107.77
16262 64.1998 9122.05 9075.76 108.48
16263 64.2036 8901.97 9073.63 106.83
16264 64.2074 8990.29 9071.61 107.34
16265 64.2111 9102.97 9069.75 108.27
16266 64.2149 9052.18 9067.94 107.69
16267 64.2186 9160.18 9066.25 108.12
16268 64.2224 9200.33 9064.60 108.45
16269 64.2261 8989.27 9063.07 107.76
16270 64.2299 8900.25 9061.56 106.57
16271 64.2337 9172.59 9060.12 108.20
16272 64.2374 9030.29 9058.76 106.95
16273 64.2412 9039.28 9057.43 107.44
16274 64.2449 8987.58 9056.18 105.98
16275 64.2487 9276.59 9054.94 111.49
16276 64.2525 8866.57 9053.74 107.24
16277 64.2562 9122.39 9052.62 107.54
16278 64.2600 9026.41 9051.50 106.69
16279 64.2637 8808.21 9050.44 105.77
16280 64.2675 8921.18 9049.38 106.27
16281 64.2712 8938.49 9048.38 106.45
16282 64.2750 9021.25 9047.39 106.84
16283 64.2788 8914.72 9046.42 106.45
16284 64.2825 8898.55 9045.49 107.03
16285 64.2863 9220.90 9044.57 108.92
16286 64.2900 8876.60 9043.67 105.92
16287 64.2938 9142.13 9042.79 108.38
16288 64.2976 9006.29 9041.93 107.39
16289 64.3013 9104.61 9041.11 107.92
16290 64.3051 8947.91 9040.28 106.61
16291 64.3088 9055.01 9039.49 107.20
16292 64.3126 9099.25 9038.69 107.78
16293 64.3164 8922.02 9037.91 106.59
16294 64.3201 9065.13 9037.16 107.77
16295 64.3239 9052.18 9036.41 107.71
16296 64.3276 9083.53 9035.68 107.82
16297 64.3314 8949.88 9034.95 107.24
16298 64.3352 9027.82 9034.23 107.97
16299 64.3389 8812.74 9033.54 106.52
16300 64.3427 8907.03 9032.84 105.43
16301 64.3464 9130.54 9032.17 108.48
16302 64.3502 9075.81 9031.48 108.72
16303 64.3539 9042.58 9030.83 107.97
16304 64.3577 8845.58 9030.16 106.11
16305 64.3615 8926.20 9029.44 106.20
16306 64.3652 8840.73 9028.81 105.90
16307 64.3690 9082.39 9028.16 107.81
16308 64.3727 8628.92 9027.54 105.14
16309 64.3765 9021.20 9026.91 107.30
16310 64.3803 8954.82 9026.29 106.93
16311 64.3840 9157.96 9025.69 108.44
16312 64.3878 9119.67 9025.07 108.09
16313 64.3915 9157.13 9024.48 108.72
16314 64.3953 8918.33 9023.88 106.98
16315 64.3991 9023.78 9023.28 107.26
16316 64.4028 8914.95 9022.70 106.42
16317 64.4066 8966.85 9022.12 106.85
16318 64.4103 8873.01 9021.55 106.88
16319 64.4141 8836.22 9020.97 105.87
16320 64.4179 8994.97 9020.39 106.34
16321 64.4216 9110.93 9019.83 107.74
16322 64.4254 9026.25 9019.27 107.43
16323 64.4291 8956.52 9018.71 107.45
16324 64.4329 8890.72 9018.15 107.50
16325 64.4366 8985.93 9017.60 107.23
16326 64.4404 9019.37 9017.05 107.26
16327 64.4442 8894.33 9016.50 104.52
16328 64.4479 8979.39 9015.96 109.86
16329 64.4517 8919.46 9015.41 106.35
16330 64.4554 8913.45 9014.88 106.41
16331 64.4592 9017.93 9014.34 106.95
16332 64.4630 9000.52 9013.80 107.21
16333 64.4667 8867.74 9013.28 106.68
16334 64.4705 9070.49 9012.74 108.32
16335 64.4742 9025.40 9012.23 107.44
16336 64.4780 8823.92 9011.34 105.97
16337 64.4817 9040.62 9010.83 108.18
16338 64.4855 9016.75 9010.31 107.69
16339 64.4893 8932.64 9009.79 106.24
16340 64.4930 8882.83 9009.28 106.46
16341 64.4968 9011.57 9008.76 107.75
16342 64.5005 8949.34 9008.26 106.73
16343 64.5043 9020.61 9007.75 107.75
16344 64.5081 8818.47 9007.24 106.36
16345 64.5118 9041.39 9006.74 107.30
16346 64.5156 8991.73 9006.23 107.49
16347 64.5193 8892.20 9005.73 107.17
16348 64.5231 8855.46 9005.23 105.85
16349 64.5269 8998.00 9004.72 108.15
16350 64.5306 8860.55 9004.23 105.93
16351 64.5344 8893.57 9003.73 107.44
16352 64.5381 8830.28 9003.24 106.08
16353 64.5419 8930.44 9002.74 106.46
16354 64.5457 8846.79 9002.24 106.19
16355 64.5494 8953.86 9001.75 109.42
16356 64.5532 8941.46 9001.26 106.92
16357 64.5569 8878.14 9000.77 106.30
16358 64.5607 9003.41 9000.28 106.87
16359 64.5645 9024.55 8999.79 107.31
16360 64.5682 9038.66 8999.30 108.09
16361 64.5720 8862.32 8998.81 106.25
16362 64.5757 8847.36 8998.33 105.16
16363 64.5795 8824.59 8997.84 106.46
16364 64.5833 8849.65 8997.35 106.36
16365 64.5870 8892.93 8996.88 107.02
16366 64.5908 8841.38 8996.39 106.14
16367 64.5945 8957.23 8995.91 107.05
16368 64.5983 8809.22 8995.42 106.90
16369 64.6020 8940.33 8994.95 107.54
16370 64.6058 8961.36 8994.46 107.24
16371 64.6096 8890.60 8993.98 106.55
16372 64.6133 8911.85 8993.51 106.98
16373 64.6171 9092.93 8993.02 107.86
16374 64.6208 8955.22 8992.55 106.33
16375 64.6246 8969.01 8992.07 107.15
16376 64.6284 8988.04 8991.59 107.77
16377 64.6321 8944.99 8991.12 107.64
16378 64.6359 8857.32 8990.63 106.85
16379 64.6396 8885.61 8990.17 106.49
16380 64.6434 8775.65 8989.69 104.49
16381 64.6472 9026.51 8989.21 110.22
16382 64.6509 8874.67 8988.74 106.34
16383 64.6547 9179.94 8988.26 108.72
16384 64.6584 8820.65 8987.79 105.78
16385 64.6622 8847.82 8987.32 106.10
16386 64.6659 8943.52 8986.25 107.30
16387 64.6697 9075.97 8985.78 108.33
16388 64.6735 8849.88 8985.31 106.79
16389 64.6772 8944.21 8984.85 107.43
16390 64.6810 8781.22 8984.38 106.36
16391 64.6847 8960.83 8983.92 107.39
16392 64.6885 8802.91 8983.45 106.24
16393 64.6923 8963.41 8982.98 107.37
16394 64.6960 8882.78 8982.53 106.71
16395 64.6998 8938.46 8982.06 106.88
16396 64.7035 8907.72 8981.60 106.95
16397 64.7073 8960.99 8981.13 107.50
16398 64.7111 8866.36 8980.66 107.15
16399 64.7148 8987.58 8980.21 107.30
16400 64.7186 8912.40 8979.74 106.85
16401 64.7223 8920.96 8979.28 106.99
16402 64.7261 8845.60 8978.81 107.06
16403 64.7298 8954.72 8978.36 107.66
16404 64.7336 8811.48 8977.89 106.67
16405 64.7374 8892.07 8977.42 107.11
16406 64.7411 8907.48 8976.96 107.10
16407 64.7449 8915.31 8976.50 105.81
16408 64.7486 9005.33 8976.04 110.02
16409 64.7524 8809.91 8975.57 107.07
16410 64.7562 8876.70 8975.10 106.77
16411 64.7599 8641.13 8973.31 103.16
16412 64.7637 8804.12 8972.86 106.26
16413 64.7674 9000.85 8972.42 106.94
16414 64.7712 8967.79 8971.96 107.93
16415 64.7750 9007.44 8971.51 107.47
16416 64.7787 8967.03 8971.07 107.85
16417 64.7825 8945.73 8970.61 107.33
16418 64.7862 8958.30 8970.17 107.18
16419 64.7900 9001.81 8969.72 107.76
16420 64.7938 8784.35 8969.26 106.18
16421 64.7975 9040.65 8968.82 106.39
16422 64.8013 8836.54 8968.36 106.74
16423 64.8050 8881.28 8967.92 106.16
16424 64.8088 8985.00 8967.47 107.95
16425 64.8126 8941.32 8967.01 107.97
16426 64.8163 8956.72 8966.57 107.70
16427 64.8201 8973.66 8966.11 107.61
16428 64.8238 8713.67 8965.67 105.65
16429 64.8276 9050.67 8965.21 108.21
16430 64.8313 8849.02 8964.77 106.64
16431 64.8351 8857.40 8964.31 107.00
16432 64.8389 8923.63 8963.86 106.40
16433 64.8426 8947.01 8963.41 105.99
16434 64.8464 8952.04 8962.95 108.27
16435 64.8501 9045.91 8962.51 110.14
16436 64.8539 8933.37 8962.05 107.27
16437 64.8577 8887.79 8961.59 106.67
16438 64.8614 8936.84 8961.15 107.25
16439 64.8652 8928.65 8960.69 107.31
16440 64.8689 8782.55 8960.25 106.43
16441 64.8727 8879.26 8959.79 107.10
16442 64.8764 8852.26 8959.34 106.61
16443 64.8802 8924.63 8958.88 106.99
16444 64.8840 9007.60 8958.42 106.53
16445 64.8877 9002.20 8957.98 108.35
16446 64.8915 8967.66 8957.52 107.45
16447 64.8952 8822.90 8957.07 106.88
16448 64.8990 9008.66 8956.61 106.98
16449 64.9028 8937.89 8956.15 106.66
16450 64.9065 8882.12 8955.71 107.14
16451 64.9103 9133.73 8955.25 109.04
16452 64.9140 8996.62 8954.80 107.69
16453 64.9178 8800.55 8954.34 106.04
16454 64.9216 8987.08 8953.88 107.77
16455 64.9253 9006.98 8953.43 107.69
16456 64.9291 8989.62 8952.97 108.48
16457 64.9328 8915.44 8952.52 107.15
16458 64.9366 8803.60 8952.06 106.99
16459 64.9404 9159.55 8951.60 109.51
16460 64.9441 8884.19 8951.15 105.65
16461 64.9479 9147.01 8950.69 110.49
16462 64.9516 8825.55 8950.24 106.92
16463 64.9554 9090.28 8949.78 108.22
16464 64.9592 8852.17 8949.31 106.94
16465 64.9629 8854.06 8948.86 106.86
16466 64.9667 8787.23 8948.40 106.20
16467 64.9704 8911.33 8947.95 107.23
16468 64.9742 8729.86 8947.49 105.70
16469 64.9779 8885.33 8947.04 106.66
16470 64.9817 8955.26 8946.57 107.90
16471 64.9855 8819.66 8946.11 107.46
16472 64.9892 8915.66 8945.66 107.42
16473 64.9930 8830.75 8945.20 107.14
16474 64.9967 8865.22 8944.74 107.66
16475 65.0005 8805.93 8944.28 106.54
16476 65.0043 8861.71 8943.82 106.89
16477 65.0080 8971.81 8943.36 107.19
16478 65.0118 8777.78 8942.90 106.88
16479 65.0155 8876.99 8942.45 107.61
16480 65.0193 8888.74 8941.98 107.43
16481 65.0230 8719.55 8941.53 105.77
16482 65.0268 8974.45 8941.06 109.00
16483 65.0306 9042.54 8940.60 108.26
16484 65.0343 8881.39 8940.14 107.78
16485 65.0381 8880.67 8939.68 107.19
16486 65.0418 8896.60 8939.22 106.35
16487 65.0456 8824.85 8938.76 106.34
16488 65.0494 8934.42 8938.29 110.13
16489 65.0531 8935.39 8937.84 108.14
16490 65.0569 8858.62 8937.37 107.20
16491 65.0606 8811.67 8936.91 106.86
16492 65.0644 8781.48 8936.45 105.46
16493 65.0682 8878.24 8935.98 107.03
16494 65.0719 8898.94 8935.52 106.98
16495 65.0757 8981.79 8935.05 108.30
16496 65.0794 8859.08 8934.60 108.01
16497 65.0832 9063.67 8934.13 107.89
16498 65.0870 8908.85 8933.66 107.00
16499 65.0907 8969.33 8933.21 107.49
16500 65.0945 8977.26 8932.74 106.52
16501 65.0982 9065.85 8932.28 107.93
16502 65.1020 8988.38 8931.81 107.36
16503 65.1057 9009.42 8931.35 107.48
16504 65.1095 8877.03 8930.88 107.02
16505 65.1133 9001.05 8930.41 107.27
16506 65.1170 8867.31 8929.95 106.10
16507 65.1208 8943.81 8929.48 106.85
16508 65.1245 8710.02 8929.03 105.28
16509 65.1283 8955.28 8928.55 107.81
16510 65.1321 9084.83 8928.08 108.08
16511 65.1358 8895.94 8927.62 107.10
16512 65.1396 8925.76 8927.15 106.36
16513 65.1433 8837.48 8926.69 105.11
16514 65.1471 9205.21 8926.22 110.34
16515 65.1508 8899.05 8925.76 107.84
16516 65.1546 8805.55 8925.29 106.15
16517 65.1584 8892.55 8924.82 106.23
16518 65.1621 8707.65 8924.36 104.96
16519 65.1659 8795.39 8923.88 105.92
16520 65.1696 8845.45 8923.42 106.52
16521 65.1734 8896.41 8922.95 106.56
16522 65.1772 8832.19 8922.48 106.64
16523 65.1809 8986.96 8922.02 106.97
16524 65.1847 8773.80 8921.54 105.52
16525 65.1884 8903.13 8921.08 106.87
16526 65.1922 8767.49 8920.61 106.11
16527 65.1960 8853.40 8920.13 106.56
16528 65.1997 8897.49 8919.67 106.87
16529 65.2035 8888.98 8919.19 106.59
16530 65.2072 8871.92 8918.73 106.49
16531 65.2110 8748.75 8918.25 105.89
16532 65.2147 8728.18 8917.79 105.57
16533 65.2185 8968.79 8917.32 106.26
16534 65.2223 8824.96 8916.84 106.28
16535 65.2260 8814.09 8916.38 105.96
16536 65.2298 8717.63 8915.90 104.41
16537 65.2335 8976.06 8915.43 106.53
16538 65.2373 8867.36 8914.96 106.85
16539 65.2411 8834.43 8914.48 105.91
16540 65.2448 8691.44 8914.01 104.07
16541 65.2486 8880.55 8913.54 108.63
16542 65.2523 8929.43 8913.07 108.33
16543 65.2561 8939.05 8912.59 107.21
16544 65.2598 8847.31 8912.13 105.41
16545 65.2636 8790.10 8911.65 105.45
16546 65.2674 8703.88 8911.17 105.34
16547 65.2711 8916.16 8910.70 106.42
16548 65.2749 8964.03 8910.22 106.81
16549 65.2786 8877.68 8909.76 106.74
16550 65.2824 8769.74 8909.28 105.87
16551 65.2862 8823.95 8908.80 106.32
16552 65.2899 8847.19 8908.33 106.61
16553 65.2937 8879.04 8907.85 106.75
16554 65.2974 8890.61 8907.38 106.83
16555 65.3012 8947.90 8906.90 106.85
16556 65.3050 8883.96 8906.42 106.56
16557 65.3087 8828.21 8905.95 105.26
16558 65.3125 8663.46 8905.47 104.05
16559 65.3162 8739.30 8905.00 105.43
16560 65.3200 8796.70 8904.52 105.89
16561 65.3237 8796.44 8904.05 105.26
16562 65.3275 8891.59 8903.57 107.45
16563 65.3313 8876.88 8903.08 105.35
16564 65.3350 8843.34 8902.61 106.54
16565 65.3388 8698.63 8902.13 105.67
16566 65.3425 8856.32 8901.66 105.98
16567 65.3463 8986.83 8901.17 107.50
16568 65.3501 8886.42 8900.69 108.60
16569 65.3538 8855.25 8900.22 106.21
16570 65.3576 8644.52 8899.74 104.64
16571 65.3613 8764.66 8899.26 105.18
16572 65.3651 8761.50 8898.78 106.11
16573 65.3688 8690.40 8898.31 105.27
16574 65.3726 8847.46 8897.82 106.06
16575 65.3764 8890.41 8897.33 106.73
16576 65.3801 8794.60 8896.86 106.30
16577 65.3839 8840.12 8896.38 106.51
16578 65.3876 8826.70 8895.90 106.79
16579 65.3914 8732.73 8895.42 105.82
16580 65.3952 8772.15 8894.93 106.32
16581 65.3989 8904.86 8894.45 106.52
16582 65.4027 8708.79 8893.97 105.82
16583 65.4064 8977.47 8893.49 107.58
16584 65.4102 9013.67 8893.00 107.12
16585 65.4139 8960.60 8892.63 107.49
16586 65.4177 8744.42 8892.15 105.91
16587 65.4215 8642.94 8891.66 105.13
16588 65.4252 8773.67 8891.19 105.96
16589 65.4290 8943.89 8890.70 108.09
16590 65.4327 8728.42 8890.22 106.06
16591 65.4365 8826.08 8889.73 106.57
16592 65.4403 8788.20 8889.25 106.32
16593 65.4440 8936.19 8888.77 106.08
16594 65.4478 8863.61 8888.28 107.70
16595 65.4515 8917.83 8887.80 108.50
16596 65.4553 8959.81 8887.31 107.12
16597 65.4590 8861.02 8886.84 106.35
16598 65.4628 8898.36 8886.35 106.79
16599 65.4666 8770.89 8885.86 106.08
16600 65.4703 8746.19 8885.38 105.75
16601 65.4741 8865.56 8884.89 107.18
16602 65.4778 8828.21 8884.41 107.13
16603 65.4816 8790.58 8883.92 106.67
16604 65.4854 8872.54 8883.43 106.76
16605 65.4891 8897.30 8882.95 106.66
16606 65.4929 8790.77 8882.46 105.80
16607 65.4966 8853.25 8881.98 106.35
16608 65.5004 8814.58 8881.49 106.68
16609 65.5041 8807.70 8881.01 106.16
16610 65.5079 8759.10 8880.51 106.41
16611 65.5117 8861.10 8880.02 107.17
16612 65.5154 8853.67 8879.54 106.50
16613 65.5192 8942.04 8879.05 107.22
16614 65.5229 8754.05 8878.57 105.28
16615 65.5267 8945.06 8878.07 108.12
16616 65.5304 8748.01 8877.59 105.63
16617 65.5342 8866.04 8877.10 107.76
16618 65.5380 8763.30 8876.61 105.92
16619 65.5417 8903.07 8876.12 106.61
16620 65.5455 8848.02 8875.63 105.81
16621 65.5492 8847.36 8875.15 109.26
16622 65.5530 8779.42 8874.65 106.98
16623 65.5568 8757.24 8874.16 105.73
16624 65.5605 8915.26 8873.67 107.75
16625 65.5643 8971.15 8873.18 107.28
16626 65.5680 8997.77 8872.69 107.67
16627 65.5718 8863.56 8872.34 106.81
16628 65.5755 8999.60 8871.86 107.45
16629 65.5793 8950.17 8871.37 107.17
16630 65.5831 8840.22 8870.87 106.71
16631 65.5868 8719.40 8870.39 105.05
16632 65.5906 8883.96 8869.89 106.82
16633 65.5943 8894.89 8869.41 107.11
16634 65.5981 8723.08 8868.91 106.14
16635 65.6019 8782.75 8868.42 106.35
16636 65.6056 8908.61 8867.93 107.25
16637 65.6094 8782.25 8867.44 106.31
16638 65.6131 8999.08 8866.95 107.84
16639 65.6169 8909.47 8866.46 106.05
16640 65.6206 8629.15 8865.97 104.96
16641 65.6244 8708.69 8865.48 105.32
16642 65.6282 8740.99 8864.98 106.49
16643 65.6319 8773.42 8864.49 105.63
16644 65.6357 8706.65 8864.00 105.96
16645 65.6394 8913.14 8863.51 107.24
16646 65.6432 8753.66 8863.01 105.27
16647 65.6469 8853.21 8862.53 105.26
16648 65.6507 8725.34 8862.03 107.71
16649 65.6545 8834.58 8861.53 106.52
16650 65.6582 8846.65 8861.04 105.48
16651 65.6620 8701.97 8860.54 105.38
16652 65.6657 8830.67 8860.06 105.94
16653 65.6695 8831.98 8859.56 105.90
16654 65.6732 8620.62 8859.07 105.11
16655 65.6770 8829.67 8858.57 106.22
16656 65.6808 8602.33 8859.63 105.18
16657 65.6845 8795.13 8859.15 106.26
16658 65.6883 8593.66 8858.67 104.61
16659 65.6920 8754.28 8858.20 106.06
16660 65.6958 8664.07 8857.72 104.69
16661 65.6996 8754.83 8857.24 105.62
16662 65.7033 8726.50 8856.77 105.46
16663 65.7071 8682.48 8856.28 105.27
16664 65.7108 8748.75 8855.81 105.97
16665 65.7146 8922.72 8855.33 106.60
16666 65.7183 8696.81 8854.86 105.41
16667 65.7221 8687.63 8854.38 105.62
16668 65.7259 8585.36 8853.90 104.50
16669 65.7296 8929.68 8853.43 107.44
16670 65.7334 8784.73 8852.95 106.35
16671 65.7371 8948.55 8852.48 106.26
16672 65.7409 8635.65 8852.00 104.89
16673 65.7446 8926.79 8851.53 105.70
16674 65.7484 8863.90 8851.05 108.07
16675 65.7522 8654.54 8850.57 104.22
16676 65.7559 8692.61 8850.11 105.59
16677 65.7597 8738.79 8849.63 105.46
16678 65.7634 8751.90 8849.17 105.09
16679 65.7672 8784.54 8848.69 106.33
16680 65.7709 8804.49 8848.22 105.89
16681 65.7747 8882.00 8847.75 106.61
16682 65.7785 8688.24 8847.27 105.62
16683 65.7822 8675.94 8849.77 105.40
16684 65.7860 8748.13 8849.33 106.16
16685 65.7897 8873.88 8848.90 106.72
16686 65.7935 8604.02 8848.46 104.86
16687 65.7972 8741.56 8848.03 105.62
16688 65.8010 8676.40 8847.59 105.40
16689 65.8048 8825.80 8847.15 106.00
16690 65.8085 8732.51 8846.72 105.63
16691 65.8123 8765.95 8846.29 106.41
16692 65.8160 8633.43 8845.87 105.05
16693 65.8198 8885.50 8845.43 106.02
16694 65.8236 8709.81 8845.00 105.36
16695 65.8273 8867.77 8844.58 105.62
16696 65.8311 8754.31 8844.16 106.23
16697 65.8348 8828.00 8843.74 107.07
16698 65.8386 8740.89 8843.32 106.03
16699 65.8423 8795.40 8842.90 105.89
16700 65.8461 8710.90 8842.48 104.17
16701 65.8499 8898.75 8842.06 109.20
16702 65.8536 8913.86 8841.66 107.77
16703 65.8574 8835.72 8841.24 106.49
16704 65.8611 8610.66 8843.23 104.65
16705 65.8649 8721.56 8842.84 105.43
16706 65.8686 8664.41 8842.47 105.53
16707 65.8724 8789.58 8842.09 106.61
16708 65.8762 8900.90 8841.71 107.13
16709 65.8799 8952.72 8841.35 107.86
16710 65.8837 8822.24 8840.98 106.72
16711 65.8874 8744.17 8840.62 105.82
16712 65.8912 8775.40 8840.26 104.93
16713 65.8949 8882.76 8839.90 106.05
16714 65.8987 8957.51 8839.55 107.76
16715 65.9024 8789.49 8839.20 105.86
16716 65.9062 8750.51 8838.85 106.26
16717 65.9100 8923.15 8838.51 107.47
16718 65.9137 8774.78 8838.18 105.98
16719 65.9175 8883.68 8842.44 106.44
16720 65.9212 8741.21 8842.16 106.12
16721 65.9250 8833.62 8841.88 106.26
16722 65.9288 8893.68 8841.61 107.52
16723 65.9325 8966.13 8841.35 107.38
16724 65.9363 8723.57 8841.09 106.31
16725 65.9400 8955.68 8840.85 107.62
16726 65.9438 8921.14 8840.60 106.01
16727 65.9475 8835.40 8840.37 107.80
16728 65.9513 8657.47 8840.14 106.88
16729 65.9551 8907.39 8839.92 107.60
16730 65.9588 8954.30 8839.72 107.15
16731 65.9626 8757.13 8840.71 107.11
16732 65.9663 8817.98 8840.54 106.62
16733 65.9701 8763.99 8840.37 105.59
16734 65.9738 8783.88 8840.22 106.04
16735 65.9776 8818.44 8840.07 107.12
16736 65.9814 8899.03 8839.94 107.14
16737 65.9851 8849.97 8839.83 106.92
16738 65.9889 8822.58 8839.72 107.20
16739 65.9926 8663.16 8839.64 105.46
16740 65.9964 8856.24 8839.57 107.01
16741 66.0001 8732.56 8839.51 106.08
16742 66.0039 8928.88 8839.48 107.52
16743 66.0077 8880.24 8839.47 106.92
16744 66.0114 8555.74 8839.48 105.40
16745 66.0152 8834.27 8839.52 107.07
16746 66.0189 8967.77 8839.58 107.46
16747 66.0227 8811.57 8839.67 106.93
16748 66.0264 8668.53 8839.80 105.36
16749 66.0302 8875.74 8839.96 107.26
16750 66.0339 8913.26 8840.16 108.15
16751 66.0377 8764.43 8840.42 106.62
16752 66.0415 8814.38 8840.72 107.27
16753 66.0452 8811.49 8841.07 105.48
16754 66.0490 8890.67 8841.50 109.93
16755 66.0527 8848.41 8841.99 108.71
16756 66.0565 8801.27 8842.59 106.65
16757 66.0602 8847.82 8843.26 107.16
16758 66.0640 8731.36 8844.08 105.52
16759 66.0678 8907.29 8845.05 107.47
16760 66.0715 8833.71 8846.17 107.44
16761 66.0753 8798.19 8847.54 107.79
16762 66.0790 8818.12 8849.17 107.35
16763 66.0828 8921.22 8851.22 108.21
16764 66.0865 8895.70 8853.69 106.64
16765 66.0903 8792.56 8856.84 107.59
16766 66.0941 8887.19 8860.81 107.68
16767 66.0978 8886.03 8865.66 107.85
16768 66.1016 8827.72 8871.87 106.01
16769 66.1053 8924.63 8879.33 108.37
16770 66.1091 8976.68 8888.63 107.43
16771 66.1128 8972.71 8899.46 108.32
16772 66.1166 8836.30 8912.35 107.73
16773 66.1203 8751.26 8926.42 107.19
16774 66.1241 8773.84 8941.69 106.85
16775 66.1279 8778.57 8956.45 107.71
16776 66.1316 8904.92 8968.19 107.99
16777 66.1354 8997.34 8975.22 109.14
16778 66.1391 8862.48 8975.50 107.40
16779 66.1429 8813.56 8969.09 107.07
16780 66.1466 8993.94 8957.99 106.99
16781 66.1504 8886.03 8944.04 110.54
16782 66.1542 8728.03 8929.62 108.19
16783 66.1579 8870.87 8916.43 106.70
16784 66.1617 8835.33 8904.47 107.17
16785 66.1654 8877.92 8894.59 106.64
16786 66.1692 8800.50 8886.28 107.22
16787 66.1729 8924.63 8879.82 107.51
16788 66.1767 8907.79 8874.68 107.95
16789 66.1804 8695.74 8870.92 106.06
16790 66.1842 8799.82 8868.11 107.84
16791 66.1880 8862.82 8866.17 107.45
16792 66.1917 8896.49 8864.96 107.93
16793 66.1955 8720.21 8864.29 106.71
16794 66.1992 8776.93 8864.08 106.68
16795 66.2030 8850.17 8864.27 106.28
16796 66.2067 8958.56 8864.79 106.56
16797 66.2105 8772.71 8865.64 106.52
16798 66.2143 8840.33 8866.80 107.33
16799 66.2180 8768.91 8868.21 106.00
16800 66.2218 8795.72 8869.98 106.97
16801 66.2255 8850.68 8872.02 106.49
16802 66.2293 8955.79 8874.49 108.75
16803 66.2330 8814.59 8877.30 106.65
16804 66.2368 8969.45 8880.68 108.43
16805 66.2405 8931.59 8884.56 107.79
16806 66.2443 8872.57 8889.27 107.25
16807 66.2481 8755.99 8894.92 105.55
16808 66.2518 8954.00 8901.54 110.77
16809 66.2556 8979.20 8909.75 108.27
16810 66.2593 8924.05 8919.42 107.52
16811 66.2631 8933.67 8931.38 107.33
16812 66.2668 9023.57 8945.33 108.12
16813 66.2706 8833.39 8962.23 106.83
16814 66.2743 8956.65 8981.36 108.00
16815 66.2781 9010.93 9003.53 108.62
16816 66.2819 8990.73 9027.68 107.53
16817 66.2856 8935.00 9051.60 107.76
16818 66.2894 8911.59 9074.26 107.92
16819 66.2931 8947.47 9091.24 107.56
16820 66.2969 9094.75 9100.68 107.64
16821 66.3006 8938.13 9101.03 107.23
16822 66.3044 8951.78 9093.84 107.28
16823 66.3082 9065.04 9082.24 108.58
16824 66.3119 8836.87 9069.85 106.98
16825 66.3157 8890.29 9058.42 105.63
16826 66.3194 8859.42 9049.96 107.33
16827 66.3232 8831.31 9044.69 106.54
16828 66.3269 9007.25 9043.15 108.46
16829 66.3307 9109.55 9045.31 108.04
16830 66.3344 9101.00 9051.02 109.46
16831 66.3382 8997.09 9060.54 107.62
16832 66.3419 8956.25 9073.47 108.34
16833 66.3457 9042.00 9090.76 107.43
16834 66.3495 9109.06 9112.74 109.43
16835 66.3532 8977.21 9139.63 109.77
16836 66.3570 9046.13 9174.23 108.64
16837 66.3607 9046.61 9216.54 107.22
16838 66.3645 8994.28 9271.06 107.47
16839 66.3682 9309.56 9337.70 110.44
16840 66.3720 9492.78 9423.17 111.46
16841 66.3757 9184.84 9525.85 110.24
16842 66.3795 9688.28 9654.95 112.43
16843 66.3833 9672.20 9809.98 113.16
16844 66.3870 9729.78 9987.22 113.20
16845 66.3908 9939.41 10193.90 113.63
16846 66.3945 9942.84 10412.50 114.70
16847 66.3983 10141.40 10638.70 115.30
16848 66.4020 10169.90 10835.70 115.90
16849 66.4058 10394.60 10979.00 118.28
16850 66.4095 10008.70 11031.70 114.90
16851 66.4133 10219.90 10985.30 116.77
16852 66.4171 10089.60 10853.30 115.77
16853 66.4208 10140.00 10674.60 115.11
16854 66.4246 9986.08 10473.70 114.74
16855 66.4283 9718.29 10284.70 113.91
16856 66.4321 9555.53 10112.10 112.36
16857 66.4358 9632.90 9970.94 113.18
16858 66.4396 9428.48 9855.88 111.87
16859 66.4433 9569.28 9772.21 112.36
16860 66.4471 9381.93 9714.09 109.56
16861 66.4509 9407.76 9682.27 113.85
16862 66.4546 9602.26 9675.43 113.10
16863 66.4584 9491.86 9692.80 112.01
16864 66.4621 9468.47 9733.94 111.08
16865 66.4659 9814.17 9803.66 112.70
16866 66.4696 9874.67 9900.91 113.72
16867 66.4734 9978.56 10036.10 115.50
16868 66.4771 10199.10 10206.40 115.70
16869 66.4809 10418.40 10427.40 117.72
16870 66.4846 10606.10 10690.90 118.68
16871 66.4884 10916.70 11014.70 120.58
16872 66.4922 11316.50 11388.60 122.89
16873 66.4959 11752.60 11791.10 126.18
16874 66.4997 12008.80 12217.20 127.70
16875 66.5034 12389.40 12601.30 129.21
16876 66.5072 12609.90 12899.90 131.31
16877 66.5109 12769.00 13037.00 132.10
16878 66.5147 12712.20 12987.60 131.57
16879 66.5184 12741.90 12772.50 131.87
16880 66.5222 12315.40 12438.60 130.14
16881 66.5260 11710.00 12057.80 125.45
16882 66.5297 11493.20 11692.90 125.09
16883 66.5335 11301.60 11357.50 123.02
16884 66.5372 11044.10 11084.70 121.79
16885 66.5410 10837.80 10867.30 120.15
16886 66.5447 10523.40 10718.10 117.56
16887 66.5485 10521.70 10629.10 118.00
16888 66.5522 10611.20 10603.70 120.60
16889 66.5560 10507.50 10639.70 118.56
16890 66.5597 10866.40 10734.40 119.65
16891 66.5635 11104.50 10892.20 121.06
16892 66.5673 11036.10 11110.30 120.86
16893 66.5710 11561.00 11375.90 124.37
16894 66.5748 11708.60 11695.20 123.63
16895 66.5785 11985.60 12031.80 126.68
16896 66.5823 12395.80 12369.90 129.67
16897 66.5860 12655.60 12645.70 131.24
16898 66.5898 12882.00 12823.10 132.08
16899 66.5935 12727.50 12865.30 131.25
16900 66.5973 12702.90 12786.70 129.84
16901 66.6011 12643.70 12633.50 130.06
16902 66.6048 12588.80 12471.90 130.85
16903 66.6086 12301.10 12345.70 129.14
16904 66.6123 11792.30 12297.60 125.93
16905 66.6161 12136.80 12348.00 127.98
16906 66.6198 11963.80 12506.80 125.92
16907 66.6236 12517.30 12787.10 130.20
16908 66.6273 12574.40 13171.00 129.74
16909 66.6311 13085.00 13661.60 132.41
16910 66.6348 13621.20 14198.80 136.84
16911 66.6386 14398.50 14745.30 140.94
16912 66.6423 14623.10 15182.20 142.61
16913 66.6461 14476.70 15428.10 138.35
16914 66.6499 14711.40 15399.00 145.01
16915 66.6536 14458.30 15112.30 143.09
16916 66.6574 13985.00 14627.80 138.78
16917 66.6611 13255.00 14073.10 133.61
16918 66.6649 12672.60 13504.60 130.51
16919 66.6686 12385.00 13010.00 129.20
16920 66.6724 11759.50 12588.60 125.72
16921 66.6761 11661.30 12271.30 124.51
16922 66.6799 11257.70 12030.80 122.60
16923 66.6836 11028.50 11860.50 120.52
16924 66.6874 10916.20 11718.20 120.79
16925 66.6912 11172.10 11572.80 122.24
16926 66.6949 10661.00 11400.00 118.48
16927 66.6987 10867.00 11182.20 118.18
16928 66.7024 10468.90 10940.90 116.33
16929 66.7062 10314.50 10684.20 116.34
16930 66.7099 10071.00 10443.00 115.13
16931 66.7137 9768.33 10216.50 112.88
16932 66.7174 9616.69 10021.40 112.11
16933 66.7212 9316.05 9848.57 110.07
16934 66.7249 9486.74 9705.39 111.35
16935 66.7287 9355.91 9581.90 110.33
16936 66.7324 9117.48 9481.37 108.82
16937 66.7362 9170.02 9395.47 109.54
16938 66.7400 9140.74 9324.00 108.65
16939 66.7437 9102.46 9265.60 109.01
16940 66.7475 9057.86 9214.98 107.37
16941 66.7512 8994.15 9172.87 109.29
16942 66.7550 9051.16 9135.57 109.11
16943 66.7587 9030.82 9103.83 108.38
16944 66.7625 8950.84 9075.02 107.22
16945 66.7662 8914.64 9050.22 106.78
16946 66.7700 8831.00 9027.23 107.36
16947 66.7737 8741.79 9007.11 106.23
16948 66.7775 8989.05 8988.32 106.30
16949 66.7812 8927.34 8971.68 108.22
16950 66.7850 8946.65 8956.00 107.25
16951 66.7887 8769.03 8942.00 106.31
16952 66.7925 8872.91 8928.73 107.11
16953 66.7963 8919.41 8916.49 106.22
16954 66.8000 8807.47 8905.43 106.75
16955 66.8038 8784.22 8894.88 106.37
16956 66.8075 8826.84 8885.30 105.82
16957 66.8113 8761.60 8876.13 106.03
16958 66.8150 8846.20 8867.75 107.46
16959 66.8188 8684.64 8859.69 106.02
16960 66.8225 8712.93 8852.31 105.91
16961 66.8263 8699.30 8845.18 105.34
16962 66.8300 8666.69 8838.62 106.43
16963 66.8338 8872.84 8832.26 106.72
16964 66.8375 8844.26 8826.40 107.25
16965 66.8413 8762.32 8820.69 106.39
16966 66.8451 8752.64 8815.28 106.11
16967 66.8488 8844.96 8810.25 106.35
16968 66.8526 8757.53 8805.35 108.37
16969 66.8563 8983.97 8800.79 108.76
16970 66.8601 8909.15 8796.33 107.61
16971 66.8638 8963.73 8792.06 107.70
16972 66.8676 8831.32 8787.98 106.75
16973 66.8713 8743.22 8784.16 106.92
16974 66.8751 8781.34 8780.41 106.17
16975 66.8788 8768.88 8776.89 106.86
16976 66.8826 8833.94 8773.42 107.39
16977 66.8863 8774.82 8770.17 106.91
16978 66.8901 8790.97 8766.95 106.95
16979 66.8938 8928.43 8763.93 108.20
16980 66.8976 8717.09 8760.94 107.11
16981 66.9014 8801.13 8758.05 107.06
16982 66.9051 8876.62 8755.32 107.95
16983 66.9089 8763.14 8752.62 107.14
16984 66.9126 8738.32 8750.07 106.62
16985 66.9164 8694.28 8747.53 105.72
16986 66.9201 8651.48 8745.13 105.45
16987 66.9239 8634.27 8742.73 104.51
16988 66.9276 8806.25 8740.47 107.07
16989 66.9314 8865.51 8738.21 108.62
16990 66.9351 8694.71 8736.07 106.55
16991 66.9389 8820.34 8733.93 107.13
16992 66.9426 8744.32 8731.90 107.25
16993 66.9464 8841.92 8729.87 106.50
16994 66.9501 8774.39 8727.93 107.69
16995 66.9539 8720.30 8726.00 107.12
16996 66.9576 8653.93 8724.16 106.71
16997 66.9614 8842.84 8722.31 106.50
16998 66.9651 8745.99 8754.54 106.46
16999 66.9689 8893.64 8753.13 107.77
17000 66.9726 8696.06 8751.79 106.50
17001 66.9764 8734.13 8750.46 106.82
17002 66.9802 8688.83 8749.17 104.78
17003 66.9839 8686.51 8747.95 105.99
17004 66.9858 8786.72 8747.34 107.25
17005 66.9895 8759.45 8746.17 106.43
17006 66.9933 8792.88 8745.01 107.30
17007 66.9970 8750.67 8743.91 106.89
17008 67.0008 8977.08 8742.81 108.28
17009 67.0045 8943.46 8741.78 108.15
17010 67.0083 8782.67 8740.75 107.72
17011 67.0120 8880.30 8739.77 107.52
17012 67.0158 9080.42 8738.80 109.72
17013 67.0196 8913.74 8737.86 107.82
17014 67.0233 8991.05 8736.97 108.66
17015 67.0271 8784.67 8735.94 106.95
17016 67.0308 8775.32 8735.10 106.34
17017 67.0346 8965.32 8734.27 108.03
17018 67.0383 8982.29 8733.48 110.00
17019 67.0421 8926.40 8732.71 108.36
17020 67.0458 8890.03 8731.97 107.06
17021 67.0496 8665.65 8731.24 105.48
17022 67.0534 8877.24 8730.53 107.11
17023 67.0571 8734.50 8729.86 106.38
17024 67.0609 8663.45 8729.20 104.51
17025 67.0646 8775.24 8728.58 106.44
17026 67.0684 8816.23 8727.97 107.17
17027 67.0721 8944.26 8727.39 108.06
17028 67.0759 8914.83 8726.82 107.46
17029 67.0796 8782.61 8726.29 106.62
17030 67.0834 8760.74 8725.76 105.44
17031 67.0871 9019.96 8725.27 107.65
17032 67.0909 9021.71 8724.79 108.58
17033 67.0946 8890.19 8724.34 107.70
17034 67.0984 8847.76 8723.90 107.29
17035 67.1022 8841.49 8723.48 107.22
17036 67.1059 8784.63 8723.09 105.97
17037 67.1097 8785.98 8722.72 106.80
17038 67.1134 8736.02 8722.38 105.81
17039 67.1172 8787.34 8722.05 105.91
17040 67.1209 8763.85 8721.74 106.81
17041 67.1247 8832.20 8721.46 107.03
17042 67.1284 8705.64 8721.20 106.47
17043 67.1322 8551.94 8720.95 102.86
17044 67.1359 8825.00 8720.73 108.72
17045 67.1397 8870.26 8718.99 108.66
17046 67.1435 8771.97 8718.82 106.76
17047 67.1472 8714.18 8718.69 105.59
17048 67.1510 8882.50 8718.57 106.96
17049 67.1547 8891.38 8718.48 107.34
17050 67.1585 8785.99 8718.41 106.86
17051 67.1622 8712.99 8718.36 105.84
17052 67.1660 8847.64 8718.34 107.23
17053 67.1697 8847.29 8718.34 106.64
17054 67.1735 8862.41 8718.36 107.61
17055 67.1772 8762.02 8718.41 106.79
17056 67.1810 8674.90 8718.49 105.70
17057 67.1848 8694.86 8718.59 104.43
17058 67.1885 8755.62 8718.71 105.40
17059 67.1923 8898.80 8718.86 107.27
17060 67.1960 8686.74 8754.89 106.15
17061 67.1998 8768.95 8755.47 106.43
17062 67.2035 8850.95 8756.07 107.20
17063 67.2073 8893.54 8756.71 107.43
17064 67.2110 8856.12 8757.37 107.33
17065 67.2148 8529.63 8758.09 104.95
17066 67.2154 8478.14 8758.21 103.07
17067 67.2191 8689.66 8758.94 104.57
17068 67.2229 8538.72 8759.74 103.34
17069 67.2266 8543.14 8760.56 103.69
17070 67.2304 8600.17 8791.72 105.14
17071 67.2341 8827.79 8792.91 105.78
17072 67.2379 8561.78 8794.19 104.69
17073 67.2416 8583.53 8795.47 104.55
17074 67.2454 8551.15 8793.91 103.30
17075 67.2491 8644.49 8795.32 105.75
17076 67.2529 8530.11 8796.83 105.43
17077 67.2566 8606.62 8798.34 104.61
17078 67.2604 8418.50 8799.96 102.44
17079 67.2641 8714.90 8801.58 104.49
17080 67.2679 8690.55 8803.31 105.18
17081 67.2717 8666.22 8805.09 104.54
17082 67.2754 8739.17 8806.88 105.20
17083 67.2792 8651.59 8808.79 105.04
17084 67.2829 8602.12 8810.71 104.23
17085 67.2867 8757.19 8812.75 105.70
17086 67.2904 8523.52 8814.81 104.10
17087 67.2942 8571.80 8816.98 104.84
17088 67.2979 8332.14 8819.18 102.53
17089 67.3017 8608.82 8821.51 104.25
17090 67.3054 8707.73 8823.85 105.47
17091 67.3092 8769.78 8826.33 105.65
17092 67.3129 8693.18 8828.84 105.12
17093 67.3167 8776.40 8831.49 105.72
17094 67.3204 8637.45 8834.17 104.77
17095 67.3242 8791.11 8834.62 105.63
17096 67.3279 8612.59 8837.50 105.11
17097 67.3317 8724.51 8840.56 105.28
17098 67.3355 8678.29 8843.72 105.09
17099 67.3392 8671.61 8846.89 104.96
17100 67.3430 8644.29 8850.27 104.71
17101 67.3467 8737.24 8853.66 104.43
17102 67.3505 8723.98 8857.28 107.33
17103 67.3542 9027.67 8860.90 108.17
17104 67.3580 8811.00 8864.76 106.52
17105 67.3617 8757.95 8868.64 105.58
17106 67.3655 8766.74 8872.78 104.33
17107 67.3692 8871.58 8876.93 106.78
17108 67.3730 8746.79 8881.36 105.37
17109 67.3767 8945.90 8885.81 107.01
17110 67.3805 8816.27 8885.98 106.09
17111 67.3843 8861.70 8890.94 106.44
17112 67.3880 8622.05 8895.94 105.13
17113 67.3918 8934.63 8901.25 107.06
17114 67.3955 8719.23 8906.62 105.78
17115 67.3993 8906.30 8912.33 107.12
17116 67.4030 8895.96 8918.10 106.58
17117 67.4068 9057.51 8924.24 107.93
17118 67.4105 8750.86 8930.45 105.99
17119 67.4143 8768.94 8937.06 106.01
17120 67.4180 8828.71 8943.75 105.52
17121 67.4218 8841.45 8950.87 106.48
17122 67.4256 8959.52 8957.09 106.77
17123 67.4293 9014.03 8964.61 108.03
17124 67.4331 9048.89 8972.63 107.58
17125 67.4368 8944.23 8980.76 107.73
17126 67.4406 9096.27 8989.45 108.09
17127 67.4443 9100.80 8998.26 107.70
17128 67.4481 8873.51 9007.68 106.16
17129 67.4518 9018.42 9017.26 109.90
17130 67.4556 9038.40 9027.54 108.00
17131 67.4593 8981.18 9037.92 107.22
17132 67.4631 8941.23 9049.12 106.29
17133 67.4668 8908.92 9060.46 106.64
17134 67.4706 9192.57 9072.67 108.68
17135 67.4743 9124.24 9085.08 108.42
17136 67.4781 9148.33 9098.45 109.21
17137 67.4819 9152.46 9112.44 108.54
17138 67.4856 9179.85 9126.73 108.73
17139 67.4894 9206.32 9142.11 109.19
17140 67.4931 9186.65 9157.85 109.02
17141 67.4969 9319.84 9174.82 109.82
17142 67.5006 9276.91 9192.21 109.83
17143 67.5044 9281.00 9210.99 109.64
17144 67.5081 9275.85 9230.27 109.62
17145 67.5119 9287.44 9251.13 109.40
17146 67.5156 9191.26 9272.59 109.00
17147 67.5194 9362.26 9295.86 110.37
17148 67.5232 9383.68 9320.48 110.11
17149 67.5269 9437.58 9345.89 110.35
17150 67.5307 9586.44 9373.53 111.44
17151 67.5344 9421.86 9402.13 110.79
17152 67.5382 9326.66 9433.31 110.56
17153 67.5419 9693.49 9465.66 111.86
17154 67.5457 9531.11 9501.02 109.85
17155 67.5494 9706.21 9537.81 114.66
17156 67.5532 9652.37 9578.15 112.90
17157 67.5570 9814.38 9621.45 112.90
17158 67.5607 9776.97 9666.56 111.46
17159 67.5645 9852.14 9716.45 113.09
17160 67.5682 9898.92 9768.60 114.17
17161 67.5720 10083.90 9826.50 115.20
17162 67.5757 9886.53 9887.27 113.51
17163 67.5795 10182.70 9955.03 115.74
17164 67.5832 10095.20 10026.40 114.85
17165 67.5870 10057.80 10106.50 114.87
17166 67.5907 10290.40 10191.20 115.85
17167 67.5945 10814.20 10286.60 119.34
17168 67.5983 10578.00 10391.30 118.19
17169 67.6020 10739.20 10503.40 119.29
17170 67.6058 10844.80 10630.70 119.82
17171 67.6095 10822.50 10767.50 119.30
17172 67.6133 11023.50 10924.10 121.19
17173 67.6170 11504.80 11094.20 123.14
17174 67.6208 11615.20 11289.90 124.26
17175 67.6245 11933.50 11504.90 126.07
17176 67.6283 12298.30 11755.10 128.68
17177 67.6320 12481.30 12034.00 128.91
17178 67.6358 12794.50 12364.10 131.49
17179 67.6396 13395.80 12749.90 134.54
17180 67.6433 13986.50 13194.10 137.85
17181 67.6471 14676.60 13740.70 140.21
17182 67.6508 15551.30 14384.60 150.21
17183 67.6546 16237.60 15198.50 151.42
17184 67.6583 17457.50 16177.50 156.33
17185 67.6621 18656.20 17431.80 161.35
17186 67.6658 20124.30 18947.80 170.07
17187 67.6696 22100.90 20881.20 179.68
17188 67.6734 24657.90 23255.40 192.56
17189 67.6771 27221.80 26055.00 202.42
17190 67.6809 30227.10 29464.10 217.14
17191 67.6846 34286.00 33310.70 232.49
17192 67.6884 37803.10 37718.10 247.65
17193 67.6921 41059.60 42267.30 261.38
17194 67.6959 43772.90 46798.80 271.07
17195 67.6996 46258.50 50495.20 280.54
17196 67.7034 46491.20 52829.70 281.61
17197 67.7072 45642.80 53134.20 277.81
17198 67.7109 43004.20 51401.40 267.88
17199 67.7147 40607.40 47983.60 258.72
17200 67.7184 36297.50 43734.10 241.48
17201 67.7222 32629.70 39091.80 225.40
17202 67.7259 29169.30 34731.60 211.40
17203 67.7297 27098.40 30679.90 204.58
17204 67.7334 23715.00 27242.50 187.24
17205 67.7372 22078.80 24259.40 180.15
17206 67.7410 20169.90 21790.80 170.35
17207 67.7447 18417.50 19837.60 160.49
17208 67.7485 16922.70 18218.80 152.10
17209 67.7522 16372.50 16963.30 154.23
17210 67.7560 15337.70 15932.80 145.55
17211 67.7597 14852.20 15137.40 141.79
17212 67.7635 14015.00 14482.10 137.88
17213 67.7672 13777.40 13969.30 136.27
17214 67.7710 13134.30 13540.00 133.37
17215 67.7747 12950.20 13197.60 131.74
17216 67.7785 12277.60 12907.80 128.01
17217 67.7823 12591.90 12668.30 129.39
17218 67.7860 12141.00 12474.80 126.80
17219 67.7898 12234.90 12311.00 128.17
17220 67.7935 11864.40 12180.60 125.23
17221 67.7973 11845.20 12073.10 125.40
17222 67.8010 11775.40 11991.40 125.23
17223 67.8048 11847.10 11929.10 125.05
17224 67.8085 11544.80 11887.80 123.39
17225 67.8123 11470.40 11864.20 123.35
17226 67.8161 11526.40 11858.80 123.31
17227 67.8198 11645.70 11870.60 124.04
17228 67.8236 11429.50 11900.10 122.36
17229 67.8273 11795.10 11945.80 124.54
17230 67.8311 11742.50 12010.50 125.25
17231 67.8348 11651.70 12091.70 124.24
17232 67.8386 11877.10 12194.70 126.22
17233 67.8424 12037.40 12319.20 126.87
17234 67.8461 11878.90 12462.30 124.22
17235 67.8499 12400.50 12634.80 130.01
17236 67.8536 12340.90 12830.00 130.63
17237 67.8574 12673.70 13061.80 131.39
17238 67.8611 12665.50 13322.80 129.40
17239 67.8649 12998.60 13632.50 131.76
17240 67.8686 13385.90 13982.50 134.85
17241 67.8724 13734.80 14400.70 136.31
17242 67.8762 14311.50 14892.50 140.26
17243 67.8799 15015.40 15459.80 143.95
17244 67.8837 15469.10 16155.70 146.75
17245 67.8874 16520.50 16975.20 152.79
17246 67.8912 17050.80 18000.80 154.74
17247 67.8949 18500.10 19229.40 162.47
17248 67.8987 19875.80 20788.00 170.22
17249 67.9024 21591.40 22656.80 177.90
17250 67.9062 23587.70 25023.60 187.48
17251 67.9100 26519.90 27920.40 201.33
17252 67.9137 29685.30 31313.80 214.80
17253 67.9175 33656.40 35461.10 232.75
17254 67.9212 38272.80 40140.50 250.99
17255 67.9250 44694.00 45569.00 274.84
17256 67.9287 50739.60 51248.50 300.71
17257 67.9325 56769.00 57122.60 319.55
17258 67.9363 61989.80 62398.00 338.56
17259 67.9400 67294.30 66299.00 359.07
17260 67.9438 68033.90 68549.20 357.96
17261 67.9475 68863.90 69060.70 355.19
17262 67.9513 68966.80 68393.80 370.52
17263 67.9550 67287.70 67296.90 359.49
17264 67.9588 65680.90 66311.30 349.83
17265 67.9625 66063.50 65739.40 349.59
17266 67.9663 66061.60 65427.40 351.90
17267 67.9701 66355.30 64929.60 353.93
17268 67.9738 64446.10 63663.20 346.67
17269 67.9776 63010.80 61085.10 342.48
17270 67.9813 58422.60 57259.60 328.08
17271 67.9851 53507.90 52350.70 308.39
17272 67.9888 47711.80 47146.70 288.60
17273 67.9926 41757.80 41879.70 264.87
17274 67.9964 36350.40 37006.10 244.70
17275 68.0001 31629.50 32812.40 223.88
17276 68.0039 27563.60 29095.10 207.09
17277 68.0076 24580.90 26048.30 192.69
17278 68.0114 21988.50 23439.10 180.64
17279 68.0151 20047.00 21352.90 171.41
17280 68.0189 18123.80 19595.80 161.69
17281 68.0227 17083.50 18168.40 155.70
17282 68.0264 16033.30 17031.00 150.19
17283 68.0302 15280.40 16071.80 146.41
17284 68.0339 14374.70 15296.30 140.91
17285 68.0377 14060.80 14628.20 139.44
17286 68.0414 13369.40 14077.60 135.57
17287 68.0452 12903.50 13590.90 131.55
17288 68.0489 12333.20 13179.90 128.40
17289 68.0527 12250.10 12810.60 130.96
17290 68.0565 11723.20 12485.00 125.76
17291 68.0602 11691.40 12202.70 124.97
17292 68.0640 11443.30 11943.70 123.41
17293 68.0677 11056.20 11716.90 121.35
17294 68.0715 11070.60 11506.90 121.13
17295 68.0752 10875.50 11321.60 120.54
17296 68.0790 10564.00 11148.80 118.68
17297 68.0828 10637.80 10991.30 118.79
17298 68.0865 10594.00 10851.10 117.83
17299 68.0903 10480.40 10719.30 117.50
17300 68.0940 10217.00 10601.20 115.77
17301 68.0978 10232.10 10489.60 116.33
17302 68.1015 10066.00 10389.10 115.44
17303 68.1053 10083.30 10293.70 115.37
17304 68.1091 10021.30 10205.30 115.00
17305 68.1128 9924.13 10125.30 114.56
17306 68.1166 9899.98 10048.80 114.22
17307 68.1203 9853.82 9979.28 113.50
17308 68.1241 9716.53 9912.64 112.49
17309 68.1278 9907.19 9851.84 113.80
17310 68.1316 9854.68 9793.39 114.20
17311 68.1354 9754.77 9738.56 112.77
17312 68.1391 9651.02 9688.31 112.49
17313 68.1429 9630.43 9639.79 112.65
17314 68.1466 9401.55 9595.20 109.99
17315 68.1504 9614.51 9552.02 112.74
17316 68.1541 9639.88 9512.25 114.16
17317 68.1579 9440.12 9473.65 111.10
17318 68.1617 9371.60 9437.05 109.61
17319 68.1654 9273.94 9403.28 108.97
17320 68.1692 9263.37 9370.39 110.10
17321 68.1729 9353.70 9339.93 110.37
17322 68.1767 9372.52 9310.16 110.95
17323 68.1804 9481.26 9282.62 110.69
17324 68.1842 9378.59 9255.61 109.83
17325 68.1879 9339.70 9230.60 109.96
17326 68.1917 9232.25 9206.05 108.46
17327 68.1955 9421.28 9182.61 110.17
17328 68.1992 9096.62 9160.76 108.81
17329 68.2030 9232.19 9139.31 109.34
17330 68.2067 9079.50 9119.28 108.22
17331 68.2105 9254.48 9099.59 109.69
17332 68.2143 9036.53 9080.68 108.09
17333 68.2180 9070.08 9063.06 108.25
17334 68.2218 8939.92 9045.63 106.47
17335 68.2255 8978.97 9029.36 107.07
17336 68.2293 8971.49 9013.25 107.90
17337 68.2330 9012.66 8998.20 107.86
17338 68.2368 9083.26 8983.27 108.32
17339 68.2406 8993.93 8968.92 107.89
17340 68.2443 8885.26 8955.44 106.90
17341 68.2481 9071.27 8942.10 106.83
17342 68.2518 9014.54 8929.55 109.43
17343 68.2556 8886.61 8917.11 107.32
17344 68.2593 8936.23 8905.40 106.64
17345 68.2631 8818.88 8893.79 105.81
17346 68.2669 8738.65 8882.56 105.68
17347 68.2706 8949.34 8871.97 107.71
17348 68.2744 8775.09 8861.46 105.48
17349 68.2781 8844.94 8851.53 106.79
17350 68.2819 8844.68 8841.66 106.31
17351 68.2856 8960.34 8832.33 107.30
17352 68.2894 8970.64 8823.05 107.71
17353 68.2932 8668.01 8814.04 104.78
17354 68.2969 8639.77 8805.54 104.07
17355 68.3007 8886.41 8797.04 106.78
17356 68.3044 8772.00 8789.02 106.09
17357 68.3082 8716.00 8780.99 105.46
17358 68.3119 8700.70 8773.41 105.55
17359 68.3157 8676.13 8765.81 105.05
17360 68.3195 8629.95 8758.44 105.09
17361 68.3232 8631.87 8751.45 104.46
17362 68.3270 8774.71 8744.47 105.75
17363 68.3307 8764.31 8737.84 106.31
17364 68.3345 8689.46 8731.21 105.05
17365 68.3382 8562.37 8724.91 104.66
17366 68.3420 8589.32 8718.61 104.45
17367 68.3458 8827.63 8712.46 106.05
17368 68.3495 8641.86 8706.62 102.87
17369 68.3533 8828.39 8700.77 108.62
17370 68.3570 8737.31 8695.20 106.54
17371 68.3608 8822.64 8689.62 106.12
17372 68.3645 8635.16 8684.31 104.15
17373 68.3683 8669.49 8678.98 104.81
17374 68.3721 8490.45 8673.77 103.50
17375 68.3758 8723.41 8668.81 105.07
17376 68.3796 8517.06 8663.83 104.65
17377 68.3833 8519.50 8659.08 104.32
17378 68.3871 8660.24 8654.31 105.24
17379 68.3909 8693.85 8649.64 104.07
17380 68.3946 8573.24 8645.19 104.69
17381 68.3984 8598.84 8640.72 105.24
17382 68.4021 8694.43 8636.44 105.32
17383 68.4059 8701.56 8632.15 105.64
17384 68.4096 8613.52 8628.04 105.23
17385 68.4134 8614.55 8623.91 104.87
17386 68.4172 8633.01 8619.87 105.53
17387 68.4209 8530.72 8616.00 104.63
17388 68.4247 8530.63 8612.10 104.29
17389 68.4284 8615.60 8608.37 104.71
17390 68.4322 8497.11 8604.62 104.50
17391 68.4360 8767.72 8600.93 106.75
17392 68.4397 8493.14 8597.41 104.44
17393 68.4435 8612.11 8593.85 105.23
17394 68.4472 8576.51 8590.45 103.88
17395 68.4510 8732.77 8553.33 106.42
17396 68.4547 8419.50 8550.37 104.99
17397 68.4585 8457.90 8547.40 104.05
17398 68.4622 8369.49 8544.54 102.81
17399 68.4660 8470.23 8541.66 103.29
17400 68.4698 8470.30 8538.83 103.21
17401 68.4735 8533.40 8536.12 104.46
17402 68.4773 8342.76 8533.38 103.68
17403 68.4810 8553.60 8530.75 104.67
17404 68.4848 8555.87 8528.10 104.74
17405 68.4886 8422.91 8525.49 103.86
17406 68.4923 8485.96 8522.98 104.25
17407 68.4961 8453.17 8520.45 104.21
17408 68.4998 8494.38 8518.02 104.37
17409 68.5036 8598.97 8515.56 105.40
17410 68.5073 8433.43 8513.21 103.58
17411 68.5111 8579.48 8510.82 104.12
17412 68.5149 8570.59 8508.47 105.29
17413 68.5186 8496.47 8506.21 104.51
17414 68.5224 8395.20 8503.93 103.54
17415 68.5261 8493.37 8501.73 103.70
17416 68.5299 8571.92 8499.51 105.40
17417 68.5337 8310.18 8497.32 103.32
17418 68.5374 8259.41 8495.22 103.46
17419 68.5412 8364.00 8493.09 103.61
17420 68.5449 8353.58 8491.04 103.89
17421 68.5487 8443.66 8488.97 102.64
17422 68.5524 8425.11 8486.97 106.60
17423 68.5562 8363.25 8484.96 104.49
17424 68.5600 8225.49 8482.96 102.44
17425 68.5637 8377.91 8481.04 103.50
17426 68.5675 8446.90 8479.10 103.95
17427 68.5712 8399.45 8477.23 103.81
17428 68.5750 8389.72 8475.34 103.76
17429 68.5787 8453.80 8473.52 103.94
17430 68.5825 8485.43 8471.67 104.54
17431 68.5863 8530.44 8469.85 104.56
17432 68.5900 8370.43 8468.09 103.71
17433 68.5938 8521.97 8466.32 104.53
17434 68.5975 8443.76 8464.61 104.40
17435 68.6013 8333.27 8462.88 103.43
17436 68.6051 8360.84 8461.17 103.46
17437 68.6088 8551.90 8459.52 104.90
17438 68.6126 8182.54 8457.86 102.35
17439 68.6163 8495.89 8456.25 104.29
17440 68.6201 8455.35 8454.63 103.86
17441 68.6239 8552.48 8453.03 104.61
17442 68.6276 8388.49 8451.49 103.04
17443 68.6314 8495.93 8449.93 104.67
17444 68.6351 8438.50 8448.43 104.50
17445 68.6389 8344.45 8446.92 102.95
17446 68.6426 8361.42 8445.47 103.33
17447 68.6464 8309.28 8444.00 102.58
17448 68.6502 8204.46 8442.55 101.51
17449 68.6539 8483.56 8441.17 105.94
17450 68.6577 8223.91 8439.77 101.43
17451 68.6614 8269.22 8438.43 102.11
17452 68.6652 8240.25 8437.09 101.42
17453 68.6690 8525.36 8435.77 104.01
17454 68.6727 8331.02 8434.51 101.82
17455 68.6765 8344.44 8433.25 103.14
17456 68.6802 8350.52 8432.05 103.17
17457 68.6840 8389.81 8430.86 103.42
17458 68.6877 8335.91 8429.72 103.73
17459 68.6915 8431.69 8392.95 103.90
17460 68.6953 8410.94 8392.23 103.26
17461 68.6990 8204.61 8391.57 101.97
17462 68.7028 8370.96 8390.93 103.53
17463 68.7065 8409.88 8390.35 102.93
17464 68.7103 8153.22 8389.81 102.14
17465 68.7141 8361.10 8389.34 103.21
17466 68.7178 8369.43 8388.95 103.31
17467 68.7216 8438.52 8388.62 104.15
17468 68.7253 8303.19 8358.35 102.47
17469 68.7291 8376.58 8358.53 102.87
17470 68.7328 8445.69 8358.82 103.34
17471 68.7366 8249.03 8359.25 102.54
17472 68.7404 8355.21 8359.87 103.30
17473 68.7441 8436.38 8360.68 103.37
17474 68.7479 8255.03 8361.79 100.92
17475 68.7516 8249.93 8363.21 102.62
17476 68.7554 8259.90 8365.11 103.90
17477 68.7592 8340.78 8367.60 103.09
17478 68.7629 8026.80 8370.74 99.88
17479 68.7667 8540.37 8374.92 103.71
17480 68.7704 8198.48 8380.12 101.70
17481 68.7742 8392.04 8386.94 103.28
17482 68.7780 8184.86 8395.49 101.11
17483 68.7817 8272.76 8405.77 100.86
17484 68.7855 8272.26 8418.53 102.39
17485 68.7892 8344.09 8433.22 102.63
17486 68.7930 8290.45 8450.49 102.56
17487 68.7967 8330.03 8468.97 102.68
17488 68.8005 8469.22 8488.47 104.08
17489 68.8043 8302.51 8506.47 100.97
17490 68.8080 8357.21 8519.81 103.00
17491 68.8118 8334.09 8526.29 103.00
17492 68.8155 8431.11 8523.91 103.33
17493 68.8193 8237.47 8513.01 102.02
17494 68.8231 8266.22 8495.89 102.58
17495 68.8268 8414.63 8476.24 103.26
17496 68.8306 8332.27 8455.43 101.76
17497 68.8343 8324.86 8436.35 102.26
17498 68.8381 8275.82 8418.61 102.76
17499 68.8418 8440.99 8403.64 103.85
17500 68.8456 8321.52 8390.54 102.16
17501 68.8494 8322.77 8379.65 101.49
17502 68.8531 8553.34 8370.90 106.53
17503 68.8569 8240.80 8363.57 102.61
17504 68.8606 8295.04 8357.76 101.21
17505 68.8644 8343.07 8352.93 102.60
17506 68.8682 8030.52 8349.02 100.34
17507 68.8719 8183.80 8345.92 101.46
17508 68.8757 8203.67 8343.33 102.26
17509 68.8794 8311.69 8341.31 103.04
17510 68.8832 8395.76 8339.66 104.01
17511 68.8870 8197.45 8338.42 102.16
17512 68.8907 8336.60 8337.61 103.22
17513 68.8945 8359.50 8337.20 102.85
17514 68.8982 8220.29 8337.26 102.46
17515 68.9020 8389.48 8337.86 103.60
17516 68.9057 8226.38 8339.05 102.64
17517 68.9095 8331.94 8341.00 102.77
17518 68.9133 8330.49 8343.78 103.82
17519 68.9170 8338.04 8347.40 104.02
17520 68.9208 8241.28 8352.10 102.65
17521 68.9245 8318.63 8357.67 102.81
17522 68.9283 8350.97 8364.27 103.32
17523 68.9321 8290.38 8371.49 103.38
17524 68.9358 8148.92 8378.52 101.94
17525 68.9396 8334.29 8384.75 103.21
17526 68.9433 8274.84 8388.67 103.33
17527 68.9471 8422.52 8389.38 102.81
17528 68.9509 8479.45 8386.30 103.47
17529 68.9546 8278.63 8380.17 104.67
17530 68.9584 8366.10 8371.73 102.48
17531 68.9621 8303.62 8362.71 103.13
17532 68.9659 8369.24 8353.45 103.38
17533 68.9696 8442.95 8345.06 103.36
17534 68.9734 8171.09 8337.31 100.52
17535 68.9772 8472.16 8330.56 104.33
17536 68.9809 8230.17 8324.90 102.41
17537 68.9847 8274.35 8319.96 103.56
17538 68.9884 8223.91 8315.88 102.71
17539 68.9922 8261.51 8312.33 102.78
17540 68.9960 8119.38 8309.32 101.77
17541 68.9997 8353.68 8306.79 103.94
17542 69.0035 8156.60 8304.54 102.11
17543 69.0072 8064.70 8302.60 101.59
17544 69.0110 8344.26 8300.81 103.86
17545 69.0148 8355.26 8299.18 103.11
17546 69.0185 8355.93 8297.72 103.74
17547 69.0223 8447.89 8296.31 104.04
17548 69.0260 8115.38 8295.03 102.01
17549 69.0298 8095.13 8293.77 101.79
17550 69.0336 8475.37 8292.57 104.81
17551 69.0373 8432.05 8291.45 104.75
17552 69.0411 8181.89 8290.33 102.68
17553 69.0448 8319.09 8289.28 103.31
17554 69.0486 8365.60 8288.23 102.26
17555 69.0523 8047.45 8287.24 103.17
17556 69.0561 8171.95 8286.24 102.96
17557 69.0599 8359.66 8285.26 103.48
17558 69.0636 8045.85 8284.33 100.95
17559 69.0674 8480.01 8283.38 104.07
17560 69.0711 8409.84 8282.48 103.83
17561 69.0749 8321.23 8281.56 103.33
17562 69.0787 8147.68 8280.66 102.12
17563 69.0824 8205.78 8279.79 102.15
17564 69.0862 8278.70 8278.91 102.91
17565 69.0899 8286.38 8278.05 103.56
17566 69.0937 8216.50 8277.19 102.38
17567 69.0975 8280.96 8276.33 102.82
17568 69.1012 8260.86 8275.50 103.11
17569 69.1050 8323.05 8274.65 102.64
17570 69.1087 8241.12 8273.83 102.49
17571 69.1125 8254.99 8272.99 103.13
17572 69.1162 8316.80 8272.18 103.49
17573 69.1200 8346.75 8271.36 103.03
17574 69.1238 8287.97 8270.53 102.49
17575 69.1275 8411.52 8269.73 102.80
17576 69.1313 8289.38 8268.92 103.25
17577 69.1350 8170.74 8268.13 101.32
17578 69.1388 8150.92 8267.32 101.41
17579 69.1426 8110.93 8266.51 101.32
17580 69.1463 8059.97 8265.73 100.60
17581 69.1501 8180.51 8264.92 101.79
17582 69.1538 8131.32 8264.15 102.25
17583 69.1576 8317.15 8263.35 103.38
17584 69.1614 8138.53 8262.55 100.83
17585 69.1651 8411.46 8261.78 102.59
17586 69.1689 8303.68 8260.99 102.80
17587 69.1726 8389.23 8260.22 103.34
17588 69.1764 8229.40 8259.43 102.54
17589 69.1802 8341.93 8258.64 103.12
17590 69.1839 8237.14 8257.88 101.97
17591 69.1877 8443.68 8257.09 103.39
17592 69.1914 8305.05 8256.33 103.06
17593 69.1952 8240.71 8255.55 102.53
17594 69.1990 8180.74 8254.77 101.76
17595 69.2027 8442.36 8254.01 103.78
17596 69.2065 8069.86 8253.23 101.35
17597 69.2102 8350.60 8252.48 103.01
17598 69.2140 8301.59 8251.70 102.96
17599 69.2177 8199.07 8250.94 102.30
17600 69.2215 8318.78 8250.17 103.13
17601 69.2253 8212.57 8249.39 101.52
17602 69.2290 8148.27 8248.64 101.10
17603 69.2328 8395.87 8247.87 104.15
17604 69.2365 8112.99 8247.12 101.15
17605 69.2403 8273.27 8246.35 102.56
17606 69.2441 8144.80 8245.58 101.44
17607 69.2478 8180.38 8244.83 101.28
17608 69.2516 8196.07 8244.06 101.11
17609 69.2553 8185.84 8243.31 103.83
17610 69.2591 8244.23 8242.54 102.10
17611 69.2629 8299.82 8241.78 101.94
17612 69.2666 8164.76 8241.03 101.31
17613 69.2704 8307.84 8240.26 102.75
17614 69.2741 8161.06 8239.52 101.65
17615 69.2779 8274.06 8238.75 102.68
17616 69.2817 8266.65 8237.99 102.66
17617 69.2854 8098.39 8237.24 100.66
17618 69.2892 8176.74 8236.48 101.96
17619 69.2929 8327.04 8235.74 101.40
17620 69.2967 8094.78 8234.97 100.97
17621 69.3005 8256.63 8234.21 102.43
17622 69.3042 8107.38 8233.47 100.68
17623 69.3080 8204.05 8232.71 102.18
17624 69.3117 8255.22 8231.97 102.68
17625 69.3155 8240.96 8231.21 102.17
17626 69.3193 8088.29 8230.44 101.55
17627 69.3230 8209.66 8229.70 102.08
17628 69.3268 8221.64 8228.94 101.76
17629 69.3305 8294.95 8228.20 103.32
17630 69.3343 8120.00 8227.44 101.26
17631 69.3381 8223.56 8226.68 102.53
17632 69.3418 8223.10 8225.94 102.68
17633 69.3456 8234.82 8225.19 101.79
17634 69.3493 8155.82 8224.45 100.64
17635 69.3531 8401.23 8223.69 105.33
17636 69.3568 8095.63 8222.95 101.95
17637 69.3606 8195.62 8222.20 102.36
17638 69.3644 8079.26 8221.44 101.04
17639 69.3681 8339.59 8220.70 103.05
17640 69.3719 8309.41 8219.94 102.81
17641 69.3756 8312.44 8219.21 102.34
17642 69.3794 8193.80 8218.45 102.06
17643 69.3832 7984.71 8217.70 100.68
17644 69.3869 8275.43 8216.96 102.09
17645 69.3907 8270.71 8216.20 102.82
17646 69.3944 8284.31 8215.47 102.85
17647 69.3982 8293.31 8214.71 103.20
17648 69.4020 8261.61 8213.96 102.87
17649 69.4057 8420.17 8213.23 103.65
17650 69.4095 8164.56 8212.47 102.16
17651 69.4132 8304.99 8211.74 102.92
17652 69.4170 8301.39 8210.98 103.46
17653 69.4208 8181.79 8210.23 102.22
17654 69.4245 8181.64 8209.50 102.47
17655 69.4283 8205.40 8208.74 101.66
17656 69.4320 8162.94 8208.01 102.53
17657 69.4358 8250.10 8207.26 102.34
17658 69.4396 8143.21 8206.51 102.05
17659 69.4433 8405.67 8205.77 103.08
17660 69.4471 8251.56 8205.02 102.57
17661 69.4508 8255.49 8204.29 101.73
17662 69.4546 8329.96 8203.54 105.90
17663 69.4583 8301.43 8202.81 103.52
17664 69.4621 8231.73 8202.05 102.07
17665 69.4659 8186.39 8201.30 100.82
17666 69.4696 8148.28 8200.57 101.99
17667 69.4734 8238.53 8199.82 102.47
17668 69.4771 8083.60 8199.09 101.86
17669 69.4809 8261.36 8198.34 102.87
17670 69.4847 8168.73 8197.59 102.25
17671 69.4884 8329.19 8196.86 103.07
17672 69.4922 8192.33 8196.11 102.09
17673 69.4959 8320.39 8195.38 103.35
17674 69.4997 8188.87 8194.63 102.25
17675 69.5035 8022.00 8193.88 101.57
17676 69.5072 8191.82 8193.15 102.05
17677 69.5110 8227.41 8192.41 103.02
17678 69.5147 8168.75 8191.68 101.97
17679 69.5185 8227.93 8190.93 102.69
17680 69.5223 8192.71 8190.18 102.53
17681 69.5260 8209.32 8189.45 101.87
17682 69.5298 8180.52 8188.71 102.31
17683 69.5335 8238.52 8187.98 102.87
17684 69.5373 8333.29 8187.23 103.72
17685 69.5411 8223.62 8186.48 102.98
17686 69.5448 8210.98 8185.76 102.43
17687 69.5486 8119.92 8185.01 100.82
17688 69.5523 8267.04 8184.28 104.01
17689 69.5561 8284.10 8183.54 103.93
17690 69.5599 7971.60 8182.79 100.88
17691 69.5636 8284.18 8182.07 102.62
17692 69.5674 8102.12 8181.32 102.24
17693 69.5711 8181.01 8180.45 102.29
17694 69.5749 8178.23 8179.70 102.02
17695 69.5787 8156.55 8178.96 102.78
17696 69.5824 8319.43 8178.23 103.33
17697 69.5862 8185.34 8177.49 102.15
17698 69.5899 8248.82 8194.35 103.02
17699 69.5937 8260.32 8193.78 102.79
17700 69.5974 8212.35 8193.23 103.18
17701 69.6012 8191.56 8192.67 102.69
17702 69.6050 8163.98 8192.10 101.68
17703 69.6087 8146.19 8191.56 101.05
17704 69.6125 8132.11 8191.01 101.35
17705 69.6162 8161.90 8190.47 101.82
17706 69.6200 8183.13 8189.92 101.65
17707 69.6238 8214.17 8189.38 101.94
17708 69.6275 8110.65 8188.85 100.97
17709 69.6313 8225.06 8188.31 102.60
17710 69.6350 8143.40 8187.79 101.39
17711 69.6388 8199.94 8187.26 101.85
17712 69.6426 8071.34 8186.73 100.98
17713 69.6463 8206.02 8186.22 101.54
17714 69.6501 7957.43 8185.69 98.93
17715 69.6538 8206.78 8185.19 104.29
17716 69.6576 7947.69 8184.68 100.52
17717 69.6614 8106.29 8184.17 101.02
17718 69.6651 8033.15 8183.67 99.98
17719 69.6689 8287.99 8183.17 102.42
17720 69.6726 7978.25 8182.69 100.40
17721 69.6764 8231.17 8182.19 101.92
17722 69.6802 8281.70 8181.70 102.54
17723 69.6839 8236.27 8181.23 102.14
17724 69.6877 7927.06 8180.75 99.95
17725 69.6914 8164.71 8180.28 101.41
17726 69.6952 8102.03 8179.81 100.70
17727 69.6990 8102.38 8179.34 101.22
17728 69.7027 7967.12 8178.89 99.87
17729 69.7065 8198.66 8178.37 101.62
17730 69.7102 8118.76 8177.93 101.64
17731 69.7140 8101.75 8177.49 100.26
17732 69.7177 7904.13 8177.06 99.90
17733 69.7215 8108.14 8176.62 100.80
17734 69.7253 8085.24 8176.19 100.41
17735 69.7290 8179.13 8175.77 101.03
17736 69.7328 8273.93 8175.36 102.17
17737 69.7365 8037.83 8174.95 100.19
17738 69.7403 8234.31 8174.55 101.84
17739 69.7441 8176.88 8174.15 101.34
17740 69.7478 8168.14 8173.76 100.55
17741 69.7516 8298.57 8173.37 102.20
17742 69.7553 8218.00 8173.00 103.79
17743 69.7591 8283.43 8172.63 102.45
17744 69.7629 7988.42 8180.40 99.55
17745 69.7666 8030.86 8180.13 100.13
17746 69.7704 8258.55 8179.86 102.29
17747 69.7741 8212.72 8179.60 101.29
17748 69.7779 8196.47 8179.35 101.87
17749 69.7817 8296.92 8179.10 102.44
17750 69.7854 8000.80 8178.87 100.50
17751 69.7892 8259.52 8178.64 102.14
17752 69.7929 8191.57 8178.43 101.83
17753 69.7967 8047.30 8178.23 100.17
17754 69.8005 8188.88 8178.03 101.80
17755 69.8042 8229.13 8177.85 101.90
17756 69.8080 8209.48 8177.67 101.80
17757 69.8117 8009.18 8177.51 100.54
17758 69.8155 8252.56 8177.36 102.28
17759 69.8193 8084.24 8177.22 100.79
17760 69.8230 8090.62 8177.10 101.27
17761 69.8268 8073.61 8176.98 101.03
17762 69.8305 8168.58 8176.88 101.51
17763 69.8343 8080.82 8176.79 101.47
17764 69.8380 8079.64 8176.71 100.40
17765 69.8418 8296.67 8176.65 102.59
17766 69.8456 8144.28 8176.60 101.84
17767 69.8493 8133.36 8176.56 99.79
17768 69.8531 8247.89 8176.55 103.02
17769 69.8568 8153.61 8176.54 102.69
17770 69.8606 8201.38 8176.55 102.23
17771 69.8644 8035.55 8176.58 100.70
17772 69.8681 8047.35 8176.62 100.66
17773 69.8719 8215.06 8176.68 102.01
17774 69.8756 8109.63 8176.76 101.14
17775 69.8794 8333.84 8176.86 102.80
17776 69.8832 8369.90 8176.97 103.72
17777 69.8869 8043.74 8177.11 101.36
17778 69.8907 8284.25 8177.26 103.25
17779 69.8944 8223.30 8177.43 102.79
17780 69.8982 8303.40 8177.63 103.12
17781 69.9020 8311.82 8177.85 102.99
17782 69.9057 8265.05 8178.08 102.92
17783 69.9095 7982.86 8178.35 101.18
17784 69.9132 8054.36 8178.63 101.57
17785 69.9170 8148.42 8178.94 101.78
17786 69.9208 8305.22 8179.28 103.24
17787 69.9245 8034.92 8179.64 101.46
17788 69.9283 8078.95 8180.03 100.88
17789 69.9320 8309.29 8180.44 103.72
17790 69.9358 8223.88 8180.89 102.18
17791 69.9395 8323.76 8181.36 103.73
17792 69.9433 8095.23 8181.87 101.97
17793 69.9471 8316.33 8182.41 102.46
17794 69.9508 7981.71 8182.97 100.10
17795 69.9546 8451.32 8183.58 106.33
17796 69.9583 8175.94 8184.21 102.61
17797 69.9621 8138.94 8184.90 101.41
17798 69.9659 8137.82 8185.62 101.30
17799 69.9696 8235.09 8186.36 102.25
17800 69.9734 8240.95 8187.17 102.83
17801 69.9771 8144.31 8187.99 101.73
17802 69.9809 8214.11 8188.88 102.51
17803 69.9847 8146.79 8189.82 101.70
17804 69.9884 8210.16 8190.78 102.56
17805 69.9922 8470.88 8191.81 104.60
17806 69.9959 8104.28 8192.87 101.49
17807 69.9997 8315.30 8194.01 103.15
17808 70.0035 8224.42 8195.21 103.00
17809 70.0072 8370.25 8196.43 103.92
17810 70.0110 8268.25 8197.74 102.75
17811 70.0147 8164.79 8199.08 102.18
17812 70.0185 8277.52 8200.53 103.04
17813 70.0222 8348.99 8202.00 103.80
17814 70.0260 8277.39 8203.58 102.76
17815 70.0298 8141.98 8205.24 102.15
17816 70.0335 8331.94 8206.93 104.50
17817 70.0373 8282.88 8208.75 103.25
17818 70.0410 8348.19 8210.60 103.62
17819 70.0448 8222.83 8212.60 102.78
17820 70.0486 8207.78 8214.68 101.52
17821 70.0523 8316.18 8216.81 103.74
17822 70.0561 8391.17 8219.09 106.17
17823 70.0598 8449.91 8221.42 104.54
17824 70.0636 8240.81 8223.92 102.58
17825 70.0674 8399.05 8226.54 103.45
17826 70.0711 8171.15 8229.21 101.96
17827 70.0749 8133.42 8232.08 101.92
17828 70.0786 8295.12 8235.02 104.33
17829 70.0824 8375.26 8238.17 103.55
17830 70.0862 8276.69 8241.48 102.52
17831 70.0899 8287.19 8244.84 103.06
17832 70.0937 8547.83 8248.48 104.19
17833 70.0974 8208.42 8252.18 101.87
17834 70.1012 8401.40 8256.18 103.47
17835 70.1049 8522.23 8260.25 104.72
17836 70.1087 8320.43 8264.65 103.14
17837 70.1125 8391.68 8269.26 103.71
17838 70.1162 8305.70 8273.99 102.79
17839 70.1200 8204.33 8279.08 102.46
17840 70.1237 8345.48 8284.30 102.79
17841 70.1275 8395.93 8289.93 102.99
17842 70.1313 8301.43 8295.86 102.51
17843 70.1350 8567.34 8301.94 105.34
17844 70.1388 8422.44 8308.51 103.67
17845 70.1425 8547.07 8315.27 104.86
17846 70.1463 8379.71 8322.58 103.34
17847 70.1501 8330.69 8330.31 102.05
17848 70.1538 8342.09 8338.24 104.08
17849 70.1576 8466.20 8346.87 105.76
17850 70.1613 8265.86 8355.73 102.67
17851 70.1651 8371.23 8365.39 102.43
17852 70.1689 8317.32 8375.62 102.84
17853 70.1726 8589.24 8386.18 104.30
17854 70.1764 8490.24 8397.68 104.07
17855 70.1801 8551.76 8409.60 104.32
17856 70.1839 8514.70 8422.59 104.39
17857 70.1877 8372.50 8436.43 103.18
17858 70.1914 8390.64 8450.81 103.46
17859 70.1952 8472.08 8466.54 104.02
17860 70.1989 8547.97 8482.93 104.55
17861 70.2027 8560.78 8500.91 103.56
17862 70.2064 8330.43 8519.67 103.29
17863 70.2102 8504.29 8540.32 103.67
17864 70.2140 8570.52 8562.60 104.59
17865 70.2177 8553.01 8585.79 104.45
17866 70.2215 8720.48 8611.62 105.59
17867 70.2252 8663.12 8638.64 104.93
17868 70.2290 8747.56 8668.72 105.39
17869 70.2328 8694.53 8701.29 105.98
17870 70.2365 8762.32 8735.76 106.65
17871 70.2403 8677.44 8774.22 105.77
17872 70.2440 8688.81 8815.09 105.36
17873 70.2478 8872.82 8860.92 105.05
17874 70.2516 8770.42 8911.18 104.32
17875 70.2553 9104.52 8965.01 109.82
17876 70.2591 8976.77 9025.84 108.15
17877 70.2628 9124.40 9091.36 108.23
17878 70.2666 9183.33 9165.88 108.46
17879 70.2703 9318.38 9246.71 109.69
17880 70.2741 9299.42 9339.34 109.82
17881 70.2779 9354.89 9443.66 109.26
17882 70.2816 9613.10 9558.01 111.14
17883 70.2854 9582.88 9691.75 111.34
17884 70.2891 9856.36 9840.43 113.00
17885 70.2929 9993.03 10017.30 113.65
17886 70.2967 10200.40 10223.90 115.19
17887 70.3004 10536.90 10462.00 117.51
17888 70.3042 10988.80 10754.00 120.16
17889 70.3079 11051.00 11098.50 120.24
17890 70.3117 11637.50 11530.30 124.48
17891 70.3155 12099.60 12062.90 126.45
17892 70.3192 12862.10 12703.50 131.65
17893 70.3230 13624.60 13513.30 133.84
17894 70.3267 14502.10 14480.80 140.67
17895 70.3305 15456.30 15685.80 145.61
17896 70.3343 17247.70 17135.50 156.80
17897 70.3380 18817.80 18792.20 162.57
17898 70.3418 20835.80 20756.00 174.08
17899 70.3455 22955.70 22868.90 184.68
17900 70.3493 25173.90 25179.30 193.27
17901 70.3530 27117.90 27373.50 202.05
17902 70.3568 28819.20 29314.30 213.36
17903 70.3606 29691.40 30597.30 214.37
17904 70.3643 29204.20 30951.40 211.49
17905 70.3681 28258.60 30310.00 206.85
17906 70.3718 26768.30 28851.80 202.16
17907 70.3756 24878.50 26805.60 193.28
17908 70.3793 22531.20 24583.60 181.09
17909 70.3831 20659.20 22315.90 173.52
17910 70.3869 18870.20 20211.00 163.71
17911 70.3906 17283.70 18387.10 154.59
17912 70.3944 15601.00 16773.60 147.37
17913 70.3981 14674.70 15447.20 141.94
17914 70.4019 13566.60 14319.20 136.15
17915 70.4057 12839.30 13397.50 131.06
17916 70.4094 12412.40 12672.30 128.95
17917 70.4132 11803.50 12071.20 125.64
17918 70.4169 11321.00 11602.50 122.94
17919 70.4207 11037.20 11214.50 121.22
17920 70.4245 10757.80 10903.10 119.17
17921 70.4282 10548.40 10656.90 117.42
17922 70.4320 10549.10 10451.10 117.86
17923 70.4357 10314.80 10287.10 116.36
17924 70.4395 9844.83 10149.40 113.87
17925 70.4433 9887.04 10037.60 114.02
17926 70.4470 9895.67 9950.18 113.83
17927 70.4508 9988.59 9879.99 112.87
17928 70.4545 9711.77 9829.01 113.62
17929 70.4583 9639.68 9793.63 113.56
17930 70.4620 9623.69 9775.32 112.17
17931 70.4658 9448.55 9773.43 110.02
17932 70.4696 9758.49 9789.76 112.93
17933 70.4733 9819.27 9824.73 113.29
17934 70.4771 9820.32 9883.58 113.79
17935 70.4808 9929.84 9966.89 113.87
17936 70.4846 10005.60 10084.70 114.33
17937 70.4883 10384.00 10238.30 116.27
17938 70.4921 10311.40 10444.90 116.59
17939 70.4959 10423.10 10712.30 117.62
17940 70.4996 10790.50 11044.00 119.39
17941 70.5034 11214.30 11470.60 122.37
17942 70.5071 11958.40 11983.90 126.00
17943 70.5109 12330.70 12622.30 128.62
17944 70.5147 12969.70 13381.90 133.50
17945 70.5184 14073.40 14238.50 139.64
17946 70.5222 14869.60 15220.90 143.85
17947 70.5259 15940.50 16239.70 149.40
17948 70.5297 16971.50 17268.80 154.41
17949 70.5335 17595.70 18158.50 158.62
17950 70.5372 18345.10 18740.40 161.82
17951 70.5410 18824.60 18919.30 165.41
17952 70.5447 18248.30 18640.60 161.23
17953 70.5485 17697.30 17951.60 158.58
17954 70.5522 16509.90 17024.70 150.20
17955 70.5560 15600.90 15954.00 150.91
17956 70.5598 14336.70 14884.60 142.05
17957 70.5635 13557.10 13911.60 134.61
17958 70.5673 12701.50 13020.40 129.66
17959 70.5710 12059.50 12267.60 126.31
17960 70.5748 11307.50 11612.80 122.11
17961 70.5786 10749.20 11067.90 118.09
17962 70.5823 10440.90 10630.10 116.23
17963 70.5861 9951.35 10263.00 113.31
17964 70.5898 9956.87 9971.70 113.09
17965 70.5936 9763.96 9728.29 112.33
17966 70.5973 9292.15 9534.24 108.63
17967 70.6011 9339.27 9370.12 109.70
17968 70.6049 9068.74 9233.25 107.48
17969 70.6086 9186.82 9121.18 108.29
17970 70.6124 8929.20 9023.01 106.49
17971 70.6161 8714.23 8940.35 105.28
17972 70.6199 8618.84 8866.32 104.33
17973 70.6236 8696.13 8802.76 104.79
17974 70.6274 8780.69 8744.88 105.44
17975 70.6312 8699.50 8693.26 104.86
17976 70.6349 8601.13 8648.05 104.87
17977 70.6387 8510.79 8606.20 102.69
17978 70.6424 8583.36 8569.23 104.38
17979 70.6462 8477.00 8534.73 102.96
17980 70.6500 8449.55 8503.27 102.94
17981 70.6537 8551.55 8475.19 103.51
17982 70.6575 8333.08 8448.74 105.03
17983 70.6612 8285.29 8424.99 102.34
17984 70.6650 8241.90 8402.48 101.42
17985 70.6687 8341.70 8382.17 102.81
17986 70.6725 8397.29 8362.80 102.66
17987 70.6763 8298.27 8344.88 102.34
17988 70.6800 8430.55 8328.55 103.51
17989 70.6838 8595.13 8312.90 103.69
17990 70.6875 8200.13 8298.62 101.87
17991 70.6913 8314.10 8284.87 102.41
17992 70.6951 8273.78 8272.13 102.24
17993 70.6988 8320.98 8260.30 102.32
17994 70.7026 8187.90 8248.85 101.67
17995 70.7063 8290.55 8238.32 102.22
17996 70.7101 8296.31 8228.10 101.99
17997 70.7138 8168.49 8218.66 101.33
17998 70.7176 8268.59 8209.48 102.05
17999 70.7214 8270.08 8200.77 102.34
18000 70.7251 8325.78 8192.70 102.69
18001 70.7289 8340.11 8184.81 102.20
18002 70.7326 8158.79 8177.48 101.45
18003 70.7364 8340.97 8170.28 102.89
18004 70.7401 8222.24 8164.76 101.87
18005 70.7439 8207.77 8158.20 101.75
18006 70.7477 8247.54 8151.94 102.16
18007 70.7514 8072.92 8146.09 99.70
18008 70.7552 8372.33 8140.34 103.79
18009 70.7589 8323.24 8134.95 104.26
18010 70.7627 8330.04 8129.65 102.78
18011 70.7665 8180.98 8124.54 101.11
18012 70.7702 8265.05 8119.76 101.17
18013 70.7740 8096.47 8115.03 100.74
18014 70.7777 8185.00 8110.58 101.28
18015 70.7815 8016.84 8106.18 100.05
18016 70.7852 8228.00 8102.04 102.14
18017 70.7890 8176.27 8097.93 101.54
18018 70.7928 8106.48 8093.96 101.08
18019 70.7965 8159.26 8090.22 101.04
18020 70.8003 8136.06 8086.50 101.35
18021 70.8040 8069.02 8083.00 100.62
18022 70.8078 7961.42 8079.50 99.96
18023 70.8116 8089.27 8076.12 100.43
18024 70.8153 8080.43 8072.92 100.93
18025 70.8191 8217.11 8069.72 101.70
18026 70.8228 8208.38 8066.70 101.60
18027 70.8266 8136.33 8063.69 100.93
18028 70.8303 8022.91 8060.83 100.60
18029 70.8341 8278.77 8057.98 102.14
18030 70.8379 8163.52 8058.18 101.83
18031 70.8416 8240.39 8055.57 101.90
18032 70.8454 7952.03 8052.96 100.24
18033 70.8491 8073.46 8050.48 100.79
18034 70.8529 8035.31 8048.00 99.77
18035 70.8566 8363.34 8045.65 104.80
18036 70.8604 8038.84 8043.29 101.64
18037 70.8642 8095.86 8040.98 100.68
18038 70.8679 8022.82 8038.80 100.06
18039 70.8717 8150.01 8036.59 101.31
18040 70.8754 8258.09 8034.51 102.25
18041 70.8792 8103.94 8032.40 101.28
18042 70.8829 8095.43 8030.41 101.50
18043 70.8867 8077.77 8028.40 101.05
18044 70.8905 8103.63 8026.43 101.22
18045 70.8942 8069.51 8024.56 100.83
18046 70.8980 8080.73 8022.68 100.94
18047 70.9017 8328.22 8020.88 102.44
18048 70.9055 8112.49 8019.07 101.62
18049 70.9092 8306.84 8017.35 102.68
18050 70.9130 8108.78 8015.61 101.14
18051 70.9168 8255.75 8013.91 102.66
18052 70.9205 7965.92 8012.28 100.63
18053 70.9243 7978.22 8010.65 100.20
18054 70.9280 8036.93 8009.08 100.82
18055 70.9318 8265.66 8007.50 102.37
18056 70.9355 8112.74 8005.99 102.26
18057 70.9393 8276.55 8004.47 102.64
18058 70.9431 7999.87 8002.98 101.00
18059 70.9468 8065.98 8001.55 101.46
18060 70.9506 7976.73 8000.11 99.67
18061 70.9543 8097.33 7998.74 100.64
18062 70.9581 8384.19 7997.35 105.58
18063 70.9619 8118.03 7995.98 101.60
18064 70.9656 8055.69 7996.57 100.80
18065 70.9694 8133.99 7995.27 100.92
18066 70.9731 7935.89 7994.02 100.23
18067 70.9769 8076.44 7992.77 101.13
18068 70.9806 8184.84 7991.57 101.82
18069 70.9844 8136.17 7990.36 101.89
18070 70.9882 8105.30 7989.16 101.74
18071 70.9919 8073.15 7988.03 101.24
18072 70.9957 8085.79 7986.88 101.25
18073 70.9994 8185.29 7986.57 101.87
18074 71.0032 7987.01 7985.47 100.64
18075 71.0069 8121.10 7984.42 101.55
18076 71.0107 8060.49 7983.36 100.88
18077 71.0144 8222.44 7982.34 102.61
18078 71.0182 8097.15 7981.32 101.39
18079 71.0220 8243.80 7980.32 102.51
18080 71.0257 8046.16 7979.37 100.57
18081 71.0295 8108.78 7978.40 101.39
18082 71.0332 7989.35 7977.49 100.97
18083 71.0370 8201.48 7976.57 101.97
18084 71.0407 8165.06 7975.69 102.45
18085 71.0445 8355.59 7974.81 104.43
18086 71.0483 8087.56 7973.95 101.70
18087 71.0520 7989.09 7973.14 99.33
18088 71.0558 7962.83 7972.33 102.57
18089 71.0595 8133.44 7971.56 102.85
18090 71.0633 8201.91 7970.80 101.77
18091 71.0670 8055.38 7970.08 100.44
18092 71.0708 8147.08 7969.38 101.23
18093 71.0746 8093.61 7968.70 101.31
18094 71.0783 8114.64 7968.08 101.27
18095 71.0821 8217.81 7967.48 102.36
18096 71.0858 7991.24 7966.94 100.71
18097 71.0896 8261.16 7966.44 102.77
18098 71.0933 8104.76 7966.01 101.53
18099 71.0971 8312.65 7965.64 103.73
18100 71.1009 8141.08 7965.37 101.80
18101 71.1046 8145.57 7965.21 102.21
18102 71.1084 8100.36 7965.19 101.44
18103 71.1121 8174.33 7965.33 102.18
18104 71.1159 8039.43 7965.67 101.14
18105 71.1196 8161.38 7966.22 101.77
18106 71.1234 7995.06 7967.04 101.04
18107 71.1272 8160.50 7968.15 102.05
18108 71.1309 8070.79 7969.51 101.22
18109 71.1347 8157.34 7971.18 102.50
18110 71.1384 7863.72 7973.02 99.79
18111 71.1422 8036.21 7957.55 101.47
18112 71.1459 8280.53 7959.49 103.17
18113 71.1497 7984.53 7961.00 100.59
18114 71.1535 8188.70 7961.71 100.86
18115 71.1572 8196.77 7961.42 104.24
18116 71.1610 8029.78 7960.13 101.10
18117 71.1647 8121.62 7958.16 101.35
18118 71.1685 8017.19 7955.73 100.26
18119 71.1722 8017.23 7953.28 100.64
18120 71.1760 8233.68 7950.88 102.08
18121 71.1797 8126.43 7948.80 101.44
18122 71.1835 7959.96 7946.97 100.32
18123 71.1873 8107.50 7945.48 101.12
18124 71.1910 8111.53 7944.35 101.73
18125 71.1948 8081.38 7943.53 100.83
18126 71.1985 8015.67 7943.02 101.58
18127 71.2023 8047.80 7942.81 101.38
18128 71.2060 8063.93 7942.91 100.92
18129 71.2098 8059.10 7943.34 101.73
18130 71.2136 8028.88 7944.12 100.65
18131 71.2173 8106.06 7945.27 101.76
18132 71.2211 8001.21 7946.90 100.46
18133 71.2248 8109.71 7949.00 101.52
18134 71.2286 8014.81 7951.76 100.98
18135 71.2323 8076.30 7955.10 101.12
18136 71.2361 7910.30 7959.27 101.00
18137 71.2399 7928.99 7964.23 100.67
18138 71.2436 8126.16 7969.77 101.74
18139 71.2474 8240.67 7976.10 102.67
18140 71.2511 8007.00 7982.56 99.74
18141 71.2549 8304.54 7988.99 104.21
18142 71.2586 8105.81 7994.26 102.31
18143 71.2624 8052.66 7997.77 101.14
18144 71.2662 8028.38 7998.61 100.79
18145 71.2699 8213.77 7996.75 101.98
18146 71.2737 8037.60 7992.58 100.93
18147 71.2774 8189.77 7987.20 102.12
18148 71.2812 8067.34 7981.15 101.01
18149 71.2849 8036.99 7975.43 100.82
18150 71.2887 8206.54 7970.13 102.49
18151 71.2924 8043.93 7965.73 100.92
18152 71.2962 8074.73 7962.08 101.59
18153 71.3000 7985.29 7959.32 100.09
18154 71.3037 8099.29 7957.46 101.52
18155 71.3075 7831.77 7956.37 99.50
18156 71.3112 8103.77 7956.07 101.34
18157 71.3150 8188.45 7956.50 102.16
18158 71.3187 8084.36 7957.63 101.72
18159 71.3225 8155.87 7951.39 101.74
18160 71.3262 8070.27 7953.93 100.94
18161 71.3300 8050.14 7957.16 100.82
18162 71.3338 8073.22 7960.97 101.68
18163 71.3375 8113.82 7965.10 101.56
18164 71.3413 8042.44 7969.50 101.40
18165 71.3450 7998.64 7973.59 100.61
18166 71.3488 8004.15 7977.10 100.89
18167 71.3525 8094.62 7979.40 100.35
18168 71.3563 8330.38 7980.40 105.01
18169 71.3600 8241.61 7980.17 103.60
18170 71.3638 7944.50 7979.14 100.83
18171 71.3676 8101.86 7977.80 101.22
18172 71.3713 8142.88 7976.62 101.65
18173 71.3751 8077.79 7975.84 101.26
18174 71.3788 7872.85 7975.66 100.28
18175 71.3826 8079.55 7976.15 101.62
18176 71.3863 8170.97 7977.33 102.13
18177 71.3901 8115.24 7979.27 101.84
18178 71.3939 8066.86 7981.97 101.48
18179 71.3976 8028.83 7985.33 101.39
18180 71.4014 8045.70 7989.53 101.36
18181 71.4051 8033.96 7994.40 101.19
18182 71.4089 8014.06 8000.24 100.92
18183 71.4126 8184.10 8006.76 102.27
18184 71.4164 8056.49 8014.45 101.72
18185 71.4201 8029.52 8022.99 101.09
18186 71.4239 8144.98 8033.10 101.85
18187 71.4276 8295.91 8044.39 103.22
18188 71.4314 8162.42 8057.94 101.90
18189 71.4352 8325.21 8073.69 103.58
18190 71.4389 8066.21 8091.54 101.06
18191 71.4427 8330.74 8112.75 104.15
18192 71.4464 8217.87 8136.47 102.63
18193 71.4502 8363.95 8164.04 101.59
18194 71.4539 8397.31 8193.95 103.05
18195 71.4577 8434.96 8227.40 106.08
18196 71.4614 8482.89 8262.34 104.32
18197 71.4652 8463.98 8300.38 103.08
18198 71.4690 8460.52 8340.84 102.92
18199 71.4727 8596.68 8382.90 104.96
18200 71.4765 8651.65 8428.74 105.38
18201 71.4802 8702.31 8475.53 106.61
18202 71.4840 8710.02 8525.23 105.90
18203 71.4877 8786.18 8575.94 106.24
18204 71.4915 8756.02 8632.82 106.39
18205 71.4952 8873.38 8696.88 107.44
18206 71.4990 8947.47 8775.74 107.78
18207 71.5028 9077.53 8871.30 108.74
18208 71.5065 9139.95 8981.00 108.80
18209 71.5103 9001.81 9109.22 108.03
18210 71.5140 9184.32 9242.39 109.59
18211 71.5178 9151.17 9376.29 109.03
18212 71.5215 9336.75 9486.10 110.20
18213 71.5253 9229.67 9558.22 110.06
18214 71.5290 9211.35 9573.87 108.57
18215 71.5328 9274.72 9531.24 110.41
18216 71.5366 8997.59 9440.64 108.15
18217 71.5403 9174.56 9324.84 108.89
18218 71.5441 8968.52 9197.06 108.20
18219 71.5478 9002.91 9077.74 108.05
18220 71.5516 9029.87 8969.70 106.53
18221 71.5553 8878.68 8883.03 109.40
18222 71.5591 8734.91 8815.50 107.33
18223 71.5628 8673.27 8771.41 105.67
18224 71.5666 8720.04 8748.91 105.45
18225 71.5703 8826.49 8749.72 106.74
18226 71.5741 9064.93 8774.84 108.08
18227 71.5779 8916.16 8826.25 107.45
18228 71.5816 9014.37 8903.62 108.12
18229 71.5854 9296.25 9014.62 110.26
18230 71.5891 9410.10 9156.30 110.97
18231 71.5929 9510.92 9340.77 111.41
18232 71.5966 9978.12 9560.65 114.72
18233 71.6004 10260.50 9830.95 115.62
18234 71.6041 10295.60 10135.40 116.32
18235 71.6079 10742.80 10486.30 119.31
18236 71.6117 11386.20 10859.50 122.67
18237 71.6154 11587.30 11218.80 124.60
18238 71.6192 11997.20 11540.30 126.73
18239 71.6229 12153.90 11757.60 127.68
18240 71.6267 12089.00 11836.30 127.65
18241 71.6304 11833.70 11754.50 125.58
18242 71.6342 11489.00 11527.10 124.63
18243 71.6379 11229.50 11209.80 122.40
18244 71.6417 10727.30 10838.10 119.68
18245 71.6454 10210.80 10471.30 116.17
18246 71.6492 10028.30 10117.50 114.18
18247 71.6530 9591.03 9800.76 110.10
18248 71.6567 9564.13 9533.10 114.38
18249 71.6605 9462.57 9300.97 111.89
18250 71.6642 9180.34 9113.62 108.92
18251 71.6680 9000.29 8957.39 107.40
18252 71.6717 8861.21 8835.74 106.39
18253 71.6755 8915.10 8737.83 106.92
18254 71.6792 8743.55 8664.49 105.77
18255 71.6830 8709.07 8608.29 106.12
18256 71.6867 8655.99 8569.23 104.99
18257 71.6905 8574.08 8543.13 104.78
18258 71.6943 8460.25 8529.79 104.13
18259 71.6980 8570.43 8528.52 104.81
18260 71.7018 8514.78 8539.38 104.72
18261 71.7055 8511.81 8562.58 104.39
18262 71.7093 8544.76 8600.98 104.79
18263 71.7130 8548.45 8654.40 104.75
18264 71.7168 8733.75 8728.72 105.91
18265 71.7205 8791.98 8822.04 106.75
18266 71.7243 8796.60 8943.59 106.59
18267 71.7280 8862.04 9088.80 106.61
18268 71.7318 9146.32 9267.60 108.77
18269 71.7355 9424.73 9471.40 111.12
18270 71.7393 9543.23 9708.13 111.38
18271 71.7431 9802.14 9964.94 113.68
18272 71.7468 10082.70 10219.30 115.42
18273 71.7506 10092.10 10459.40 114.86
18274 71.7543 10460.40 10642.50 116.11
18275 71.7581 10625.10 10749.50 119.93
18276 71.7618 10441.60 10763.20 115.97
18277 71.7656 10429.50 10695.10 116.84
18278 71.7693 10356.00 10575.70 116.16
18279 71.7731 10253.20 10430.00 115.66
18280 71.7768 10091.20 10287.80 115.16
18281 71.7806 9827.96 10151.70 113.22
18282 71.7844 10123.50 10023.10 114.66
18283 71.7881 9855.24 9895.76 113.15
18284 71.7919 9590.58 9751.28 111.86
18285 71.7956 9661.72 9593.27 111.97
18286 71.7994 9478.47 9416.29 110.34
18287 71.8031 9336.63 9239.95 108.75
18288 71.8069 9035.68 9064.30 108.07
18289 71.8106 8998.07 8906.79 107.78
18290 71.8144 9074.47 8762.06 108.47
18291 71.8181 8682.80 8639.52 106.04
18292 71.8219 8598.38 8531.27 105.30
18293 71.8256 8547.57 8442.04 104.63
18294 71.8294 8573.01 8364.63 104.91
18295 71.8332 8426.55 8299.97 102.99
18296 71.8369 8322.60 8247.17 103.39
18297 71.8407 8199.60 8201.75 102.46
18298 71.8444 8340.83 8164.47 103.32
18299 71.8482 8144.20 8132.07 101.76
18300 71.8519 8283.88 8105.09 102.07
18301 71.8557 8215.90 8081.23 103.31
18302 71.8594 8271.62 8060.99 103.81
18303 71.8632 8134.07 8042.73 101.38
18304 71.8669 8065.14 8026.96 101.71
18305 71.8707 8076.77 8012.51 101.30
18306 71.8744 7976.91 7999.85 100.92
18307 71.8782 8234.33 7988.08 102.54
18308 71.8819 8172.26 7977.66 102.12
18309 71.8857 8186.02 7967.92 102.54
18310 71.8895 7780.27 7958.99 99.63
18311 71.8932 8100.65 7950.99 101.72
18312 71.8970 8087.67 7943.41 101.95
18313 71.9007 8158.09 7936.60 101.78
18314 71.9045 8165.44 7930.09 101.81
18315 71.9082 8217.03 7924.22 102.38
18316 71.9120 8213.77 7918.58 102.63
18317 71.9157 8182.68 7913.46 102.72
18318 71.9195 8109.61 7908.53 101.81
18319 71.9232 8067.82 7904.03 101.56
18320 71.9270 8023.09 7899.68 101.88
18321 71.9307 8020.62 7895.70 101.19
18322 71.9345 7831.15 7891.83 100.49
18323 71.9382 8021.67 7888.28 101.41
18324 71.9420 7925.43 7884.80 100.53
18325 71.9458 7964.60 7881.52 101.29
18326 71.9495 8164.10 7878.49 102.48
18327 71.9533 8103.29 7875.53 101.15
18328 71.9570 8165.41 7872.79 104.26
18329 71.9608 8212.63 7870.10 103.73
18330 71.9645 8151.50 7867.60 102.92
18331 71.9683 8156.57 7865.14 102.08
18332 71.9720 8128.74 7862.85 101.82
18333 71.9758 8027.18 7871.99 100.26
18334 71.9795 7950.44 7869.99 100.64
18335 71.9833 8084.84 7868.03 100.70
18336 71.9851 8149.01 7867.12 102.47
18337 71.9889 8155.07 7865.28 102.60
18338 71.9926 8099.64 7863.55 101.88
18339 71.9964 8156.03 7861.85 102.42
18340 72.0001 7960.50 7860.26 101.35
18341 72.0039 8188.40 7858.69 102.64
18342 72.0076 7996.12 7857.21 101.23
18343 72.0114 8228.43 7855.75 103.40
18344 72.0151 8150.70 7854.38 101.57
18345 72.0189 8166.11 7853.03 103.00
18346 72.0227 8129.18 7851.72 102.37
18347 72.0264 8064.34 7850.49 101.49
18348 72.0302 8160.76 7849.26 102.82
18349 72.0339 8008.13 7848.11 101.38
18350 72.0377 7817.71 7846.97 98.47
18351 72.0414 8192.76 7845.90 104.78
18352 72.0452 8089.37 7844.82 103.01
18353 72.0489 8081.31 7843.82 101.76
18354 72.0527 8057.07 7842.81 101.08
18355 72.0564 7929.70 7841.81 100.71
18356 72.0602 8214.61 7840.87 102.46
18357 72.0640 8150.55 7839.96 102.38
18358 72.0677 7982.47 7839.09 101.20
18359 72.0715 8098.77 7838.23 102.26
18360 72.0752 8017.36 7850.09 101.64
18361 72.0790 7935.20 7849.40 100.85
18362 72.0827 8157.26 7848.75 102.65
18363 72.0865 7997.75 7848.11 100.73
18364 72.0902 8302.90 7847.51 103.27
18365 72.0940 8162.06 7846.92 102.43
18366 72.0977 7932.61 7846.36 100.30
18367 72.1015 8044.28 7845.81 101.66
18368 72.1053 8079.54 7845.28 101.62
18369 72.1090 7992.58 7844.79 101.02
18370 72.1128 7972.12 7844.30 101.16
18371 72.1165 8238.84 7843.84 102.60
18372 72.1203 8031.94 7843.40 102.09
18373 72.1240 8108.74 7842.98 102.11
18374 72.1278 8070.93 7842.57 102.20
18375 72.1315 8092.86 7842.18 102.15
18376 72.1353 8010.93 7841.81 100.85
18377 72.1390 7980.58 7841.46 99.51
18378 72.1428 8216.54 7841.09 105.24
18379 72.1466 8310.18 7840.77 104.23
18380 72.1503 7880.12 7875.37 100.19
18381 72.1541 8136.80 7875.41 101.69
18382 72.1578 8041.11 7875.47 100.95
18383 72.1616 8188.21 7875.56 102.14
18384 72.1653 7799.72 7875.66 99.41
18385 72.1691 7886.18 7875.79 100.58
18386 72.1728 8152.96 7875.93 101.72
18387 72.1766 8200.06 7876.10 102.39
18388 72.1804 7951.55 7876.29 100.76
18389 72.1841 8177.99 7876.50 102.28
18390 72.1879 8153.90 7876.73 102.40
18391 72.1916 8033.28 7876.97 101.25
18392 72.1954 7960.28 7877.25 100.91
18393 72.1991 8071.02 7877.54 101.62
18394 72.2029 8014.07 7877.85 101.12
18395 72.2066 7980.39 7878.18 101.31
18396 72.2104 7910.79 7878.54 100.63
18397 72.2141 7970.81 7878.92 100.66
18398 72.2179 8147.70 7879.32 102.14
18399 72.2204 7990.12 7879.60 100.04
18400 72.2242 8254.22 7880.04 102.71
18401 72.2279 7942.98 7880.50 100.54
18402 72.2317 8140.77 7880.99 101.43
18403 72.2354 8027.56 7881.48 101.96
18404 72.2392 7982.05 7882.02 101.01
18405 72.2429 8024.93 7882.56 101.12
18406 72.2467 8116.04 7896.29 101.31
18407 72.2504 7951.89 7897.01 99.90
18408 72.2542 8090.76 7897.72 100.61
18409 72.2579 8182.60 7898.49 104.33
18410 72.2617 8119.61 7899.30 101.89
18411 72.2655 8032.25 7900.14 101.25
18412 72.2692 7875.53 7900.99 99.50
18413 72.2730 8044.38 7901.90 100.69
18414 72.2767 8158.19 7902.64 102.17
18415 72.2805 8154.56 7903.61 100.52
18416 72.2842 8017.13 7904.57 100.82
18417 72.2880 8111.94 7905.60 101.07
18418 72.2917 7994.04 7906.63 101.25
18419 72.2955 8074.09 7907.71 102.10
18420 72.2992 8263.43 7908.81 102.77
18421 72.3030 8093.17 7909.96 101.59
18422 72.3067 8120.50 7911.12 101.94
18423 72.3105 8059.45 7912.35 101.03
18424 72.3143 8145.59 7913.62 100.55
18425 72.3180 8070.32 7914.88 101.01
18426 72.3218 8229.33 7915.10 101.74
18427 72.3255 8082.98 7916.45 101.27
18428 72.3293 8171.18 7917.88 101.55
18429 72.3330 8160.83 7919.31 102.17
18430 72.3368 8153.26 7920.82 103.11
18431 72.3405 8073.75 7922.33 101.53
18432 72.3443 7937.39 7923.93 100.82
18433 72.3480 7887.78 7925.52 100.44
18434 72.3518 7986.45 7927.21 100.02
18435 72.3556 8287.25 7928.95 104.11
18436 72.3593 8078.32 7930.69 102.46
18437 72.3631 8121.22 7932.52 101.97
18438 72.3668 7970.50 7934.36 100.43
18439 72.3706 8051.96 7936.30 101.20
18440 72.3743 8281.56 7938.24 102.35
18441 72.3781 8199.40 7940.29 101.95
18442 72.3818 8094.95 7942.34 101.84
18443 72.3856 8329.69 7944.50 103.46
18444 72.3893 8096.72 7946.67 101.82
18445 72.3931 7990.15 7948.97 100.19
18446 72.3968 8104.81 7951.26 101.55
18447 72.4006 7931.90 7953.68 100.70
18448 72.4043 8260.72 7956.11 103.69
18449 72.4081 8123.49 7958.67 102.50
18450 72.4119 8127.90 7961.31 102.05
18451 72.4156 8147.52 7963.95 102.57
18452 72.4194 8131.46 7963.79 101.88
18453 72.4231 8163.66 7966.61 101.89
18454 72.4269 8119.86 7969.60 101.49
18455 72.4306 8268.80 7972.59 103.13
18456 72.4344 8326.02 7975.75 103.78
18457 72.4381 8310.98 7978.92 103.32
18458 72.4419 8140.49 7982.27 102.58
18459 72.4457 8347.88 7985.72 103.32
18460 72.4494 8145.57 7989.18 102.56
18461 72.4532 8205.58 7992.84 101.75
18462 72.4569 8362.95 7996.52 105.82
18463 72.4607 8187.71 8000.40 103.64
18464 72.4644 8214.13 8004.31 102.24
18465 72.4682 8082.98 8008.44 100.55
18466 72.4719 8278.15 8012.59 102.61
18467 72.4757 8296.12 8016.99 103.32
18468 72.4794 8197.88 8021.41 102.21
18469 72.4832 8238.44 8026.09 103.34
18470 72.4870 8349.28 8030.92 103.63
18471 72.4907 8360.34 8035.79 103.82
18472 72.4945 8178.28 8040.95 102.60
18473 72.4982 8266.21 8046.14 102.99
18474 72.5020 8185.68 8051.65 101.96
18475 72.5057 8203.00 8057.21 102.88
18476 72.5095 8317.03 8063.10 103.83
18477 72.5132 8322.99 8069.05 103.46
18478 72.5170 8271.14 8075.37 103.03
18479 72.5207 8381.17 8081.75 103.42
18480 72.5245 8197.69 8088.53 103.06
18481 72.5283 8452.36 8095.57 103.86
18482 72.5320 8281.41 8102.66 103.05
18483 72.5358 8375.31 8110.24 103.99
18484 72.5395 8463.22 8117.88 104.26
18485 72.5433 8148.66 8126.07 102.78
18486 72.5470 8377.58 8134.30 103.79
18487 72.5508 8331.90 8143.14 103.36
18488 72.5545 8215.13 8150.18 101.27
18489 72.5583 8422.46 8159.76 106.47
18490 72.5620 8337.09 8169.46 104.71
18491 72.5658 8433.12 8179.83 103.74
18492 72.5696 8288.82 8190.65 103.00
18493 72.5733 8334.13 8201.66 103.22
18494 72.5771 8250.27 8213.44 103.19
18495 72.5808 8348.31 8225.45 103.55
18496 72.5846 8275.31 8238.33 103.26
18497 72.5883 8666.13 8250.69 106.05
18498 72.5921 8426.27 8264.82 104.36
18499 72.5958 8567.82 8279.26 105.43
18500 72.5996 8352.69 8294.79 103.98
18501 72.6034 8624.36 8311.13 106.54
18502 72.6071 8387.90 8327.87 103.72
18503 72.6109 8320.42 8345.94 103.51
18504 72.6146 8644.76 8364.50 105.56
18505 72.6184 8624.32 8384.58 106.14
18506 72.6221 8629.95 8405.26 106.36
18507 72.6259 8751.43 8427.69 105.75
18508 72.6296 8841.24 8450.84 105.96
18509 72.6334 8572.94 8476.02 105.27
18510 72.6372 8778.06 8502.83 107.43
18511 72.6409 8795.45 8530.57 106.73
18512 72.6447 8767.60 8560.90 107.23
18513 72.6484 8702.67 8592.44 106.18
18514 72.6522 8638.56 8627.04 104.78
18515 72.6559 8910.35 8663.17 107.56
18516 72.6597 8701.17 8702.94 107.04
18517 72.6634 8760.41 8744.66 106.46
18518 72.6672 9075.38 8790.80 107.63
18519 72.6710 8814.74 8840.72 106.43
18520 72.6747 8920.11 8893.46 107.10
18521 72.6785 9336.11 8952.26 111.23
18522 72.6822 9272.70 9014.75 109.66
18523 72.6860 9280.70 9084.87 108.82
18524 72.6897 9287.09 9159.92 108.67
18525 72.6935 9421.83 9244.99 109.54
18526 72.6972 9474.39 9336.72 110.40
18527 72.7010 9682.24 9441.62 111.82
18528 72.7048 9956.54 9559.77 113.51
18529 72.7085 9856.34 9689.64 112.95
18530 72.7123 10228.00 9842.43 115.20
18531 72.7160 10519.80 10013.80 116.85
18532 72.7198 10542.90 10219.80 117.07
18533 72.7235 10654.60 10456.10 117.84
18534 72.7273 11192.50 10746.30 120.61
18535 72.7310 11488.90 11085.10 122.66
18536 72.7348 11861.30 11506.60 125.36
18537 72.7386 12479.40 12017.20 128.66
18538 72.7423 13153.40 12618.20 133.24
18539 72.7461 13695.00 13358.50 135.91
18540 72.7498 14572.00 14216.70 140.77
18541 72.7536 15600.00 15250.20 143.73
18542 72.7573 17005.50 16412.00 156.22
18543 72.7611 17888.80 17753.50 159.93
18544 72.7649 19359.90 19212.90 165.33
18545 72.7686 20117.50 20679.50 168.67
18546 72.7724 21407.60 22105.90 175.03
18547 72.7761 22122.20 23252.90 177.83
18548 72.7799 21997.20 23991.30 179.33
18549 72.7836 22230.80 24153.10 180.06
18550 72.7874 21681.90 23731.00 177.99
18551 72.7911 20826.30 22855.70 173.03
18552 72.7949 19731.80 21666.90 168.42
18553 72.7987 18344.80 20367.40 161.20
18554 72.8024 17407.00 19136.40 156.60
18555 72.8062 16808.60 17987.50 152.53
18556 72.8099 16077.20 17030.20 149.11
18557 72.8137 15706.40 16227.10 146.74
18558 72.8174 15468.30 15628.30 146.10
18559 72.8212 15042.40 15196.00 143.60
18560 72.8250 15027.90 14945.50 143.05
18561 72.8287 15187.40 14872.00 144.06
18562 72.8325 15125.90 14969.60 143.41
18563 72.8362 15699.00 15235.10 146.22
18564 72.8400 16091.60 15687.40 149.21
18565 72.8437 16697.80 16311.70 152.85
18566 72.8475 17764.00 17149.60 157.85
18567 72.8512 19017.00 18166.40 163.27
18568 72.8550 20135.30 19417.00 169.18
18569 72.8588 21553.50 20867.00 180.23
18570 72.8625 23121.80 22439.00 184.69
18571 72.8663 24767.10 24140.90 192.10
18572 72.8700 26717.10 25764.10 200.60
18573 72.8738 27893.20 27212.10 203.92
18574 72.8775 28738.50 28206.40 210.01
18575 72.8813 29313.30 28649.70 213.11
18576 72.8850 28732.80 28488.30 209.59
18577 72.8888 28111.40 27831.20 206.74
18578 72.8926 27285.70 26893.40 203.50
18579 72.8963 26400.10 25927.30 197.48
18580 72.9001 25548.10 25066.60 195.49
18581 72.9038 25080.10 24481.60 193.58
18582 72.9076 24916.20 24232.00 192.39
18583 72.9113 25576.10 24392.30 195.91
18584 72.9151 26245.30 25020.50 198.57
18585 72.9189 27182.20 26160.50 203.91
18586 72.9226 29431.60 27798.30 212.35
18587 72.9264 31982.10 30043.20 224.80
18588 72.9301 34812.40 32789.50 236.25
18589 72.9339 38694.90 36154.30 252.15
18590 72.9376 43001.80 39889.50 268.94
18591 72.9414 47259.90 44012.40 287.08
18592 72.9452 51857.60 48111.50 302.43
18593 72.9489 55453.80 51622.90 313.92
18594 72.9527 57153.20 54152.20 316.00
18595 72.9564 58579.80 55065.10 330.69
18596 72.9602 56726.30 54188.70 321.83
18597 72.9639 53351.60 51745.10 307.99
18598 72.9677 48835.30 48077.60 288.58
18599 72.9714 43954.70 43952.00 270.21
18600 72.9752 39280.80 39600.90 254.24
18601 72.9790 34945.50 35496.10 236.89
18602 72.9827 30861.90 31891.10 219.43
18603 72.9865 27764.80 28677.30 206.66
18604 72.9902 25386.80 26032.90 195.54
18605 72.9940 23195.40 23804.60 185.15
18606 72.9977 21281.50 22072.60 176.73
18607 73.0015 20283.40 20708.00 171.23
18608 73.0053 19399.70 19721.40 166.68
18609 73.0090 18703.50 19090.10 164.36
18610 73.0128 18362.80 18754.00 162.64
18611 73.0165 18556.40 18710.10 162.70
18612 73.0203 18286.20 18942.10 161.59
18613 73.0240 19015.90 19428.10 165.44
18614 73.0278 19437.10 20182.70 166.69
18615 73.0316 20586.40 21180.60 172.23
18616 73.0353 22018.10 22347.70 181.27
18617 73.0391 23188.60 23685.90 185.01
18618 73.0428 24607.50 25006.50 192.54
18619 73.0466 26035.20 26212.40 199.89
18620 73.0504 26984.50 27039.90 203.16
18621 73.0541 27190.10 27289.10 202.72
18622 73.0579 27089.50 26874.10 207.74
18623 73.0616 25754.90 25865.80 198.21
18624 73.0654 24176.10 24385.80 188.59
18625 73.0691 22191.90 22716.40 179.46
18626 73.0729 20422.00 20956.20 172.39
18627 73.0767 18760.80 19274.50 164.03
18628 73.0804 17101.50 17778.90 154.77
18629 73.0842 15621.20 16422.20 147.30
18630 73.0879 14621.20 15277.90 142.16
18631 73.0917 13456.80 14278.50 135.12
18632 73.0954 12810.50 13458.80 131.77
18633 73.0992 12225.30 12756.90 128.47
18634 73.1030 11967.80 12173.30 126.37
18635 73.1067 11298.20 11704.70 123.15
18636 73.1105 11072.50 11301.80 121.00
18637 73.1142 10668.70 10974.40 118.18
18638 73.1180 10315.10 10691.00 116.12
18639 73.1217 10238.70 10455.60 115.83
18640 73.1255 10058.70 10247.40 114.62
18641 73.1292 9798.65 10070.70 113.29
18642 73.1330 9663.85 9911.20 111.82
18643 73.1368 9591.81 9769.83 111.75
18644 73.1405 9478.71 9646.58 110.85
18645 73.1443 9460.26 9532.88 110.32
18646 73.1480 9291.05 9432.45 109.24
18647 73.1518 9134.56 9338.76 107.29
18648 73.1556 9273.26 9253.33 111.50
18649 73.1593 9227.68 9177.04 111.48
18650 73.1631 8970.44 9105.10 107.55
18651 73.1668 8847.73 9040.46 106.12
18652 73.1706 9108.62 8979.17 107.16
18653 73.1743 9093.21 8923.82 107.81
18654 73.1781 8975.75 8871.09 106.93
18655 73.1819 8909.38 8821.97 106.27
18656 73.1856 8847.01 8777.47 105.96
18657 73.1894 8770.80 8734.66 105.71
18658 73.1931 8882.13 8695.67 106.80
18659 73.1969 8751.20 8658.15 105.74
18660 73.2006 8776.40 8623.79 105.16
18661 73.2044 8603.39 8590.63 104.14
18662 73.2082 8542.55 8560.20 104.70
18663 73.2119 8614.33 8531.49 104.77
18664 73.2157 8627.82 8503.66 104.95
18665 73.2194 8701.78 8478.00 105.75
18666 73.2232 8666.80 8453.06 104.79
18667 73.2270 8668.01 8429.43 105.29
18668 73.2307 8603.58 8407.55 104.80
18669 73.2345 8440.91 8386.23 103.16
18670 73.2382 8684.73 8366.45 105.52
18671 73.2420 8600.60 8347.06 105.09
18672 73.2457 8418.58 8329.17 102.85
18673 73.2495 8538.04 8311.54 104.11
18674 73.2532 8418.75 8295.21 102.05
18675 73.2570 8523.46 8279.15 105.32
18676 73.2608 8444.57 8263.82 105.32
18677 73.2645 8306.97 8249.52 102.89
18678 73.2683 8441.61 8235.46 102.12
18679 73.2720 8463.79 8222.33 103.72
18680 73.2758 8224.12 8209.41 101.44
18681 73.2796 8187.98 8197.01 101.74
18682 73.2833 8399.70 8185.40 101.68
18683 73.2871 8472.43 8173.95 104.08
18684 73.2908 8459.00 8163.22 103.95
18685 73.2946 8382.03 8152.62 103.52
18686 73.2983 8344.35 8142.68 102.38
18687 73.3021 8289.38 8132.85 102.54
18688 73.3059 8158.14 8123.37 101.69
18689 73.3096 8117.46 8114.49 101.67
18690 73.3134 8263.53 8105.66 102.29
18691 73.3171 8102.18 8097.39 100.56
18692 73.3209 8117.56 8089.17 101.55
18693 73.3247 8139.02 8081.24 101.69
18694 73.3284 8148.04 8073.77 101.36
18695 73.3322 8121.06 8066.36 101.61
18696 73.3359 8294.98 8059.37 103.50
18697 73.3397 8241.62 8052.43 101.66
18698 73.3434 8131.07 8045.88 102.04
18699 73.3472 8189.11 8039.37 102.33
18700 73.3510 8025.65 8033.07 100.85
18701 73.3547 8136.23 8027.12 100.86
18702 73.3585 8355.52 8021.20 105.12
18703 73.3622 8161.53 8015.60 102.11
18704 73.3660 8265.08 8010.02 102.07
18705 73.3698 8273.45 8004.60 101.74
18706 73.3735 8091.96 7999.50 101.32
18707 73.3773 8326.33 7995.39 101.68
18708 73.3810 8262.57 7990.58 102.18
18709 73.3848 8141.15 7985.76 101.65
18710 73.3885 8081.24 7981.22 101.15
18711 73.3923 8109.38 7976.67 101.53
18712 73.3961 8221.41 7972.26 102.13
18713 73.3998 8078.68 7968.08 101.51
18714 73.4036 8048.96 7963.90 101.09
18715 73.4073 8072.16 7959.94 101.60
18716 73.4111 8232.65 7955.98 102.26
18717 73.4148 8002.98 7952.23 100.88
18718 73.4186 8084.53 7948.48 101.17
18719 73.4224 8189.01 7944.82 101.27
18720 73.4261 8017.76 7941.35 100.94
18721 73.4299 8005.03 7937.88 100.60
18722 73.4336 8129.39 7934.59 101.96
18723 73.4374 8130.46 7931.29 102.11
18724 73.4412 8085.79 7928.07 100.75
18725 73.4449 8171.16 7925.02 102.06
18726 73.4487 8037.43 7921.96 101.49
18727 73.4524 8001.91 7919.06 99.97
18728 73.4562 8227.41 7916.14 102.29
18729 73.4599 8436.06 7913.37 105.72
18730 73.4637 8111.71 7911.77 101.66
18731 73.4675 7891.63 7909.07 99.83
18732 73.4712 8102.06 7906.50 101.05
18733 73.4750 8016.48 7903.93 100.89
18734 73.4787 7892.23 7901.49 100.36
18735 73.4825 7935.16 7899.04 100.86
18736 73.4863 8144.80 7896.64 102.08
18737 73.4900 7943.49 7894.36 100.13
18738 73.4938 8060.93 7892.08 101.88
18739 73.4975 7949.56 7889.90 100.92
18740 73.5013 8030.20 7887.72 101.48
18741 73.5050 7963.66 7885.64 100.30
18742 73.5088 8042.22 7883.55 101.25
18743 73.5126 7928.14 7881.51 100.63
18744 73.5163 8061.92 7879.58 101.50
18745 73.5201 8070.08 7877.63 100.90
18746 73.5238 8065.05 7875.77 101.34
18747 73.5276 8072.77 7873.91 101.38
18748 73.5314 8064.49 7872.09 101.44
18749 73.5351 7960.46 7870.36 101.30
18750 73.5389 8013.99 7868.62 100.87
18751 73.5426 8030.48 7866.96 101.05
18752 73.5464 7955.40 7865.30 100.84
18753 73.5501 7946.99 7863.71 100.36
18754 73.5539 7817.52 7862.12 98.58
18755 73.5577 8069.71 7860.57 104.30
18756 73.5614 7926.56 7859.08 102.23
18757 73.5652 8068.71 7857.60 101.53
18758 73.5689 8108.25 7856.18 101.68
18759 73.5727 8108.25 7854.76 102.08
18760 73.5765 7963.30 7853.36 101.40
18761 73.5802 7996.68 7852.04 100.30
18762 73.5840 7883.84 7850.71 101.00
18763 73.5877 8034.88 7849.45 101.68
18764 73.5915 8097.25 7836.83 101.79
18765 73.5953 8102.78 7835.70 102.08
18766 73.5990 8137.85 7834.62 102.36
18767 73.6028 7936.49 7833.54 100.21
18768 73.6065 8074.52 7832.51 100.17
18769 73.6103 8038.25 7831.48 101.24
18770 73.6141 7952.38 7830.48 101.01
18771 73.6178 7909.72 7829.53 100.44
18772 73.6216 7997.97 7828.58 100.99
18773 73.6253 7937.17 7827.68 100.63
18774 73.6291 7856.59 7826.78 99.37
18775 73.6328 7870.64 7825.92 99.99
18776 73.6366 7917.11 7825.07 100.82
18777 73.6404 7905.54 7824.24 100.85
18778 73.6441 8043.30 7823.46 99.82
18779 73.6479 7998.76 7822.68 99.72
18780 73.6516 8119.04 7821.94 100.31
18781 73.6554 7886.04 7821.21 98.51
18782 73.6592 8059.91 7820.51 102.45
18783 73.6629 8022.01 7819.85 100.25
18784 73.6667 7960.44 7819.19 98.46
18785 73.6704 7997.65 7818.58 99.28
18786 73.6742 7922.89 7817.98 98.68
18787 73.6779 8063.09 7817.42 100.24
18788 73.6817 8099.72 7816.87 100.88
18789 73.6855 7991.13 7816.35 99.61
18790 73.6892 7972.72 7803.28 99.28
18791 73.6930 7882.83 7802.94 99.34
18792 73.6967 7741.15 7802.65 98.15
18793 73.7005 7815.00 7802.37 98.26
18794 73.7043 7911.36 7802.14 98.52
18795 73.7080 7911.04 7801.96 98.77
18796 73.7118 7991.90 7801.81 99.81
18797 73.7155 7757.45 7801.73 98.17
18798 73.7193 7869.77 7801.71 98.74
18799 73.7231 7849.93 7801.76 98.71
18800 73.7268 7829.75 7801.88 98.55
18801 73.7306 7924.15 7802.11 98.94
18802 73.7343 7800.52 7802.43 97.79
18803 73.7381 7918.31 7802.88 98.78
18804 73.7419 7792.67 7803.44 97.83
18805 73.7456 7849.91 7804.12 98.45
18806 73.7494 7642.53 7804.92 97.20
18807 73.7531 7875.34 7805.80 98.49
18808 73.7569 7911.94 7806.75 98.70
18809 73.7606 7826.73 7807.65 100.36
18810 73.7644 7883.95 7808.46 98.81
18811 73.7682 7750.00 7774.51 97.73
18812 73.7719 7926.56 7775.17 98.43
18813 73.7757 7815.70 7775.63 98.47
18814 73.7794 7916.85 7775.96 98.72
18815 73.7832 7874.45 7776.31 98.47
18816 73.7870 7774.42 7776.77 98.56
18817 73.7907 7901.18 7777.43 98.63
18818 73.7945 7770.43 7778.39 98.43
18819 73.7982 7960.14 7779.68 99.79
18820 73.8020 7976.83 7781.44 99.09
18821 73.8058 7871.04 7783.72 98.54
18822 73.8095 7934.97 7786.52 99.33
18823 73.8133 7694.06 7790.08 97.24
18824 73.8170 8058.81 7794.32 100.06
18825 73.8208 7803.39 7799.56 98.42
18826 73.8245 7887.81 7805.62 98.64
18827 73.8283 7836.65 7812.87 98.32
18828 73.8321 7936.77 7821.17 98.27
18829 73.8358 7915.60 7830.13 99.90
18830 73.8396 8022.38 7839.98 99.93
18831 73.8433 8000.42 7849.64 100.09
18832 73.8471 8091.19 7858.76 100.94
18833 73.8509 7826.56 7865.93 98.45
18834 73.8546 7893.60 7869.97 98.26
18835 73.8584 8082.57 7870.50 102.62
18836 73.8621 7799.16 7867.65 99.15
18837 73.8659 7933.13 7849.06 99.06
18838 73.8697 7710.53 7842.26 97.44
18839 73.8734 7741.36 7835.31 97.03
18840 73.8772 7920.49 7828.60 99.27
18841 73.8809 7853.04 7822.93 99.16
18842 73.8847 8006.34 7818.22 100.86
18843 73.8885 7982.22 7814.75 99.71
18844 73.8922 7944.60 7812.58 99.48
18845 73.8960 7936.54 7811.56 99.85
18846 73.8997 8056.38 7811.73 100.38
18847 73.9035 8005.83 7813.08 100.04
18848 73.9073 8051.39 7815.62 100.39
18849 73.9110 8022.96 7819.28 100.44
18850 73.9148 7862.88 7824.34 98.67
18851 73.9185 8000.64 7830.65 100.76
18852 73.9223 7940.24 7838.67 99.32
18853 73.9260 7935.88 7848.19 99.70
18854 73.9298 7972.89 7859.87 100.15
18855 73.9336 7888.66 7873.66 99.11
18856 73.9373 8034.55 7889.28 101.40
18857 73.9411 7973.02 7907.56 99.88
18858 73.9448 8029.28 7927.43 100.36
18859 73.9486 8186.69 7949.52 102.21
18860 73.9524 8150.03 7972.33 100.89
18861 73.9561 8048.01 7993.95 99.96
18862 73.9599 8455.58 8013.76 105.22
18863 73.9636 8214.28 8029.34 101.92
18864 73.9674 8241.05 8041.09 101.78
18865 73.9712 8106.65 8049.65 100.55
18866 73.9749 8288.78 8057.21 102.25
18867 73.9787 8213.84 8067.04 101.26
18868 73.9824 8408.71 8081.29 102.69
18869 73.9862 8330.02 8103.00 102.37
18870 73.9900 8348.28 8133.71 102.80
18871 73.9937 8478.73 8173.71 104.07
18872 73.9975 8482.50 8226.05 103.61
18873 74.0012 8575.24 8288.57 104.28
18874 74.0050 8692.02 8364.21 105.20
18875 74.0088 8731.16 8450.22 105.42
18876 74.0125 8822.11 8539.92 105.56
18877 74.0163 9056.90 8631.64 107.55
18878 74.0200 8920.32 8711.09 106.47
18879 74.0238 9140.55 8770.05 108.15
18880 74.0276 9093.10 8794.73 107.73
18881 74.0313 8916.50 8780.36 106.08
18882 74.0351 8785.24 8729.12 106.03
18883 74.0388 8837.38 8653.15 106.16
18884 74.0426 8940.92 8560.84 107.03
18885 74.0463 8805.42 8467.22 106.24
18886 74.0501 8574.05 8374.92 104.07
18887 74.0539 8285.69 8290.71 100.96
18888 74.0576 8547.04 8218.32 106.61
18889 74.0614 8317.20 8154.38 103.58
18890 74.0651 8245.71 8102.05 101.59
18891 74.0689 8189.16 8057.41 101.18
18892 74.0727 8216.00 8021.15 101.72
18893 74.0764 8219.65 7992.68 101.99
18894 74.0802 8065.15 7969.44 100.49
18895 74.0839 8019.02 7951.64 100.58
18896 74.0877 7955.46 7937.49 99.98
18897 74.0915 8227.81 7926.76 102.06
18898 74.0952 7884.03 7919.02 99.83
18899 74.0990 8079.28 7913.43 100.79
18900 74.1027 8007.34 7909.94 100.70
18901 74.1065 7937.12 7908.14 99.73
18902 74.1103 8060.78 7907.99 101.09
18903 74.1140 8039.18 7909.37 99.90
18904 74.1178 8049.62 7912.34 100.69
18905 74.1215 8053.47 7916.79 101.30
18906 74.1253 8101.05 7923.10 100.98
18907 74.1291 8109.93 7931.41 100.40
18908 74.1328 7870.82 7941.62 98.93
18909 74.1366 8059.08 7954.83 101.35
18910 74.1403 7979.83 7970.80 99.23
18911 74.1441 8172.61 7991.09 101.16
18912 74.1479 8070.17 8016.25 100.56
18913 74.1516 8186.05 8046.50 100.62
18914 74.1554 8209.73 8084.66 100.48
18915 74.1591 8319.03 8130.14 104.33
18916 74.1629 8417.33 8186.72 103.32
18917 74.1667 8391.17 8254.80 102.49
18918 74.1704 8383.12 8333.42 102.44
18919 74.1742 8471.19 8427.59 103.21
18920 74.1779 8556.31 8531.95 103.64
18921 74.1817 8814.49 8651.10 105.11
18922 74.1855 8898.09 8777.70 105.76
18923 74.1892 9206.59 8900.95 107.95
18924 74.1930 9212.51 9015.11 108.30
18925 74.1967 9148.08 9099.62 107.77
18926 74.2005 9332.56 9144.33 109.19
18927 74.2043 9226.92 9138.66 108.00
18928 74.2080 9242.89 9087.50 108.41
18929 74.2118 9188.39 9000.44 108.07
18930 74.2155 9100.20 8897.34 107.09
18931 74.2193 8850.24 8787.37 105.40
18932 74.2231 8855.51 8683.75 105.04
18933 74.2268 8584.30 8595.20 103.83
18934 74.2306 8598.22 8520.73 103.04
18935 74.2343 8509.11 8465.83 103.29
18936 74.2381 8447.55 8428.54 103.63
18937 74.2419 8553.63 8410.92 103.15
18938 74.2456 8573.69 8412.98 104.05
18939 74.2494 8399.91 8435.06 102.90
18940 74.2531 8590.25 8476.19 103.48
18941 74.2569 8573.63 8538.71 103.48
18942 74.2606 8858.76 8618.81 108.04
18943 74.2644 8911.58 8720.14 106.45
18944 74.2682 8919.64 8837.70 106.13
18945 74.2719 9179.87 8962.86 106.92
18946 74.2757 9244.29 9092.72 107.80
18947 74.2794 9403.24 9206.92 109.46
18948 74.2832 9713.00 9293.36 111.17
18949 74.2870 9542.07 9331.24 110.02
18950 74.2907 9547.54 9311.95 110.63
18951 74.2945 9443.52 9236.98 109.96
18952 74.2982 9405.57 9123.62 109.55
18953 74.3020 9061.03 8983.19 107.05
18954 74.3058 9032.78 8835.57 106.36
18955 74.3095 8647.04 8695.89 104.45
18956 74.3133 8651.42 8567.12 104.21
18957 74.3170 8484.45 8452.38 103.07
18958 74.3208 8321.70 8350.00 101.93
18959 74.3246 8432.32 8262.71 102.86
18960 74.3283 8196.79 8190.99 101.09
18961 74.3321 8050.48 8129.59 100.36
18962 74.3358 8036.73 8079.98 100.09
18963 74.3396 8153.31 8037.95 101.40
18964 74.3434 8098.41 8003.31 100.43
18965 74.3471 7999.41 7975.33 99.98
18966 74.3509 7918.71 7951.40 99.06
18967 74.3546 7862.38 7931.77 97.95
18968 74.3584 8081.12 7914.67 101.27
18969 74.3622 7832.04 7899.99 99.50
18970 74.3659 7910.88 7887.61 99.24
18971 74.3697 7939.52 7876.49 99.34
18972 74.3734 7888.75 7866.92 99.11
18973 74.3772 7837.98 7858.20 98.61
18974 74.3810 7722.15 7850.40 98.10
18975 74.3847 7890.77 7843.57 98.85
18976 74.3885 7954.75 7837.25 99.65
18977 74.3922 7834.31 7831.68 98.57
18978 74.3960 7766.95 7826.47 98.53
18979 74.3998 7748.91 7821.73 98.16
18980 74.4035 7750.96 7817.51 97.96
18981 74.4073 7719.54 7813.54 98.39
18982 74.4110 7856.32 7809.99 98.49
18983 74.4148 7829.95 7806.63 98.49
18984 74.4186 7767.01 7803.54 98.40
18985 74.4223 7764.02 7800.75 97.74
18986 74.4261 7934.13 7798.11 98.97
18987 74.4298 7875.46 7795.72 98.80
18988 74.4336 7796.38 7793.44 98.02
18989 74.4374 7816.15 7791.32 98.50
18990 74.4411 7728.93 7789.39 97.74
18991 74.4449 7896.34 7787.55 99.01
18992 74.4486 7645.59 7785.88 98.25
18993 74.4524 7862.52 7784.27 98.91
18994 74.4562 7706.23 7782.76 96.54
18995 74.4599 7859.31 7781.39 101.17
18996 74.4637 7856.56 7780.07 99.50
18997 74.4674 7790.67 7778.86 97.88
18998 74.4712 7744.41 7777.69 98.20
18999 74.4750 7756.18 7776.59 97.99
19000 74.4787 7691.29 7775.59 97.62
19001 74.4825 7859.26 7774.62 99.30
19002 74.4862 7616.68 7773.73 96.65
19003 74.4900 7662.34 7772.87 97.29
19004 74.4938 7664.96 7772.05 97.76
19005 74.4975 7592.55 7771.31 97.13
19006 74.5013 7870.25 7770.58 98.46
19007 74.5050 7704.80 7769.92 97.91
19008 74.5088 7868.62 7769.27 98.45
19009 74.5126 7773.48 7768.66 98.30
19010 74.5163 7735.08 7768.11 97.99
19011 74.5201 7858.94 7767.56 98.95
19012 74.5238 7732.07 7791.59 97.75
19013 74.5276 7522.80 7791.33 96.58
19014 74.5314 7856.02 7791.10 98.27
19015 74.5351 7662.33 7790.91 96.99
19016 74.5389 7703.83 7790.74 98.54
19017 74.5426 7746.18 7790.59 97.73
19018 74.5464 7764.52 7790.47 98.67
19019 74.5502 7798.35 7790.38 98.29
19020 74.5539 7788.25 7790.30 97.81
19021 74.5577 7695.06 7790.25 97.33
19022 74.5614 7766.83 7790.23 100.56
19023 74.5652 7797.36 7790.22 98.24
19024 74.5690 7737.54 7790.23 98.07
19025 74.5727 7650.75 7790.26 96.65
19026 74.5765 7798.60 7790.32 98.28
19027 74.5802 7897.87 7790.38 99.42
19028 74.5840 7621.45 7790.47 97.15
19029 74.5878 7513.04 7790.58 96.30
19030 74.5915 7601.33 7790.70 97.25
19031 74.5953 7536.89 7790.84 96.81
19032 74.5990 7806.08 7790.99 98.60
19033 74.6028 7771.76 7791.17 98.28
19034 74.6066 7775.24 7791.36 99.30
19035 74.6103 7837.65 7791.56 99.01
19036 74.6141 7738.41 7791.78 98.96
19037 74.6178 7759.90 7792.01 98.83
19038 74.6216 7743.47 7792.26 98.77
19039 74.6254 7691.14 7792.53 98.78
19040 74.6291 7719.98 7792.81 98.62
19041 74.6329 7768.85 7793.10 98.92
19042 74.6366 7719.87 7793.41 98.29
19043 74.6404 7592.06 7793.73 98.14
19044 74.6441 7721.21 7794.07 98.50
19045 74.6479 7759.50 7794.42 99.31
19046 74.6517 7716.44 7806.48 98.45
19047 74.6554 7659.31 7806.96 97.42
19048 74.6592 7745.97 7807.46 99.90
19049 74.6629 7651.07 7807.97 99.09
19050 74.6667 7715.54 7808.51 98.39
19051 74.6705 7653.76 7809.07 97.98
19052 74.6742 7683.09 7809.63 98.22
19053 74.6780 7787.80 7810.14 99.55
19054 74.6818 7801.66 7810.74 98.81
19055 74.6855 7686.21 7811.35 98.21
19056 74.6893 7773.59 7811.99 98.28
19057 74.6930 7678.90 7818.50 98.43
19058 74.6968 7745.65 7819.23 98.92
19059 74.7006 7594.93 7819.97 97.85
19060 74.7043 7755.72 7820.72 99.03
19061 74.7081 7634.24 7821.50 97.77
19062 74.7118 7623.16 7822.28 98.33
19063 74.7156 7566.34 7823.10 97.86
19064 74.7194 7688.21 7823.94 98.66
19065 74.7231 7792.60 7824.78 99.36
19066 74.7269 7805.30 7825.66 98.77
19067 74.7306 7629.02 7826.54 97.71
19068 74.7344 7770.01 7827.46 98.96
19069 74.7382 7769.17 7828.41 98.95
19070 74.7419 7843.31 7829.35 99.88
19071 74.7457 7648.46 7830.34 97.85
19072 74.7494 7469.40 7831.32 96.98
19073 74.7532 7711.77 7832.36 98.81
19074 74.7569 7560.90 7833.39 96.28
19075 74.7607 7762.03 7834.48 100.94
19076 74.7645 7770.32 7835.59 99.87
19077 74.7682 7635.32 7836.70 98.01
19078 74.7720 7746.75 7837.86 98.17
19079 74.7757 7670.08 7839.02 97.92
19080 74.7795 7671.18 7840.24 98.43
19081 74.7833 7574.49 7841.48 98.07
19082 74.7870 7673.91 7842.60 98.51
19083 74.7908 7766.10 7843.91 98.79
19084 74.7945 7735.67 7845.21 98.50
19085 74.7983 7553.68 7846.58 97.34
19086 74.8021 7726.29 7847.99 97.73
19087 74.8058 7741.52 7849.39 97.96
19088 74.8096 7689.55 7850.87 98.76
19089 74.8133 7795.66 7852.34 99.10
19090 74.8171 7838.18 7853.89 99.58
19091 74.8209 7901.75 7855.48 100.43
19092 74.8246 7858.55 7857.06 99.98
19093 74.8284 7710.64 7858.73 98.74
19094 74.8321 7974.06 7860.40 100.65
19095 74.8359 7777.90 7862.16 99.48
19096 74.8397 7712.27 7863.96 99.86
19097 74.8434 7877.51 7865.76 99.94
19098 74.8472 7718.62 7867.66 98.93
19099 74.8509 7769.32 7869.56 99.11
19100 74.8547 7645.23 7870.79 97.11
19101 74.8585 7729.66 7872.86 99.49
19102 74.8622 7913.24 7874.93 101.83
19103 74.8660 7735.50 7877.11 98.96
19104 74.8697 7618.52 7879.30 97.67
19105 74.8735 7810.39 7881.60 99.12
19106 74.8773 7944.55 7883.99 100.14
19107 74.8810 7716.59 7886.37 98.48
19108 74.8848 7689.76 7888.89 98.32
19109 74.8885 7658.47 7891.42 98.16
19110 74.8923 7892.25 7894.10 100.03
19111 74.8961 7813.17 7896.86 99.65
19112 74.8998 7881.60 7899.63 99.86
19113 74.9036 7640.36 7902.57 98.95
19114 74.9073 7794.92 7905.52 99.57
19115 74.9111 7785.60 7908.66 98.72
19116 74.9149 7782.16 7911.90 99.90
19117 74.9186 7614.88 7915.16 98.23
19118 74.9224 7787.12 7918.63 99.32
19119 74.9261 7788.62 7922.12 99.30
19120 74.9299 7814.55 7925.85 99.63
19121 74.9337 7704.59 7929.70 98.69
19122 74.9374 7885.46 7933.60 100.37
19123 74.9412 7708.29 7937.75 99.08
19124 74.9449 7827.69 7941.95 100.46
19125 74.9487 7759.61 7946.43 99.55
19126 74.9525 7806.62 7951.10 99.31
19127 74.9562 7776.10 7955.83 98.05
19128 74.9600 7928.15 7960.90 102.07
19129 74.9637 7906.88 7966.04 101.45
19130 74.9675 7819.99 7971.56 99.43
19131 74.9713 7768.17 7977.32 98.97
19132 74.9750 7887.78 7983.20 99.40
19133 74.9788 7895.53 7989.52 100.17
19134 74.9825 7903.04 7995.98 100.16
19135 74.9863 7727.34 8002.93 98.80
19136 74.9901 7817.56 8010.26 99.66
19137 74.9938 8085.97 8017.77 101.97
19138 74.9976 8019.25 8025.91 101.19
19139 75.0013 8009.32 8034.27 100.65
19140 75.0051 7868.73 8043.34 100.02
19141 75.0088 7933.80 8052.70 100.76
19142 75.0126 7878.10 8062.89 100.35
19143 75.0164 8003.08 8073.74 101.50
19144 75.0201 8026.57 8085.00 102.07
19145 75.0239 7996.60 8097.33 101.29
19146 75.0276 8042.90 8109.19 101.29
19147 75.0314 7931.89 8123.36 100.75
19148 75.0352 8111.87 8138.63 101.48
19149 75.0389 7948.41 8154.63 101.94
19150 75.0427 8060.73 8172.43 101.12
19151 75.0464 8140.12 8191.20 101.68
19152 75.0502 8110.96 8212.24 102.29
19153 75.0540 8031.64 8235.22 100.26
19154 75.0577 8211.86 8259.82 102.90
19155 75.0615 8270.30 8287.68 105.05
19156 75.0652 8339.80 8317.84 103.53
19157 75.0690 8295.79 8352.46 102.56
19158 75.0728 8316.68 8391.57 102.87
19159 75.0765 8419.24 8435.00 103.79
19160 75.0803 8529.05 8486.28 105.16
19161 75.0840 8441.03 8544.43 104.35
19162 75.0878 8714.38 8614.57 106.18
19163 75.0916 8647.24 8697.97 105.64
19164 75.0953 8881.50 8795.12 107.21
19165 75.0991 8901.02 8914.75 106.98
19166 75.1028 9037.21 9054.89 108.28
19167 75.1066 9142.21 9227.62 108.95
19168 75.1104 9655.66 9433.72 112.54
19169 75.1141 9575.45 9671.19 111.83
19170 75.1179 10042.20 9954.51 113.87
19171 75.1216 10478.00 10273.10 117.88
19172 75.1254 10574.20 10641.20 118.09
19173 75.1292 11053.90 11041.70 120.07
19174 75.1329 11279.80 11447.70 121.63
19175 75.1367 11333.60 11850.60 123.18
19176 75.1404 11645.10 12188.70 124.74
19177 75.1442 11650.70 12429.50 123.54
19178 75.1480 11503.50 12520.50 123.84
19179 75.1517 11440.60 12449.50 122.91
19180 75.1555 11032.30 12230.40 119.63
19181 75.1592 10916.30 11917.50 121.63
19182 75.1630 10668.50 11542.40 120.01
19183 75.1668 10258.80 11157.00 115.44
19184 75.1705 9873.33 10798.90 113.29
19185 75.1743 9944.97 10465.60 113.96
19186 75.1780 9573.06 10181.10 111.54
19187 75.1818 9369.54 9932.51 110.52
19188 75.1856 9423.65 9726.04 110.40
19189 75.1893 9323.27 9562.13 108.91
19190 75.1931 9194.84 9428.14 109.74
19191 75.1968 8889.61 9326.55 107.20
19192 75.2006 8976.32 9247.76 107.77
19193 75.2044 8733.61 9190.71 106.29
19194 75.2081 8938.89 9152.64 106.52
19195 75.2119 8778.20 9128.67 106.03
19196 75.2156 8810.71 9117.75 106.68
19197 75.2194 8736.92 9117.54 106.32
19198 75.2231 8759.85 9126.72 106.07
19199 75.2269 8903.47 9144.92 106.71
19200 75.2307 8769.59 9171.34 106.01
19201 75.2344 8781.10 9204.72 106.47
19202 75.2382 9013.04 9246.70 108.06
19203 75.2419 9040.96 9295.29 107.46
19204 75.2457 9092.83 9353.26 108.52
19205 75.2495 9047.00 9420.08 107.90
19206 75.2532 9241.00 9494.08 109.46
19207 75.2570 9160.23 9580.02 107.42
19208 75.2607 9478.30 9674.55 112.99
19209 75.2645 9603.49 9783.79 113.39
19210 75.2683 9382.29 9907.28 110.41
19211 75.2720 9758.15 10042.50 111.88
19212 75.2758 9926.61 10200.00 112.96
19213 75.2795 9817.53 10373.60 113.45
19214 75.2833 10273.50 10577.60 116.37
19215 75.2871 10438.70 10812.00 117.36
19216 75.2908 11015.00 11076.50 120.25
19217 75.2946 11217.90 11393.60 122.11
19218 75.2983 11653.60 11758.30 125.10
19219 75.3021 11995.30 12203.60 127.18
19220 75.3059 12703.70 12739.30 131.22
19221 75.3096 13489.90 13369.90 135.12
19222 75.3134 14315.40 14153.80 139.91
19223 75.3171 15038.90 15080.10 144.24
19224 75.3209 16403.40 16228.80 151.92
19225 75.3247 17219.10 17612.20 155.74
19226 75.3284 19170.80 19217.90 166.21
19227 75.3322 21019.80 21159.20 174.69
19228 75.3359 23430.60 23342.40 187.13
19229 75.3397 25915.90 25891.10 200.06
19230 75.3434 28798.10 28618.80 211.16
19231 75.3472 31969.40 31586.30 226.47
19232 75.3510 34481.50 34521.80 234.93
19233 75.3547 36933.10 37080.70 243.75
19234 75.3585 38483.90 39038.90 250.84
19235 75.3622 39142.50 39971.40 258.53
19236 75.3660 37917.80 39740.50 250.22
19237 75.3698 36475.10 38360.50 242.39
19238 75.3735 34221.80 36181.50 232.60
19239 75.3773 31222.10 33437.10 220.27
19240 75.3810 28178.10 30599.90 209.28
19241 75.3848 25399.10 27759.90 195.97
19242 75.3886 23421.50 25133.60 186.44
19243 75.3923 20835.10 22862.50 174.35
19244 75.3961 19614.80 20836.10 168.15
19245 75.3998 18091.00 19166.70 161.05
19246 75.4036 16973.10 17735.20 154.64
19247 75.4073 15777.00 16596.80 147.54
19248 75.4111 15152.80 15653.20 144.90
19249 75.4149 14407.70 14911.20 140.23
19250 75.4186 13923.50 14353.00 138.43
19251 75.4224 13641.20 13925.60 136.36
19252 75.4261 13484.40 13632.30 136.08
19253 75.4299 13296.10 13444.40 134.85
19254 75.4337 13127.10 13362.60 133.90
19255 75.4374 12884.20 13382.30 132.09
19256 75.4412 13335.60 13506.40 134.60
19257 75.4449 13626.80 13734.60 136.29
19258 75.4487 13808.80 14088.20 138.15
19259 75.4525 14262.30 14575.70 141.05
19260 75.4562 14688.40 15189.50 141.41
19261 75.4600 15676.70 15978.10 149.64
19262 75.4637 16653.90 16904.90 155.83
19263 75.4675 17556.50 18026.70 158.20
19264 75.4713 18864.60 19304.20 163.30
19265 75.4750 20263.00 20668.00 171.01
19266 75.4788 22048.00 22119.40 179.35
19267 75.4825 23154.30 23475.40 184.91
19268 75.4863 24577.40 24652.00 193.32
19269 75.4901 24918.10 25446.20 194.59
19270 75.4938 25726.10 25742.00 197.99
19271 75.4976 25228.80 25545.30 196.37
19272 75.5013 24459.00 24966.50 192.90
19273 75.5051 23387.30 24144.10 187.48
19274 75.5088 22697.20 23283.50 184.75
19275 75.5126 21873.80 22468.30 179.93
19276 75.5164 21486.30 21793.10 178.75
19277 75.5201 21021.90 21289.90 176.10
19278 75.5239 20877.50 20898.10 175.51
19279 75.5276 20650.10 20573.10 174.13
19280 75.5314 20649.80 20199.50 173.99
19281 75.5352 19794.90 19698.10 169.07
19282 75.5389 19586.70 19037.60 170.38
19283 75.5427 18918.90 18192.50 165.48
19284 75.5464 17687.20 17258.80 159.56
19285 75.5502 16480.10 16260.80 153.33
19286 75.5540 15293.00 15286.40 145.71
19287 75.5577 14064.90 14400.70 138.48
19288 75.5615 13517.60 13580.30 139.33
19289 75.5652 12747.00 12874.10 132.54
19290 75.5690 11735.10 12244.30 125.74
19291 75.5727 11074.10 11716.80 121.18
19292 75.5765 10915.80 11255.40 120.20
19293 75.5803 10454.90 10864.50 117.38
19294 75.5840 10196.10 10543.50 115.77
19295 75.5878 9883.66 10264.20 114.46
19296 75.5915 9581.04 10034.40 112.61
19297 75.5953 9430.25 9833.04 111.02
19298 75.5991 9268.72 9661.13 110.34
19299 75.6028 9132.85 9516.45 109.28
19300 75.6066 9020.77 9387.04 108.38
19301 75.6103 8892.85 9276.16 106.90
19302 75.6141 8809.67 9175.33 106.27
19303 75.6179 8927.99 9085.40 107.35
19304 75.6216 8740.99 9006.59 106.30
19305 75.6254 8623.31 8933.36 106.12
19306 75.6291 8516.23 8868.62 104.93
19307 75.6329 8316.48 8808.02 102.75
19308 75.6366 8512.23 8753.92 104.95
19309 75.6404 8444.77 8702.93 105.01
19310 75.6442 8278.80 8655.90 102.86
19311 75.6479 8283.96 8613.70 103.63
19312 75.6517 8227.65 8573.46 103.30
19313 75.6554 8038.62 8537.18 101.21
19314 75.6592 8168.52 8502.42 102.37
19315 75.6630 8103.51 8470.11 102.44
19316 75.6667 8366.14 8440.70 103.97
19317 75.6705 8110.07 8412.46 101.53
19318 75.6742 8169.48 8386.66 101.44
19319 75.6780 8167.13 8361.81 102.71
19320 75.6817 8062.11 8339.04 100.72
19321 75.6855 8057.65 8317.04 100.54
19322 75.6893 7939.67 8296.31 100.92
19323 75.6930 7839.72 8277.22 99.44
19324 75.6968 8024.41 8258.71 101.06
19325 75.7005 8029.40 8241.63 101.67
19326 75.7043 7954.83 8225.02 100.78
19327 75.7081 7993.15 8209.25 101.19
19328 75.7118 7901.29 8194.69 100.44
19329 75.7156 7865.80 8180.44 100.25
19330 75.7193 7864.77 8167.27 100.27
19331 75.7231 7815.48 8154.35 100.06
19332 75.7269 7781.74 8142.06 99.79
19333 75.7306 7818.03 8130.62 99.87
19334 75.7344 7776.18 8119.41 99.03
19335 75.7381 7781.38 8108.96 98.88
19336 75.7419 7835.39 8098.71 100.22
19337 75.7456 7908.29 8089.13 100.53
19338 75.7494 7991.90 8079.72 101.43
19339 75.7532 7865.16 8070.69 100.06
19340 75.7569 7848.78 8062.25 99.29
19341 75.7607 7845.26 8053.94 100.87
19342 75.7644 7870.94 8046.15 101.57
19343 75.7682 7794.47 8038.47 99.88
19344 75.7719 7964.81 8031.27 100.37
19345 75.7757 7921.07 8024.15 100.47
19346 75.7795 7990.76 8017.29 100.75
19347 75.7832 7937.36 8010.87 100.84
19348 75.7870 7712.02 8004.49 98.23
19349 75.7907 7858.34 7998.50 99.76
19350 75.7945 7856.93 7992.57 99.77
19351 75.7983 7559.85 7986.85 98.05
19352 75.8020 7810.57 7981.45 100.00
19353 75.8058 7760.33 7976.11 99.51
19354 75.8095 7835.82 7971.06 99.79
19355 75.8133 7744.37 7966.06 99.62
19356 75.8170 7652.70 7961.34 98.52
19357 75.8208 7591.38 7956.64 97.17
19358 75.8246 7653.64 7952.10 98.34
19359 75.8283 7729.11 7947.81 99.14
19360 75.8321 7710.26 7943.54 98.82
19361 75.8358 7840.91 7939.50 99.01
19362 75.8396 7704.58 7935.48 99.81
19363 75.8434 7788.96 7931.57 99.34
19364 75.8471 7822.68 7927.88 100.42
19365 75.8509 7800.26 7924.20 99.33
19366 75.8546 7776.02 7920.72 98.94
19367 75.8584 7736.46 7917.23 98.90
19368 75.8621 7777.43 7913.95 101.59
19369 75.8659 7861.49 7910.65 100.06
19370 75.8697 7731.76 7907.45 97.90
19371 75.8734 7565.84 7904.42 98.00
19372 75.8772 7731.28 7901.39 99.10
19373 75.8809 7753.92 7898.51 99.62
19374 75.8847 7751.72 7895.63 100.11
19375 75.8884 7897.19 7892.91 100.45
19376 75.8922 7686.39 7890.17 99.24
19377 75.8960 7867.63 7888.19 100.29
19378 75.8997 7910.34 7885.67 100.63
19379 75.9035 7682.40 7883.14 99.27
19380 75.9072 7751.61 7882.04 99.17
19381 75.9110 7672.10 7879.64 99.35
19382 75.9148 7699.53 7877.31 98.21
19383 75.9185 7575.68 7875.09 98.08
19384 75.9223 7592.41 7872.87 98.88
19385 75.9260 7781.99 7870.75 100.17
19386 75.9298 7596.71 7868.64 98.89
19387 75.9335 7684.00 7866.62 98.38
19388 75.9373 7618.22 7864.60 98.15
19389 75.9411 7779.18 7862.63 100.75
19390 75.9448 7660.94 7860.74 98.90
19391 75.9486 7685.28 7858.86 99.37
19392 75.9523 7683.27 7857.06 99.24
19393 75.9561 7692.87 7855.26 98.90
19394 75.9599 7825.89 7853.50 99.63
19395 75.9636 7845.78 7851.83 102.10
19396 75.9674 7700.31 7850.14 99.72
19397 75.9711 7636.28 7848.54 98.69
19398 75.9749 7521.72 7846.93 97.23
19399 75.9786 7841.64 7845.40 100.47
19400 75.9824 7753.73 7843.86 99.78
19401 75.9862 7854.18 7839.02 100.57
19402 75.9899 7657.38 7837.61 99.28
19403 75.9937 7946.07 7836.21 101.03
19404 75.9974 7629.01 7834.87 98.81
19405 76.0012 7619.09 7833.52 98.39
19406 76.0049 7683.22 7832.24 99.17
19407 76.0087 7622.93 7830.96 98.77
19408 76.0125 7698.20 7829.70 99.46
19409 76.0162 7627.80 7828.51 98.75
19410 76.0200 7726.41 7827.31 99.60
19411 76.0237 7705.59 7826.18 100.01
19412 76.0275 7694.22 7825.04 99.67
19413 76.0312 7682.11 7823.96 99.38
19414 76.0350 7777.59 7822.89 99.19
19415 76.0388 7645.41 7821.84 99.13
19416 76.0425 7565.76 7820.85 98.98
19417 76.0463 7636.28 7819.86 99.64
19418 76.0500 7824.12 7818.93 100.06
19419 76.0538 7693.74 7818.00 98.35
19420 76.0575 7692.39 7817.14 97.49
19421 76.0613 7805.46 7816.29 101.10
19422 76.0651 7740.43 7815.48 98.57
19423 76.0688 7689.47 7814.73 98.57
19424 76.0726 7751.04 7814.01 98.37
19425 76.0763 7734.55 7813.37 98.74
19426 76.0801 7756.54 7812.77 99.57
19427 76.0838 7627.26 7812.26 97.55
19428 76.0876 7610.39 7811.83 97.90
19429 76.0914 7758.18 7811.49 99.51
19430 76.0951 7590.96 7811.27 98.02
19431 76.0989 7682.15 7811.16 99.00
19432 76.1026 7676.82 7811.18 98.56
19433 76.1064 7766.94 7811.35 99.73
19434 76.1102 7622.20 7811.64 98.57
19435 76.1139 7643.94 7812.05 99.09
19436 76.1177 7693.42 7812.56 97.56
19437 76.1214 7493.20 7813.06 97.35
19438 76.1252 7692.26 7813.50 98.96
19439 76.1289 7697.71 7813.71 98.80
19440 76.1327 7696.34 7813.58 98.62
19441 76.1365 7806.48 7813.04 98.79
19442 76.1402 7767.18 7812.11 100.00
19443 76.1440 7607.78 7810.85 97.95
19444 76.1477 7701.90 7809.46 98.36
19445 76.1515 7659.65 7807.97 98.88
19446 76.1552 7541.78 7806.57 97.36
19447 76.1590 7662.75 7805.24 97.84
19448 76.1627 7684.26 7804.08 101.16
19449 76.1665 7622.25 7803.03 98.62
19450 76.1703 7778.82 7802.14 99.75
19451 76.1740 7541.47 7801.41 97.70
19452 76.1778 7782.53 7800.80 99.14
19453 76.1815 7743.21 7800.33 99.27
19454 76.1853 7660.92 7799.97 98.53
19455 76.1890 7673.54 7799.72 98.58
19456 76.1928 7651.99 7799.57 98.42
19457 76.1966 7643.76 7799.51 98.01
19458 76.2003 7684.74 7799.54 98.49
19459 76.2041 7732.45 7775.13 99.20
19460 76.2078 7765.58 7775.55 98.74
19461 76.2116 7558.93 7776.07 97.68
19462 76.2153 7685.82 7776.67 97.96
19463 76.2191 7561.11 7777.37 97.69
19464 76.2229 7683.52 7778.17 98.53
19465 76.2266 7509.67 7779.05 97.17
19466 76.2304 7665.46 7780.07 98.30
19467 76.2341 7735.13 7781.19 99.21
19468 76.2379 7750.26 7782.46 98.49
19469 76.2416 7670.82 7783.84 99.07
19470 76.2454 7666.24 7785.42 98.37
19471 76.2492 7752.92 7787.17 99.02
19472 76.2529 7532.49 7789.07 98.04
19473 76.2567 7512.16 7791.23 96.61
19474 76.2604 7852.69 7793.57 100.16
19475 76.2642 7736.31 7796.24 100.61
19476 76.2679 7596.21 7799.13 98.76
19477 76.2717 7490.68 7802.42 96.26
19478 76.2755 7593.36 7806.11 97.54
19479 76.2792 7647.22 7810.12 98.26
19480 76.2830 7828.63 7814.73 99.68
19481 76.2867 7624.77 7819.77 98.28
19482 76.2905 7726.62 7825.63 98.80
19483 76.2942 7710.49 7832.08 98.46
19484 76.2980 7821.35 7839.64 99.76
19485 76.3018 7561.30 7848.31 97.74
19486 76.3055 7710.29 7858.10 99.33
19487 76.3093 7665.70 7869.83 98.63
19488 76.3130 7819.67 7883.29 99.30
19489 76.3168 7898.60 7899.70 99.80
19490 76.3205 7844.85 7918.87 99.73
19491 76.3243 7864.39 7942.58 99.15
19492 76.3280 7875.81 7970.55 100.10
19493 76.3318 7957.38 8005.31 100.12
19494 76.3356 8039.50 8035.85 100.64
19495 76.3393 8072.40 8085.23 101.51
19496 76.3431 8267.41 8145.87 102.82
19497 76.3468 8054.18 8215.35 101.71
19498 76.3506 8242.49 8298.57 102.97
19499 76.3543 8393.33 8390.91 103.51
19500 76.3581 8422.22 8496.89 102.29
19501 76.3619 8732.86 8610.90 108.20
19502 76.3656 8968.90 8724.55 108.16
19503 76.3694 8742.82 8834.59 105.40
19504 76.3731 8940.13 8923.41 106.19
19505 76.3769 8943.63 8982.02 107.26
19506 76.3806 9023.30 8991.60 107.63
19507 76.3844 8694.10 8962.00 105.72
19508 76.3882 8734.51 8892.58 105.77
19509 76.3919 8697.27 8798.30 104.95
19510 76.3957 8567.73 8687.59 104.24
19511 76.3994 8417.55 8576.77 103.94
19512 76.4032 8222.99 8467.84 102.56
19513 76.4069 8210.79 8370.74 102.11
19514 76.4107 8249.08 8282.73 102.66
19515 76.4144 8067.32 8208.93 101.40
19516 76.4182 7997.95 8145.32 101.11
19517 76.4220 7999.94 8093.08 101.28
19518 76.4257 8139.05 8052.30 103.03
19519 76.4295 8012.15 8019.29 101.68
19520 76.4332 7941.27 7994.85 100.64
19521 76.4370 7882.16 7976.02 100.70
19522 76.4407 8042.45 7962.62 101.74
19523 76.4445 7805.25 7952.27 100.23
19524 76.4482 7850.13 7943.98 100.42
19525 76.4520 7953.36 7935.56 100.91
19526 76.4558 7753.55 7925.89 99.26
19527 76.4595 7825.57 7914.52 98.76
19528 76.4633 7960.86 7900.94 102.80
19529 76.4670 7706.56 7886.47 99.83
19530 76.4708 7830.51 7871.25 99.71
19531 76.4745 7804.51 7856.81 98.34
19532 76.4783 7722.62 7842.94 99.08
19533 76.4821 7681.06 7830.32 98.90
19534 76.4858 7798.20 7819.32 99.12
19535 76.4896 7510.59 7809.37 97.76
19536 76.4933 7624.75 7800.90 97.88
19537 76.4971 7575.50 7793.36 97.98
19538 76.5008 7576.17 7787.02 98.30
19539 76.5046 7678.88 7781.43 96.96
19540 76.5083 7578.33 7776.75 97.49
19541 76.5121 7591.73 7772.62 97.86
19542 76.5159 7704.08 7769.06 98.89
19543 76.5196 7596.51 7766.08 98.10
19544 76.5234 7603.37 7763.44 98.23
19545 76.5271 7622.46 7761.21 99.75
19546 76.5309 7643.43 7759.23 97.22
19547 76.5346 7609.47 7757.57 97.15
19548 76.5384 7564.04 7756.11 96.34
19549 76.5421 7560.92 7754.90 97.58
19550 76.5459 7610.09 7753.85 97.34
19551 76.5497 7681.33 7753.00 97.97
19552 76.5534 7652.86 7752.33 97.65
19553 76.5572 7545.21 7751.81 96.38
19554 76.5609 7679.89 7751.47 97.49
19555 76.5647 7720.47 7751.27 99.81
19556 76.5684 7602.56 7751.23 97.37
19557 76.5722 7547.98 7751.34 96.36
19558 76.5759 7572.97 7751.60 96.35
19559 76.5797 7656.00 7752.02 97.31
19560 76.5834 7794.23 7752.58 98.58
19561 76.5872 7621.26 7753.33 97.18
19562 76.5910 7676.80 7754.24 97.68
19563 76.5947 7479.13 7755.31 96.16
19564 76.5985 7544.05 7756.59 96.62
19565 76.6022 7704.93 7758.02 98.31
19566 76.6060 7751.42 7759.71 98.63
19567 76.6097 7538.92 7761.57 96.79
19568 76.6135 7696.10 7763.72 97.61
19569 76.6172 7692.52 7766.06 97.51
19570 76.6210 7487.06 7768.76 96.24
19571 76.6248 7534.22 7771.76 96.17
19572 76.6285 7563.17 7775.02 97.00
19573 76.6323 7678.76 7778.73 97.54
19574 76.6360 7825.59 7782.75 98.66
19575 76.6398 7670.58 7787.33 97.55
19576 76.6435 7706.48 7792.28 98.68
19577 76.6473 7615.75 7797.93 97.96
19578 76.6510 7721.56 7804.06 98.46
19579 76.6548 7646.97 7811.06 97.44
19580 76.6586 7522.48 7818.88 95.63
19581 76.6623 7829.12 7827.42 99.46
19582 76.6661 7712.39 7837.25 99.31
19583 76.6698 7529.56 7848.05 96.92
19584 76.6736 7583.00 7860.59 96.98
19585 76.6773 7703.00 7874.51 97.51
19586 76.6811 7805.37 7890.88 99.07
19587 76.6848 7631.54 7909.30 97.13
19588 76.6886 7730.06 7931.32 98.08
19589 76.6924 7842.89 7957.28 99.03
19590 76.6961 7976.41 7987.16 99.46
19591 76.6999 7918.74 8023.89 99.61
19592 76.7036 8025.08 8066.72 100.75
19593 76.7074 7913.53 8119.90 99.43
19594 76.7111 8039.84 8182.23 100.17
19595 76.7149 8313.58 8259.57 102.01
19596 76.7186 8285.67 8349.71 102.16
19597 76.7224 8257.46 8460.50 102.09
19598 76.7261 8438.82 8586.94 103.27
19599 76.7299 8739.24 8738.97 105.02
19600 76.7337 8845.69 8912.45 105.12
19601 76.7374 9063.98 9109.88 106.82
19602 76.7412 9610.29 9318.98 111.46
19603 76.7449 9800.27 9529.23 111.58
19604 76.7487 10066.40 9737.66 114.44
19605 76.7524 10232.50 9916.23 114.86
19606 76.7562 10666.00 10054.20 117.37
19607 76.7599 10626.90 10127.30 116.10
19608 76.7637 10721.80 10127.60 120.23
19609 76.7674 10536.60 10053.60 117.90
19610 76.7712 10259.30 9911.50 115.75
19611 76.7750 9989.03 9721.26 112.30
19612 76.7787 9800.43 9512.23 112.28
19613 76.7825 9424.54 9291.72 110.35
19614 76.7862 9132.05 9085.98 107.53
19615 76.7900 8760.63 8891.33 105.20
19616 76.7937 8788.18 8722.80 105.61
19617 76.7975 8256.16 8571.52 101.89
19618 76.8012 8390.17 8445.48 103.24
19619 76.8050 8160.64 8335.54 101.17
19620 76.8087 8199.45 8245.91 101.25
19621 76.8125 7939.94 8168.93 99.83
19622 76.8163 8060.08 8105.23 100.49
19623 76.8200 8003.84 8053.64 100.11
19624 76.8238 7792.48 8009.57 97.90
19625 76.8275 7887.55 7973.61 99.54
19626 76.8313 7575.35 7942.51 97.07
19627 76.8350 7730.37 7916.72 98.04
19628 76.8388 7737.19 7894.02 98.20
19629 76.8425 7730.99 7874.83 99.13
19630 76.8463 7550.16 7857.60 97.02
19631 76.8500 7789.61 7859.68 98.79
19632 76.8538 7707.49 7846.33 98.51
19633 76.8576 7444.23 7834.41 95.74
19634 76.8613 7730.21 7823.98 97.83
19635 76.8651 7735.69 7814.32 99.58
19636 76.8688 7674.90 7805.80 98.47
19637 76.8726 7562.11 7797.83 96.88
19638 76.8763 7641.71 7790.75 96.83
19639 76.8801 7445.38 7784.11 95.98
19640 76.8838 7819.35 7778.18 98.73
19641 76.8876 7725.18 7772.57 98.73
19642 76.8913 7648.87 7767.54 97.52
19643 76.8951 7749.22 7762.75 99.12
19644 76.8988 7558.42 7758.45 98.08
19645 76.9026 7680.63 7754.33 98.49
19646 76.9063 7876.21 7750.62 99.39
19647 76.9101 7472.37 7747.06 97.05
19648 76.9139 7723.49 7743.74 98.38
19649 76.9176 7617.14 7740.71 97.32
19650 76.9214 7676.66 7737.81 98.41
19651 76.9251 7716.42 7735.15 98.66
19652 76.9289 7728.02 7732.59 98.13
19653 76.9326 7561.12 7730.25 96.68
19654 76.9364 7786.72 7727.98 98.65
19655 76.9401 7542.60 7725.90 97.47
19656 76.9439 7487.37 7723.88 97.74
19657 76.9476 7610.04 7722.02 97.86
19658 76.9514 7653.92 7720.21 98.16
19659 76.9551 7799.14 7718.55 99.32
19660 76.9589 7632.74 7716.93 96.65
19661 76.9627 7644.71 7715.39 98.75
19662 76.9664 7668.44 7713.97 99.37
19663 76.9702 7486.70 7712.59 96.97
19664 76.9739 7592.08 7711.31 97.12
19665 76.9777 7583.36 7710.05 97.47
19666 76.9814 7671.57 7708.90 97.57
19667 76.9852 7556.39 7707.75 97.27
19668 76.9889 7785.66 7706.70 98.54
19669 76.9907 7767.99 7706.21 97.76
19670 76.9944 7639.76 7705.23 98.11
19671 76.9982 7647.40 7704.27 98.44
19672 77.0019 7843.57 7703.39 100.07
19673 77.0057 7507.94 7702.52 97.64
19674 77.0095 7636.14 7701.69 98.64
19675 77.0132 7807.17 7700.92 101.27
19676 77.0170 7736.93 7700.18 98.05
19677 77.0207 7722.69 7715.46 98.13
19678 77.0245 7710.24 7714.92 97.54
19679 77.0282 7659.31 7714.43 98.46
19680 77.0320 7559.12 7713.97 97.15
19681 77.0357 7738.08 7713.54 98.55
19682 77.0395 7736.03 7713.14 98.42
19683 77.0433 7738.55 7712.77 97.92
19684 77.0470 7679.66 7712.44 97.66
19685 77.0508 7806.73 7712.13 100.60
19686 77.0545 7684.63 7711.86 98.13
19687 77.0583 7787.00 7711.61 98.22
19688 77.0620 7697.74 7711.40 97.41
19689 77.0658 7661.54 7711.20 97.52
19690 77.0695 7847.40 7711.04 99.13
19691 77.0733 7875.59 7729.98 99.15
19692 77.0771 7704.90 7730.04 98.05
19693 77.0808 7664.24 7730.12 97.65
19694 77.0846 7568.69 7730.23 96.97
19695 77.0883 7780.70 7730.37 99.02
19696 77.0921 7716.39 7730.55 98.55
19697 77.0958 7572.36 7730.74 97.20
19698 77.0996 7557.99 7730.97 96.81
19699 77.1033 7804.70 7750.07 98.47
19700 77.1071 7581.09 7750.52 97.09
19701 77.1109 7726.11 7751.01 97.70
19702 77.1146 7710.97 7751.51 98.22
19703 77.1184 7594.26 7752.06 97.11
19704 77.1221 7637.49 7752.62 97.51
19705 77.1259 7772.21 7753.23 98.44
19706 77.1296 7783.57 7753.86 99.40
19707 77.1334 7799.09 7754.54 99.45
19708 77.1371 7802.37 7755.24 99.21
19709 77.1409 7596.41 7755.99 97.26
19710 77.1446 7794.62 7756.75 97.71
19711 77.1484 7660.48 7757.57 98.44
19712 77.1522 7697.12 7758.42 99.38
19713 77.1559 7611.40 7759.29 97.68
19714 77.1597 7702.02 7760.22 98.00
19715 77.1634 7564.47 7761.16 96.70
19716 77.1672 7721.85 7762.17 98.66
19717 77.1709 7634.05 7763.19 97.33
19718 77.1747 7780.01 7764.27 98.61
19719 77.1784 7795.74 7765.37 98.87
19720 77.1822 7603.66 7766.54 97.02
19721 77.1860 7725.78 7767.76 98.42
19722 77.1897 7760.11 7768.99 99.06
19723 77.1935 7814.65 7770.29 98.91
19724 77.1972 7814.30 7771.61 98.77
19725 77.2010 7764.84 7773.01 98.38
19726 77.2047 7704.31 7774.43 98.28
19727 77.2085 7593.36 7775.93 97.61
19728 77.2122 7778.32 7777.44 98.86
19729 77.2160 7526.69 7779.05 96.80
19730 77.2197 7619.77 7780.66 96.90
19731 77.2205 7746.05 7781.02 98.35
19732 77.2242 7649.98 7782.71 97.44
19733 77.2280 7848.14 7784.50 99.59
19734 77.2318 7779.33 7786.35 98.81
19735 77.2355 7776.99 7787.26 99.10
19736 77.2393 7610.39 7789.24 97.40
19737 77.2430 7855.91 7791.25 100.17
19738 77.2468 7816.38 7793.33 99.23
19739 77.2505 7736.13 7795.47 99.04
19740 77.2543 7662.82 7797.74 97.91
19741 77.2580 7668.43 7800.02 97.10
19742 77.2618 7681.63 7802.44 99.05
19743 77.2655 7837.55 7804.88 100.53
19744 77.2693 7728.39 7807.47 98.94
19745 77.2730 7798.43 7810.07 98.82
19746 77.2768 7908.86 7812.84 99.39
19747 77.2805 7920.04 7815.62 100.01
19748 77.2843 7814.66 7818.58 99.30
19749 77.2881 7723.71 7821.63 98.87
19750 77.2918 7933.63 7824.71 100.49
19751 77.2956 7814.34 7827.98 99.81
19752 77.2993 7853.88 7831.28 100.10
19753 77.3031 7841.84 7834.78 99.46
19754 77.3068 7790.48 7838.31 99.53
19755 77.3106 7573.27 7842.07 97.71
19756 77.3143 7983.06 7845.78 100.55
19757 77.3181 7696.73 7849.80 98.25
19758 77.3218 7853.15 7853.87 99.75
19759 77.3256 7803.36 7858.19 99.55
19760 77.3293 7845.51 7862.55 100.28
19761 77.3331 7790.13 7867.19 99.56
19762 77.3369 7844.72 7872.01 99.81
19763 77.3406 7788.28 7876.88 99.88
19764 77.3444 7786.68 7882.07 99.40
19765 77.3481 8029.99 7887.32 101.96
19766 77.3519 7771.89 7892.92 99.80
19767 77.3556 7806.31 7898.58 99.54
19768 77.3594 7803.96 7904.63 98.19
19769 77.3631 8090.68 7910.75 103.00
19770 77.3669 7975.73 7917.29 101.47
19771 77.3706 8161.28 7923.92 101.88
19772 77.3744 7969.50 7931.01 100.72
19773 77.3781 7962.90 7938.21 99.80
19774 77.3819 7904.19 7945.93 99.07
19775 77.3856 7886.17 7953.74 100.68
19776 77.3894 8044.56 7962.16 101.24
19777 77.3931 7956.65 7970.68 100.48
19778 77.3969 8052.30 7979.85 101.47
19779 77.4007 8114.31 7989.42 101.57
19780 77.4044 7974.99 7999.19 100.32
19781 77.4082 8027.40 8009.69 101.30
19782 77.4119 8111.47 8020.42 101.82
19783 77.4157 7939.15 8031.96 100.60
19784 77.4194 8088.67 8043.77 102.01
19785 77.4232 8146.66 8056.51 101.93
19786 77.4269 8300.76 8069.57 102.57
19787 77.4307 8140.89 8083.67 101.57
19788 77.4344 8171.60 8098.16 102.32
19789 77.4382 7949.77 8113.85 100.97
19790 77.4420 8289.69 8130.43 103.97
19791 77.4457 8210.96 8147.52 102.43
19792 77.4495 8229.14 8166.09 103.06
19793 77.4532 8228.59 8185.28 103.08
19794 77.4570 8285.96 8206.19 102.36
19795 77.4607 8410.13 8227.86 103.96
19796 77.4645 8338.16 8251.54 105.39
19797 77.4682 8201.52 8276.17 103.32
19798 77.4720 8345.96 8303.16 103.02
19799 77.4757 8415.73 8331.33 103.50
19800 77.4795 8615.79 8362.33 105.08
19801 77.4832 8657.69 8394.81 104.91
19802 77.4870 8540.00 8430.70 104.64
19803 77.4908 8657.75 8469.57 105.46
19804 77.4945 8818.16 8510.42 106.65
19805 77.4983 8660.31 8556.08 105.26
19806 77.5020 8906.91 8604.36 107.29
19807 77.5058 8760.56 8658.65 106.43
19808 77.5095 8892.29 8716.44 107.25
19809 77.5133 9172.06 8781.96 109.33
19810 77.5170 9068.57 8852.36 108.74
19811 77.5208 9441.83 8933.02 110.66
19812 77.5245 9572.51 9020.78 112.47
19813 77.5283 9636.60 9122.80 112.44
19814 77.5321 9875.60 9239.22 113.71
19815 77.5358 9967.84 9369.19 114.32
19816 77.5396 10218.40 9524.52 116.66
19817 77.5433 10632.00 9701.55 119.76
19818 77.5471 10726.50 9915.94 120.08
19819 77.5508 11321.20 10164.10 123.39
19820 77.5546 11541.80 10467.60 124.20
19821 77.5583 11744.40 10820.50 123.68
19822 77.5621 12552.60 11251.50 132.74
19823 77.5658 13029.20 11749.30 134.40
19824 77.5696 13737.80 12349.60 136.95
19825 77.5734 14581.20 13049.10 140.08
19826 77.5771 15567.50 13831.00 146.97
19827 77.5809 16292.70 14733.40 150.60
19828 77.5846 17397.40 15697.70 158.24
19829 77.5884 18347.10 16743.80 162.09
19830 77.5921 18942.90 17757.40 165.94
19831 77.5959 19551.60 18710.00 169.29
19832 77.5996 19938.50 19438.80 170.49
19833 77.6034 19704.70 19876.40 170.13
19834 77.6071 19415.80 19930.40 167.30
19835 77.6109 18642.40 19605.90 164.22
19836 77.6147 18068.80 18971.20 161.16
19837 77.6184 17017.00 18164.50 156.13
19838 77.6222 16472.00 17256.10 152.51
19839 77.6259 15455.20 16375.70 147.92
19840 77.6297 14989.20 15538.70 144.57
19841 77.6334 14248.90 14817.70 140.06
19842 77.6372 13914.50 14190.90 137.10
19843 77.6409 13593.40 13694.20 136.68
19844 77.6447 13427.80 13301.20 134.83
19845 77.6485 13146.40 13022.20 134.04
19846 77.6522 12991.30 12856.10 133.07
19847 77.6560 13025.40 12791.20 131.81
19848 77.6597 13304.30 12829.70 133.17
19849 77.6635 13731.40 12975.60 140.04
19850 77.6747 14598.20 14102.80 141.70
19851 77.6785 15307.60 14761.10 147.01
19852 77.6822 16164.70 15562.50 150.53
19853 77.6860 17131.90 16565.10 153.59
19854 77.6898 18672.00 17769.80 162.75
19855 77.6935 19927.50 19136.10 168.82
19856 77.6973 21642.80 20744.60 177.93
19857 77.7010 23240.10 22481.50 185.85
19858 77.7048 24959.20 24395.90 193.76
19859 77.7085 26068.60 26280.90 198.53
19860 77.7123 27850.50 28089.20 206.72
19861 77.7160 28772.00 29516.20 209.51
19862 77.7198 28976.80 30416.90 211.78
19863 77.7236 28330.00 30583.90 209.44
19864 77.7273 27709.40 30008.60 206.30
19865 77.7311 26140.10 28773.60 199.26
19866 77.7348 24373.00 27139.90 191.02
19867 77.7386 22749.90 25245.30 182.11
19868 77.7423 21266.50 23362.10 176.65
19869 77.7461 19682.80 21517.50 167.46
19870 77.7498 18339.50 19873.60 161.78
19871 77.7536 17105.90 18378.70 155.09
19872 77.7574 16238.90 17086.20 148.59
19873 77.7611 15402.90 16015.20 144.78
19874 77.7649 14942.60 15096.10 146.41
19875 77.7686 14105.60 14357.40 139.35
19876 77.7724 13747.90 13741.10 136.52
19877 77.7761 13109.80 13259.10 133.04
19878 77.7799 12848.40 12868.20 131.70
19879 77.7836 12426.40 12572.20 127.79
19880 77.7874 12493.30 12342.00 129.09
19881 77.7912 12005.00 12174.00 127.24
19882 77.7949 11858.60 12062.20 125.41
19883 77.7987 11912.00 11993.50 126.38
19884 77.8024 12158.10 11966.90 128.24
19885 77.8062 12075.30 11978.20 126.40
19886 77.8099 12156.00 12025.50 126.04
19887 77.8137 12225.40 12111.80 128.73
19888 77.8174 12426.40 12234.40 129.32
19889 77.8212 12677.10 12403.40 131.11
19890 77.8250 12730.50 12622.00 129.74
19891 77.8287 13110.30 12888.80 133.18
19892 77.8325 13550.10 13229.50 135.40
19893 77.8362 13892.20 13636.80 136.26
19894 77.8400 14367.10 14147.10 140.10
19895 77.8437 15075.50 14750.90 143.92
19896 77.8475 15952.10 15498.50 149.52
19897 77.8512 16560.60 16371.80 153.39
19898 77.8550 17963.10 17436.40 159.21
19899 77.8588 19060.50 18693.90 161.48
19900 77.8625 20925.00 20113.20 178.17
19901 77.8663 22364.20 21786.10 181.90
19902 77.8700 24820.90 23610.50 193.44
19903 77.8738 26695.30 25664.60 201.60
19904 77.8775 29459.20 27766.60 212.02
19905 77.8813 31331.10 29925.50 221.66
19906 77.8850 33370.60 31857.10 230.01
19907 77.8888 35298.20 33481.50 239.17
19908 77.8926 36164.30 34568.90 242.96
19909 77.8963 36120.50 35054.10 242.90
19910 77.9001 36202.30 35039.80 242.94
19911 77.9038 35499.80 34712.20 240.29
19912 77.9076 34453.80 34292.20 235.12
19913 77.9113 33849.60 34012.60 233.31
19914 77.9151 34412.90 34024.50 235.47
19915 77.9189 34583.00 34445.30 235.36
19916 77.9226 35309.00 35297.90 240.11
19917 77.9264 36754.90 36623.00 244.61
19918 77.9301 39048.70 38295.70 253.48
19919 77.9339 41007.70 40275.40 261.67
19920 77.9376 43335.10 42272.40 269.63
19921 77.9414 45325.30 44146.70 278.82
19922 77.9451 46747.20 45581.50 280.75
19923 77.9489 48390.10 46517.20 291.53
19924 77.9527 48349.20 46925.90 288.96
19925 77.9564 48532.60 46953.00 290.29
19926 77.9602 49065.80 46778.60 286.37
19927 77.9639 50020.50 46527.30 299.60
19928 77.9677 49885.80 46185.10 294.79
19929 77.9714 49215.00 45655.50 292.63
19930 77.9752 49026.20 44714.40 291.68
19931 77.9789 47367.30 43260.70 283.22
19932 77.9827 44923.80 41143.70 277.24
19933 77.9865 41886.90 38508.90 264.51
19934 77.9902 38481.80 35629.70 249.63
19935 77.9940 34462.20 32579.70 236.01
19936 77.9977 31041.10 29690.10 221.86
19937 78.0015 28010.10 26932.50 208.66
19938 78.0052 24753.30 24506.90 193.73
19939 78.0090 22388.90 22309.80 182.06
19940 78.0128 20381.00 20402.90 171.67
19941 78.0165 18457.00 18805.10 162.26
19942 78.0203 16815.50 17407.70 154.42
19943 78.0240 15949.70 16253.00 149.52
19944 78.0278 14923.40 15250.60 143.43
19945 78.0315 14154.20 14428.90 139.62
19946 78.0353 13248.60 13713.90 133.81
19947 78.0391 12917.50 13109.90 131.83
19948 78.0428 12389.40 12607.70 129.98
19949 78.0466 11901.50 12165.20 127.20
19950 78.0503 11608.40 11791.80 125.22
19951 78.0541 11046.10 11457.30 121.33
19952 78.0578 11047.50 11170.30 120.50
19953 78.0616 10700.80 10909.20 118.99
19954 78.0654 10469.90 10676.30 119.05
19955 78.0691 10318.40 10472.30 116.86
19956 78.0729 10111.30 10283.30 114.69
19957 78.0766 10163.10 10116.00 115.32
19958 78.0804 9970.10 9959.72 113.90
19959 78.0841 9628.61 9820.44 112.39
19960 78.0879 9561.93 9689.41 111.94
19961 78.0916 9561.92 9571.94 112.09
19962 78.0954 9696.89 9460.85 112.08
19963 78.0992 9367.45 9358.28 110.82
19964 78.1029 9365.68 9265.66 110.81
19965 78.1067 9110.78 9177.32 108.84
19966 78.1104 9108.06 9097.52 108.67
19967 78.1142 8848.70 9020.82 107.28
19968 78.1179 8993.54 8951.53 107.96
19969 78.1217 9004.04 8884.57 107.46
19970 78.1255 8753.07 8822.14 106.20
19971 78.1292 9007.12 8765.03 108.38
19972 78.1330 8724.87 8710.00 105.93
19973 78.1367 8596.26 8659.51 105.14
19974 78.1405 8827.26 8610.71 106.57
19975 78.1442 8572.71 8565.82 104.87
19976 78.1480 8701.38 8522.32 106.29
19977 78.1518 8539.89 8481.20 104.99
19978 78.1555 8537.39 8443.24 104.94
19979 78.1593 8355.88 8406.31 102.71
19980 78.1630 8381.78 8372.15 105.45
19981 78.1668 8533.52 8338.85 105.13
19982 78.1705 8542.40 8307.98 104.42
19983 78.1743 8508.76 8277.83 103.79
19984 78.1781 8337.79 8249.06 103.14
19985 78.1818 8403.33 8222.40 103.64
19986 78.1856 8314.05 8196.21 102.89
19987 78.1893 8357.07 8171.89 103.35
19988 78.1931 8229.58 8147.94 101.71
19989 78.1968 8142.58 8125.68 101.56
19990 78.2006 8216.81 8103.74 102.19
19991 78.2044 8129.46 8082.74 101.87
19992 78.2081 8226.37 8063.11 102.26
19993 78.2119 8131.69 8043.77 101.80
19994 78.2156 8087.65 8025.67 101.64
19995 78.2194 8116.65 8007.81 100.85
19996 78.2231 8179.80 7991.07 101.91
19997 78.2269 8164.48 7974.53 102.01
19998 78.2307 8042.11 7958.61 101.36
19999 78.2344 8002.15 7943.65 100.14
20000 78.2382 8093.14 7928.85 101.02
20001 78.2419 8058.67 7914.94 101.88
20002 78.2457 8019.07 7901.15 100.67
20003 78.2494 8129.80 7888.17 102.47
20004 78.2532 8010.66 7875.27 100.88
20005 78.2570 7878.69 7862.81 99.39
20006 78.2607 7943.26 7851.10 99.34
20007 78.2645 8095.28 7839.42 103.56
20008 78.2682 7909.98 7828.42 100.47
20009 78.2720 7901.04 7817.48 99.89
20010 78.2757 8073.12 7807.15 100.53
20011 78.2795 7931.70 7796.87 99.95
20012 78.2833 8018.19 7786.89 100.89
20013 78.2870 8007.25 7777.46 101.38
20014 78.2908 7801.27 7768.05 99.72
20015 78.2945 7822.99 7759.15 99.00
20016 78.2983 7841.14 7750.27 100.02
20017 78.3020 7803.54 7741.86 98.53
20018 78.3058 7788.87 7733.46 99.24
20019 78.3096 7874.86 7725.29 100.03
20020 78.3133 7802.45 7717.54 99.37
20021 78.3171 7878.30 7709.79 99.88
20022 78.3208 7880.28 7702.44 100.11
20023 78.3246 7802.53 7695.09 99.48
20024 78.3283 7813.38 7688.10 99.70
20025 78.3321 7892.80 7681.11 99.74
20026 78.3359 7917.08 7674.28 100.16
20027 78.3396 7808.55 7667.81 98.89
20028 78.3434 7874.68 7661.31 100.33
20029 78.3471 7690.34 7655.13 98.43
20030 78.3509 8004.28 7648.94 100.93
20031 78.3546 7681.03 7643.04 99.03
20032 78.3584 7759.71 7637.13 98.20
20033 78.3622 7689.95 7631.35 99.22
20034 78.3659 7789.47 7625.84 100.22
20035 78.3697 7681.97 7620.31 98.35
20036 78.3734 7590.61 7615.04 96.76
20037 78.3772 7698.00 7609.75 98.62
20038 78.3810 7775.92 7604.55 99.80
20039 78.3847 7583.59 7599.62 98.19
20040 78.3885 7754.92 7594.65 99.00
20041 78.3922 7652.89 7589.92 97.65
20042 78.3960 7840.29 7585.14 99.85
20043 78.3997 7779.14 7580.60 98.98
20044 78.4035 7686.86 7576.02 98.84
20045 78.4073 7616.46 7571.53 97.88
20046 78.4110 7757.02 7567.25 98.90
20047 78.4148 7675.80 7562.93 98.61
20048 78.4185 7671.33 7558.81 98.48
20049 78.4223 7598.33 7554.67 96.85
20050 78.4260 7830.88 7550.70 100.25
20051 78.4298 7655.22 7546.71 97.94
20052 78.4336 7588.51 7542.79 97.93
20053 78.4373 7625.79 7539.05 96.66
20054 78.4411 7622.91 7535.28 98.39
20055 78.4448 7706.35 7531.67 98.19
20056 78.4486 7665.19 7528.04 98.89
20057 78.4523 7408.91 7524.57 96.41
20058 78.4561 7631.19 7521.08 98.59
20059 78.4599 7507.94 7517.65 96.40
20060 78.4636 7606.08 7514.38 99.63
20061 78.4674 7654.02 7511.08 98.64
20062 78.4711 7674.84 7507.94 97.34
20063 78.4749 7543.33 7504.77 97.24
20064 78.4787 7556.87 7493.03 97.86
20065 78.4824 7620.32 7490.16 97.92
20066 78.4862 7614.83 7487.27 98.32
20067 78.4899 7550.52 7484.53 97.82
20068 78.4937 7694.81 7481.79 98.76
20069 78.4974 7626.95 7479.19 98.34
20070 78.5012 7542.12 7476.61 97.82
20071 78.5050 7633.81 7474.13 98.37
20072 78.5087 7597.55 7471.79 97.93
20073 78.5125 7442.23 7469.51 97.06
20074 78.5162 7624.62 7467.42 98.28
20075 78.5200 7418.21 7465.42 96.33
20076 78.5237 7683.90 7463.63 98.59
20077 78.5275 7427.63 7462.01 97.21
20078 78.5313 7440.79 7460.62 97.02
20079 78.5350 7556.79 7459.53 98.11
20080 78.5388 7452.11 7458.73 97.06
20081 78.5425 7501.47 7458.29 98.01
20082 78.5463 7644.86 7458.23 97.87
20083 78.5501 7619.83 7458.60 98.06
20084 78.5538 7534.61 7459.38 97.77
20085 78.5576 7490.32 7460.60 96.99
20086 78.5613 7453.23 7462.13 95.79
20087 78.5651 7697.14 7463.92 101.51
20088 78.5688 7638.98 7465.65 99.12
20089 78.5726 7445.38 7467.05 96.63
20090 78.5764 7572.88 7467.63 97.57
20091 78.5801 7399.25 7467.00 96.88
20092 78.5839 7577.82 7464.88 97.90
20093 78.5876 7432.78 7461.42 95.58
20094 78.5914 7599.46 7456.74 98.10
20095 78.5952 7572.73 7451.33 97.85
20096 78.5989 7450.55 7429.02 97.12
20097 78.6027 7452.56 7423.57 97.05
20098 78.6064 7427.11 7418.56 96.52
20099 78.6102 7441.77 7413.84 96.47
20100 78.6139 7629.27 7409.74 98.14
20101 78.6177 7590.65 7406.05 97.42
20102 78.6215 7437.48 7402.91 96.54
20103 78.6252 7344.06 7400.38 96.17
20104 78.6290 7424.66 7398.34 96.70
20105 78.6327 7411.69 7396.90 96.59
20106 78.6365 7527.92 7396.00 97.44
20107 78.6403 7443.02 7395.71 97.09
20108 78.6440 7538.57 7396.06 97.94
20109 78.6478 7259.00 7397.12 95.43
20110 78.6515 7651.70 7398.86 98.68
20111 78.6553 7442.12 7401.42 97.03
20112 78.6590 7513.06 7404.68 97.39
20113 78.6628 7375.88 7408.79 95.28
20114 78.6666 7646.96 7413.58 100.58
20115 78.6703 7520.77 7418.68 97.64
20116 78.6741 7483.06 7424.00 96.80
20117 78.6778 7328.71 7428.67 95.33
20118 78.6816 7432.75 7432.21 96.82
20119 78.6853 7457.27 7433.65 96.61
20120 78.6891 7500.46 7432.54 97.49
20121 78.6929 7569.81 7428.70 97.57
20122 78.6966 7491.47 7422.73 97.52
20123 78.7004 7433.45 7415.05 96.16
20124 78.7041 7419.30 7406.83 96.60
20125 78.7079 7430.93 7398.27 96.71
20126 78.7117 7362.81 7390.05 96.05
20127 78.7154 7415.84 7382.62 96.43
20128 78.7192 7356.07 7375.72 96.63
20129 78.7229 7525.80 7369.72 97.05
20130 78.7267 7458.32 7364.31 96.84
20131 78.7305 7456.91 7359.60 96.68
20132 78.7342 7392.83 7355.64 97.02
20133 78.7380 7406.13 7352.14 96.52
20134 78.7417 7493.21 7349.23 97.39
20135 78.7455 7506.85 7346.68 97.87
20136 78.7492 7384.75 7344.59 96.63
20137 78.7530 7345.10 7342.79 96.66
20138 78.7568 7506.05 7341.32 96.85
20139 78.7605 7347.96 7340.18 94.20
20140 78.7643 7460.37 7339.28 97.23
20141 78.7680 7426.27 7338.68 98.04
20142 78.7718 7449.99 7322.55 97.28
20143 78.7756 7456.12 7322.68 96.62
20144 78.7793 7498.02 7323.18 97.07
20145 78.7831 7312.31 7324.14 95.82
20146 78.7868 7406.68 7325.61 96.61
20147 78.7906 7418.33 7327.78 96.96
20148 78.7943 7531.31 7330.63 97.58
20149 78.7981 7360.70 7334.44 96.28
20150 78.8019 7347.72 7339.23 96.28
20151 78.8056 7352.09 7344.92 95.69
20152 78.8094 7407.83 7351.85 96.80
20153 78.8131 7529.56 7359.65 96.92
20154 78.8169 7423.86 7368.56 96.76
20155 78.8207 7496.76 7378.07 97.36
20156 78.8244 7544.72 7368.44 97.75
20157 78.8282 7458.50 7377.31 96.81
20158 78.8319 7476.74 7384.21 97.38
20159 78.8357 7518.69 7388.60 97.05
20160 78.8395 7640.61 7389.85 98.11
20161 78.8432 7448.77 7388.29 96.57
20162 78.8470 7469.06 7384.66 97.08
20163 78.8507 7455.80 7380.18 97.22
20164 78.8545 7636.34 7375.58 98.41
20165 78.8582 7299.67 7353.04 95.56
20166 78.8620 7408.50 7350.17 95.07
20167 78.8658 7543.36 7348.07 99.80
20168 78.8695 7572.23 7346.30 98.15
20169 78.8733 7631.33 7344.02 97.89
20170 78.8770 7374.91 7340.60 95.94
20171 78.8808 7423.45 7335.27 96.58
20172 78.8846 7345.35 7328.01 96.03
20173 78.8883 7415.49 7319.42 96.26
20174 78.8921 7502.94 7309.69 96.72
20175 78.8958 7460.31 7299.96 97.08
20176 78.8996 7467.96 7290.26 96.24
20177 78.9034 7427.84 7281.17 96.72
20178 78.9071 7412.85 7273.10 96.46
20179 78.9109 7388.10 7265.68 96.57
20180 78.9146 7513.07 7259.26 97.30
20181 78.9184 7288.55 7253.46 95.78
20182 78.9221 7391.07 7248.52 96.78
20183 78.9259 7284.87 7244.07 95.69
20184 78.9297 7424.30 7240.19 95.33
20185 78.9334 7593.13 7236.85 97.71
20186 78.9372 7229.67 7233.83 94.36
20187 78.9409 7272.22 7231.21 95.32
20188 78.9447 7528.95 7228.78 98.47
20189 78.9485 7322.19 7226.58 96.12
20190 78.9522 7432.11 7224.62 97.08
20191 78.9560 7333.04 7222.75 96.43
20192 78.9597 7310.40 7221.05 94.61
20193 78.9635 7382.23 7219.41 97.11
20194 78.9673 7436.86 7217.86 98.82
20195 78.9710 7280.30 7216.42 95.66
20196 78.9748 7247.61 7215.00 94.20
20197 78.9785 7295.68 7213.68 96.25
20198 78.9823 7298.33 7212.37 95.94
20199 78.9860 7367.84 7211.13 96.61
20200 78.9898 7352.52 7209.90 96.66
20201 78.9936 7406.39 7208.70 96.64
20202 78.9973 7363.11 7207.57 96.63
20203 79.0011 7310.89 7206.43 95.99
20204 79.0048 7378.95 7205.34 96.80
20205 79.0086 7371.30 7204.25 96.20
20206 79.0124 7416.57 7203.18 96.86
20207 79.0161 7211.99 7202.15 94.93
20208 79.0199 7454.52 7201.12 97.31
20209 79.0236 7376.81 7200.12 96.30
20210 79.0274 7301.57 7199.12 96.47
20211 79.0312 7373.77 7198.13 96.12
20212 79.0349 7318.73 7197.17 96.22
20213 79.0387 7173.82 7196.21 94.98
20214 79.0424 7191.55 7195.27 95.05
20215 79.0462 7386.74 7194.32 96.74
20216 79.0499 7325.73 7193.41 97.02
20217 79.0537 7248.96 7192.48 95.90
20218 79.0575 7271.46 7191.56 95.42
20219 79.0612 7221.71 7190.67 93.95
20220 79.0650 7300.28 7189.76 98.01
20221 79.0687 7500.42 7188.89 98.34
20222 79.0725 7447.39 7188.00 97.18
20223 79.0763 7255.60 7187.11 95.61
20224 79.0800 7144.36 7186.25 94.50
20225 79.0838 7264.78 7185.38 94.84
20226 79.0875 7440.16 7184.53 96.94
20227 79.0913 7210.51 7183.67 95.43
20228 79.0951 7431.29 7182.81 97.13
20229 79.0988 7336.81 7181.97 96.48
20230 79.1026 7187.93 7181.12 94.40
20231 79.1063 7302.10 7180.30 94.97
20232 79.1101 7407.96 7179.46 97.11
20233 79.1139 7348.93 7178.62 96.07
20234 79.1176 7296.67 7177.81 96.27
20235 79.1214 7383.21 7176.98 97.45
20236 79.1251 7298.33 7176.17 95.96
20237 79.1289 7205.16 7175.35 94.91
20238 79.1326 7315.23 7174.55 96.32
20239 79.1364 7318.88 7183.29 96.15
20240 79.1402 7202.27 7182.55 95.04
20241 79.1439 7244.95 7181.84 96.21
20242 79.1477 7253.96 7181.12 95.01
20243 79.1514 7125.38 7180.42 94.80
20244 79.1552 7275.83 7179.70 95.98
20245 79.1590 7144.20 7178.99 94.27
20246 79.1627 7372.24 7178.30 95.83
20247 79.1665 7258.17 7177.60 97.53
20248 79.1702 7289.60 7176.91 96.06
20249 79.1740 7288.23 7176.22 95.46
20250 79.1778 7254.44 7175.53 95.19
20251 79.1815 7165.94 7174.86 94.98
20252 79.1853 7159.49 7174.17 94.60
20253 79.1890 7222.56 7173.51 95.23
20254 79.1928 7133.61 7172.83 94.71
20255 79.1965 7349.64 7172.18 96.32
20256 79.2003 7285.46 7171.51 95.90
20257 79.2041 7226.41 7170.84 95.69
20258 79.2078 7374.18 7170.20 96.34
20259 79.2116 7355.42 7169.54 96.35
20260 79.2153 7273.09 7168.90 95.94
20261 79.2191 7183.42 7168.25 95.18
20262 79.2229 7211.79 7167.60 95.42
20263 79.2266 7148.12 7166.98 94.60
20264 79.2304 7152.52 7166.34 94.62
20265 79.2341 7175.32 7165.72 95.20
20266 79.2379 7199.53 7165.09 94.89
20267 79.2417 7196.26 7164.46 95.09
20268 79.2454 7314.92 7163.85 96.43
20269 79.2492 7303.33 7163.23 96.51
20270 79.2529 7303.94 7162.63 96.45
20271 79.2567 7158.81 7162.02 94.86
20272 79.2605 7160.90 7161.41 93.72
20273 79.2642 7335.36 7160.82 96.31
20274 79.2680 7261.94 7160.22 97.19
20275 79.2717 7216.68 7159.64 95.37
20276 79.2755 7222.67 7159.05 94.70
20277 79.2793 7243.95 7158.46 94.94
20278 79.2830 7368.93 7157.89 95.41
20279 79.2868 7177.20 7157.31 95.08
20280 79.2905 7126.57 7156.75 94.43
20281 79.2943 7112.93 7156.18 94.74
20282 79.2980 7368.93 7155.63 96.35
20283 79.3018 7094.37 7155.07 94.51
20284 79.3056 7210.40 7154.51 95.29
20285 79.3093 7203.84 7153.97 95.14
20286 79.3131 7108.82 7153.42 94.86
20287 79.3168 7071.01 7152.89 94.40
20288 79.3206 7269.11 7152.35 95.86
20289 79.3244 6994.91 7151.81 93.97
20290 79.3281 7056.52 7151.29 94.23
20291 79.3319 7245.08 7150.77 95.74
20292 79.3356 7107.38 7150.26 94.38
20293 79.3394 7160.60 7149.74 94.70
20294 79.3432 7258.77 7149.23 95.86
20295 79.3469 7142.59 7148.74 94.64
20296 79.3507 7184.18 7148.23 95.30
20297 79.3544 6997.58 7147.75 93.86
20298 79.3582 7212.56 7147.26 94.92
20299 79.3620 7062.54 7146.77 92.96
20300 79.3657 7231.41 7146.30 97.35
20301 79.3695 7178.61 7145.82 95.64
20302 79.3732 7190.71 7145.37 94.71
20303 79.3770 7080.70 7144.90 94.33
20304 79.3808 7328.00 7144.44 96.01
20305 79.3845 7094.13 7144.00 94.91
20306 79.3883 7358.50 7143.55 96.07
20307 79.3920 7253.24 7143.12 95.74
20308 79.3958 7258.46 7142.68 96.02
20309 79.3996 7054.55 7142.25 94.60
20310 79.4033 7348.58 7141.83 96.29
20311 79.4071 7099.06 7141.42 94.63
20312 79.4108 7305.91 7141.01 96.27
20313 79.4146 7340.51 7140.61 96.56
20314 79.4183 7332.94 7140.22 95.38
20315 79.4221 7380.15 7139.82 96.10
20316 79.4259 7228.75 7139.44 95.80
20317 79.4296 7054.49 7139.07 94.61
20318 79.4334 7300.75 7138.70 96.09
20319 79.4371 7290.16 7138.34 95.88
20320 79.4409 7289.44 7137.98 95.91
20321 79.4447 7233.63 7137.63 95.26
20322 79.4484 7229.47 7137.29 95.69
20323 79.4522 7147.56 7136.96 95.05
20324 79.4559 7147.86 7136.64 95.21
20325 79.4597 7186.52 7136.32 94.94
20326 79.4635 7268.64 7136.00 96.35
20327 79.4672 7251.35 7135.67 97.35
20328 79.4710 7179.48 7144.01 95.80
20329 79.4747 7229.38 7143.80 95.31
20330 79.4785 7244.74 7143.59 95.94
20331 79.4823 7272.18 7143.40 95.51
20332 79.4860 7108.50 7143.22 95.08
20333 79.4898 7181.27 7143.04 95.19
20334 79.4935 7263.13 7142.88 95.67
20335 79.4973 7085.13 7142.73 94.39
20336 79.5011 7147.24 7142.58 94.99
20337 79.5048 7262.77 7142.46 96.46
20338 79.5086 7293.80 7142.33 96.60
20339 79.5123 7260.67 7150.70 96.34
20340 79.5161 7229.00 7150.67 96.23
20341 79.5199 7150.82 7150.66 95.25
20342 79.5236 7212.53 7150.66 95.56
20343 79.5274 7160.87 7150.67 95.10
20344 79.5311 7107.12 7150.70 94.80
20345 79.5349 7145.08 7150.74 95.17
20346 79.5386 7182.51 7150.79 94.68
20347 79.5424 7194.31 7150.86 95.65
20348 79.5462 7438.34 7150.95 97.20
20349 79.5499 7085.41 7151.05 95.24
20350 79.5537 7263.70 7151.17 96.10
20351 79.5574 7404.30 7151.30 96.66
20352 79.5612 7158.37 7151.45 93.94
20353 79.5650 7302.47 7151.62 98.29
20354 79.5687 7143.23 7151.80 95.84
20355 79.5725 7301.50 7152.01 96.12
20356 79.5762 7155.14 7152.16 94.19
20357 79.5800 7255.74 7152.40 95.69
20358 79.5838 7278.17 7152.67 96.23
20359 79.5875 7211.27 7152.94 95.81
20360 79.5913 7099.91 7153.25 94.80
20361 79.5950 7134.96 7153.56 94.90
20362 79.5988 7237.68 7153.91 95.36
20363 79.6026 7244.24 7154.28 95.82
20364 79.6063 7282.66 7154.66 96.50
20365 79.6101 7258.54 7155.08 95.60
20366 79.6138 7359.37 7155.51 95.95
20367 79.6176 7356.67 7155.98 96.47
20368 79.6214 7171.84 7156.47 95.24
20369 79.6251 7159.88 7156.98 94.75
20370 79.6289 7353.18 7157.53 96.28
20371 79.6326 7287.17 7158.09 95.57
20372 79.6364 7194.87 7158.70 94.91
20373 79.6401 7309.31 7159.32 95.67
20374 79.6439 7254.32 7159.99 94.28
20375 79.6477 7334.24 7160.70 95.58
20376 79.6514 7319.84 7161.41 96.38
20377 79.6552 7194.63 7162.18 94.84
20378 79.6589 7250.79 7162.97 95.37
20379 79.6627 7082.76 7163.82 93.03
20380 79.6665 7221.81 7164.70 97.13
20381 79.6702 7049.47 7165.60 94.28
20382 79.6740 7321.87 7166.57 96.05
20383 79.6777 7101.20 7167.56 93.68
20384 79.6815 7163.76 7168.61 93.93
20385 79.6853 7051.43 7169.71 93.22
20386 79.6890 7341.31 7170.83 95.65
20387 79.6928 7211.27 7172.03 94.30
20388 79.6965 7160.81 7173.25 93.14
20389 79.7003 7252.68 7174.56 95.17
20390 79.7041 7304.89 7175.93 95.65
20391 79.7078 7051.84 7177.31 93.84
20392 79.7116 7213.35 7178.80 95.00
20393 79.7153 7170.62 7180.31 93.85
20394 79.7191 7294.73 7181.93 95.82
20395 79.7229 7241.68 7183.61 94.87
20396 79.7266 7343.85 7185.24 95.84
20397 79.7304 7138.98 7187.08 94.39
20398 79.7341 7158.65 7188.94 94.15
20399 79.7379 7118.67 7190.94 93.37
20400 79.7417 7285.47 7193.03 94.61
20401 79.7454 7053.84 7195.15 93.86
20402 79.7492 7278.60 7197.42 94.49
20403 79.7529 7111.82 7199.73 94.21
20404 79.7567 7268.15 7202.21 95.02
20405 79.7604 7288.62 7204.73 94.58
20406 79.7642 7193.90 7207.43 94.67
20407 79.7680 7316.61 7210.20 96.86
20408 79.7717 7239.07 7213.08 95.41
20409 79.7755 7270.37 7216.17 94.99
20410 79.7792 7276.72 7219.32 94.91
20411 79.7830 7209.83 7222.71 94.65
20412 79.7868 7351.39 7226.26 94.76
20413 79.7905 7112.57 7229.87 93.74
20414 79.7943 7082.72 7233.76 93.81
20415 79.7980 7249.64 7237.74 95.06
20416 79.8018 7222.10 7242.01 94.49
20417 79.8056 7321.46 7246.50 95.59
20418 79.8093 7279.03 7251.10 95.27
20419 79.8131 7224.62 7256.05 94.88
20420 79.8168 7367.42 7261.12 95.40
20421 79.8206 7311.71 7266.60 95.69
20422 79.8244 7315.34 7272.38 95.38
20423 79.8281 7226.25 7278.29 95.21
20424 79.8319 7306.78 7284.70 95.30
20425 79.8356 7333.05 7291.27 96.02
20426 79.8394 7434.46 7298.42 95.72
20427 79.8432 7387.43 7305.96 96.23
20428 79.8469 7424.52 7313.73 97.05
20429 79.8507 7209.52 7322.17 94.41
20430 79.8544 7434.51 7330.89 96.76
20431 79.8582 7304.78 7340.38 94.89
20432 79.8619 7413.59 7350.20 95.01
20433 79.8657 7404.12 7360.90 97.00
20434 79.8695 7540.27 7372.30 98.55
20435 79.8732 7369.72 7384.15 95.96
20436 79.8770 7387.26 7397.10 95.73
20437 79.8807 7605.73 7410.60 97.15
20438 79.8845 7516.62 7425.40 96.81
20439 79.8883 7510.33 7441.31 97.39
20440 79.8920 7509.21 7457.88 95.98
20441 79.8958 7633.07 7476.22 97.47
20442 79.8995 7551.67 7495.39 97.39
20443 79.9033 7506.71 7516.67 96.81
20444 79.9071 7663.86 7539.68 98.57
20445 79.9108 7588.76 7563.88 97.87
20446 79.9146 7648.47 7590.89 97.34
20447 79.9183 7706.30 7619.46 98.59
20448 79.9221 7726.94 7651.40 99.19
20449 79.9259 7888.17 7686.31 99.97
20450 79.9296 7917.93 7723.57 100.12
20451 79.9334 7949.62 7765.55 100.26
20452 79.9371 7868.66 7810.64 100.18
20453 79.9409 8248.15 7861.79 102.60
20454 79.9446 8212.83 7917.16 102.37
20455 79.9484 8337.55 7980.55 102.54
20456 79.9522 8412.47 8051.93 104.70
20457 79.9559 8402.45 8130.26 103.48
20458 79.9597 8579.08 8222.04 104.57
20459 79.9634 8857.30 8324.34 106.45
20460 79.9672 8803.64 8446.25 108.13
20461 79.9710 9164.54 8588.63 108.88
20462 79.9747 9363.59 8751.99 110.21
20463 79.9785 9278.92 8950.62 109.39
20464 79.9822 9678.35 9181.26 111.60
20465 79.9860 9813.65 9463.92 112.07
20466 79.9898 10356.90 9802.50 115.44
20467 79.9935 10777.10 10196.00 119.33
20468 79.9973 11368.10 10675.10 121.71
20469 80.0010 11992.70 11225.30 126.66
20470 80.0048 12616.90 11883.90 130.65
20471 80.0086 13510.30 12645.50 134.83
20472 80.0123 13899.90 13484.10 136.84
20473 80.0161 14991.50 14442.00 143.60
20474 80.0198 16101.00 15444.20 149.27
20475 80.0236 16837.20 16508.40 154.08
20476 80.0274 17216.20 17534.10 155.47
20477 80.0311 17699.70 18404.40 156.69
20478 80.0349 17646.70 19052.10 161.85
20479 80.0386 17727.40 19344.40 157.68
20480 80.0424 17142.90 19245.80 154.03
20481 80.0461 16541.70 18778.40 151.83
20482 80.0499 15817.20 17999.10 147.17
20483 80.0537 15165.30 17029.20 145.09
20484 80.0574 14317.70 16005.00 140.53
20485 80.0612 13065.00 14956.30 131.83
20486 80.0649 12826.20 13988.60 132.79
20487 80.0687 12113.20 13082.00 129.69
20488 80.0725 11390.50 12274.70 122.71
20489 80.0762 10741.20 11589.70 118.76
20490 80.0800 10427.80 10982.20 116.55
20491 80.0837 9942.39 10479.90 114.46
20492 80.0875 9852.09 10043.40 114.20
20493 80.0913 9560.94 9678.86 110.74
20494 80.0950 9140.05 9382.15 108.75
20495 80.0988 8993.39 9128.36 107.94
20496 80.1025 8866.14 8921.93 106.74
20497 80.1063 8731.23 8744.65 106.25
20498 80.1101 8591.97 8595.82 105.52
20499 80.1138 8419.71 8472.96 104.39
20500 80.1176 8307.77 8365.44 103.93
20501 80.1213 8117.46 8275.37 102.23
20502 80.1251 8194.28 8195.40 102.57
20503 80.1288 8053.09 8127.51 101.34
20504 80.1326 8045.11 8066.52 101.57
20505 80.1364 7981.46 8012.91 101.40
20506 80.1401 7923.22 7966.99 100.25
20507 80.1439 7893.62 7925.23 99.94
20508 80.1476 8030.68 7889.37 101.08
20509 80.1514 7658.32 7856.75 99.15
20510 80.1552 7981.07 7828.07 101.55
20511 80.1589 7686.43 7803.48 98.80
20512 80.1627 7714.46 7781.33 97.70
20513 80.1664 7666.28 7762.60 100.35
20514 80.1702 7669.06 7745.94 99.48
20515 80.1740 7856.80 7731.77 99.34
20516 80.1777 7690.53 7720.16 97.77
20517 80.1815 7796.41 7710.37 100.08
20518 80.1852 7705.83 7702.78 99.18
20519 80.1890 7587.32 7696.90 97.85
20520 80.1927 7665.22 7692.97 98.75
20521 80.1965 7640.83 7690.72 98.54
20522 80.2003 7692.19 7690.22 99.19
20523 80.2040 7709.16 7691.41 97.71
20524 80.2078 7647.92 7694.32 98.50
20525 80.2115 7633.20 7698.82 98.72
20526 80.2153 7588.52 7705.15 97.70
20527 80.2191 7556.10 7713.26 98.35
20528 80.2228 7704.31 7722.92 98.21
20529 80.2266 7829.10 7734.69 99.89
20530 80.2303 7662.19 7748.05 98.89
20531 80.2341 7739.83 7763.79 99.37
20532 80.2379 7690.73 7781.71 99.00
20533 80.2416 7743.68 7801.42 98.74
20534 80.2454 7721.48 7824.08 99.37
20535 80.2491 7672.52 7848.75 98.32
20536 80.2529 7751.38 7876.90 99.25
20537 80.2567 7704.23 7908.28 98.57
20538 80.2604 7823.52 7942.06 99.47
20539 80.2642 7745.92 7980.60 97.68
20540 80.2679 8002.20 8022.07 103.00
20541 80.2717 7920.40 8069.40 100.46
20542 80.2754 7876.14 8120.50 99.40
20543 80.2792 7949.32 8178.76 99.66
20544 80.2830 8142.84 8243.76 100.57
20545 80.2867 8244.80 8314.55 102.32
20546 80.2905 8083.83 8396.19 101.59
20547 80.2942 8375.04 8485.58 103.21
20548 80.2980 8419.57 8589.92 103.82
20549 80.3018 8664.79 8708.98 105.53
20550 80.3055 8901.52 8842.37 106.45
20551 80.3093 8758.92 9001.09 106.41
20552 80.3130 8957.50 9180.78 107.60
20553 80.3168 9274.73 9397.81 109.80
20554 80.3205 9502.78 9646.27 110.95
20555 80.3243 9850.22 9948.78 113.40
20556 80.3281 10153.70 10308.70 115.32
20557 80.3318 10564.70 10721.70 116.31
20558 80.3356 11037.80 11221.20 121.23
20559 80.3393 11839.50 11792.00 126.23
20560 80.3431 12437.70 12473.40 129.44
20561 80.3469 13075.90 13259.90 132.97
20562 80.3506 14517.30 14131.70 141.88
20563 80.3544 15618.20 15131.20 147.71
20564 80.3581 16438.70 16194.40 151.91
20565 80.3619 18220.90 17344.80 159.17
20566 80.3657 19911.70 18500.50 172.24
20567 80.3694 20905.10 19555.80 176.76
20568 80.3732 21838.20 20473.40 178.49
20569 80.3769 22269.50 21129.20 180.84
20570 80.3807 22882.30 21519.40 183.17
20571 80.3845 22825.30 21648.00 183.73
20572 80.3882 22993.40 21597.20 185.39
20573 80.3920 22324.20 21465.50 181.60
20574 80.3957 22149.90 21347.70 180.07
20575 80.3995 22048.40 21296.50 179.87
20576 80.4032 22550.80 21330.90 182.69
20577 80.4070 22306.20 21426.10 181.89
20578 80.4108 22732.20 21514.40 183.89
20579 80.4145 22338.60 21501.90 181.99
20580 80.4183 22639.70 21290.80 184.10
20581 80.4220 22048.70 20830.50 180.41
20582 80.4258 21357.60 20085.90 177.04
20583 80.4295 19862.90 19145.70 170.55
20584 80.4333 18577.60 18044.60 163.39
20585 80.4371 17392.80 16892.20 156.28
20586 80.4408 15875.80 15794.70 148.76
20587 80.4446 14557.80 14735.10 142.96
20588 80.4483 13644.70 13797.70 134.76
20589 80.4521 12761.50 12938.00 131.84
20590 80.4559 11914.70 12187.00 126.88
20591 80.4596 11137.20 11552.90 121.36
20592 80.4634 10634.60 10994.40 117.28
20593 80.4671 10343.80 10530.10 118.49
20594 80.4709 9829.45 10125.70 114.09
20595 80.4747 9355.39 9783.90 110.22
20596 80.4784 9119.25 9501.72 108.55
20597 80.4822 8951.08 9256.01 105.61
20598 80.4859 8576.21 9051.89 104.98
20599 80.4897 8632.63 8872.38 105.15
20600 80.4934 8712.54 8721.33 106.00
20601 80.4972 8231.77 8586.53 101.93
20602 80.5010 8176.37 8468.35 102.35
20603 80.5047 8231.91 8366.93 102.77
20604 80.5085 7930.49 8274.02 100.32
20605 80.5122 7912.45 8193.22 100.29
20606 80.5160 7916.10 8118.31 100.56
20607 80.5198 7923.54 8050.76 101.03
20608 80.5235 7990.69 7990.92 100.97
20609 80.5273 7816.59 7934.95 99.71
20610 80.5310 7583.75 7885.04 97.03
20611 80.5348 7559.95 7840.28 97.85
20612 80.5386 7589.40 7797.14 97.16
20613 80.5423 7569.87 7758.37 96.96
20614 80.5461 7759.31 7721.54 100.22
20615 80.5498 7624.83 7688.42 98.10
20616 80.5536 7468.90 7656.78 97.40
20617 80.5573 7410.51 7628.17 96.48
20618 80.5611 7556.65 7600.83 97.95
20619 80.5649 7415.97 7575.30 96.47
20620 80.5686 7587.42 7552.14 99.78
20621 80.5724 7441.49 7529.82 96.77
20622 80.5761 7559.85 7509.50 96.89
20623 80.5799 7344.69 7489.87 96.03
20624 80.5836 7446.61 7471.94 97.06
20625 80.5874 7510.12 7454.58 96.64
20626 80.5912 7248.43 7438.25 95.08
20627 80.5949 7377.34 7423.24 96.02
20628 80.5987 7256.79 7408.70 94.85
20629 80.6024 7349.74 7395.29 96.58
20630 80.6062 7319.07 7382.27 95.91
20631 80.6100 7319.31 7370.48 96.18
20632 80.6137 7377.04 7359.09 96.44
20633 80.6175 7213.79 7347.99 95.23
20634 80.6212 7235.25 7337.70 95.50
20635 80.6250 7283.30 7327.67 95.98
20636 80.6287 7287.19 7318.36 95.04
20637 80.6325 7185.78 7309.25 95.25
20638 80.6363 7137.52 7300.56 94.55
20639 80.6400 7133.39 7292.51 94.10
20640 80.6438 7175.44 7284.59 94.57
20641 80.6475 7150.09 7277.23 95.09
20642 80.6513 7144.14 7269.99 94.29
20643 80.6551 7085.45 7263.08 94.61
20644 80.6588 7253.87 7256.62 95.41
20645 80.6626 7236.34 7252.30 93.80
20646 80.6663 7322.03 7246.38 95.54
20647 80.6701 7154.43 7240.55 96.31
20648 80.6738 7093.26 7235.10 94.40
20649 80.6776 7174.62 7229.73 94.34
20650 80.6814 7370.12 7224.56 95.36
20651 80.6851 7052.09 7219.72 93.75
20652 80.6889 7156.01 7214.95 94.73
20653 80.6926 7139.76 7211.52 94.19
20654 80.6964 7127.62 7207.10 94.91
20655 80.7001 7208.05 7202.95 94.80
20656 80.7039 6882.71 7199.55 92.31
20657 80.7077 7100.79 7195.60 94.04
20658 80.7114 7183.35 7191.89 94.82
20659 80.7152 7068.37 7188.20 93.76
20660 80.7189 7229.13 7184.75 94.32
20661 80.7227 7008.67 7181.31 93.56
20662 80.7265 7168.27 7178.00 94.55
20663 80.7302 7051.19 7174.88 93.79
20664 80.7340 7070.62 7171.79 93.87
20665 80.7377 7218.50 7168.87 95.01
20666 80.7415 7103.28 7165.97 93.94
20667 80.7452 7085.06 7163.23 94.79
20668 80.7490 6944.78 7160.52 93.20
20669 80.7528 7086.18 7157.89 94.74
20670 80.7565 7225.25 7155.40 94.10
20671 80.7603 7020.24 7152.94 93.83
20672 80.7640 6999.51 7150.60 91.33
20673 80.7678 7137.66 7148.29 96.64
20674 80.7716 7097.45 7146.03 94.90
20675 80.7753 6996.75 7143.91 93.44
20676 80.7791 7171.27 7141.79 93.38
20677 80.7828 6946.59 7139.79 93.02
20678 80.7866 7068.02 7137.79 93.52
20679 80.7903 6970.69 7135.91 93.32
20680 80.7941 7028.23 7134.03 93.39
20681 80.7979 6914.46 7132.21 93.06
20682 80.8016 7156.23 7130.48 94.64
20683 80.8054 6938.30 7128.76 93.30
20684 80.8091 7144.83 7127.13 95.21
20685 80.8129 7081.65 7125.51 94.53
20686 80.8166 7142.85 7123.97 94.77
20687 80.8204 7003.47 7122.44 93.59
20688 80.8242 6938.14 7120.95 93.47
20689 80.8279 7045.64 7119.54 93.64
20690 80.8317 6939.88 7118.13 93.41
20691 80.8354 7111.09 7116.80 93.38
20692 80.8392 7017.67 7115.48 93.77
20693 80.8429 7176.38 7114.22 94.43
20694 80.8467 6857.40 7112.97 93.31
20695 80.8505 7101.23 7111.75 93.40
20696 80.8542 6955.69 7110.60 93.73
20697 80.8580 6804.90 7109.46 91.60
20698 80.8617 7033.19 7108.38 93.37
20699 80.8655 6899.63 7107.30 93.02
20700 80.8692 6874.24 7106.28 93.33
20701 80.8730 6841.93 7105.26 92.17
20702 80.8768 7094.00 7104.28 94.05
20703 80.8805 7011.22 7103.35 93.34
20704 80.8843 7066.98 7102.43 94.39
20705 80.8880 7083.63 7101.56 94.44
20706 80.8918 6886.01 7100.70 92.19
20707 80.8956 6902.97 7099.87 93.02
20708 80.8993 7025.41 7099.09 94.15
20709 80.9031 7038.04 7098.31 93.96
20710 80.9068 7019.23 7097.59 94.10
20711 80.9106 7075.57 7096.87 94.24
20712 80.9143 6874.59 7096.20 92.45
20713 80.9181 6870.74 7095.54 92.66
20714 80.9219 6891.92 7094.90 92.85
20715 80.9256 7007.11 7094.32 93.85
20716 80.9294 6930.00 7093.74 92.25
20717 80.9331 6966.57 7093.21 92.94
20718 80.9369 7100.81 7092.69 93.35
20719 80.9406 7063.19 7092.22 94.04
20720 80.9444 6950.94 7091.76 93.65
20721 80.9481 7104.96 7081.86 94.71
20722 80.9519 7039.57 7081.54 94.27
20723 80.9557 7014.54 7081.25 93.26
20724 80.9594 6923.99 7081.00 92.75
20725 80.9632 6855.98 7080.77 91.84
20726 80.9669 6846.97 7080.58 92.36
20727 80.9707 6925.67 7080.42 92.71
20728 80.9745 7010.94 7080.29 93.37
20729 80.9782 7033.18 7080.20 94.84
20730 80.9820 6936.75 7080.14 94.25
20731 80.9857 6948.32 7080.12 93.27
20732 80.9895 6907.25 7080.14 92.89
20733 80.9932 7022.43 7080.19 93.58
20734 80.9970 6795.20 7080.29 92.03
20735 81.0008 7050.96 7080.44 93.79
20736 81.0045 7017.13 7080.63 93.69
20737 81.0083 6997.24 7080.87 94.28
20738 81.0120 6848.69 7081.15 93.03
20739 81.0158 7038.32 7081.49 94.22
20740 81.0195 7001.00 7081.89 93.96
20741 81.0233 6910.17 7082.35 93.06
20742 81.0271 6847.89 7082.88 91.68
20743 81.0308 6861.69 7083.47 91.89
20744 81.0346 7069.31 7084.15 93.73
20745 81.0383 6960.49 7084.89 93.73
20746 81.0421 6962.66 7085.74 93.36
20747 81.0458 6859.82 7086.67 93.04
20748 81.0496 7147.71 7087.73 95.07
20749 81.0534 7199.82 7088.93 95.91
20750 81.0571 6960.87 7090.22 93.41
20751 81.0609 6966.80 7091.71 93.67
20752 81.0646 6953.60 7093.32 92.26
20753 81.0684 7038.66 7095.17 94.60
20754 81.0721 6874.60 7097.18 93.27
20755 81.0759 6951.54 7099.47 93.43
20756 81.0797 7096.93 7102.03 94.92
20757 81.0834 7051.17 7104.77 94.53
20758 81.0872 6827.48 7107.87 92.69
20759 81.0909 6928.40 7111.16 93.86
20760 81.0947 7025.10 7114.80 93.66
20761 81.0984 6962.52 7118.56 93.72
20762 81.1022 7065.76 7122.56 94.24
20763 81.1059 7013.36 7126.51 93.87
20764 81.1097 6917.31 7130.50 93.31
20765 81.1135 7066.54 7134.33 95.15
20766 81.1172 6956.53 7137.90 93.48
20767 81.1210 6935.91 7141.46 93.54
20768 81.1247 6976.69 7144.98 94.12
20769 81.1285 7113.77 7148.81 94.68
20770 81.1322 6999.70 7152.94 93.99
20771 81.1360 6919.93 7157.71 93.61
20772 81.1398 7144.89 7163.19 94.70
20773 81.1435 6966.42 7169.27 93.71
20774 81.1473 6990.81 7176.44 94.26
20775 81.1510 7127.18 7184.38 94.28
20776 81.1548 7219.00 7193.70 95.94
20777 81.1585 7196.45 7204.02 95.85
20778 81.1623 7099.61 7216.14 94.20
20779 81.1661 7177.27 7230.00 94.53
20780 81.1698 7306.31 7245.54 98.76
20781 81.1736 7181.46 7263.96 95.45
20782 81.1773 7321.68 7284.84 96.57
20783 81.1811 7170.49 7309.91 95.15
20784 81.1848 7397.64 7338.69 95.85
20785 81.1886 7352.08 7373.65 97.10
20786 81.1924 7487.71 7415.28 97.72
20787 81.1961 7411.41 7463.60 97.13
20788 81.1999 7635.04 7522.57 97.97
20789 81.2036 7588.48 7590.77 98.71
20790 81.2074 7806.11 7673.36 100.55
20791 81.2111 8011.02 7767.68 101.46
20792 81.2149 8152.65 7879.97 102.52
20793 81.2186 8116.22 8005.41 101.82
20794 81.2224 8398.24 8151.13 104.39
20795 81.2262 8606.41 8311.66 105.54
20796 81.2299 8755.34 8479.38 106.35
20797 81.2337 9011.78 8656.05 107.00
20798 81.2374 8966.55 8821.96 108.04
20799 81.2412 9183.65 8970.18 109.51
20800 81.2449 9214.43 9075.89 109.90
20801 81.2487 9065.86 9128.64 109.31
20802 81.2524 9060.92 9117.67 108.53
20803 81.2562 8905.18 9045.02 107.61
20804 81.2600 8746.92 8922.94 106.54
20805 81.2637 8423.45 8773.52 101.50
20806 81.2675 8377.98 8606.30 105.02
20807 81.2712 8242.45 8442.91 104.57
20808 81.2750 8194.94 8284.09 102.61
20809 81.2787 7953.66 8143.01 100.33
20810 81.2825 7859.25 8014.94 100.19
20811 81.2863 7765.48 7904.32 100.05
20812 81.2900 7666.65 7804.99 98.68
20813 81.2938 7479.87 7727.88 97.38
20814 81.2975 7549.32 7667.66 98.01
20815 81.3013 7539.76 7619.52 98.20
20816 81.3050 7393.56 7585.09 96.52
20817 81.3088 7480.43 7561.29 97.58
20818 81.3126 7330.81 7548.49 96.32
20819 81.3163 7495.34 7545.95 97.77
20820 81.3201 7464.98 7553.15 97.67
20821 81.3238 7475.18 7569.54 97.62
20822 81.3276 7454.13 7595.91 97.79
20823 81.3313 7282.37 7622.46 96.18
20824 81.3351 7514.39 7667.86 97.77
20825 81.3388 7439.86 7720.95 97.62
20826 81.3426 7522.96 7783.60 97.98
20827 81.3464 7777.88 7852.69 100.55
20828 81.3501 7659.69 7923.18 98.74
20829 81.3539 7854.41 7993.79 100.17
20830 81.3576 7837.13 8054.62 100.58
20831 81.3614 7913.71 8101.53 100.77
20832 81.3651 7777.43 8126.05 98.16
20833 81.3689 7868.20 8126.88 102.42
20834 81.3726 7905.31 8105.80 101.27
20835 81.3764 7885.32 8067.59 99.15
20836 81.3802 7697.84 8020.32 99.22
20837 81.3839 7777.47 7973.06 99.62
20838 81.3877 7690.55 7929.06 99.33
20839 81.3914 7699.88 7895.10 99.32
20840 81.3952 7676.96 7872.24 99.35
20841 81.3989 7818.61 7863.94 99.78
20842 81.4027 7845.97 7871.47 99.92
20843 81.4064 7679.16 7895.99 99.00
20844 81.4102 7814.56 7940.29 99.53
20845 81.4140 7726.50 8005.61 99.41
20846 81.4177 8082.58 8091.05 101.67
20847 81.4215 8147.10 8202.54 102.80
20848 81.4252 8263.00 8335.71 103.60
20849 81.4290 8376.82 8498.17 104.37
20850 81.4327 8607.09 8681.48 105.43
20851 81.4365 8688.21 8893.07 106.53
20852 81.4402 9077.52 9117.56 107.83
20853 81.4440 9223.73 9357.36 109.99
20854 81.4478 9685.51 9591.70 113.28
20855 81.4515 9683.79 9794.57 112.74
20856 81.4553 9737.64 9951.91 112.25
20857 81.4590 9912.03 10034.00 114.39
20858 81.4628 9807.18 10032.40 112.36
20859 81.4665 9812.75 9949.10 114.34
20860 81.4703 9659.49 9796.01 112.92
20861 81.4740 9356.86 9604.14 111.04
20862 81.4778 8974.85 9387.73 107.49
20863 81.4816 8914.76 9172.50 107.52
20864 81.4853 8933.52 8977.05 108.41
20865 81.4891 8529.29 8799.75 105.29
20866 81.4928 8340.41 8653.88 103.87
20867 81.4966 8467.73 8533.78 105.36
20868 81.5003 8265.13 8445.69 103.59
20869 81.5041 8285.24 8384.14 103.30
20870 81.5078 8303.65 8350.98 103.69
20871 81.5116 8185.01 8342.05 103.25
20872 81.5153 8300.19 8355.08 103.89
20873 81.5191 8325.10 8386.89 103.29
20874 81.5229 8562.34 8432.41 105.86
20875 81.5266 8456.71 8484.34 105.11
20876 81.5304 8670.90 8539.58 105.82
20877 81.5341 8470.76 8591.32 103.89
20878 81.5379 8769.79 8641.45 106.04
20879 81.5416 8781.16 8690.62 105.66
20880 81.5454 8892.81 8747.88 107.23
20881 81.5491 8800.35 8817.91 106.22
20882 81.5529 9045.05 8911.65 107.89
20883 81.5567 8977.03 9033.43 107.87
20884 81.5604 9300.14 9181.44 109.69
20885 81.5642 9283.76 9364.60 108.25
20886 81.5679 9741.89 9568.94 114.62
20887 81.5717 10050.40 9798.14 116.04
20888 81.5754 10117.50 10025.50 114.86
20889 81.5792 10660.60 10245.30 118.26
20890 81.5829 10744.90 10424.20 119.26
20891 81.5867 10914.40 10555.50 120.43
20892 81.5905 10881.20 10625.60 119.87
20893 81.5942 10984.20 10640.90 120.99
20894 81.5980 10897.70 10617.50 120.17
20895 81.6017 10896.10 10573.80 119.78
20896 81.6055 10784.10 10520.30 119.70
20897 81.6092 10849.10 10463.70 119.45
20898 81.6130 10694.80 10396.60 118.62
20899 81.6167 10527.80 10312.50 117.74
20900 81.6205 10471.40 10196.10 116.85
20901 81.6242 10403.80 10046.30 116.50
20902 81.6280 10062.30 9854.80 113.65
20903 81.6318 9839.30 9644.31 112.74
20904 81.6355 9482.15 9405.11 111.32
20905 81.6393 9025.50 9150.97 107.89
20906 81.6430 8751.25 8906.30 105.83
20907 81.6468 8517.22 8667.85 104.79
20908 81.6505 8490.72 8453.46 103.21
20909 81.6543 8315.24 8254.45 103.46
20910 81.6580 8180.74 8083.58 102.35
20911 81.6618 7687.30 7928.79 98.68
20912 81.6655 7766.48 7798.37 98.12
20913 81.6693 7807.37 7682.35 100.12
20914 81.6730 7420.82 7585.35 97.58
20915 81.6768 7477.58 7499.53 97.09
20916 81.6806 7273.79 7426.03 95.07
20917 81.6843 7274.81 7364.31 95.06
20918 81.6881 7168.19 7309.53 95.00
20919 81.6918 7300.29 7263.09 95.74
20920 81.6956 7272.50 7221.37 95.53
20921 81.6993 7249.54 7185.49 94.43
20922 81.7031 7126.01 7152.76 94.53
20923 81.7068 7086.60 7124.18 94.09
20924 81.7106 7094.16 7097.71 94.27
20925 81.7143 6848.68 7074.25 92.14
20926 81.7181 6985.71 7052.24 92.80
20927 81.7219 6897.80 7032.01 92.51
20928 81.7256 7023.47 7027.55 93.55
20929 81.7294 6932.02 7010.30 92.07
20930 81.7331 6915.99 6994.62 92.72
20931 81.7369 7048.07 6979.58 93.52
20932 81.7406 6865.30 6965.82 92.07
20933 81.7444 6966.90 6952.53 93.12
20934 81.7481 6859.41 6940.30 92.74
20935 81.7519 6838.49 6928.41 92.21
20936 81.7556 7010.71 6917.42 93.75
20937 81.7594 6875.98 6906.67 91.92
20938 81.7632 6928.30 6896.42 92.40
20939 81.7669 6793.44 6886.88 91.52
20940 81.7707 6938.80 6877.48 94.14
20941 81.7744 6867.36 6868.70 91.85
20942 81.7782 6791.81 6860.01 91.53
20943 81.7819 6743.75 6851.85 91.65
20944 81.7857 6746.01 6843.75 91.77
20945 81.7894 6872.97 6836.12 92.00
20946 81.7932 6916.94 6828.52 93.10
20947 81.7969 6752.56 6821.34 91.71
20948 81.8007 6839.31 6814.15 92.21
20949 81.8045 6822.76 6807.15 92.24
20950 81.8082 6864.25 6800.52 92.40
20951 81.8120 6675.76 6793.84 91.38
20952 81.8157 6874.68 6787.48 92.76
20953 81.8195 6976.53 6781.10 93.11
20954 81.8232 6844.99 6775.00 92.49
20955 81.8270 6814.98 6768.85 92.61
20956 81.8307 6920.73 6762.96 93.12
20957 81.8345 6866.68 6757.01 92.17
20958 81.8382 6846.57 6751.30 92.27
20959 81.8420 6919.16 6745.53 92.15
20960 81.8457 6845.56 6739.97 92.42
20961 81.8495 6818.19 6734.35 92.47
20962 81.8532 6786.17 6728.93 92.51
20963 81.8570 6766.33 6723.42 92.19
20964 81.8608 6773.55 6717.98 92.24
20965 81.8645 6864.07 6712.72 92.14
20966 81.8683 6912.90 6707.37 93.17
20967 81.8720 6637.47 6702.21 92.33
20968 81.8758 6878.34 6696.94 93.21
20969 81.8795 6739.72 6704.17 91.60
20970 81.8833 6879.17 6699.07 92.22
20971 81.8870 6703.33 6694.14 91.56
20972 81.8908 6915.76 6689.10 93.23
20973 81.8945 6964.77 6684.22 93.86
20974 81.8983 6892.46 6679.24 92.72
20975 81.9020 6810.53 6674.41 92.38
20976 81.9058 6784.82 6669.46 91.58
20977 81.9095 6903.79 6664.67 92.95
20978 81.9133 6839.37 6659.75 92.95
20979 81.9171 6716.63 6654.86 91.62
20980 81.9208 6870.95 6650.11 92.15
20981 81.9246 6869.70 6645.24 92.80
20982 81.9283 6941.54 6640.50 93.64
20983 81.9321 6873.56 6635.65 93.05
20984 81.9358 6853.54 6630.93 92.97
20985 81.9396 6877.76 6626.09 92.68
20986 81.9433 6895.21 6621.38 92.03
20987 81.9471 6877.08 6616.55 92.16
20988 81.9508 6844.85 6611.85 91.54
20989 81.9546 6856.81 6607.02 92.25
20990 81.9583 6777.50 6602.32 92.37
20991 81.9621 6859.41 6597.49 91.20
20992 81.9658 6694.34 6592.79 91.08
20993 81.9696 6765.58 6587.95 93.57
20994 81.9733 6799.27 6583.26 92.10
20995 81.9771 6777.61 6578.42 90.81
20996 81.9809 6798.42 6573.58 88.98
20997 81.9846 6916.53 6568.87 91.23
20998 81.9884 6907.71 6564.02 94.33
20999 81.9921 6776.04 6559.30 92.55
21000 81.9959 6808.68 6554.45 91.20
21001 81.9996 6865.67 6549.72 89.81
21002 82.0034 6894.99 6544.85 87.79
21003 82.0071 6818.74 6540.11 84.73
loop_
_pd_proc_info_excluded_regions
'from 2.184 to 3.084'
loop_
_refln_index_h
_refln_index_k
_refln_index_l
_refln_F_squared_calc
_refln_F_squared_meas
_refln_F_squared_sigma
_refln_observed_status
_refln_d_spacing
0 0 2 3962.11 3568.71 73.78 o 4.066018
1 1 0 3737.91 3602.68 74.33 o 4.048241
1 1 2 41118.86 41146.25 773.49 o 2.868803
2 0 0 42714.98 40664.68 765.61 o 2.862539
2 1 1 194.46 187.98 3.97 o 2.442150
2 0 2 692.60 928.42 18.12 o 2.340659
0 0 4 63963.96 61184.50 1168.61 o 2.033009
2 2 0 61588.66 61730.71 1177.08 o 2.024121
2 1 3 116.91 93.07 2.35 o 1.861311
1 1 4 1852.75 1918.56 40.20 o 1.816780
2 2 2 1644.71 1752.58 36.61 o 1.812010
3 1 0 2171.65 2310.07 48.04 o 1.810428
2 0 4 28412.37 29014.17 540.35 o 1.657515
3 1 2 28706.41 30080.01 560.19 o 1.653890
3 2 1 57.93 42.26 1.89 o 1.558420
2 2 4 38919.04 39466.25 744.81 o 1.434402
4 0 0 37741.95 38046.35 717.93 o 1.431269
2 1 5 51.72 43.90 2.23 o 1.372840
3 2 3 39.67 38.84 1.09 o 1.370093
4 1 1 180.81 187.07 4.57 o 1.368726
0 0 6 1313.03 1082.40 27.14 o 1.355339
3 1 4 1416.35 1510.61 31.69 o 1.352038
4 0 2 976.55 1060.15 22.60 o 1.350068
3 3 0 933.62 991.91 21.27 o 1.349414
1 1 6 20801.51 20163.07 372.50 o 1.285222
3 3 2 19514.79 19930.36 366.76 o 1.280725
4 2 0 22333.75 22881.75 423.63 o 1.280166
4 1 3 129.50 104.89 3.51 o 1.235831
2 0 6 0.39 0.28 0.93 < 1.224971
4 2 2 11.35 12.21 2.37 o 1.221075
4 0 4 27023.88 27619.37 516.85 o 1.170330
3 2 5 21.10 12.27 2.62 o 1.136166
4 3 1 73.91 62.51 3.35 o 1.133831
2 2 6 888.00 766.87 17.59 o 1.126186
3 3 4 748.72 700.11 16.12 o 1.124290
5 1 0 848.22 738.02 16.92 o 1.122780
3 1 6 16866.28 16765.85 307.87 o 1.084985
4 2 4 17449.91 17933.91 329.68 o 1.083289
5 1 2 15999.13 16611.29 304.11 o 1.082275
2 1 7 21.01 10.46 2.93 o 1.057912
4 1 5 73.64 58.39 3.41 o 1.056026
4 3 3 56.58 47.17 3.02 o 1.054774
5 2 1 8.77 7.27 0.52 o 1.054150
0 0 8 21584.31 19813.88 373.64 o 1.016504
4 4 0 19904.41 20515.05 382.62 o 1.012060
5 2 3 6.88 5.78 2.05 < 0.989723
1 1 8 781.79 850.64 20.17 o 0.985899
4 0 6 669.70 628.67 14.80 o 0.984118
5 1 4 711.92 693.77 14.97 o 0.982852
4 4 2 563.18 585.67 12.60 o 0.982095
5 3 0 1073.41 1135.62 24.36 o 0.981843
2 0 8 13552.61 13882.88 254.17 o 0.957901
3 3 6 12798.41 12873.12 234.92 o 0.956268
5 3 2 14403.56 15088.69 276.28 o 0.954411
6 0 0 14622.23 15326.74 280.87 o 0.954180
3 2 7 10.13 6.06 3.65 < 0.937577
4 3 5 35.54 26.68 3.61 o 0.936264
6 1 1 82.97 97.92 5.60 o 0.934956
4 2 6 88.68 110.10 5.77 o 0.930655
6 0 2 138.70 144.68 9.52 o 0.928944
2 2 8 16678.55 15601.64 289.21 o 0.908390
4 4 4 15823.33 15884.89 293.25 o 0.906005
6 2 0 15499.15 15549.22 286.83 o 0.905214
4 1 7 37.62 7.26 4.00 < 0.891002
5 2 5 4.49 3.35 0.36 o 0.889874
6 1 3 67.59 55.14 3.67 o 0.889125
5 4 1 15.75 13.15 0.86 o 0.888751
3 1 8 735.41 766.70 17.18 o 0.886350
5 3 4 894.07 929.96 19.97 o 0.884134
6 2 2 463.74 488.52 10.62 o 0.883582
5 1 6 10847.64 10955.10 198.78 o 0.864632
6 0 4 11978.44 11744.34 214.57 o 0.863773
2 1 9 8.85 8.68 7.71 < 0.852057
5 4 3 13.01 12.17 1.45 o 0.849108
6 3 1 42.96 39.68 4.74 o 0.848783
4 0 8 13238.31 12310.91 227.21 o 0.828758
6 2 4 12609.50 12450.71 228.43 o 0.826945
4 3 7 19.96 20.03 3.69 o 0.815490
6 1 5 46.66 51.24 4.07 o 0.814625
6 3 3 35.90 40.25 2.83 o 0.814050
0 0 10 632.25 603.80 37.92 o 0.813204
3 3 8 517.71 551.91 16.46 o 0.811918
4 4 6 475.57 508.69 15.27 o 0.810923
7 1 0 675.76 614.50 15.97 o 0.809648
5 5 0 402.00 365.56 9.56 o 0.809648
1 1 10 9275.43 8514.89 154.96 o 0.797277
4 2 8 9633.20 9963.97 180.60 o 0.796065
5 3 6 9833.00 10123.30 183.60 o 0.795127
5 5 2 8397.13 8571.77 153.83 o 0.794059
7 1 2 9473.56 9670.58 174.84 o 0.794059
6 4 0 10078.84 10267.64 186.32 o 0.793925
3 2 9 4.79 7.56 8.11 < 0.785314
5 2 7 2.61 3.23 2.52 < 0.784285
5 4 5 9.17 8.28 4.86 < 0.783515
7 2 1 0.72 0.76 0.09 o 0.782748
2 0 10 106.29 108.09 12.44 o 0.782251
6 0 6 183.95 194.92 11.95 o 0.780220
6 4 2 207.94 203.92 7.75 o 0.779210
4 1 9 18.58 10.06 4.52 < 0.757331
6 3 5 25.74 17.48 2.54 o 0.755718
7 2 3 0.61 0.45 0.02 o 0.755259
2 2 10 532.69 372.95 12.94 o 0.754583
5 1 8 510.39 489.25 11.79 o 0.753555
6 2 6 410.49 384.26 8.64 o 0.752759
5 5 4 380.91 336.27 7.48 o 0.752192
7 1 4 602.99 532.33 11.78 o 0.752192
7 3 0 412.02 350.70 8.06 o 0.751739
3 1 10 7927.28 7014.52 126.82 o 0.741806
6 4 4 8418.06 8349.53 150.89 o 0.739535
7 3 2 7232.21 7163.27 128.24 o 0.739212
6 1 7 28.60 6.90 7.10 < 0.731307
6 5 1 12.00 6.88 7.52 < 0.730061
4 4 8 8787.56 8254.12 151.91 o 0.717201
8 0 0 8276.09 7896.63 148.82 o 0.715635
2 1 11 3.89 8.28 4.03 < 0.710261
4 3 9 10.52 16.65 5.24 o 0.709309
5 4 7 5.74 8.25 2.06 o 0.708550
7 2 5 0.45 0.62 0.05 o 0.707983
6 5 3 10.33 10.34 0.43 o 0.707605
8 1 1 31.46 28.90 1.02 o 0.707416
7 4 1 1.59 1.46 0.05 o 0.707416
4 0 10 457.88 438.02 13.82 o 0.707049
5 3 8 605.36 637.72 15.40 o 0.706204
7 3 4 386.26 361.83 9.35 o 0.705081
8 0 2 321.92 302.82 7.90 o 0.704801
3 3 10 6379.58 6015.83 109.09 o 0.696505
6 0 8 6986.11 7359.14 132.73 o 0.695697
5 5 6 6048.13 6256.78 111.48 o 0.695071
7 1 6 6714.61 6946.26 124.63 o 0.695071
8 2 0 7258.97 7009.25 127.45 o 0.694268
5 2 9 1.41 1.88 0.69 < 0.688487
6 3 7 16.39 19.14 5.63 o 0.687793
8 1 3 27.23 36.72 1.83 o 0.686929
7 4 3 1.37 1.85 0.09 o 0.686929
4 2 10 169.53 221.15 9.59 o 0.686420
6 4 6 220.14 246.66 8.47 o 0.685047
8 2 2 256.51 287.77 9.49 o 0.684363
0 0 12 7771.97 6450.86 133.92 o 0.677670
6 2 8 7235.11 6898.11 125.25 o 0.676019
8 0 4 6944.10 6829.06 124.25 o 0.675034
6 6 0 7000.41 6871.07 125.29 o 0.674707
3 2 11 2.25 0.51 0.63 < 0.670198
1 1 12 452.36 409.27 17.40 o 0.668370
6 5 5 7.76 7.01 0.30 o 0.668283
8 3 1 18.20 14.80 0.98 o 0.667806
6 6 2 322.14 349.40 9.67 o 0.665605
7 5 0 621.42 673.88 18.60 o 0.665527
2 0 12 5611.95 5754.90 104.83 o 0.659442
5 1 10 5499.99 5213.56 93.56 o 0.658604
7 3 6 5231.24 5429.17 96.34 o 0.657391
8 2 4 6119.31 6426.52 115.12 o 0.657013
7 5 2 6076.12 6344.68 113.70 o 0.656787
4 1 11 8.93 10.22 1.65 o 0.652551
6 1 9 16.09 18.53 3.53 o 0.651813
7 2 7 0.30 0.41 0.08 o 0.651224
8 1 5 20.58 32.11 6.21 o 0.650783
7 4 5 1.04 1.62 0.31 o 0.650783
8 3 3 15.85 24.89 5.16 o 0.650490
2 2 12 6421.13 5790.20 107.31 o 0.642611
6 6 4 5898.62 6256.95 113.34 o 0.640363
8 4 0 5809.33 6138.91 111.11 o 0.640083
5 4 9 3.27 2.18 0.36 o 0.635545
3 1 12 434.46 421.91 11.94 o 0.634665
4 4 10 359.36 304.76 9.38 o 0.633918
5 5 8 319.02 297.21 7.17 o 0.633308
7 1 8 446.61 416.07 10.02 o 0.633308
8 0 6 293.51 297.53 6.69 o 0.632835
7 5 4 553.33 582.10 12.97 o 0.632498
8 4 2 287.38 302.97 6.80 o 0.632296
9 1 0 385.57 406.80 9.16 o 0.632229
