#------------------------------------------------------------------------------
#$Date: 2017-05-25 04:59:44 +0300 (Thu, 25 May 2017) $
#$Revision: 196965 $
#$URL: file:///home/coder/svn-repositories/cod/cif/7/04/31/7043109.cif $
#------------------------------------------------------------------------------
#
# This file is available in the Crystallography Open Database (COD),
# http://www.crystallography.net/
#
# All data on this site have been placed in the public domain by the
# contributors.
#
data_7043109
loop_
_publ_author_name
'Whittle, Thomas A.'
'Brant, William R.'
'Hester, James R.'
'Gu, Qinfen'
'Schmid, Siegbert'
_publ_section_title
;
 Tailoring phase transition temperatures in perovskites via A-site vacancy
 generation
;
_journal_name_full               'Dalton Trans.'
_journal_paper_doi               10.1039/C7DT00352H
_journal_year                    2017
_chemical_formula_sum            'Nb0.4 O3 Sr0.8 Ti0.6'
_chemical_formula_weight         184
_chemical_name_systematic        ' ?'
_space_group_IT_number           221
_symmetry_cell_setting           cubic
_symmetry_Int_Tables_number      221
_symmetry_space_group_name_Hall  '-P 4 2 3'
_symmetry_space_group_name_H-M   'P m -3 m'
_cell_angle_alpha                90
_cell_angle_beta                 90
_cell_angle_gamma                90
_cell_formula_units_Z            1
_cell_length_a                   3.928119(3)
_cell_length_b                   3.928119(3)
_cell_length_c                   3.928119(3)
_cell_measurement_temperature    293
_cell_volume                     60.61134(8)
_diffrn_ambient_temperature      293
_diffrn_radiation_probe          x-ray
_diffrn_radiation_wavelength     0.82538
_exptl_absorpt_coefficient_mu    9.502
_exptl_crystal_density_diffrn    5.0405
_exptl_crystal_F_000             84
_pd_instr_location               ' ?'
_pd_meas_2theta_range_max        82.005
_pd_meas_2theta_range_min        2.184
_pd_meas_number_of_points        21232
_pd_proc_2theta_range_max        82.005
_pd_proc_2theta_range_min        2.184
_pd_proc_ls_background_function  '18 Legendre polynoms'
_pd_proc_ls_pref_orient_corr     none
_pd_proc_ls_profile_function     Pseudo-Voigt
_pd_proc_ls_prof_R_factor        0.0444
_pd_proc_ls_prof_wR_expected     0.0190
_pd_proc_ls_prof_wR_factor       0.0614
_refine_ls_goodness_of_fit_all   3.24
_refine_ls_number_constraints    0
_refine_ls_number_parameters     27
_refine_ls_number_restraints     0
_refine_ls_R_factor_all          0.0214
_refine_ls_R_factor_gt           0.0191
_refine_ls_shift/su_max          0.0931
_refine_ls_shift/su_mean         0.0066
_refine_ls_weighting_scheme      sigma
_refine_ls_wR_factor_all         0.0335
_refine_ls_wR_factor_gt          0.0329
_cod_data_source_file            c7dt00352h3.cif
_cod_data_source_block           I
_cod_depositor_comments
;
The following automatic conversions were performed:

'_diffrn_radiation_probe' value 'X-ray' changed to 'x-ray' according
to
/home/data/users/saulius/crontab/automatic-downloads/rss-feeds/RSC/lib/dictionaries/cif_core.dic
dictionary named 'cif_core.dic' version 2.4.2 from 2011-04-26.

Automatic conversion script
Id: cif_fix_values 4973 2017-02-22 13:04:09Z antanas 
;
_cod_original_sg_symbol_Hall     '-P 4;2;3'
_cod_database_code               7043109
loop_
_space_group_symop_id
_space_group_symop_operation_xyz
1 x,y,z
2 -x,-y,z
3 -x,y,-z
4 x,-y,-z
5 z,x,y
6 z,-x,-y
7 -z,-x,y
8 -z,x,-y
9 y,z,x
10 -y,z,-x
11 y,-z,-x
12 -y,-z,x
13 y,x,-z
14 -y,-x,-z
15 y,-x,z
16 -y,x,z
17 x,z,-y
18 -x,z,y
19 -x,-z,-y
20 x,-z,y
21 z,y,-x
22 z,-y,x
23 -z,y,x
24 -z,-y,-x
25 -x,-y,-z
26 x,y,-z
27 x,-y,z
28 -x,y,z
29 -z,-x,-y
30 -z,x,y
31 z,x,-y
32 z,-x,y
33 -y,-z,-x
34 y,-z,x
35 -y,z,x
36 y,z,-x
37 -y,-x,z
38 y,x,z
39 -y,x,-z
40 y,-x,-z
41 -x,-z,y
42 x,-z,-y
43 x,z,y
44 -x,z,-y
45 -z,-y,x
46 -z,y,-x
47 z,-y,-x
48 z,y,x
loop_
_atom_site_label
_atom_site_type_symbol
_atom_site_fract_x
_atom_site_fract_y
_atom_site_fract_z
_atom_site_adp_type
_atom_site_U_iso_or_equiv
_atom_site_site_symmetry_multiplicity
_atom_site_occupancy
_atom_site_calc_flag
Sr Sr 0.5 0.5 0.5 Uiso 0.00962(9) 1 0.8 d
Ti Ti 0 0 0 Uiso 0.01126(9) 1 0.6 d
Nb Nb 0 0 0 Uiso 0.01126(9) 1 0.4 d
O O 0 0 0.5 Uiso 0.0119(2) 3 1 d
loop_
_atom_type_symbol
_atom_type_scat_dispersion_real
_atom_type_scat_dispersion_imag
_atom_type_scat_source
Nb -1.2589 0.8323 'International Tables Vol C tables 4.2.6.8 and 6.1.1.1'
O 0.0160 0.0087 'International Tables Vol C tables 4.2.6.8 and 6.1.1.1'
Sr -2.2526 0.6045 'International Tables Vol C tables 4.2.6.8 and 6.1.1.1'
Ti 0.3250 0.5982 'International Tables Vol C tables 4.2.6.8 and 6.1.1.1'
loop_
_geom_angle_atom_site_label_1
_geom_angle_atom_site_label_2
_geom_angle_atom_site_label_3
_geom_angle_site_symmetry_1
_geom_angle_site_symmetry_3
_geom_angle
O Sr O . 1_565 90
O Sr O . 1_655 90
O Sr O . 1_665 180.0(5)
O Sr O . 5_555 60
O Sr O . 5_556 60
O Sr O . 5_565 120
O Sr O . 5_566 120
O Sr O . 9_555 60
O Sr O . 9_556 60
O Sr O . 9_655 120
O Sr O . 9_656 120
O Sr O 1_565 1_655 180.0(5)
O Sr O 1_565 1_665 90
O Sr O 1_565 5_555 120
O Sr O 1_565 5_556 120
O Sr O 1_565 5_565 60
O Sr O 1_565 5_566 60
O Sr O 1_565 9_555 60
O Sr O 1_565 9_556 60
O Sr O 1_565 9_655 120
O Sr O 1_565 9_656 120
O Sr O 1_655 1_665 90
O Sr O 1_655 5_555 60
O Sr O 1_655 5_556 60
O Sr O 1_655 5_565 120
O Sr O 1_655 5_566 120
O Sr O 1_655 9_555 120
O Sr O 1_655 9_556 120
O Sr O 1_655 9_655 60
O Sr O 1_655 9_656 60
O Sr O 1_665 5_555 120
O Sr O 1_665 5_556 120
O Sr O 1_665 5_565 60
O Sr O 1_665 5_566 60
O Sr O 1_665 9_555 120
O Sr O 1_665 9_556 120
O Sr O 1_665 9_655 60
O Sr O 1_665 9_656 60
O Sr O 5_555 5_556 90
O Sr O 5_555 5_565 90
O Sr O 5_555 5_566 180.0(5)
O Sr O 5_555 9_555 60
O Sr O 5_555 9_556 120
O Sr O 5_555 9_655 60
O Sr O 5_555 9_656 120
O Sr O 5_556 5_565 180.0(5)
O Sr O 5_556 5_566 90
O Sr O 5_556 9_555 120
O Sr O 5_556 9_556 60
O Sr O 5_556 9_655 120
O Sr O 5_556 9_656 60
O Sr O 5_565 5_566 90
O Sr O 5_565 9_555 60
O Sr O 5_565 9_556 120
O Sr O 5_565 9_655 60
O Sr O 5_565 9_656 120
O Sr O 5_566 9_555 120
O Sr O 5_566 9_556 60
O Sr O 5_566 9_655 120
O Sr O 5_566 9_656 60
O Sr O 9_555 9_556 90
O Sr O 9_555 9_655 90
O Sr O 9_555 9_656 180.0(5)
O Sr O 9_556 9_655 180.0(5)
O Sr O 9_556 9_656 90
O Sr O 9_655 9_656 90
O Ti O 1_554 . 180.0(5)
O Ti O 1_554 5_455 90
O Ti O 1_554 5_555 90
O Ti O 1_554 9_545 90
O Ti O 1_554 9_555 90
O Ti O . 5_455 90
O Ti O . 5_555 90
O Ti O . 9_545 90
O Ti O . 9_555 90
O Ti O 5_455 5_555 180.0(5)
O Ti O 5_455 9_545 90
O Ti O 5_455 9_555 90
O Ti O 5_555 9_545 90
O Ti O 5_555 9_555 90
O Ti O 9_545 9_555 180.0(5)
O Nb O 1_554 . 180.0(5)
O Nb O 1_554 5_455 90
O Nb O 1_554 5_555 90
O Nb O 1_554 9_545 90
O Nb O 1_554 9_555 90
O Nb O . 5_455 90
O Nb O . 5_555 90
O Nb O . 9_545 90
O Nb O . 9_555 90
O Nb O 5_455 5_555 180.0(5)
O Nb O 5_455 9_545 90
O Nb O 5_455 9_555 90
O Nb O 5_555 9_545 90
O Nb O 5_555 9_555 90
O Nb O 9_545 9_555 180.0(5)
loop_
_geom_bond_atom_site_label_1
_geom_bond_atom_site_label_2
_geom_bond_site_symmetry_2
_geom_bond_distance
Sr O . 2.7776
Sr O 1_565 2.7776
Sr O 1_655 2.7776
Sr O 1_665 2.7776
Sr O 5_555 2.7776
Sr O 5_556 2.7776
Sr O 5_565 2.7776
Sr O 5_566 2.7776
Sr O 9_555 2.7776
Sr O 9_556 2.7776
Sr O 9_655 2.7776
Sr O 9_656 2.7776
Ti O 1_554 1.9641
Ti O . 1.9641
Ti O 5_455 1.9641
Ti O 5_555 1.9641
Ti O 9_545 1.9641
Ti O 9_555 1.9641
Nb O 1_554 1.9641
Nb O . 1.9641
Nb O 5_455 1.9641
Nb O 5_555 1.9641
Nb O 9_545 1.9641
Nb O 9_555 1.9641
loop_
_pd_proc_point_id
_pd_proc_2theta_corrected
_pd_proc_intensity_net
_pd_calc_intensity_net
_pd_proc_ls_weight
1 2.1934 4046.60 3992.26 61.90
2 2.1972 3945.00 3999.75 62.60
3 2.2009 3978.10 4007.26 65.10
4 2.2047 3943.50 4014.73 65.60
5 2.2084 3922.10 4022.20 66.10
6 2.2122 3868.10 4029.66 66.00
7 2.2159 4022.60 4037.10 67.60
8 2.2197 3906.60 4044.54 66.70
9 2.2234 4096.80 4051.95 67.40
10 2.2272 3889.10 4059.34 66.80
11 2.2310 4061.10 4066.75 67.50
12 2.2347 3965.00 4074.12 66.90
13 2.2385 4157.80 4081.49 68.60
14 2.2422 4015.70 4088.83 67.60
15 2.2460 3993.20 4096.16 67.30
16 2.2497 4032.90 4103.50 68.20
17 2.2535 4239.00 4110.80 69.40
18 2.2572 4080.90 4118.12 67.90
19 2.2610 4047.80 4125.39 67.80
20 2.2647 4128.50 4132.68 68.70
21 2.2685 4238.40 4139.92 70.30
22 2.2722 4050.00 4147.16 68.10
23 2.2760 4082.70 4154.40 67.50
24 2.2798 4141.60 4161.62 68.40
25 2.2835 4216.20 4168.83 69.60
26 2.2873 4188.20 4176.02 69.90
27 2.2910 4150.70 4183.20 69.20
28 2.2948 4229.90 4190.36 69.60
29 2.2985 4248.50 4197.52 69.70
30 2.3023 4147.30 4204.65 68.10
31 2.3060 4278.80 4211.79 69.80
32 2.3098 4223.00 4218.89 68.90
33 2.3135 4242.30 4225.98 70.00
34 2.3173 4213.60 4233.08 68.70
35 2.3210 4211.60 4240.14 69.30
36 2.3248 4119.20 4247.21 68.50
37 2.3286 4277.40 4254.25 69.00
38 2.3323 4132.80 4261.28 68.90
39 2.3361 4266.70 4268.29 69.60
40 2.3398 4257.30 4275.31 69.80
41 2.3436 4405.00 4282.29 70.40
42 2.3473 4169.30 4289.27 69.40
43 2.3511 4247.80 4296.23 69.50
44 2.3549 4151.10 4303.19 68.00
45 2.3586 4401.10 4310.12 71.80
46 2.3624 4232.60 4317.05 69.40
47 2.3661 4359.30 4323.95 70.50
48 2.3699 4239.60 4330.85 69.90
49 2.3736 4267.40 4337.73 70.20
50 2.3774 4316.30 4344.60 70.60
51 2.3811 4446.90 4351.45 71.40
52 2.3849 4245.40 4358.29 69.50
53 2.3886 4355.90 4365.11 70.40
54 2.3924 4232.00 4371.93 68.90
55 2.3962 4534.20 4378.72 72.00
56 2.3999 4221.50 4385.52 69.90
57 2.4037 4335.70 4392.28 69.90
58 2.4074 4162.60 4399.04 68.90
59 2.4112 4355.50 4405.78 70.60
60 2.4149 4196.60 4412.52 69.10
61 2.4187 4404.40 4419.22 70.70
62 2.4224 4299.20 4425.94 70.30
63 2.4262 4504.00 4432.61 71.60
64 2.4299 4395.90 4439.30 71.00
65 2.4337 4408.80 4445.95 71.00
66 2.4375 4407.10 4452.61 70.90
67 2.4412 4350.30 4459.23 71.10
68 2.4450 4435.30 4465.86 71.40
69 2.4487 4499.00 4472.45 71.50
70 2.4525 4426.20 4479.05 71.40
71 2.4562 4489.60 4485.64 71.10
72 2.4600 4467.30 4492.19 71.60
73 2.4637 4550.90 4498.75 72.50
74 2.4675 4435.80 4505.28 70.60
75 2.4713 4714.00 4511.81 74.30
76 2.4750 4506.00 4518.31 71.10
77 2.4788 4651.90 4524.81 73.70
78 2.4825 4561.10 4531.28 72.00
79 2.4863 4661.20 4537.75 73.00
80 2.4900 4402.30 4544.21 71.60
81 2.4938 4470.90 4550.64 71.90
82 2.4976 4431.40 4557.08 71.90
83 2.5013 4567.80 4563.47 73.00
84 2.5051 4429.60 4569.88 71.70
85 2.5088 4543.00 4576.25 72.60
86 2.5126 4461.80 4582.63 71.60
87 2.5163 4649.60 4588.97 73.40
88 2.5201 4394.50 4595.32 71.20
89 2.5238 4554.00 4601.64 72.50
90 2.5276 4398.40 4607.96 70.80
91 2.5313 4608.30 4614.26 73.00
92 2.5351 4367.70 4620.54 71.40
93 2.5389 4549.40 4626.82 72.60
94 2.5426 4503.30 4633.07 71.80
95 2.5464 4616.50 4639.31 73.10
96 2.5501 4530.30 4645.55 73.10
97 2.5539 4649.80 4651.75 73.40
98 2.5576 4551.80 4657.96 72.50
99 2.5614 4615.10 4664.14 72.60
100 2.5652 4522.20 4670.32 73.10
101 2.5689 4559.70 4676.48 72.60
102 2.5727 4553.10 4682.62 72.50
103 2.5764 4620.10 4688.75 73.10
104 2.5802 4521.50 4694.86 72.00
105 2.5839 4613.80 4700.97 72.80
106 2.5877 4596.20 4707.06 73.10
107 2.5914 4625.60 4713.12 73.80
108 2.5952 4545.50 4719.19 73.00
109 2.5989 4635.30 4725.23 73.40
110 2.6027 4655.10 4731.27 74.00
111 2.6065 4812.20 4737.29 74.30
112 2.6102 4613.70 4743.28 72.40
113 2.6140 4709.60 4749.28 74.30
114 2.6177 4572.50 4755.25 73.20
115 2.6215 4746.10 4761.22 74.20
116 2.6253 4511.10 4767.17 72.00
117 2.6290 4779.10 4773.09 74.60
118 2.6328 4584.60 4779.01 73.20
119 2.6365 4752.40 4784.91 74.20
120 2.6403 4663.20 4790.81 73.30
121 2.6440 4778.40 4796.69 73.70
122 2.6478 4739.50 4802.54 74.10
123 2.6515 4684.40 4808.40 73.60
124 2.6553 4640.10 4814.24 72.50
125 2.6590 4807.60 4820.05 74.60
126 2.6628 4842.20 4825.86 75.10
127 2.6666 4755.10 4831.65 74.40
128 2.6703 4653.00 4837.43 74.10
129 2.6741 4709.60 4843.20 75.10
130 2.6778 4743.30 4848.94 74.80
131 2.6816 4810.50 4854.68 76.20
132 2.6853 4724.60 4860.41 75.20
133 2.6891 4668.30 4866.11 75.10
134 2.6929 4785.70 4871.81 75.60
135 2.6966 4858.10 4877.49 77.20
136 2.7004 4792.60 4883.15 74.30
137 2.7041 4986.80 4888.81 76.80
138 2.7079 4736.90 4894.43 75.70
139 2.7116 4769.30 4900.06 75.50
140 2.7154 4777.40 4905.67 75.40
141 2.7192 4779.20 4911.28 73.50
142 2.7229 4837.80 4916.85 76.50
143 2.7267 4849.00 4922.42 76.60
144 2.7304 4770.20 4927.98 75.10
145 2.7342 4928.10 4933.51 77.20
146 2.7379 4737.20 4939.04 76.20
147 2.7417 4899.50 4944.54 74.80
148 2.7455 4920.10 4950.05 76.70
149 2.7492 4911.50 4955.53 77.40
150 2.7530 4835.30 4960.99 76.10
151 2.7567 4949.20 4966.45 76.20
152 2.7605 4785.60 4971.90 76.00
153 2.7642 4942.90 4977.32 77.10
154 2.7680 4805.70 4982.74 75.60
155 2.7717 4968.30 4988.14 77.80
156 2.7755 4966.90 4993.53 77.00
157 2.7793 5051.80 4998.89 78.20
158 2.7830 4898.90 5004.26 76.80
159 2.7868 4923.40 5009.60 77.10
160 2.7905 4969.50 5014.92 77.90
161 2.7943 5061.90 5020.24 79.10
162 2.7980 5011.00 5025.55 77.50
163 2.8018 4897.30 5030.83 76.50
164 2.8056 4974.40 5036.11 76.90
165 2.8093 5079.20 5041.37 77.40
166 2.8131 4818.50 5046.62 76.50
167 2.8168 5107.90 5051.84 79.50
168 2.8206 4937.60 5057.06 77.00
169 2.8244 5047.70 5062.27 77.40
170 2.8281 5026.30 5067.45 77.30
171 2.8319 5109.50 5072.64 78.20
172 2.8356 4998.50 5077.80 76.80
173 2.8394 5113.90 5082.94 78.20
174 2.8431 5000.30 5088.08 77.10
175 2.8469 4953.10 5093.21 76.20
176 2.8507 4905.20 5098.31 76.50
177 2.8544 5195.20 5103.40 78.70
178 2.8582 5116.40 5108.48 78.00
179 2.8619 5064.90 5113.55 76.70
180 2.8657 5007.70 5118.59 77.30
181 2.8694 5105.10 5123.64 77.40
182 2.8732 5074.80 5128.66 77.80
183 2.8769 5093.80 5133.67 77.80
184 2.8807 5053.90 5138.66 76.20
185 2.8845 5166.50 5143.65 78.30
186 2.8882 5045.50 5148.63 77.60
187 2.8920 5208.70 5153.57 77.90
188 2.8957 5245.40 5158.52 79.40
189 2.8995 5443.40 5163.45 78.90
190 2.9032 5281.30 5168.37 79.60
191 2.9070 5473.80 5173.25 80.30
192 2.9108 5203.50 5178.15 77.30
193 2.9145 5359.60 5183.02 80.20
194 2.9183 5122.50 5187.88 77.80
195 2.9220 5170.30 5192.72 78.70
196 2.9258 5125.00 5197.56 78.00
197 2.9295 5241.10 5202.38 78.60
198 2.9333 5134.10 5207.17 77.70
199 2.9371 5198.20 5211.97 79.50
200 2.9408 5213.90 5216.75 78.80
201 2.9446 5407.60 5221.51 81.20
202 2.9483 5266.00 5226.25 80.40
203 2.9521 5354.20 5230.99 79.70
204 2.9558 5254.40 5235.72 79.10
205 2.9596 5325.70 5240.43 79.60
206 2.9634 5292.90 5245.13 79.20
207 2.9671 5298.10 5249.80 79.30
208 2.9709 5207.00 5254.47 77.90
209 2.9746 5291.30 5259.13 80.50
210 2.9784 5192.60 5263.78 79.40
211 2.9822 5333.90 5268.39 80.60
212 2.9859 5178.30 5273.01 78.60
213 2.9897 5404.80 5277.61 80.30
214 2.9934 5388.50 5282.20 80.40
215 2.9972 5420.70 5286.77 80.60
216 3.0009 5246.90 5291.33 78.90
217 3.0047 5311.70 5295.88 79.00
218 3.0085 5336.30 5300.42 79.90
219 3.0122 5525.10 5304.94 80.40
220 3.0160 5281.80 5309.43 79.70
221 3.0197 5559.40 5313.93 81.70
222 3.0235 5223.40 5318.41 78.30
223 3.0273 5626.20 5322.88 82.40
224 3.0310 5426.20 5327.32 80.30
225 3.0348 5405.00 5331.77 80.50
226 3.0385 5438.00 5336.19 80.20
227 3.0423 5522.60 5340.61 81.30
228 3.0460 5409.20 5345.01 81.20
229 3.0498 5516.00 5349.39 80.30
230 3.0536 5547.20 5353.76 82.20
231 3.0573 5669.90 5358.12 83.10
232 3.0611 5439.80 5362.47 80.50
233 3.0648 5480.70 5366.80 81.20
234 3.0686 5582.90 5371.12 81.80
235 3.0723 5702.30 5375.43 82.60
236 3.0761 5488.70 5379.72 80.90
237 3.0799 5627.00 5384.00 81.70
238 3.0836 5451.00 5388.26 81.10
239 3.0874 5807.30 5392.52 83.20
240 3.0911 5616.60 5396.76 82.80
241 3.0949 5787.90 5400.99 83.20
242 3.0986 5547.90 5405.20 81.70
243 3.1024 5819.00 5409.40 83.20
244 3.1062 5593.60 5413.59 82.20
245 3.1099 5892.90 5417.76 82.20
246 3.1137 5687.50 5421.92 81.70
247 3.1174 5692.70 5426.08 83.20
248 3.1212 5701.90 5430.21 83.70
249 3.1249 5963.40 5434.33 84.30
250 3.1287 5699.40 5438.44 82.30
251 3.1325 6003.90 5442.54 84.40
252 3.1362 5732.80 5446.62 81.90
253 3.1400 5940.80 5450.69 84.00
254 3.1437 5662.10 5454.74 82.70
255 3.1475 5822.40 5458.79 84.30
256 3.1513 5778.40 5462.82 83.80
257 3.1550 6022.40 5466.84 86.80
258 3.1588 5931.30 5470.85 85.00
259 3.1625 5883.40 5474.83 84.70
260 3.1663 5903.80 5478.81 84.80
261 3.1700 5832.30 5482.78 83.30
262 3.1738 5874.00 5486.73 83.00
263 3.1776 5969.40 5490.68 85.40
264 3.1813 5910.20 5494.60 83.40
265 3.1851 6199.40 5498.52 86.90
266 3.1888 5875.60 5502.42 82.00
267 3.1926 5990.50 5506.31 85.90
268 3.1964 5996.00 5510.18 86.50
269 3.2001 6042.90 5514.05 85.00
270 3.2039 6042.40 5517.90 85.10
271 3.2076 6282.80 5521.73 88.50
272 3.2114 6001.50 5525.56 85.20
273 3.2152 6234.90 5529.37 87.50
274 3.2189 6078.50 5533.18 85.70
275 3.2227 6095.80 5536.96 85.40
276 3.2264 6306.70 5540.74 87.10
277 3.2302 6346.40 5544.50 87.00
278 3.2339 6082.80 5548.25 86.30
279 3.2377 6366.30 5551.98 88.60
280 3.2415 6101.40 5555.71 86.70
281 3.2452 6147.20 5559.42 86.70
282 3.2490 6083.30 5563.12 85.90
283 3.2527 6335.20 5566.81 87.70
284 3.2565 6208.10 5570.48 86.60
285 3.2603 6235.60 5574.14 87.70
286 3.2640 6180.70 5577.79 86.90
287 3.2678 6301.60 5581.43 87.70
288 3.2715 5993.90 5585.05 86.30
289 3.2753 6260.50 5588.67 88.20
290 3.2791 6204.00 5592.27 88.20
291 3.2828 6087.40 5595.85 86.20
292 3.2866 6141.40 5599.42 87.70
293 3.2903 6272.30 5602.99 85.60
294 3.2941 5980.60 5606.54 84.70
295 3.2978 6312.70 5610.08 88.00
296 3.3016 6216.30 5613.60 87.10
297 3.3054 6163.60 5617.12 86.70
298 3.3091 6250.20 5620.62 87.80
299 3.3129 6311.80 5624.10 87.70
300 3.3166 5959.20 5627.58 84.40
301 3.3204 6203.50 5631.04 87.50
302 3.3242 6347.60 5634.49 88.20
303 3.3279 6281.60 5637.93 87.40
304 3.3317 6147.20 5641.36 87.40
305 3.3354 6260.30 5644.78 87.10
306 3.3392 6032.90 5648.18 85.90
307 3.3430 6171.30 5651.57 86.90
308 3.3467 5984.60 5654.95 86.10
309 3.3505 6151.10 5658.31 86.40
310 3.3542 5947.20 5661.67 86.70
311 3.3580 6258.70 5665.01 87.20
312 3.3617 6195.50 5668.34 87.90
313 3.3655 6177.30 5671.66 86.10
314 3.3693 6013.00 5674.97 86.00
315 3.3730 6013.40 5678.26 84.60
316 3.3768 6069.60 5681.54 86.40
317 3.3805 6112.20 5684.81 86.80
318 3.3843 6099.20 5688.07 86.70
319 3.3881 6166.00 5691.32 87.00
320 3.3918 5990.10 5694.55 86.70
321 3.3956 6102.30 5697.77 86.20
322 3.3993 5887.60 5700.99 85.10
323 3.4031 6115.00 5704.19 87.50
324 3.4069 6099.10 5707.37 86.60
325 3.4106 6072.10 5710.54 86.40
326 3.4144 5866.40 5713.71 85.30
327 3.4181 5959.40 5716.86 86.60
328 3.4219 5863.00 5720.00 85.20
329 3.4256 5962.10 5723.13 85.80
330 3.4294 5947.00 5726.24 84.90
331 3.4332 6111.10 5729.35 84.90
332 3.4369 5906.40 5732.44 84.90
333 3.4407 6133.50 5735.53 88.50
334 3.4444 5893.70 5738.60 83.90
335 3.4482 5936.60 5741.66 85.30
336 3.4520 5881.70 5744.70 85.40
337 3.4557 5919.20 5747.73 85.70
338 3.4595 5963.70 5750.75 86.20
339 3.4632 5970.40 5753.77 86.50
340 3.4670 5724.10 5756.77 84.10
341 3.4708 5871.70 5759.76 85.80
342 3.4745 5813.30 5762.73 84.30
343 3.4783 5910.10 5765.70 85.70
344 3.4820 5789.10 5768.66 83.90
345 3.4858 5955.30 5771.60 86.00
346 3.4896 5774.50 5774.53 84.40
347 3.4933 5908.00 5777.45 85.20
348 3.4971 5768.30 5780.36 84.70
349 3.5008 5974.30 5783.25 86.00
350 3.5046 5648.20 5786.14 84.50
351 3.5083 5777.30 5789.01 84.50
352 3.5121 5885.40 5791.88 85.20
353 3.5159 5895.20 5794.73 86.10
354 3.5196 5840.70 5797.57 84.80
355 3.5234 5931.40 5800.40 86.60
356 3.5271 5664.90 5803.22 84.30
357 3.5309 5858.10 5806.03 84.80
358 3.5347 5728.90 5808.83 84.10
359 3.5384 5638.50 5811.61 84.50
360 3.5422 5688.40 5814.38 82.80
361 3.5459 5750.00 5817.15 83.80
362 3.5497 5669.70 5819.89 82.80
363 3.5535 5923.80 5822.63 85.60
364 3.5572 5585.20 5825.36 82.50
365 3.5610 5846.20 5828.08 85.20
366 3.5647 5736.60 5830.79 84.40
367 3.5685 5788.00 5833.49 84.40
368 3.5722 5740.00 5836.17 83.70
369 3.5760 5838.90 5838.85 85.20
370 3.5798 5713.20 5841.51 85.10
371 3.5835 5742.10 5844.17 83.40
372 3.5873 5661.90 5846.81 83.10
373 3.5910 5780.20 5849.44 86.60
374 3.5948 5698.00 5852.06 83.50
375 3.5986 5795.30 5854.67 84.10
376 3.6023 5784.70 5857.27 85.10
377 3.6061 5741.30 5859.85 84.10
378 3.6098 5768.60 5862.43 85.00
379 3.6136 5974.30 5864.99 87.40
380 3.6174 5798.70 5867.55 85.90
381 3.6211 5702.30 5870.09 83.80
382 3.6249 5612.70 5872.62 83.50
383 3.6286 5846.00 5875.15 85.60
384 3.6324 5777.20 5877.66 86.20
385 3.6362 5830.20 5880.16 85.00
386 3.6399 5671.10 5882.65 83.00
387 3.6437 5851.30 5885.14 84.80
388 3.6474 5808.50 5887.61 83.60
389 3.6512 5872.30 5890.07 83.60
390 3.6550 5720.80 5892.52 82.20
391 3.6587 5851.50 5894.95 84.80
392 3.6625 5708.30 5897.38 82.90
393 3.6662 5790.60 5899.80 83.70
394 3.6700 5690.50 5902.21 82.50
395 3.6738 5888.20 5904.60 84.40
396 3.6775 5769.50 5906.99 84.80
397 3.6813 5900.30 5909.37 84.60
398 3.6850 5790.20 5911.73 83.90
399 3.6888 5805.20 5914.09 83.30
400 3.6926 5823.50 5916.43 85.20
401 3.6963 5925.90 5918.77 82.30
402 3.7001 5557.60 5921.09 81.70
403 3.7038 5821.60 5923.41 84.40
404 3.7076 5720.80 5925.71 82.90
405 3.7113 6006.20 5928.00 85.70
406 3.7151 5695.00 5930.29 83.90
407 3.7189 5849.50 5932.55 84.90
408 3.7226 5847.10 5934.82 84.40
409 3.7264 5967.70 5937.07 85.60
410 3.7301 5646.20 5939.31 83.50
411 3.7339 5947.90 5941.55 86.10
412 3.7377 5780.00 5943.77 83.80
413 3.7414 6073.80 5945.98 87.00
414 3.7452 5693.40 5948.19 83.10
415 3.7490 5833.60 5950.38 83.30
416 3.7527 5730.10 5952.56 83.90
417 3.7565 5868.10 5954.73 83.60
418 3.7602 5777.90 5956.90 82.70
419 3.7640 5771.70 5959.05 83.50
420 3.7678 5897.70 5961.19 85.10
421 3.7715 5952.50 5963.33 85.40
422 3.7753 5688.10 5965.45 83.10
423 3.7790 5742.60 5967.56 83.90
424 3.7828 5667.70 5969.66 83.60
425 3.7866 5955.10 5971.76 85.10
426 3.7903 5761.60 5973.84 83.70
427 3.7941 6007.10 5975.92 86.00
428 3.7978 5721.10 5977.98 84.10
429 3.8016 5883.90 5980.04 84.70
430 3.8054 5678.40 5982.08 83.10
431 3.8091 5795.20 5984.12 83.70
432 3.8129 5771.60 5986.14 84.60
433 3.8166 5861.00 5988.16 84.40
434 3.8204 5706.70 5990.17 83.20
435 3.8242 5853.60 5992.16 84.60
436 3.8279 5649.10 5994.15 82.50
437 3.8317 5853.70 5996.13 84.90
438 3.8354 5778.20 5998.10 83.20
439 3.8392 5954.10 6000.06 84.50
440 3.8430 5693.90 6002.01 83.00
441 3.8467 5871.90 6003.94 86.00
442 3.8505 5737.50 6005.88 81.60
443 3.8542 5893.20 6007.80 84.60
444 3.8580 5692.30 6009.71 82.80
445 3.8617 5885.50 6011.61 84.40
446 3.8655 5720.30 6013.50 82.50
447 3.8693 5715.80 6015.39 83.70
448 3.8730 5669.30 6017.26 83.30
449 3.8768 6111.70 6019.13 86.70
450 3.8805 5856.50 6020.98 83.70
451 3.8843 6045.50 6022.83 86.30
452 3.8881 5759.60 6024.67 84.50
453 3.8918 5928.80 6026.50 85.10
454 3.8956 5801.30 6028.31 84.20
455 3.8993 5843.40 6030.13 83.70
456 3.9031 5848.30 6031.93 84.20
457 3.9069 5884.70 6033.72 85.20
458 3.9106 5823.70 6035.50 84.50
459 3.9144 5978.40 6037.27 86.10
460 3.9181 5804.80 6039.04 83.90
461 3.9219 5888.20 6040.79 84.60
462 3.9257 5769.00 6042.54 84.10
463 3.9294 6042.80 6044.28 86.50
464 3.9332 5863.60 6046.01 84.90
465 3.9369 5994.00 6047.73 85.20
466 3.9407 5853.50 6049.44 84.50
467 3.9445 6088.30 6051.14 85.10
468 3.9482 5770.40 6052.83 83.90
469 3.9520 5865.40 6054.52 85.40
470 3.9557 5994.50 6056.19 86.00
471 3.9595 6009.00 6057.86 85.50
472 3.9633 5944.60 6059.52 86.80
473 3.9670 6034.70 6061.17 86.00
474 3.9708 5731.10 6062.81 83.30
475 3.9746 5921.90 6064.44 84.60
476 3.9783 5968.40 6066.06 86.10
477 3.9821 5981.30 6067.68 85.70
478 3.9858 5956.40 6069.28 86.10
479 3.9896 6034.80 6070.88 85.10
480 3.9934 5992.40 6072.46 86.30
481 3.9971 5981.70 6074.05 85.50
482 4.0009 5820.20 6075.62 85.70
483 4.0046 5933.90 6077.18 85.60
484 4.0084 5809.30 6078.73 84.20
485 4.0121 5958.30 6080.28 84.70
486 4.0159 5821.00 6081.82 84.40
487 4.0197 5893.40 6083.34 85.10
488 4.0234 5850.00 6084.87 85.10
489 4.0272 6038.30 6086.38 87.40
490 4.0310 5896.50 6087.88 85.10
491 4.0347 6098.00 6089.38 87.40
492 4.0385 6094.80 6090.86 86.40
493 4.0422 5906.10 6092.35 85.50
494 4.0460 5893.30 6093.82 85.30
495 4.0498 5897.80 6095.28 84.60
496 4.0535 5788.70 6096.73 85.10
497 4.0573 5898.10 6098.18 85.00
498 4.0610 5752.90 6099.62 84.60
499 4.0648 6146.40 6101.04 87.30
500 4.0686 5804.10 6102.46 84.10
501 4.0723 5972.10 6103.88 84.50
502 4.0761 5679.00 6105.28 83.20
503 4.0798 5889.20 6106.68 84.80
504 4.0836 5985.80 6108.07 86.10
505 4.0874 6044.70 6109.45 86.00
506 4.0911 5950.70 6110.82 85.30
507 4.0949 6047.40 6112.19 84.70
508 4.0986 5738.30 6113.54 82.70
509 4.1024 6008.40 6114.89 85.70
510 4.1062 5912.80 6116.23 85.10
511 4.1099 6201.20 6117.56 88.00
512 4.1137 5862.00 6118.89 86.00
513 4.1174 6042.30 6120.21 84.90
514 4.1212 5919.10 6121.52 83.40
515 4.1250 5918.10 6122.82 83.40
516 4.1287 5863.30 6124.11 82.80
517 4.1325 6163.90 6125.39 84.30
518 4.1362 5821.40 6126.67 82.30
519 4.1400 6104.50 6127.94 84.30
520 4.1438 5704.90 6129.21 81.50
521 4.1475 6034.20 6130.46 83.10
522 4.1513 5906.90 6131.71 83.00
523 4.1550 6083.60 6132.95 84.60
524 4.1588 5771.50 6134.18 82.40
525 4.1626 6087.80 6135.40 84.30
526 4.1663 5914.80 6136.62 83.40
527 4.1701 6101.50 6137.83 84.40
528 4.1739 5732.20 6139.03 81.70
529 4.1776 6033.10 6140.23 84.10
530 4.1814 5943.50 6141.41 83.90
531 4.1851 5938.40 6142.59 83.30
532 4.1889 5973.90 6143.76 83.00
533 4.1926 6064.70 6144.93 84.00
534 4.1964 5877.20 6146.08 83.60
535 4.2002 5978.80 6147.23 84.30
536 4.2039 5962.90 6148.37 84.00
537 4.2077 6037.60 6149.51 83.60
538 4.2115 5832.80 6150.63 83.10
539 4.2152 6114.50 6151.75 84.40
540 4.2190 5909.80 6152.87 83.30
541 4.2227 6063.60 6153.97 85.40
542 4.2265 5893.50 6155.07 82.60
543 4.2302 6134.80 6156.16 84.90
544 4.2340 5868.80 6157.24 82.90
545 4.2378 6037.80 6158.32 84.10
546 4.2415 5859.40 6159.39 81.50
547 4.2453 5935.80 6160.45 83.50
548 4.2491 5988.10 6161.51 83.60
549 4.2528 6126.20 6162.56 85.20
550 4.2566 5890.00 6163.60 83.20
551 4.2603 6064.80 6164.63 84.20
552 4.2641 5928.40 6165.66 83.50
553 4.2679 6157.50 6166.68 85.70
554 4.2716 5879.40 6167.69 83.40
555 4.2754 6081.70 6168.69 84.80
556 4.2791 5961.90 6169.69 83.90
557 4.2829 6025.80 6170.69 84.00
558 4.2867 5994.90 6171.67 83.80
559 4.2904 6007.10 6172.65 83.30
560 4.2942 6017.30 6173.62 84.70
561 4.2979 6075.60 6174.58 84.40
562 4.3017 5999.20 6175.54 84.30
563 4.3055 5920.00 6176.49 82.90
564 4.3092 6077.90 6177.44 85.40
565 4.3130 6036.00 6178.37 85.00
566 4.3167 5993.60 6179.30 83.90
567 4.3205 5944.00 6180.23 83.80
568 4.3243 5881.60 6181.15 81.40
569 4.3280 6017.50 6182.06 83.20
570 4.3318 5920.90 6182.96 83.40
571 4.3355 6019.00 6183.86 84.00
572 4.3393 5920.60 6184.75 84.00
573 4.3431 6081.40 6185.63 84.40
574 4.3468 5916.30 6186.51 82.50
575 4.3506 6041.40 6187.38 84.70
576 4.3544 6073.00 6188.24 85.00
577 4.3581 5916.60 6189.10 83.40
578 4.3619 5923.30 6189.95 83.30
579 4.3656 6015.90 6190.80 83.90
580 4.3694 5942.30 6191.64 84.00
581 4.3731 6183.00 6192.47 86.30
582 4.3769 5987.60 6193.29 84.50
583 4.3807 6036.80 6194.11 85.00
584 4.3844 5986.10 6194.93 84.00
585 4.3882 6059.90 6195.73 84.80
586 4.3920 5902.70 6196.53 83.70
587 4.3957 6030.90 6197.33 84.50
588 4.3995 5913.50 6198.11 84.10
589 4.4032 6099.50 6198.90 85.60
590 4.4070 6033.70 6199.67 84.50
591 4.4108 6195.40 6200.44 85.50
592 4.4145 5903.00 6201.20 83.40
593 4.4183 6039.00 6201.96 84.60
594 4.4220 6023.90 6202.71 84.50
595 4.4258 6175.30 6203.45 86.20
596 4.4296 6006.60 6204.19 84.40
597 4.4333 6096.00 6204.92 84.80
598 4.4371 6002.80 6205.65 84.80
599 4.4408 6093.50 6206.37 85.00
600 4.4446 5842.50 6207.08 82.70
601 4.4484 6099.50 6207.79 85.60
602 4.4521 6017.30 6208.50 84.60
603 4.4559 6104.50 6209.19 85.10
604 4.4597 5955.70 6209.88 85.20
605 4.4634 5951.30 6210.57 84.30
606 4.4672 5988.30 6211.25 84.10
607 4.4709 6093.30 6211.92 85.00
608 4.4747 6019.40 6212.58 84.70
609 4.4784 5993.80 6213.25 84.70
610 4.4822 6169.10 6213.90 84.60
611 4.4860 6249.30 6214.55 86.70
612 4.4897 6008.80 6215.19 84.50
613 4.4935 6140.40 6215.83 85.70
614 4.4973 6037.30 6216.46 84.50
615 4.5010 6075.00 6217.09 84.60
616 4.5048 5894.60 6217.71 84.30
617 4.5085 6133.00 6218.32 84.10
618 4.5123 5924.60 6218.94 83.90
619 4.5161 6059.60 6219.54 85.00
620 4.5198 5999.80 6220.14 84.80
621 4.5236 6105.60 6220.73 84.80
622 4.5273 6079.50 6221.32 85.40
623 4.5311 6147.80 6221.90 85.10
624 4.5349 6032.30 6222.47 84.20
625 4.5386 6014.30 6223.04 84.20
626 4.5424 6104.10 6223.61 84.90
627 4.5461 6048.80 6224.17 83.50
628 4.5499 5971.20 6224.72 83.50
629 4.5537 6092.20 6225.27 85.20
630 4.5574 5853.80 6225.81 82.70
631 4.5612 6082.90 6226.35 84.60
632 4.5649 6207.70 6226.88 86.40
633 4.5687 6049.30 6227.41 86.00
634 4.5725 6100.80 6227.93 85.20
635 4.5762 6058.50 6228.45 84.90
636 4.5800 6081.50 6228.96 86.10
637 4.5837 6137.00 6229.47 85.10
638 4.5875 6030.00 6229.97 84.20
639 4.5913 6137.30 6230.46 85.90
640 4.5950 6117.10 6230.95 86.90
641 4.5988 6038.40 6231.44 85.20
642 4.6026 6045.30 6231.92 84.80
643 4.6063 6171.00 6232.39 85.00
644 4.6101 5944.00 6232.86 82.50
645 4.6138 6131.70 6233.33 85.50
646 4.6176 6089.20 6233.79 85.40
647 4.6213 6132.50 6234.24 85.60
648 4.6251 5980.70 6234.69 84.00
649 4.6289 6062.00 6235.13 84.20
650 4.6326 5967.50 6235.57 83.50
651 4.6364 6170.70 6236.01 85.80
652 4.6402 6139.80 6236.44 84.70
653 4.6439 6170.30 6236.86 84.90
654 4.6477 6101.70 6237.28 84.40
655 4.6514 6139.70 6237.70 85.10
656 4.6552 5895.70 6238.11 84.00
657 4.6590 6106.30 6238.51 84.80
658 4.6627 6037.20 6238.91 84.60
659 4.6665 6283.20 6239.31 85.90
660 4.6702 6014.00 6239.70 84.70
661 4.6740 6303.00 6240.08 86.90
662 4.6778 6022.10 6240.46 84.20
663 4.6815 5933.40 6240.84 83.70
664 4.6853 6148.60 6241.21 84.60
665 4.6890 6254.70 6241.58 86.00
666 4.6928 5925.70 6241.94 83.90
667 4.6966 6293.90 6242.30 87.10
668 4.7003 6033.50 6242.65 84.70
669 4.7041 6142.30 6243.00 85.80
670 4.7078 6017.40 6243.34 84.80
671 4.7116 6204.60 6243.68 85.30
672 4.7154 6012.80 6244.02 82.70
673 4.7191 6194.50 6244.34 85.90
674 4.7229 5923.30 6244.67 81.80
675 4.7267 6073.70 6244.99 85.40
676 4.7304 6104.40 6245.31 84.20
677 4.7379 6119.40 6245.93 85.60
678 4.7455 6113.20 6246.53 85.50
679 4.7492 6133.90 6246.82 86.30
680 4.7530 5970.60 6247.11 84.10
681 4.7567 6168.00 6247.40 86.10
682 4.7605 5942.40 6247.68 83.30
683 4.7643 6272.30 6247.95 86.90
684 4.7680 6099.50 6248.23 85.60
685 4.7718 6183.50 6248.49 86.00
686 4.7755 6067.90 6248.76 85.10
687 4.7793 6258.00 6249.02 86.70
688 4.7831 6077.80 6249.27 85.30
689 4.7868 6262.60 6249.52 86.80
690 4.7906 6032.70 6249.77 84.20
691 4.7943 6004.20 6250.01 84.40
692 4.7981 6132.80 6250.25 85.20
693 4.8019 6246.60 6250.49 86.90
694 4.8056 6145.90 6250.72 85.60
695 4.8094 6249.60 6250.94 87.90
696 4.8131 6119.40 6251.16 86.00
697 4.8169 6225.10 6251.38 87.30
698 4.8207 6009.70 6251.60 84.50
699 4.8244 6314.00 6251.81 86.80
700 4.8282 5942.10 6252.01 84.70
701 4.8319 6167.20 6252.21 85.90
702 4.8357 6080.40 6252.41 86.00
703 4.8395 6284.40 6252.61 88.00
704 4.8432 6099.90 6252.80 85.70
705 4.8470 6178.70 6252.98 85.20
706 4.8507 5911.50 6253.16 84.20
707 4.8545 6183.50 6253.34 86.20
708 4.8583 6043.10 6253.52 84.90
709 4.8620 6140.10 6253.69 85.90
710 4.8658 6006.90 6253.86 85.10
711 4.8696 6154.80 6254.02 85.70
712 4.8733 6001.90 6254.18 85.00
713 4.8771 6299.30 6254.33 86.40
714 4.8808 6217.90 6254.48 85.90
715 4.8846 6156.20 6254.63 85.00
716 4.8884 5997.60 6254.78 85.60
717 4.8921 6231.70 6254.92 85.80
718 4.8959 6114.10 6255.05 85.60
719 4.8996 6209.40 6255.19 86.70
720 4.9034 6128.50 6255.32 86.30
721 4.9071 6209.90 6255.44 86.10
722 4.9109 6137.60 6255.57 86.10
723 4.9147 6178.30 6255.69 85.20
724 4.9184 6123.00 6255.80 85.20
725 4.9222 6072.40 6255.91 83.80
726 4.9260 6041.20 6256.02 85.30
727 4.9297 6207.30 6256.12 86.00
728 4.9335 6180.00 6256.23 86.20
729 4.9372 6103.50 6256.32 86.20
730 4.9410 6071.20 6256.42 85.30
731 4.9448 6280.30 6256.51 87.00
732 4.9485 6078.10 6256.60 84.90
733 4.9523 6240.00 6256.68 86.90
734 4.9560 6082.70 6256.76 85.20
735 4.9598 6351.10 6256.84 87.40
736 4.9636 6086.20 6256.91 85.30
737 4.9673 6213.20 6256.98 87.00
738 4.9711 6195.50 6257.05 85.60
739 4.9748 6273.00 6257.11 86.30
740 4.9786 6261.70 6257.17 86.40
741 4.9824 6173.30 6257.23 85.80
742 4.9861 6108.60 6257.28 84.60
743 4.9899 6122.00 6257.33 85.50
744 4.9936 6235.40 6257.38 86.50
745 4.9974 6312.50 6257.43 87.30
746 5.0012 6274.40 6257.47 87.20
747 5.0049 6294.10 6257.51 87.20
748 5.0087 6443.80 6257.54 88.00
749 5.0125 6224.00 6257.57 87.70
750 5.0162 6091.00 6257.60 85.70
751 5.0200 6187.50 6257.63 86.70
752 5.0237 6024.30 6257.65 84.70
753 5.0275 6201.90 6257.67 86.70
754 5.0312 6102.90 6257.68 86.20
755 5.0350 6234.90 6257.70 87.10
756 5.0388 6178.50 6257.71 86.60
757 5.0425 6340.10 6257.71 87.40
758 5.0463 6079.60 6257.72 86.10
759 5.0500 6193.90 6257.72 87.30
760 5.0538 6053.90 6257.72 85.60
761 5.0576 6246.20 6257.71 86.40
762 5.0613 6099.20 6257.71 85.30
763 5.0651 6092.20 6257.70 85.00
764 5.0689 6114.60 6257.68 85.70
765 5.0726 6351.80 6257.67 87.80
766 5.0764 6185.90 6257.65 86.50
767 5.0801 6247.10 6257.62 88.00
768 5.0839 6160.90 6257.60 86.30
769 5.0877 6224.70 6257.57 87.00
770 5.0914 6043.60 6257.54 85.10
771 5.0952 6218.20 6257.51 85.50
772 5.0989 6235.80 6257.47 88.00
773 5.1027 6297.70 6257.43 87.90
774 5.1065 6095.80 6257.39 87.30
775 5.1102 6478.60 6257.35 88.40
776 5.1140 6261.20 6257.30 86.90
777 5.1177 6384.00 6257.25 88.50
778 5.1215 6152.80 6257.20 85.50
779 5.1253 6264.60 6257.15 87.30
780 5.1290 6180.70 6257.09 87.00
781 5.1328 6318.30 6257.03 88.70
782 5.1365 6197.90 6256.97 87.10
783 5.1403 6320.60 6256.90 87.00
784 5.1441 6138.70 6256.83 85.50
785 5.1478 6334.40 6256.76 87.60
786 5.1516 6180.20 6256.69 87.50
787 5.1553 6481.40 6256.62 89.50
788 5.1591 6083.50 6256.54 86.00
789 5.1629 6285.90 6256.46 87.20
790 5.1666 6193.70 6256.38 87.90
791 5.1704 6350.40 6256.29 88.80
792 5.1741 6148.20 6256.20 85.40
793 5.1779 6401.20 6256.11 89.40
794 5.1817 6106.10 6256.02 87.00
795 5.1854 6274.00 6255.93 88.00
796 5.1892 6149.00 6255.83 86.90
797 5.1929 6309.80 6255.73 89.00
798 5.1967 5926.40 6255.63 84.70
799 5.2005 6279.90 6255.52 88.80
800 5.2042 6051.20 6255.42 85.50
801 5.2080 6290.00 6255.31 87.20
802 5.2117 6198.60 6255.20 86.30
803 5.2155 6357.30 6255.09 88.40
804 5.2193 6029.10 6254.97 85.40
805 5.2230 6306.30 6254.85 87.70
806 5.2268 6146.50 6254.73 86.10
807 5.2305 6235.80 6254.61 87.50
808 5.2343 6175.20 6254.49 87.30
809 5.2381 6308.50 6254.36 85.80
810 5.2418 6119.80 6254.23 84.60
811 5.2456 6358.00 6254.10 88.30
812 5.2494 5926.40 6253.97 84.80
813 5.2531 6400.50 6253.83 87.10
814 5.2569 6134.90 6253.70 86.20
815 5.2606 6151.70 6253.56 86.90
816 5.2644 6128.80 6253.42 86.10
817 5.2681 6289.40 6253.27 87.00
818 5.2719 6076.50 6253.13 85.80
819 5.2757 6207.60 6252.98 86.60
820 5.2794 6099.20 6252.83 85.70
821 5.2832 6218.10 6252.68 86.80
822 5.2870 6202.10 6252.53 87.70
823 5.2907 6271.00 6252.37 85.30
824 5.2945 5965.50 6252.21 84.90
825 5.2982 6165.10 6252.05 86.50
826 5.3020 6240.30 6251.89 87.00
827 5.3057 6167.10 6251.73 85.20
828 5.3095 6158.70 6251.57 85.60
829 5.3133 6290.60 6251.40 87.40
830 5.3170 6151.40 6251.23 85.60
831 5.3208 6273.20 6251.06 86.80
832 5.3246 6088.40 6250.89 85.90
833 5.3283 6170.90 6250.71 85.00
834 5.3321 6220.30 6250.54 86.30
835 5.3358 6343.10 6250.36 87.80
836 5.3396 6169.80 6250.18 86.90
837 5.3433 6279.20 6250.00 87.70
838 5.3471 6150.20 6249.82 86.80
839 5.3509 6226.40 6249.63 86.40
840 5.3546 6147.70 6249.45 86.10
841 5.3584 6339.40 6249.26 88.20
842 5.3622 6077.10 6249.07 85.60
843 5.3659 6237.80 6248.88 86.60
844 5.3697 6206.10 6248.68 87.30
845 5.3734 6388.20 6248.49 89.00
846 5.3772 6407.30 6248.29 89.10
847 5.3809 6273.90 6248.10 88.00
848 5.3847 6062.40 6247.90 86.20
849 5.3885 6280.80 6247.69 86.40
850 5.3922 6158.30 6247.49 85.80
851 5.3960 6313.40 6247.29 89.50
852 5.3997 6190.10 6247.08 87.60
853 5.4035 6394.60 6246.88 88.10
854 5.4073 6166.40 6246.67 85.80
855 5.4110 6366.20 6246.46 86.90
856 5.4148 6091.60 6246.24 85.90
857 5.4186 6382.30 6246.03 89.00
858 5.4223 6126.70 6245.82 86.00
859 5.4261 6290.90 6245.60 87.80
860 5.4298 6200.10 6245.38 85.40
861 5.4336 6189.80 6245.16 84.50
862 5.4373 6062.30 6244.94 85.80
863 5.4411 6392.70 6244.72 87.60
864 5.4449 6060.20 6244.50 86.80
865 5.4486 6334.60 6244.27 86.90
866 5.4524 6101.60 6244.05 85.50
867 5.4561 6328.20 6243.82 88.10
868 5.4599 6242.90 6243.59 87.50
869 5.4637 6392.10 6243.36 88.40
870 5.4674 6127.50 6243.13 86.10
871 5.4712 6421.20 6242.90 89.00
872 5.4749 6013.60 6242.66 85.40
873 5.4787 6227.00 6242.43 86.20
874 5.4825 6061.90 6242.19 86.20
875 5.4862 6290.30 6241.96 87.30
876 5.4900 6130.00 6241.72 85.30
877 5.4937 6288.20 6241.48 88.90
878 5.4975 6130.10 6241.23 86.10
879 5.5013 6190.70 6240.99 85.70
880 5.5050 6219.00 6240.75 87.60
881 5.5088 6333.70 6240.50 86.80
882 5.5125 6137.40 6240.26 86.30
883 5.5163 6296.00 6240.01 88.20
884 5.5201 6212.90 6239.76 86.00
885 5.5238 6369.40 6239.51 88.80
886 5.5276 6055.70 6239.26 86.70
887 5.5313 6345.50 6239.01 88.00
888 5.5351 6105.80 6238.76 86.10
889 5.5389 6247.00 6238.51 87.70
890 5.5426 6140.90 6238.25 85.20
891 5.5464 6192.10 6238.00 85.90
892 5.5501 6224.90 6237.74 86.70
893 5.5539 6516.00 6237.48 89.60
894 5.5577 6179.20 6237.22 87.20
895 5.5614 6268.00 6236.96 86.50
896 5.5652 6105.80 6236.70 85.60
897 5.5689 6355.00 6236.44 85.90
898 5.5727 6175.20 6236.18 85.70
899 5.5764 6237.70 6235.92 86.00
900 5.5802 6099.00 6235.65 85.80
901 5.5840 6176.30 6235.39 85.30
902 5.5877 6264.10 6235.12 85.90
903 5.5915 6323.60 6234.85 86.20
904 5.5953 6067.80 6234.58 84.60
905 5.5990 6377.90 6234.32 86.80
906 5.6028 6182.70 6234.05 85.50
907 5.6065 6293.20 6233.78 85.40
908 5.6103 6205.10 6233.50 85.80
909 5.6140 6390.30 6233.23 87.10
910 5.6178 6185.60 6232.96 85.90
911 5.6216 6375.00 6232.69 87.00
912 5.6253 6225.40 6232.41 85.80
913 5.6291 6437.40 6232.14 87.10
914 5.6328 6187.80 6231.86 85.80
915 5.6366 6265.50 6231.58 86.20
916 5.6404 6259.70 6231.31 86.60
917 5.6441 6271.90 6231.03 86.40
918 5.6479 6118.00 6230.75 84.60
919 5.6516 6334.20 6230.47 86.70
920 5.6554 6297.60 6230.19 85.80
921 5.6592 6298.00 6229.91 86.70
922 5.6629 6169.30 6229.63 85.40
923 5.6667 6334.20 6229.34 86.90
924 5.6704 6168.70 6229.06 85.50
925 5.6742 6273.60 6228.78 87.20
926 5.6780 6357.20 6228.49 87.80
927 5.6817 6375.80 6228.21 86.70
928 5.6855 6255.00 6227.92 86.50
929 5.6892 6262.00 6227.64 86.30
930 5.6930 6347.90 6227.35 88.30
931 5.6968 6329.00 6227.06 87.40
932 5.7005 6221.50 6226.78 86.10
933 5.7043 6255.10 6226.49 85.20
934 5.7080 6265.90 6226.20 85.80
935 5.7118 6502.40 6225.91 87.50
936 5.7155 6112.30 6225.62 86.40
937 5.7193 6236.40 6225.33 86.60
938 5.7231 6107.50 6225.04 85.70
939 5.7268 6318.50 6224.75 87.10
940 5.7306 6265.10 6224.46 86.70
941 5.7343 6391.70 6224.17 85.60
942 5.7381 6215.00 6223.87 86.90
943 5.7419 6321.80 6223.58 86.60
944 5.7456 6189.40 6223.29 85.90
945 5.7494 6302.00 6222.99 85.50
946 5.7531 6242.00 6222.70 85.30
947 5.7569 6381.10 6222.40 87.40
948 5.7607 6128.20 6222.11 85.50
949 5.7644 6379.60 6221.81 88.00
950 5.7682 6193.10 6221.52 87.00
951 5.7719 6262.70 6221.22 86.90
952 5.7757 6202.00 6220.93 87.00
953 5.7794 6429.00 6220.63 87.80
954 5.7832 6158.50 6220.33 84.90
955 5.7870 6430.60 6220.03 87.80
956 5.7907 6099.50 6219.74 86.00
957 5.7945 6468.30 6219.44 88.50
958 5.7983 6256.80 6219.14 86.40
959 5.8020 6498.80 6218.84 87.80
960 5.8058 6074.40 6218.54 85.10
961 5.8095 6328.30 6218.25 86.90
962 5.8133 6126.80 6217.95 86.30
963 5.8170 6391.60 6217.65 87.50
964 5.8208 6150.60 6217.35 86.50
965 5.8246 6396.10 6217.05 87.40
966 5.8283 6159.00 6216.75 86.40
967 5.8321 6439.00 6216.45 86.60
968 5.8358 6178.20 6216.15 85.30
969 5.8396 6191.00 6215.85 86.30
970 5.8433 6222.90 6215.55 87.20
971 5.8471 6381.40 6215.25 88.60
972 5.8509 6246.30 6214.94 87.60
973 5.8546 6356.20 6214.64 88.20
974 5.8584 6272.10 6214.34 86.70
975 5.8622 6471.40 6214.04 87.90
976 5.8659 6088.10 6213.74 84.60
977 5.8697 6219.30 6213.44 87.00
978 5.8734 6244.40 6213.14 85.10
979 5.8772 6317.70 6212.84 86.70
980 5.8809 6164.80 6212.53 86.60
981 5.8847 6220.20 6212.23 86.50
982 5.8885 6130.90 6211.93 85.70
983 5.8922 6318.70 6211.63 87.30
984 5.8960 6281.50 6211.33 86.90
985 5.8997 6288.60 6211.03 87.20
986 5.9035 6137.50 6210.72 87.00
987 5.9072 6276.80 6210.42 85.90
988 5.9110 6168.10 6210.12 86.70
989 5.9148 6356.30 6209.82 87.40
990 5.9185 6118.60 6209.52 86.20
991 5.9223 6177.40 6209.22 86.20
992 5.9260 6162.10 6208.92 85.30
993 5.9298 6330.40 6208.61 87.40
994 5.9336 6256.20 6208.31 86.70
995 5.9373 6331.10 6208.01 87.20
996 5.9411 6155.70 6207.71 86.50
997 5.9448 6342.60 6207.41 87.50
998 5.9486 6347.20 6207.11 87.70
999 5.9524 6262.80 6206.81 87.30
1000 5.9561 6149.00 6206.51 85.70
1001 5.9599 6284.00 6206.21 86.50
1002 5.9636 6024.10 6205.91 85.00
1003 5.9674 6315.00 6205.60 86.30
1004 5.9711 6321.50 6205.30 88.10
1005 5.9749 6286.30 6205.01 87.20
1006 5.9787 6061.30 6204.71 85.00
1007 5.9824 6278.60 6204.41 86.90
1008 5.9862 6268.10 6204.11 87.60
1009 5.9899 6364.80 6203.81 88.00
1010 5.9937 6169.30 6203.51 87.10
1011 5.9975 6276.00 6203.21 86.00
1012 6.0012 6246.30 6202.91 86.70
1013 6.0050 6185.80 6202.61 86.60
1014 6.0087 6142.70 6202.32 87.10
1015 6.0125 6370.40 6202.02 87.70
1016 6.0163 6253.30 6201.72 88.10
1017 6.0200 6209.30 6201.42 87.80
1018 6.0238 6197.50 6201.13 87.40
1019 6.0275 6232.80 6200.83 87.10
1020 6.0313 6133.50 6200.53 85.20
1021 6.0350 6418.10 6200.24 88.20
1022 6.0388 6197.30 6199.94 87.30
1023 6.0426 6369.50 6199.65 87.60
1024 6.0463 6178.60 6199.35 84.70
1025 6.0501 6331.10 6199.06 84.80
1026 6.0538 6198.20 6198.76 85.70
1027 6.0576 6275.80 6198.47 86.80
1028 6.0613 6150.50 6198.18 85.10
1029 6.0651 6406.50 6197.88 87.80
1030 6.0689 6304.70 6197.59 86.20
1031 6.0726 6294.90 6197.30 86.60
1032 6.0764 6146.60 6197.01 85.60
1033 6.0801 6325.90 6196.71 86.50
1034 6.0839 6180.10 6196.42 85.30
1035 6.0876 6298.10 6196.13 87.60
1036 6.0914 6366.70 6195.84 86.70
1037 6.0952 6470.40 6195.55 87.70
1038 6.0989 6277.70 6195.26 87.30
1039 6.1027 6348.50 6194.97 87.10
1040 6.1064 6110.90 6194.69 84.40
1041 6.1102 6299.50 6194.40 86.90
1042 6.1140 6251.70 6194.11 86.90
1043 6.1177 6293.00 6193.82 86.10
1044 6.1215 6231.80 6193.54 86.80
1045 6.1252 6464.00 6193.25 87.50
1046 6.1290 6107.50 6192.96 85.90
1047 6.1328 6567.80 6192.68 88.80
1048 6.1365 6265.80 6192.40 86.40
1049 6.1403 6458.10 6192.11 86.80
1050 6.1440 6266.50 6191.83 86.20
1051 6.1478 6418.80 6191.54 87.50
1052 6.1515 6193.40 6191.26 86.30
1053 6.1553 6319.30 6190.98 86.40
1054 6.1590 6136.90 6190.70 85.20
1055 6.1628 6422.90 6190.42 87.50
1056 6.1666 6147.40 6190.14 86.20
1057 6.1703 6377.40 6189.86 85.90
1058 6.1741 6087.90 6189.58 86.20
1059 6.1778 6249.90 6189.30 86.30
1060 6.1816 6278.80 6189.02 86.20
1061 6.1854 6469.60 6188.75 87.40
1062 6.1891 6360.60 6188.47 88.40
1063 6.1929 6491.50 6188.19 89.00
1064 6.1966 6146.40 6187.92 85.40
1065 6.2004 6473.90 6187.65 88.50
1066 6.2041 6242.30 6187.37 85.70
1067 6.2079 6322.20 6187.10 86.30
1068 6.2117 6270.50 6186.83 85.60
1069 6.2154 6322.80 6186.55 88.70
1070 6.2192 6415.00 6186.28 88.70
1071 6.2229 6363.40 6186.01 86.70
1072 6.2267 6157.10 6185.74 86.10
1073 6.2305 6479.50 6185.47 87.80
1074 6.2342 6238.90 6185.20 86.50
1075 6.2380 6389.80 6184.94 87.90
1076 6.2417 6266.20 6184.67 87.10
1077 6.2455 6297.10 6184.40 86.30
1078 6.2492 6227.20 6184.14 86.10
1079 6.2530 6333.40 6183.87 86.30
1080 6.2568 6443.30 6183.61 88.70
1081 6.2605 6353.70 6183.34 87.30
1082 6.2643 6263.80 6183.08 86.70
1083 6.2680 6311.90 6182.82 87.00
1084 6.2718 6183.30 6182.56 86.30
1085 6.2755 6333.20 6182.30 87.30
1086 6.2793 6247.20 6182.04 86.30
1087 6.2831 6389.00 6181.78 86.90
1088 6.2868 6223.20 6181.52 86.40
1089 6.2906 6340.90 6181.27 87.10
1090 6.2943 6254.40 6181.01 86.40
1091 6.2981 6367.00 6180.75 88.10
1092 6.3018 6264.30 6180.50 86.40
1093 6.3056 6326.20 6180.24 87.10
1094 6.3094 6282.50 6179.99 86.70
1095 6.3131 6413.80 6179.74 87.30
1096 6.3169 6251.60 6179.49 86.50
1097 6.3206 6351.00 6179.24 87.00
1098 6.3244 6352.50 6178.99 87.80
1099 6.3281 6334.70 6178.74 86.20
1100 6.3319 6282.70 6178.49 87.20
1101 6.3356 6215.10 6178.24 86.20
1102 6.3394 6213.60 6178.00 86.00
1103 6.3432 6481.00 6177.75 87.40
1104 6.3469 6328.00 6177.51 86.90
1105 6.3507 6277.80 6177.26 86.30
1106 6.3544 6093.10 6177.02 85.30
1107 6.3582 6335.10 6176.78 87.30
1108 6.3619 6224.50 6176.54 86.90
1109 6.3657 6434.30 6176.30 88.60
1110 6.3695 6396.30 6176.06 87.90
1111 6.3732 6400.90 6175.82 87.80
1112 6.3770 6115.60 6175.58 85.20
1113 6.3807 6258.50 6175.35 87.10
1114 6.3845 6314.10 6175.11 87.00
1115 6.3882 6437.70 6174.88 88.10
1116 6.3920 6417.10 6174.64 87.80
1117 6.3958 6634.80 6174.41 89.40
1118 6.3995 6238.10 6174.18 86.10
1119 6.4033 6436.20 6173.95 88.80
1120 6.4070 6130.20 6173.72 85.90
1121 6.4108 6529.70 6173.49 89.20
1122 6.4145 6247.90 6173.26 86.70
1123 6.4183 6427.30 6173.04 86.20
1124 6.4221 6313.20 6172.81 87.30
1125 6.4258 6411.30 6172.59 88.50
1126 6.4296 6116.60 6172.36 86.10
1127 6.4333 6176.50 6172.14 85.90
1128 6.4371 6161.70 6171.92 86.30
1129 6.4408 6417.80 6171.70 88.20
1130 6.4446 6254.20 6171.48 86.40
1131 6.4484 6352.40 6171.26 87.00
1132 6.4521 6154.90 6171.04 86.30
1133 6.4559 6481.60 6170.83 88.70
1134 6.4596 6177.40 6170.61 86.20
1135 6.4634 6349.70 6170.40 87.70
1136 6.4671 6245.60 6170.18 86.50
1137 6.4709 6269.00 6169.97 87.00
1138 6.4747 6200.20 6169.76 86.80
1139 6.4784 6375.40 6169.55 87.70
1140 6.4822 6277.00 6169.34 86.80
1141 6.4859 6378.20 6169.13 88.10
1142 6.4897 6313.30 6168.93 87.20
1143 6.4934 6236.00 6168.72 86.30
1144 6.4972 6263.10 6168.52 87.10
1145 6.5009 6349.70 6168.31 86.80
1146 6.5047 6398.40 6168.11 87.70
1147 6.5085 6295.30 6167.91 86.60
1148 6.5122 6197.50 6167.71 86.90
1149 6.5160 6365.90 6167.51 87.10
1150 6.5197 6322.80 6167.31 87.80
1151 6.5235 6436.10 6167.11 86.90
1152 6.5272 6260.50 6166.92 86.70
1153 6.5310 6461.20 6166.72 87.90
1154 6.5348 6195.50 6166.53 86.20
1155 6.5385 6321.10 6166.34 86.30
1156 6.5423 6188.40 6166.15 85.70
1157 6.5460 6425.00 6165.96 87.70
1158 6.5498 6237.90 6165.77 86.50
1159 6.5535 6324.20 6165.58 87.00
1160 6.5573 6226.30 6165.39 86.00
1161 6.5611 6357.50 6165.21 87.80
1162 6.5648 6056.60 6165.02 84.40
1163 6.5686 6352.40 6164.84 86.90
1164 6.5723 6238.50 6164.66 86.30
1165 6.5761 6304.80 6164.48 86.70
1166 6.5798 6341.00 6164.30 87.10
1167 6.5836 6448.90 6164.12 88.60
1168 6.5873 6289.30 6163.94 86.70
1169 6.5911 6197.90 6163.77 86.00
1170 6.5949 6168.70 6163.59 85.60
1171 6.5986 6341.70 6163.42 87.40
1172 6.6024 6402.70 6163.25 87.80
1173 6.6061 6317.60 6163.07 86.20
1174 6.6099 6311.80 6162.91 87.10
1175 6.6136 6421.00 6162.74 88.00
1176 6.6174 6211.20 6162.57 86.30
1177 6.6212 6312.90 6162.40 86.30
1178 6.6249 6261.30 6162.24 87.20
1179 6.6287 6503.40 6162.07 87.90
1180 6.6324 6222.20 6161.91 86.20
1181 6.6362 6448.70 6161.75 87.60
1182 6.6399 6204.40 6161.59 86.60
1183 6.6437 6355.40 6161.43 87.60
1184 6.6474 6140.50 6161.27 86.10
1185 6.6512 6414.80 6161.12 87.00
1186 6.6550 6118.30 6160.96 85.70
1187 6.6587 6282.30 6160.81 86.80
1188 6.6625 6219.80 6160.66 85.90
1189 6.6662 6387.80 6160.50 88.80
1190 6.6737 6425.40 6160.21 87.30
1191 6.6775 6168.60 6160.06 85.30
1192 6.6812 6327.90 6159.91 86.60
1193 6.6850 6398.40 6159.77 88.20
1194 6.6887 6288.80 6159.62 86.70
1195 6.6925 6237.30 6159.48 86.80
1196 6.6963 6309.50 6159.34 87.10
1197 6.7000 6232.20 6159.20 86.20
1198 6.7038 6367.10 6159.06 87.50
1199 6.7075 6157.80 6158.92 85.30
1200 6.7113 6384.90 6158.79 87.20
1201 6.7150 6333.50 6158.65 87.30
1202 6.7188 6329.20 6158.52 87.00
1203 6.7225 6139.60 6158.39 85.90
1204 6.7263 6329.50 6158.26 87.30
1205 6.7301 6161.80 6158.13 85.90
1206 6.7338 6294.10 6158.00 85.90
1207 6.7376 6148.10 6157.87 86.10
1208 6.7413 6418.40 6157.75 87.80
1209 6.7451 6172.10 6157.63 86.00
1210 6.7488 6395.50 6157.50 87.80
1211 6.7526 6307.40 6157.38 88.00
1212 6.7564 6279.30 6157.26 87.40
1213 6.7601 6149.00 6157.14 85.30
1214 6.7639 6229.00 6157.03 86.70
1215 6.7676 6121.90 6156.91 85.30
1216 6.7714 6322.80 6156.79 87.30
1217 6.7751 6136.20 6156.68 86.40
1218 6.7789 6326.90 6156.57 88.00
1219 6.7826 6246.10 6156.46 86.90
1220 6.7864 6246.10 6156.35 84.40
1221 6.7902 6227.00 6156.24 86.70
1222 6.7939 6302.10 6156.14 87.00
1223 6.7977 6165.70 6156.03 84.90
1224 6.8014 6318.10 6155.93 86.90
1225 6.8052 6151.30 6155.83 85.00
1226 6.8089 6217.60 6155.72 86.40
1227 6.8127 6176.10 6155.63 87.10
1228 6.8164 6467.60 6155.53 88.40
1229 6.8202 6127.60 6155.43 86.10
1230 6.8239 6327.40 6155.33 87.20
1231 6.8277 6241.40 6155.24 87.00
1232 6.8314 6298.60 6155.15 86.70
1233 6.8352 6249.80 6155.06 86.50
1234 6.8390 6392.70 6154.97 88.20
1235 6.8427 6234.40 6154.88 85.40
1236 6.8465 6345.20 6154.79 88.30
1237 6.8502 6261.40 6154.71 87.60
1238 6.8540 6197.30 6154.62 84.50
1239 6.8577 6196.00 6154.54 86.10
1240 6.8615 6226.20 6154.46 86.30
1241 6.8653 6288.30 6154.38 87.20
1242 6.8690 6258.90 6154.30 85.50
1243 6.8728 6104.50 6154.22 86.50
1244 6.8765 6312.10 6154.15 88.10
1245 6.8803 6223.70 6154.07 87.40
1246 6.8840 6467.80 6154.00 89.10
1247 6.8878 6243.60 6153.93 86.40
1248 6.8915 6305.50 6153.86 86.90
1249 6.8953 6111.80 6153.79 86.20
1250 6.8990 6190.90 6153.72 85.90
1251 6.9028 6003.30 6153.66 84.40
1252 6.9065 6419.10 6153.59 87.90
1253 6.9103 6036.80 6153.53 85.70
1254 6.9141 6336.80 6153.47 86.00
1255 6.9178 5958.30 6153.41 85.10
1256 6.9216 6309.50 6153.35 87.90
1257 6.9253 6154.60 6153.29 87.20
1258 6.9291 6257.40 6153.24 87.20
1259 6.9328 6257.50 6153.18 86.80
1260 6.9366 6266.60 6153.13 86.30
1261 6.9403 6124.10 6153.08 87.10
1262 6.9441 6385.70 6153.03 88.70
1263 6.9516 6429.00 6152.93 89.20
1264 6.9591 6306.90 6152.84 87.50
1265 6.9629 6225.60 6152.80 87.00
1266 6.9666 6333.00 6152.76 87.50
1267 6.9704 6010.30 6152.72 84.60
1268 6.9741 6360.00 6152.68 86.50
1269 6.9779 6122.80 6152.64 86.00
1270 6.9800 6118.30 6152.62 85.70
1271 6.9837 6336.80 6152.59 87.00
1272 6.9875 6056.20 6152.56 85.60
1273 6.9913 6241.60 6152.53 86.00
1274 6.9950 6248.60 6152.50 86.50
1275 6.9988 6328.40 6152.47 86.80
1276 7.0025 6267.50 6152.44 87.50
1277 7.0063 6317.60 6152.41 86.80
1278 7.0100 6143.90 6152.39 86.40
1279 7.0138 6295.80 6152.37 85.80
1280 7.0175 6169.20 6152.35 86.10
1281 7.0213 6303.00 6152.33 86.70
1282 7.0251 6325.20 6152.31 87.10
1283 7.0288 6364.90 6152.29 86.70
1284 7.0326 6008.80 6152.27 84.40
1285 7.0363 6272.50 6152.26 86.60
1286 7.0401 6163.80 6152.25 86.00
1287 7.0438 6253.50 6152.24 86.50
1288 7.0476 6049.70 6152.23 84.70
1289 7.0514 6375.90 6152.22 87.90
1290 7.0551 6101.50 6152.21 84.80
1291 7.0589 6329.30 6152.21 86.80
1292 7.0626 6176.00 6152.20 85.80
1293 7.0664 6306.80 6152.20 86.70
1294 7.0701 6147.00 6152.20 85.70
1295 7.0739 6346.30 6152.20 87.80
1296 7.0777 6162.20 6152.21 85.70
1297 7.0814 6256.40 6152.21 86.40
1298 7.0852 6139.60 6152.21 85.40
1299 7.0889 6316.30 6152.22 87.20
1300 7.0927 6190.30 6152.23 86.20
1301 7.0964 6340.50 6152.24 86.40
1302 7.1002 6150.40 6152.25 85.90
1303 7.1039 6265.30 6152.26 86.90
1304 7.1077 6128.10 6152.28 85.70
1305 7.1115 6365.70 6152.29 86.70
1306 7.1152 6090.10 6152.31 85.90
1307 7.1190 6180.00 6152.33 85.50
1308 7.1227 6303.90 6152.35 86.80
1309 7.1265 6352.40 6152.37 86.90
1310 7.1302 6276.90 6152.40 87.10
1311 7.1340 6365.60 6152.42 87.70
1312 7.1377 6208.90 6152.45 86.60
1313 7.1415 6248.70 6152.48 85.80
1314 7.1453 6139.60 6152.50 85.90
1315 7.1490 6443.30 6152.54 88.00
1316 7.1528 6146.70 6152.57 85.30
1317 7.1565 6246.10 6152.60 87.70
1318 7.1640 6300.40 6152.67 86.40
1319 7.1678 6252.40 6152.71 85.90
1320 7.1715 6298.90 6152.75 86.40
1321 7.1753 5991.30 6152.79 85.10
1322 7.1791 6276.70 6152.84 86.60
1323 7.1828 6220.00 6152.88 86.70
1324 7.1866 6216.20 6152.93 86.40
1325 7.1903 6192.90 6152.97 85.90
1326 7.1941 6320.50 6153.02 87.10
1327 7.1978 6317.80 6153.07 86.50
1328 7.2016 6403.90 6153.12 87.30
1329 7.2053 6309.20 6153.18 87.10
1330 7.2091 6309.00 6153.23 86.80
1331 7.2129 6206.70 6153.29 86.40
1332 7.2164 6396.60 6153.34 87.80
1333 7.2201 6411.50 6153.40 89.20
1334 7.2239 6226.20 6153.46 86.90
1335 7.2276 6408.70 6153.53 89.30
1336 7.2314 6096.30 6153.59 85.10
1337 7.2351 6300.80 6153.65 87.90
1338 7.2389 6263.30 6153.72 87.50
1339 7.2427 6351.90 6153.79 88.10
1340 7.2464 6103.70 6153.86 86.60
1341 7.2502 6228.80 6153.93 86.60
1342 7.2539 6243.00 6154.00 86.50
1343 7.2577 6565.90 6154.08 89.80
1344 7.2614 6121.90 6154.15 86.90
1345 7.2652 6386.70 6154.23 88.00
1346 7.2689 6224.50 6154.31 88.00
1347 7.2727 6174.50 6154.39 87.20
1348 7.2764 6070.60 6154.47 86.00
1349 7.2802 6346.30 6154.56 88.60
1350 7.2839 6253.80 6154.64 88.00
1351 7.2877 6383.10 6154.73 87.40
1352 7.2915 6231.60 6154.81 86.50
1353 7.2952 6255.20 6154.90 87.80
1354 7.2990 6272.00 6154.99 87.60
1355 7.3027 6441.30 6155.09 87.50
1356 7.3065 6256.60 6155.18 88.40
1357 7.3102 6270.70 6155.28 87.60
1358 7.3140 6143.90 6155.37 86.40
1359 7.3177 6382.80 6155.47 88.20
1360 7.3215 6286.80 6155.57 88.10
1361 7.3253 6387.60 6155.67 87.60
1362 7.3290 6255.10 6155.78 86.40
1363 7.3328 6207.00 6155.88 87.00
1364 7.3365 6161.70 6155.99 86.80
1365 7.3403 6261.20 6156.09 87.30
1366 7.3440 6160.80 6156.20 86.50
1367 7.3478 6343.50 6156.31 87.50
1368 7.3515 6323.90 6156.42 88.40
1369 7.3553 6143.70 6156.54 86.60
1370 7.3590 6240.70 6156.65 88.70
1371 7.3628 6389.30 6156.77 88.60
1372 7.3665 6183.40 6156.89 87.80
1373 7.3703 6402.30 6157.00 88.90
1374 7.3741 6172.70 6157.13 85.00
1375 7.3778 6288.40 6157.25 87.40
1376 7.3816 6321.00 6157.37 87.00
1377 7.3853 6373.00 6157.50 89.00
1378 7.3891 6173.40 6157.62 86.80
1379 7.3928 6314.20 6157.75 88.10
1380 7.3966 6048.40 6157.88 84.50
1381 7.4004 6289.70 6158.01 87.20
1382 7.4041 6238.50 6158.15 86.80
1383 7.4079 6338.90 6158.28 87.80
1384 7.4116 6186.90 6158.41 87.00
1385 7.4154 6274.60 6158.55 87.90
1386 7.4191 6361.90 6158.69 88.90
1387 7.4229 6257.40 6158.83 87.20
1388 7.4266 6381.40 6158.97 88.10
1389 7.4304 6452.70 6159.11 87.50
1390 7.4341 6204.30 6159.26 88.30
1391 7.4379 6213.20 6159.41 85.50
1392 7.4416 6292.80 6159.55 87.00
1393 7.4454 6293.80 6159.70 87.90
1394 7.4492 6187.50 6159.85 86.40
1395 7.4529 6240.10 6160.00 87.10
1396 7.4567 6209.20 6160.16 87.20
1397 7.4604 6306.30 6160.31 87.20
1398 7.4642 6171.20 6160.47 87.60
1399 7.4679 6279.20 6160.63 84.60
1400 7.4717 6132.80 6160.78 86.60
1401 7.4755 6287.80 6160.95 86.50
1402 7.4792 6307.50 6161.11 88.20
1403 7.4830 6324.90 6161.27 87.00
1404 7.4867 6157.10 6161.44 85.10
1405 7.4905 6338.70 6161.60 88.10
1406 7.4942 6110.30 6161.77 84.90
1407 7.4980 6287.10 6161.94 87.90
1408 7.5017 6153.70 6162.11 86.00
1409 7.5055 6386.00 6162.28 88.00
1410 7.5093 6087.30 6162.46 84.90
1411 7.5130 6382.10 6162.63 88.30
1412 7.5168 6125.90 6162.81 86.50
1413 7.5205 6471.80 6162.99 87.80
1414 7.5243 6253.70 6163.17 86.50
1415 7.5280 6254.90 6163.35 87.10
1416 7.5318 6284.90 6163.53 87.70
1417 7.5355 6322.60 6163.71 87.70
1418 7.5393 6264.40 6163.90 87.70
1419 7.5430 6374.80 6164.08 88.00
1420 7.5468 6241.70 6164.27 87.60
1421 7.5506 6443.10 6164.46 89.30
1422 7.5543 6049.30 6164.65 85.70
1423 7.5581 6334.60 6164.85 88.40
1424 7.5618 6102.00 6165.04 85.70
1425 7.5656 6194.70 6165.24 87.00
1426 7.5693 6102.30 6165.43 85.90
1427 7.5731 6306.90 6165.63 87.60
1428 7.5769 6260.80 6165.83 86.90
1429 7.5806 6471.80 6166.03 89.00
1430 7.5844 6170.30 6166.23 87.50
1431 7.5881 6413.80 6166.44 89.40
1432 7.5919 6255.10 6166.64 87.30
1433 7.5956 6348.60 6166.85 88.90
1434 7.5994 6187.60 6167.06 86.40
1435 7.6031 6296.70 6167.27 86.90
1436 7.6069 6318.80 6167.48 88.30
1437 7.6107 6352.10 6167.69 88.60
1438 7.6144 6235.30 6167.90 87.80
1439 7.6182 6365.60 6168.12 88.20
1440 7.6219 6370.20 6168.34 88.80
1441 7.6257 6245.80 6168.55 86.70
1442 7.6294 6149.80 6168.77 86.80
1443 7.6332 6473.70 6168.99 89.70
1444 7.6370 6281.90 6169.22 87.60
1445 7.6407 6227.40 6169.44 87.20
1446 7.6445 6337.10 6169.67 87.30
1447 7.6482 6380.50 6169.89 88.60
1448 7.6520 6269.20 6170.12 86.60
1449 7.6557 6313.50 6170.35 87.80
1450 7.6595 6148.40 6170.58 86.70
1451 7.6632 6376.40 6170.81 90.10
1452 7.6670 6262.50 6171.04 87.10
1453 7.6708 6339.90 6171.28 87.30
1454 7.6745 6318.80 6171.52 88.80
1455 7.6783 6410.20 6171.75 88.90
1456 7.6820 6234.80 6171.99 86.70
1457 7.6858 6352.00 6172.23 88.20
1458 7.6895 6224.80 6172.47 86.30
1459 7.6933 6366.30 6172.72 87.20
1460 7.6971 6320.70 6172.96 87.00
1461 7.7008 6450.70 6173.21 88.50
1462 7.7046 6331.70 6173.45 87.30
1463 7.7083 6213.20 6173.70 85.80
1464 7.7121 6314.50 6173.95 88.90
1465 7.7158 6247.50 6174.20 85.80
1466 7.7196 6322.30 6174.46 86.70
1467 7.7234 6289.20 6174.71 87.40
1468 7.7271 6208.50 6174.96 85.40
1469 7.7309 6339.10 6175.22 87.30
1470 7.7346 6202.10 6175.48 86.50
1471 7.7384 6403.90 6175.74 87.20
1472 7.7421 6256.00 6176.00 87.30
1473 7.7459 6448.90 6176.26 87.90
1474 7.7497 6061.90 6176.52 84.70
1475 7.7534 6422.90 6176.79 88.60
1476 7.7572 6188.60 6177.05 86.00
1477 7.7609 6469.50 6177.32 88.60
1478 7.7647 6202.60 6177.59 86.10
1479 7.7684 6394.50 6177.86 87.80
1480 7.7722 6125.00 6178.13 86.10
1481 7.7759 6263.10 6178.40 86.50
1482 7.7797 6164.40 6178.68 86.20
1483 7.7835 6402.10 6178.95 88.30
1484 7.7872 6225.30 6179.23 86.50
1485 7.7910 6309.40 6179.51 87.60
1486 7.7947 6177.00 6179.78 86.10
1487 7.7985 6288.40 6180.07 87.30
1488 7.8022 6221.80 6180.35 86.70
1489 7.8060 6361.70 6180.63 87.70
1490 7.8098 6270.60 6180.91 87.80
1491 7.8135 6356.90 6181.20 87.60
1492 7.8173 6281.60 6181.49 87.40
1493 7.8210 6399.30 6181.77 87.40
1494 7.8248 6218.30 6182.06 86.80
1495 7.8285 6416.40 6182.36 86.80
1496 7.8323 6137.30 6182.65 86.40
1497 7.8361 6451.90 6182.94 89.20
1498 7.8398 5987.50 6183.24 85.20
1499 7.8436 6360.20 6183.53 87.60
1500 7.8473 6330.20 6183.83 88.00
1501 7.8511 6424.30 6184.13 88.40
1502 7.8548 5997.80 6184.43 85.00
1503 7.8586 6326.80 6184.73 87.70
1504 7.8624 6138.90 6185.03 85.60
1505 7.8661 6353.40 6185.33 87.10
1506 7.8699 6348.80 6185.64 88.00
1507 7.8736 6335.50 6185.94 87.70
1508 7.8774 6249.80 6186.25 86.70
1509 7.8811 6219.90 6186.56 87.10
1510 7.8849 6201.90 6186.87 86.30
1511 7.8887 6334.80 6187.18 87.80
1512 7.8924 6204.20 6187.49 86.30
1513 7.8962 6281.70 6187.80 87.40
1514 7.8999 6194.60 6188.12 86.60
1515 7.9037 6223.10 6188.44 86.50
1516 7.9075 6359.80 6188.75 88.20
1517 7.9112 6326.90 6189.07 87.50
1518 7.9150 6160.80 6189.39 86.50
1519 7.9187 6270.00 6189.71 87.30
1520 7.9225 6196.40 6190.03 85.60
1521 7.9262 6331.60 6190.36 88.50
1522 7.9300 6289.80 6190.68 88.00
1523 7.9338 6350.10 6191.01 86.80
1524 7.9375 6066.00 6191.33 85.20
1525 7.9413 6261.40 6191.66 86.60
1526 7.9450 6140.60 6191.99 86.00
1527 7.9488 6323.00 6192.32 87.00
1528 7.9525 6274.20 6192.65 87.80
1529 7.9563 6370.70 6192.99 89.00
1530 7.9601 6190.80 6193.32 86.10
1531 7.9638 6250.10 6193.66 87.20
1532 7.9676 6299.80 6193.99 87.10
1533 7.9713 6363.60 6194.33 86.60
1534 7.9751 6260.90 6194.67 87.40
1535 7.9788 6366.50 6195.01 88.00
1536 7.9826 6076.80 6195.35 86.10
1537 7.9864 6379.80 6195.69 87.30
1538 7.9901 6229.10 6196.04 86.60
1539 7.9939 6312.40 6196.38 87.40
1540 7.9976 6191.10 6196.73 87.10
1541 8.0014 6346.40 6197.07 87.80
1542 8.0051 6296.80 6197.42 88.00
1543 8.0089 6420.60 6197.77 87.90
1544 8.0127 6301.30 6198.12 87.10
1545 8.0164 6443.10 6198.47 89.70
1546 8.0202 6314.00 6198.82 87.80
1547 8.0239 6302.80 6199.18 87.80
1548 8.0277 6431.30 6199.53 88.30
1549 8.0315 6525.20 6199.89 89.00
1550 8.0352 6116.90 6200.25 86.20
1551 8.0390 6429.50 6200.60 87.00
1552 8.0427 6144.40 6200.96 86.90
1553 8.0465 6326.40 6201.32 87.90
1554 8.0502 6316.00 6201.69 87.00
1555 8.0540 6302.30 6202.05 86.70
1556 8.0577 6099.70 6202.41 86.00
1557 8.0615 6306.10 6202.78 88.30
1558 8.0653 6226.10 6203.14 87.20
1559 8.0690 6217.20 6203.51 86.80
1560 8.0728 6177.20 6203.88 87.20
1561 8.0765 6404.70 6204.25 86.30
1562 8.0803 6179.80 6204.62 87.40
1563 8.0841 6465.50 6204.99 89.60
1564 8.0878 6124.20 6205.36 86.10
1565 8.0916 6413.40 6205.74 89.00
1566 8.0953 6191.40 6206.11 87.10
1567 8.0991 6311.90 6206.49 86.70
1568 8.1028 6230.50 6206.87 87.40
1569 8.1066 6313.20 6207.24 87.50
1570 8.1104 6167.30 6207.62 86.70
1571 8.1141 6370.80 6208.00 88.40
1572 8.1179 6246.80 6208.38 87.80
1573 8.1216 6283.10 6208.77 87.40
1574 8.1254 6251.10 6209.15 87.60
1575 8.1292 6264.80 6209.53 85.90
1576 8.1329 6251.50 6209.92 86.60
1577 8.1367 6439.10 6210.31 88.80
1578 8.1404 6252.90 6210.69 86.70
1579 8.1442 6369.10 6211.08 89.60
1580 8.1480 6118.80 6211.47 86.00
1581 8.1517 6320.50 6211.86 88.70
1582 8.1555 6200.90 6212.25 88.70
1583 8.1592 6374.30 6212.65 84.70
1584 8.1630 6205.20 6213.04 83.90
1585 8.1667 6349.00 6213.44 85.50
1586 8.1705 6151.20 6213.83 84.40
1587 8.1743 6439.40 6214.23 85.90
1588 8.1780 6375.90 6214.62 84.90
1589 8.1818 6380.60 6215.02 84.00
1590 8.1855 6369.40 6215.42 84.40
1591 8.1893 6499.80 6215.82 86.80
1592 8.1931 6167.90 6216.23 84.10
1593 8.1968 6360.70 6216.63 84.40
1594 8.2006 6119.60 6217.03 82.50
1595 8.2043 6397.60 6217.44 85.50
1596 8.2081 6105.00 6217.84 82.20
1597 8.2118 6287.90 6218.25 83.40
1598 8.2156 6475.30 6218.66 86.30
1599 8.2194 6319.30 6219.07 84.90
1600 8.2231 6288.60 6219.48 84.20
1601 8.2269 6488.50 6219.88 85.80
1602 8.2306 6148.20 6220.30 82.80
1603 8.2344 6390.20 6220.71 84.50
1604 8.2381 6088.90 6221.12 82.60
1605 8.2419 6288.20 6221.54 84.70
1606 8.2457 6213.40 6221.95 84.50
1607 8.2494 6291.60 6222.37 84.70
1608 8.2532 6110.60 6222.78 83.10
1609 8.2569 6445.40 6223.20 85.60
1610 8.2607 6191.00 6223.62 82.70
1611 8.2645 6259.80 6224.04 83.40
1612 8.2682 6090.70 6224.46 82.80
1613 8.2720 6317.60 6224.88 85.20
1614 8.2757 6256.10 6225.31 84.80
1615 8.2795 6363.80 6225.73 85.30
1616 8.2832 6199.30 6226.15 83.40
1617 8.2870 6441.80 6226.58 85.50
1618 8.2908 6238.10 6227.00 84.70
1619 8.2945 6364.90 6227.43 85.10
1620 8.2983 6203.80 6227.86 83.80
1621 8.3020 6320.90 6228.29 84.80
1622 8.3058 6134.70 6228.72 84.20
1623 8.3096 6393.10 6229.15 84.60
1624 8.3133 6161.70 6229.58 82.70
1625 8.3171 6280.00 6230.01 85.30
1626 8.3208 6301.30 6230.44 84.90
1627 8.3246 6203.50 6230.88 84.10
1628 8.3284 6141.70 6231.31 84.30
1629 8.3321 6329.50 6231.75 85.00
1630 8.3359 6191.30 6232.19 84.40
1631 8.3396 6388.70 6232.62 85.30
1632 8.3434 6370.00 6233.06 85.60
1633 8.3471 6210.90 6233.50 84.70
1634 8.3509 6213.00 6233.94 83.70
1635 8.3547 6280.10 6234.38 85.20
1636 8.3584 6339.20 6234.82 84.30
1637 8.3622 6441.90 6235.27 85.50
1638 8.3659 6085.40 6235.71 82.60
1639 8.3697 6279.40 6236.15 83.80
1640 8.3735 6478.30 6236.60 85.80
1641 8.3772 6471.40 6237.04 86.50
1642 8.3810 6300.80 6237.49 85.10
1643 8.3847 6456.10 6237.94 87.10
1644 8.3885 6166.70 6238.38 84.30
1645 8.3923 6273.10 6238.83 85.00
1646 8.3960 6315.50 6239.28 85.50
1647 8.3998 6290.40 6239.73 84.20
1648 8.4035 6152.40 6240.18 84.40
1649 8.4073 6259.90 6240.64 84.30
1650 8.4110 6216.10 6241.09 84.40
1651 8.4148 6344.10 6241.54 84.80
1652 8.4186 6323.90 6242.00 85.30
1653 8.4223 6331.40 6242.45 85.50
1654 8.4261 6192.80 6242.91 84.80
1655 8.4298 6377.50 6243.36 85.40
1656 8.4336 6278.30 6243.82 85.60
1657 8.4374 6449.30 6244.28 86.20
1658 8.4411 6261.70 6244.74 85.10
1659 8.4449 6181.10 6245.20 84.40
1660 8.4487 6183.50 6245.66 84.40
1661 8.4524 6334.20 6246.12 86.00
1662 8.4562 6247.60 6246.58 83.80
1663 8.4599 6273.70 6247.04 84.10
1664 8.4637 6329.30 6247.50 84.80
1665 8.4674 6334.90 6247.97 85.30
1666 8.4712 6261.60 6248.43 84.30
1667 8.4750 6347.10 6248.90 85.80
1668 8.4787 6328.50 6249.36 83.90
1669 8.4825 6269.30 6249.83 86.10
1670 8.4862 6250.50 6250.30 84.20
1671 8.4900 6362.20 6250.77 85.60
1672 8.4938 6301.00 6251.24 85.60
1673 8.4975 6229.70 6251.70 85.40
1674 8.5013 6257.00 6252.17 85.30
1675 8.5050 6268.50 6252.64 85.90
1676 8.5088 6300.00 6253.12 84.90
1677 8.5126 6371.20 6253.59 86.20
1678 8.5163 6096.20 6254.06 82.40
1679 8.5201 6418.60 6254.53 85.20
1680 8.5238 6302.00 6255.01 85.50
1681 8.5276 6361.60 6255.48 84.40
1682 8.5314 6270.20 6255.96 84.70
1683 8.5351 6277.10 6256.43 84.50
1684 8.5389 6195.30 6256.91 83.30
1685 8.5426 6267.90 6257.39 85.20
1686 8.5464 6232.80 6257.87 85.00
1687 8.5501 6385.80 6258.34 84.70
1688 8.5539 6294.50 6258.82 85.30
1689 8.5577 6400.90 6259.30 86.20
1690 8.5614 6306.10 6259.78 85.20
1691 8.5652 6347.80 6260.26 85.60
1692 8.5689 6172.40 6260.74 84.20
1693 8.5727 6241.40 6261.23 84.50
1694 8.5765 6193.10 6261.71 84.80
1695 8.5802 6375.50 6262.19 85.30
1696 8.5840 6267.60 6262.68 85.00
1697 8.5877 6294.00 6263.16 86.00
1698 8.5915 6282.70 6263.65 84.50
1699 8.5953 6350.00 6264.13 85.70
1700 8.5990 6175.50 6264.62 84.30
1701 8.6028 6370.20 6265.10 85.50
1702 8.6065 6204.90 6265.59 84.20
1703 8.6103 6280.80 6266.08 85.00
1704 8.6141 6149.40 6266.57 84.20
1705 8.6178 6333.50 6267.06 86.70
1706 8.6216 6202.60 6267.55 84.80
1707 8.6253 6505.80 6268.04 86.50
1708 8.6291 6108.20 6268.53 84.20
1709 8.6329 6436.00 6269.02 86.60
1710 8.6366 6164.80 6269.51 85.60
1711 8.6404 6366.90 6270.00 86.50
1712 8.6441 6301.70 6270.49 85.10
1713 8.6479 6334.50 6270.98 85.50
1714 8.6517 6139.20 6271.48 84.50
1715 8.6554 6276.80 6271.97 85.50
1716 8.6592 6254.40 6272.47 84.90
1717 8.6629 6370.20 6272.96 86.40
1718 8.6667 6323.30 6273.46 86.50
1719 8.6705 6309.10 6273.95 86.00
1720 8.6742 6214.40 6274.45 85.60
1721 8.6780 6243.40 6274.95 84.80
1722 8.6817 6192.10 6275.44 85.80
1723 8.6855 6132.10 6275.94 84.20
1724 8.6892 6237.20 6276.44 87.10
1725 8.6930 6397.00 6276.94 86.50
1726 8.6968 6301.80 6277.44 85.40
1727 8.7005 6244.30 6277.94 84.50
1728 8.7043 6262.80 6278.44 84.80
1729 8.7080 6375.50 6278.94 86.60
1730 8.7118 6223.80 6279.44 83.60
1731 8.7156 6354.70 6279.94 85.60
1732 8.7193 6112.50 6280.44 84.50
1733 8.7231 6325.60 6280.95 85.70
1734 8.7268 6232.10 6281.45 86.40
1735 8.7306 6253.50 6281.95 84.40
1736 8.7344 6162.90 6282.46 84.60
1737 8.7381 6361.00 6282.96 85.60
1738 8.7419 6234.20 6283.47 85.80
1739 8.7457 6423.30 6283.97 86.80
1740 8.7494 6117.80 6284.48 82.70
1741 8.7532 6346.90 6284.98 86.20
1742 8.7569 6198.30 6285.49 83.90
1743 8.7607 6401.60 6285.99 86.10
1744 8.7645 6163.90 6286.50 85.30
1745 8.7682 6278.10 6287.01 85.60
1746 8.7720 6099.10 6287.51 84.60
1747 8.7757 6387.90 6288.02 86.50
1748 8.7795 6236.90 6288.53 84.90
1749 8.7832 6351.50 6289.04 85.90
1750 8.7870 6310.80 6289.55 86.20
1751 8.7908 6317.10 6290.06 85.20
1752 8.7945 6081.50 6290.57 84.50
1753 8.7983 6465.90 6291.08 86.70
1754 8.8020 6144.20 6291.59 84.80
1755 8.8058 6304.10 6292.10 86.60
1756 8.8096 6204.70 6292.61 84.00
1757 8.8133 6356.90 6293.12 87.10
1758 8.8171 6171.10 6293.63 85.30
1759 8.8208 6296.20 6294.14 85.90
1760 8.8246 6104.00 6294.65 84.00
1761 8.8284 6234.20 6295.17 85.30
1762 8.8321 6169.00 6295.68 84.20
1763 8.8359 6368.40 6296.19 85.70
1764 8.8397 6049.00 6296.71 84.10
1765 8.8434 6335.50 6297.22 86.30
1766 8.8472 6200.20 6297.74 84.80
1767 8.8509 6329.60 6298.25 85.70
1768 8.8547 6224.90 6298.76 85.00
1769 8.8584 6283.90 6299.28 85.50
1770 8.8622 6394.10 6299.79 86.20
1771 8.8660 6312.70 6300.31 85.30
1772 8.8697 6184.40 6300.83 84.30
1773 8.8735 6335.50 6301.34 86.50
1774 8.8772 6077.10 6301.86 83.50
1775 8.8810 6322.90 6302.37 85.00
1776 8.8848 6152.50 6302.89 84.70
1777 8.8885 6281.50 6303.41 85.20
1778 8.8923 6303.90 6303.92 85.60
1779 8.8961 6186.80 6304.44 84.90
1780 8.8998 6349.40 6304.96 85.60
1781 8.9036 6215.00 6305.48 84.50
1782 8.9073 6162.60 6305.99 84.00
1783 8.9111 6208.90 6306.51 84.00
1784 8.9149 6214.30 6307.03 85.30
1785 8.9186 6314.90 6307.55 84.80
1786 8.9224 6249.50 6308.07 84.60
1787 8.9261 6337.00 6308.59 86.30
1788 8.9299 6173.70 6309.10 84.20
1789 8.9337 6495.60 6309.62 86.50
1790 8.9374 6169.80 6310.14 83.40
1791 8.9412 6258.30 6310.66 84.10
1792 8.9449 6210.20 6311.18 84.30
1793 8.9487 6503.90 6311.70 85.80
1794 8.9524 6060.70 6312.22 82.80
1795 8.9562 6254.90 6312.74 84.20
1796 8.9600 6122.10 6313.26 83.00
1797 8.9637 6375.80 6313.78 85.30
1798 8.9675 6111.90 6314.30 83.10
1799 8.9712 6310.50 6314.82 84.90
1800 8.9750 6227.20 6315.34 83.60
1801 8.9788 6228.10 6315.87 84.30
1802 8.9825 6248.80 6316.39 84.20
1803 8.9863 6436.00 6316.91 86.90
1804 8.9901 6185.20 6317.43 84.30
1805 8.9938 6449.30 6317.95 87.50
1806 8.9976 6135.40 6318.47 85.20
1807 9.0013 6303.60 6318.99 83.90
1808 9.0051 6290.20 6319.52 84.40
1809 9.0089 6296.40 6320.04 84.30
1810 9.0126 6175.90 6320.56 83.90
1811 9.0164 6210.00 6321.08 83.60
1812 9.0201 6349.50 6321.60 84.70
1813 9.0239 6367.50 6322.13 84.80
1814 9.0276 6259.00 6322.65 84.30
1815 9.0314 6375.50 6323.17 85.30
1816 9.0352 6062.30 6323.69 83.90
1817 9.0389 6303.50 6324.21 85.20
1818 9.0427 6373.10 6324.74 85.20
1819 9.0464 6366.30 6325.26 85.40
1820 9.0502 6072.80 6325.78 83.10
1821 9.0540 6224.80 6326.31 83.90
1822 9.0577 6164.20 6326.83 84.60
1823 9.0615 6289.90 6327.35 84.80
1824 9.0765 6303.30 6329.44 85.90
1825 9.0803 6227.60 6329.96 85.10
1826 9.0841 6389.00 6330.49 86.10
1827 9.0878 6109.40 6331.01 83.60
1828 9.0916 6226.40 6331.53 84.60
1829 9.0953 6052.40 6332.05 83.40
1830 9.0991 6187.40 6332.58 84.50
1831 9.1029 6248.10 6333.10 84.90
1832 9.1066 6238.90 6333.62 84.40
1833 9.1104 6064.00 6334.14 83.70
1834 9.1141 6145.20 6334.67 84.70
1835 9.1179 6076.40 6335.19 84.70
1836 9.1217 6290.70 6335.71 87.10
1837 9.1254 6271.40 6336.23 84.80
1838 9.1292 6441.10 6336.76 86.30
1839 9.1329 6102.40 6337.28 84.20
1840 9.1367 6364.50 6337.80 84.80
1841 9.1405 6193.60 6338.32 84.20
1842 9.1442 6306.30 6338.84 85.30
1843 9.1480 6167.20 6339.37 83.70
1844 9.1517 6273.80 6339.89 85.40
1845 9.1555 6268.40 6340.41 85.20
1846 9.1593 6270.40 6340.93 85.30
1847 9.1630 6278.70 6341.45 84.80
1848 9.1668 6258.60 6341.98 85.20
1849 9.1706 6217.80 6342.50 84.30
1850 9.1743 6350.10 6343.02 85.80
1851 9.1781 6312.70 6343.54 85.20
1852 9.1818 6312.90 6344.06 85.50
1853 9.1856 6288.10 6344.58 84.90
1854 9.1894 6283.50 6345.10 84.90
1855 9.1931 6273.20 6345.62 85.60
1856 9.1969 6338.80 6346.14 86.30
1857 9.2006 6378.90 6346.66 86.10
1858 9.2044 6375.30 6347.18 86.70
1859 9.2081 6227.30 6347.70 84.10
1860 9.2119 6264.50 6348.22 84.70
1861 9.2157 6058.70 6348.74 83.60
1862 9.2194 6366.80 6349.26 86.20
1863 9.2232 6021.60 6349.78 82.30
1864 9.2269 6434.60 6350.30 86.00
1865 9.2307 6255.70 6350.82 85.30
1866 9.2345 6140.80 6351.34 83.80
1867 9.2382 6136.90 6351.86 83.80
1868 9.2420 6272.30 6352.38 84.50
1869 9.2458 6157.70 6352.90 83.90
1870 9.2495 6367.50 6353.42 86.30
1871 9.2533 6245.60 6353.93 84.70
1872 9.2570 6309.80 6354.45 84.60
1873 9.2608 6288.60 6354.97 84.90
1874 9.2646 6390.50 6355.49 85.90
1875 9.2683 6284.00 6356.00 84.60
1876 9.2721 6235.90 6356.52 85.90
1877 9.2758 6135.90 6357.04 85.30
1878 9.2796 6290.50 6357.55 85.40
1879 9.2834 5938.80 6358.07 82.60
1880 9.2871 6265.80 6358.58 85.50
1881 9.2909 6234.00 6359.10 85.60
1882 9.2946 6309.20 6359.62 86.00
1883 9.2984 6312.00 6360.13 85.90
1884 9.3022 6245.50 6360.65 85.30
1885 9.3059 6192.30 6361.16 84.80
1886 9.3097 6228.70 6361.68 84.70
1887 9.3134 6147.60 6362.19 84.60
1888 9.3172 6295.10 6362.70 85.20
1889 9.3210 6218.60 6363.22 85.20
1890 9.3247 6234.00 6363.73 85.80
1891 9.3285 6209.70 6364.24 84.60
1892 9.3322 6367.90 6364.76 85.70
1893 9.3360 6315.40 6365.27 86.00
1894 9.3398 6308.90 6365.78 85.50
1895 9.3435 6191.50 6366.29 85.30
1896 9.3473 6314.20 6366.80 85.50
1897 9.3511 6287.10 6367.31 85.20
1898 9.3548 6346.10 6367.83 86.30
1899 9.3586 6260.90 6368.34 85.90
1900 9.3623 6358.30 6368.85 85.10
1901 9.3661 6182.80 6369.36 84.90
1902 9.3699 6309.40 6369.87 85.50
1903 9.3736 6156.80 6370.38 85.00
1904 9.3774 6311.10 6370.89 85.40
1905 9.3811 6244.80 6371.39 86.00
1906 9.3849 6310.50 6371.90 86.00
1907 9.3887 6207.40 6372.41 85.50
1908 9.3924 6498.90 6372.92 89.00
1909 9.3962 6326.70 6373.42 85.90
1910 9.3999 6399.30 6373.93 86.90
1911 9.4037 6186.70 6374.44 85.70
1912 9.4075 6456.80 6374.94 87.50
1913 9.4112 6300.50 6375.45 84.40
1914 9.4150 6332.70 6375.95 86.40
1915 9.4187 6244.00 6376.46 86.20
1916 9.4225 6314.80 6376.96 85.80
1917 9.4263 6279.80 6377.46 85.90
1918 9.4300 6383.80 6377.97 86.10
1919 9.4338 6278.50 6378.47 85.10
1920 9.4375 6529.60 6378.98 87.70
1921 9.4413 6307.00 6379.48 84.90
1922 9.4451 6570.70 6379.98 88.10
1923 9.4488 6187.20 6380.48 84.90
1924 9.4526 6305.60 6380.98 85.50
1925 9.4564 6161.10 6381.48 85.00
1926 9.4601 6296.10 6381.98 85.70
1927 9.4639 6165.70 6382.48 85.00
1928 9.4676 6300.00 6382.98 85.80
1929 9.4714 6169.60 6383.48 85.00
1930 9.4752 6301.40 6383.98 84.60
1931 9.4789 6220.00 6384.47 84.60
1932 9.4827 6197.30 6384.97 86.50
1933 9.4864 6172.80 6385.47 84.90
1934 9.4902 6277.60 6385.97 85.90
1935 9.4940 6165.30 6386.46 85.20
1936 9.4977 6297.00 6386.96 86.40
1937 9.5015 6128.80 6387.45 84.60
1938 9.5052 6278.40 6387.95 86.00
1939 9.5090 6059.90 6388.44 83.70
1940 9.5128 6306.20 6388.93 86.90
1941 9.5165 6312.10 6389.43 86.20
1942 9.5203 6223.40 6389.92 85.30
1943 9.5240 6343.00 6390.41 87.10
1944 9.5278 6299.50 6390.90 86.40
1945 9.5316 6065.00 6391.39 84.10
1946 9.5353 6265.70 6391.88 85.80
1947 9.5391 6228.00 6392.37 86.20
1948 9.5428 6324.20 6392.86 85.80
1949 9.5466 6221.10 6393.35 85.40
1950 9.5504 6255.10 6393.84 85.30
1951 9.5541 6079.30 6394.33 84.40
1952 9.5579 6395.80 6394.81 86.60
1953 9.5617 6303.10 6395.30 86.60
1954 9.5654 6399.10 6395.78 87.00
1955 9.5692 6443.90 6396.27 86.80
1956 9.5729 6259.80 6396.75 85.40
1957 9.5767 6190.80 6397.24 84.80
1958 9.5805 6298.10 6397.72 85.70
1959 9.5842 6172.50 6398.20 85.50
1960 9.5880 6186.30 6398.69 85.10
1961 9.5917 6254.90 6399.17 85.90
1962 9.5955 6375.10 6399.65 86.10
1963 9.5992 6188.90 6400.13 85.50
1964 9.6030 6498.30 6400.61 91.10
1965 9.6068 6338.10 6401.09 87.40
1966 9.6105 6385.00 6401.57 87.30
1967 9.6143 6235.30 6402.05 89.20
1968 9.6181 6406.30 6402.52 89.40
1969 9.6218 6407.90 6403.00 88.40
1970 9.6256 6242.80 6403.48 87.20
1971 9.6293 6208.90 6403.95 87.70
1972 9.6331 6390.10 6404.43 89.20
1973 9.6369 5986.80 6404.90 85.40
1974 9.6406 6336.80 6405.37 87.50
1975 9.6444 6432.00 6405.85 89.40
1976 9.6481 6365.70 6406.32 87.70
1977 9.6519 6242.20 6406.79 87.30
1978 9.6557 6288.70 6407.26 87.00
1979 9.6594 6262.40 6407.73 87.60
1980 9.6632 6204.60 6408.20 86.80
1981 9.6670 6343.80 6408.67 87.60
1982 9.6707 6486.40 6409.14 87.20
1983 9.6745 6242.30 6409.61 87.10
1984 9.6782 6373.40 6410.07 88.00
1985 9.6820 6397.90 6410.54 90.30
1986 9.6858 6442.90 6411.01 87.20
1987 9.6895 6350.80 6411.47 87.60
1988 9.6933 6301.70 6411.93 86.20
1989 9.6970 6350.80 6412.40 88.90
1990 9.7008 6390.10 6412.86 87.90
1991 9.7045 6170.30 6413.32 87.60
1992 9.7083 6420.70 6413.78 89.40
1993 9.7121 6281.10 6414.24 87.40
1994 9.7158 6415.70 6414.70 88.60
1995 9.7196 6140.30 6415.16 86.70
1996 9.7234 6383.00 6415.62 89.40
1997 9.7271 6311.30 6416.08 88.70
1998 9.7309 6426.10 6416.53 88.60
1999 9.7346 6307.20 6416.99 87.40
2000 9.7384 6360.80 6417.44 88.60
2001 9.7422 6244.70 6417.90 87.90
2002 9.7459 6440.60 6418.35 88.50
2003 9.7497 6254.00 6418.81 87.10
2004 9.7534 6346.20 6419.26 88.30
2005 9.7572 6261.00 6419.71 87.30
2006 9.7610 6455.60 6420.16 87.60
2007 9.7647 6221.80 6420.61 87.30
2008 9.7685 6373.30 6421.06 88.10
2009 9.7723 6258.30 6421.51 88.30
2010 9.7760 6250.10 6421.95 87.50
2011 9.7798 6206.70 6422.40 86.60
2012 9.7835 6325.90 6422.85 86.70
2013 9.7873 6119.10 6423.29 87.00
2014 9.7910 6337.90 6423.73 86.90
2015 9.7948 6176.40 6424.18 86.80
2016 9.7986 6278.00 6424.62 87.70
2017 9.8023 6177.70 6425.06 86.40
2018 9.8061 6324.00 6425.50 89.00
2019 9.8098 6265.90 6425.94 87.30
2020 9.8136 6375.40 6426.38 87.90
2021 9.8174 6192.00 6426.82 87.20
2022 9.8211 6463.40 6427.26 88.00
2023 9.8249 6286.30 6427.69 86.70
2024 9.8287 6331.90 6428.13 87.30
2025 9.8324 6177.80 6428.56 87.50
2026 9.8362 6297.60 6429.00 87.90
2027 9.8399 6206.90 6429.43 85.60
2028 9.8437 6389.40 6429.86 88.80
2029 9.8475 6291.30 6430.29 88.20
2030 9.8512 6240.40 6430.72 87.90
2031 9.8550 6183.90 6431.15 85.80
2032 9.8587 6261.50 6431.58 87.20
2033 9.8625 6272.10 6432.01 87.50
2034 9.8663 6421.90 6432.44 88.80
2035 9.8700 6283.40 6432.86 88.70
2036 9.8738 6374.70 6433.29 88.80
2037 9.8775 6355.10 6433.71 87.90
2038 9.8813 6379.60 6434.13 87.40
2039 9.8851 6233.90 6434.56 86.60
2040 9.8888 6236.60 6434.98 86.40
2041 9.8926 6237.00 6435.40 87.60
2042 9.8963 6407.00 6435.82 88.20
2043 9.9001 6148.30 6436.24 86.30
2044 9.9039 6204.70 6436.65 87.80
2045 9.9076 6171.20 6437.07 86.90
2046 9.9114 6469.80 6437.49 87.70
2047 9.9151 6063.40 6437.90 86.50
2048 9.9189 6296.20 6438.32 86.40
2049 9.9227 6278.70 6438.73 87.80
2050 9.9264 6398.80 6439.14 89.00
2051 9.9302 6240.60 6439.55 87.20
2052 9.9340 6535.60 6439.96 90.10
2053 9.9377 6142.60 6440.37 88.00
2054 9.9415 6357.20 6440.78 88.00
2055 9.9452 6210.20 6441.18 86.90
2056 9.9490 6307.60 6441.59 88.10
2057 9.9528 6187.70 6442.00 86.30
2058 9.9565 6351.20 6442.40 87.80
2059 9.9603 6235.40 6442.80 87.20
2060 9.9640 6459.60 6443.20 89.40
2061 9.9678 6290.70 6443.61 88.10
2062 9.9716 6349.70 6444.01 88.40
2063 9.9753 6289.90 6444.40 87.00
2064 9.9791 6365.60 6444.80 88.10
2065 9.9828 6276.30 6445.20 87.50
2066 9.9866 6331.50 6445.60 87.70
2067 9.9904 6244.20 6445.99 88.00
2068 9.9941 6453.20 6446.38 90.30
2069 9.9979 6296.00 6446.78 86.80
2070 10.0016 6411.90 6447.17 89.00
2071 10.0054 6357.60 6447.56 87.80
2072 10.0092 6336.10 6447.95 87.80
2073 10.0129 6329.80 6448.34 88.70
2074 10.0167 6309.00 6448.73 88.20
2075 10.0204 6233.90 6449.11 86.90
2076 10.0242 6377.10 6449.50 86.90
2077 10.0280 6211.40 6449.88 87.10
2078 10.0317 6306.90 6450.26 87.20
2079 10.0355 6220.90 6450.65 87.60
2080 10.0392 6363.10 6451.03 88.00
2081 10.0430 6188.50 6451.41 88.30
2082 10.0468 6456.50 6451.79 88.70
2083 10.0505 6175.60 6452.17 86.30
2084 10.0543 6354.40 6452.54 86.70
2085 10.0581 6250.80 6452.92 87.10
2086 10.0618 6299.40 6453.29 88.80
2087 10.0656 6143.80 6453.67 85.20
2088 10.0693 6245.00 6454.04 87.20
2089 10.0731 6218.40 6454.41 87.10
2090 10.0768 6424.20 6454.78 90.10
2091 10.0806 6289.90 6455.15 89.40
2092 10.0844 6291.80 6455.52 87.80
2093 10.0881 6257.70 6455.88 87.90
2094 10.0919 6436.20 6456.25 89.50
2095 10.0956 6257.20 6456.61 86.80
2096 10.0994 6471.00 6456.98 88.80
2097 10.1032 6162.10 6457.34 86.70
2098 10.1069 6467.30 6457.70 90.00
2099 10.1107 6285.20 6458.06 87.90
2100 10.1145 6410.10 6458.42 88.90
2101 10.1182 6278.30 6458.78 86.60
2102 10.1220 6497.70 6459.13 89.60
2103 10.1257 6360.10 6459.49 88.80
2104 10.1295 6380.10 6459.84 89.20
2105 10.1333 6311.50 6460.20 87.20
2106 10.1370 6405.60 6460.55 88.20
2107 10.1408 6337.70 6460.90 87.30
2108 10.1445 6280.90 6461.25 88.20
2109 10.1483 6268.70 6461.60 88.10
2110 10.1521 6458.50 6461.94 89.40
2111 10.1558 6217.70 6462.29 87.20
2112 10.1596 6449.50 6462.63 90.60
2113 10.1633 6309.50 6462.98 88.80
2114 10.1671 6520.00 6463.32 88.90
2115 10.1709 6233.80 6463.66 87.80
2116 10.1746 6376.50 6464.00 88.80
2117 10.1784 6363.80 6464.34 89.80
2118 10.1821 6462.40 6464.68 89.80
2119 10.1859 6138.10 6465.01 86.70
2120 10.1897 6359.20 6465.35 88.20
2121 10.1934 6291.90 6465.68 88.00
2122 10.1972 6423.00 6466.01 88.80
2123 10.2009 6175.80 6466.35 86.80
2124 10.2047 6402.70 6466.68 88.80
2125 10.2085 6375.00 6467.00 89.20
2126 10.2122 6367.70 6467.33 88.60
2127 10.2160 6225.50 6467.66 87.80
2128 10.2197 6491.60 6467.98 89.60
2129 10.2235 6308.40 6468.31 89.00
2130 10.2273 6412.60 6468.63 88.80
2131 10.2310 6331.80 6468.95 87.30
2132 10.2348 6419.50 6469.27 89.80
2133 10.2385 6398.50 6469.59 87.80
2134 10.2423 6523.00 6469.91 90.20
2135 10.2461 6238.70 6470.22 87.00
2136 10.2498 6305.40 6470.54 87.30
2137 10.2536 6261.70 6470.85 89.10
2138 10.2573 6286.60 6471.16 87.20
2139 10.2611 6293.60 6471.48 86.60
2140 10.2649 6513.40 6471.79 90.30
2141 10.2686 6345.60 6472.09 87.30
2142 10.2724 6447.70 6472.40 89.10
2143 10.2761 6329.20 6472.71 88.50
2144 10.2799 6511.70 6473.01 87.60
2145 10.2837 6241.40 6473.31 87.30
2146 10.2874 6399.90 6473.62 89.60
2147 10.2912 6174.00 6473.92 88.20
2148 10.2949 6326.40 6474.22 87.90
2149 10.2987 6418.80 6474.51 89.70
2150 10.3025 6299.00 6474.81 88.70
2151 10.3062 6373.90 6475.11 86.80
2152 10.3100 6378.60 6475.40 88.50
2153 10.3138 6172.00 6475.69 87.40
2154 10.3175 6552.30 6475.98 90.10
2155 10.3213 6178.80 6476.27 86.70
2156 10.3250 6448.50 6476.56 89.50
2157 10.3288 6205.00 6476.85 88.10
2158 10.3325 6451.30 6477.14 90.10
2159 10.3363 6239.10 6477.42 87.40
2160 10.3401 6415.70 6477.70 90.00
2161 10.3438 6310.40 6477.98 88.40
2162 10.3476 6452.00 6478.26 90.40
2163 10.3513 6379.80 6478.54 88.70
2164 10.3551 6384.80 6478.82 88.80
2165 10.3589 6215.70 6479.10 87.60
2166 10.3626 6407.30 6479.37 90.30
2167 10.3664 6207.10 6479.65 87.50
2168 10.3701 6310.90 6479.92 88.30
2169 10.3739 6253.70 6480.19 86.40
2170 10.3777 6514.60 6480.46 90.60
2171 10.3814 6288.00 6480.73 88.60
2172 10.3852 6394.80 6480.99 89.60
2173 10.3889 6278.90 6481.26 88.50
2174 10.3927 6263.10 6481.52 88.10
2175 10.3965 6329.60 6481.78 90.10
2176 10.4002 6462.50 6482.04 89.90
2177 10.4040 6316.60 6482.30 89.70
2178 10.4077 6410.30 6482.56 89.30
2179 10.4115 6172.10 6482.82 87.30
2180 10.4153 6586.40 6483.07 90.50
2181 10.4190 6411.60 6483.33 90.30
2182 10.4228 6409.30 6483.58 89.10
2183 10.4265 6498.80 6483.83 90.20
2184 10.4303 6428.50 6484.08 90.10
2185 10.4341 6164.90 6484.33 88.40
2186 10.4378 6363.90 6484.58 87.50
2187 10.4416 6317.80 6484.82 88.90
2188 10.4453 6292.60 6485.06 89.30
2189 10.4491 6161.50 6485.31 86.50
2190 10.4529 6475.30 6485.55 88.70
2191 10.4566 6331.80 6485.79 89.40
2192 10.4604 6397.30 6486.02 90.40
2193 10.4641 6082.00 6486.26 85.90
2194 10.4679 6427.10 6486.50 89.70
2195 10.4717 6351.80 6486.73 89.10
2196 10.4754 6340.60 6486.96 89.40
2197 10.4792 6326.60 6487.19 88.40
2198 10.4829 6368.90 6487.42 88.90
2199 10.4867 6252.00 6487.65 89.00
2200 10.4905 6492.40 6487.87 89.80
2201 10.4942 6349.10 6488.10 89.10
2202 10.4980 6398.50 6488.32 91.00
2203 10.5017 6301.40 6488.54 89.50
2204 10.5055 6298.10 6488.76 88.20
2205 10.5093 6478.60 6488.98 91.90
2206 10.5130 6414.10 6489.20 89.70
2207 10.5168 6256.40 6489.41 87.60
2208 10.5205 6356.90 6489.63 89.90
2209 10.5243 6235.40 6489.84 87.60
2210 10.5281 6430.40 6490.05 88.70
2211 10.5318 6241.30 6490.26 89.60
2212 10.5356 6441.00 6490.47 91.20
2213 10.5393 6263.10 6490.68 88.40
2214 10.5431 6618.20 6490.88 92.00
2215 10.5469 6342.30 6491.08 90.80
2216 10.5506 6404.70 6491.29 89.90
2217 10.5544 6281.70 6491.49 87.40
2218 10.5581 6331.90 6491.68 89.60
2219 10.5619 6268.70 6491.88 89.00
2220 10.5656 6439.90 6492.08 87.90
2221 10.5694 6196.80 6492.27 85.50
2222 10.5732 6349.30 6492.46 87.10
2223 10.5769 6204.80 6492.65 86.20
2224 10.5807 6381.10 6492.84 87.20
2225 10.5844 6215.10 6493.03 85.80
2226 10.5882 6340.00 6493.22 87.40
2227 10.5920 6426.60 6493.40 87.80
2228 10.5957 6422.70 6493.59 87.10
2229 10.5995 6262.70 6493.77 86.70
2230 10.6032 6288.20 6493.95 85.90
2231 10.6070 6344.40 6494.12 85.70
2232 10.6108 6416.90 6494.30 88.20
2233 10.6145 6319.50 6494.48 85.30
2234 10.6183 6576.80 6494.65 89.00
2235 10.6221 6243.10 6494.82 86.00
2236 10.6258 6628.40 6494.99 90.40
2237 10.6296 6278.80 6495.16 86.20
2238 10.6333 6406.70 6495.33 87.60
2239 10.6371 6396.60 6495.49 88.40
2240 10.6408 6473.00 6495.66 88.30
2241 10.6446 6301.80 6495.82 87.00
2242 10.6484 6360.80 6495.98 88.10
2243 10.6521 6348.90 6496.14 87.20
2244 10.6559 6384.20 6496.30 87.20
2245 10.6596 6292.00 6496.45 86.60
2246 10.6634 6291.50 6496.61 86.70
2247 10.6672 6232.90 6496.76 86.10
2248 10.6709 6536.90 6496.91 89.10
2249 10.6747 6372.40 6497.06 87.40
2250 10.6784 6373.40 6497.21 85.60
2251 10.6822 6268.50 6497.36 85.10
2252 10.6860 6515.80 6497.50 87.50
2253 10.6897 6341.60 6497.64 87.70
2254 10.6935 6344.80 6497.78 86.40
2255 10.6972 6398.90 6497.92 87.90
2256 10.7010 6600.60 6498.06 88.30
2257 10.7048 6322.90 6498.20 86.90
2258 10.7085 6483.10 6498.33 87.20
2259 10.7123 6186.00 6498.47 86.00
2260 10.7160 6387.70 6498.60 87.20
2261 10.7198 6331.30 6498.73 87.30
2262 10.7235 6401.70 6498.85 87.40
2263 10.7273 6273.30 6498.98 86.70
2264 10.7311 6491.90 6499.11 88.70
2265 10.7348 6353.80 6499.23 86.40
2266 10.7386 6485.90 6499.35 87.90
2267 10.7423 6312.20 6499.47 87.20
2268 10.7461 6304.00 6499.59 86.50
2269 10.7499 6162.30 6499.70 85.50
2270 10.7536 6381.30 6499.82 87.00
2271 10.7574 6176.10 6499.93 85.90
2272 10.7611 6509.50 6500.04 87.10
2273 10.7649 6378.40 6500.15 88.60
2274 10.7687 6388.40 6500.26 87.20
2275 10.7724 6440.40 6500.37 89.80
2276 10.7762 6603.90 6500.47 88.80
2277 10.7799 6288.90 6500.57 87.00
2278 10.7837 6205.70 6500.67 85.40
2279 10.7874 6329.50 6500.77 86.50
2280 10.7912 6257.80 6500.87 86.20
2281 10.7950 6287.10 6500.97 84.60
2282 10.7987 6415.90 6501.06 87.80
2283 10.8025 6270.50 6501.15 86.20
2284 10.8062 6465.20 6501.24 87.70
2285 10.8100 6185.00 6501.33 86.90
2286 10.8138 6491.90 6501.42 89.80
2287 10.8175 6238.70 6501.50 85.00
2288 10.8213 6383.70 6501.59 88.20
2289 10.8250 6248.90 6501.67 86.10
2290 10.8288 6426.90 6501.75 88.00
2291 10.8326 6307.40 6501.83 86.80
2292 10.8363 6439.80 6501.91 88.00
2293 10.8401 6376.20 6501.98 87.10
2294 10.8438 6359.20 6502.05 86.30
2295 10.8476 6291.20 6502.13 86.30
2296 10.8514 6561.10 6502.20 87.70
2297 10.8551 6450.50 6502.26 88.40
2298 10.8589 6501.50 6502.33 88.20
2299 10.8626 6264.40 6502.39 86.20
2300 10.8664 6289.60 6502.46 85.90
2301 10.8701 6333.20 6502.52 87.00
2302 10.8739 6331.30 6502.58 87.20
2303 10.8777 6335.60 6502.63 87.70
2304 10.8814 6355.90 6502.69 87.00
2305 10.8852 6294.10 6502.74 85.40
2306 10.8890 6474.10 6502.80 88.60
2307 10.8927 6303.00 6502.85 87.40
2308 10.8965 6379.60 6502.90 87.50
2309 10.9002 6313.70 6502.94 86.40
2310 10.9040 6430.10 6502.99 88.70
2311 10.9077 6216.20 6503.03 86.40
2312 10.9115 6444.50 6503.07 88.70
2313 10.9153 6123.60 6503.11 84.90
2314 10.9190 6457.00 6503.15 88.60
2315 10.9228 6272.00 6503.19 86.60
2316 10.9265 6321.50 6503.22 87.70
2317 10.9303 6274.70 6503.25 86.30
2318 10.9340 6484.30 6503.28 88.30
2319 10.9378 6386.00 6503.31 87.40
2320 10.9416 6464.80 6503.34 88.30
2321 10.9453 6242.70 6503.36 86.30
2322 10.9491 6443.30 6503.39 87.50
2323 10.9528 6404.80 6503.41 88.60
2324 10.9566 6403.40 6503.43 88.00
2325 10.9604 6291.80 6503.45 87.70
2326 10.9641 6287.80 6503.46 87.60
2327 10.9679 6372.00 6503.48 87.30
2328 10.9716 6467.20 6503.49 88.20
2329 10.9754 6277.70 6503.50 87.20
2330 10.9791 6319.30 6503.51 88.10
2331 10.9829 6402.40 6503.52 88.90
2332 10.9867 6357.70 6503.52 86.10
2333 10.9904 6159.10 6503.53 87.20
2334 10.9942 6323.80 6503.53 87.90
2335 10.9979 6305.10 6503.53 87.60
2336 11.0017 6481.50 6503.53 87.80
2337 11.0055 6448.90 6503.52 89.40
2338 11.0092 6466.20 6503.52 90.30
2339 11.0130 6428.80 6503.51 89.00
2340 11.0167 6397.50 6503.50 88.40
2341 11.0205 6321.10 6503.49 87.70
2342 11.0243 6486.90 6503.47 88.30
2343 11.0280 6287.80 6503.46 87.50
2344 11.0318 6362.80 6503.44 88.10
2345 11.0355 6472.70 6503.42 88.00
2346 11.0393 6354.90 6503.40 88.40
2347 11.0430 6287.60 6503.38 88.80
2348 11.0468 6439.20 6503.36 87.30
2349 11.0506 6272.80 6503.33 86.30
2350 11.0543 6400.40 6503.30 87.20
2351 11.0581 6277.60 6503.27 86.50
2352 11.0618 6443.60 6503.24 87.00
2353 11.0656 6282.40 6503.21 87.30
2354 11.0694 6454.80 6503.17 87.50
2355 11.0731 6317.60 6503.13 86.30
2356 11.0769 6487.60 6503.09 87.50
2357 11.0806 6355.50 6503.05 87.00
2358 11.0844 6345.60 6503.01 85.70
2359 11.0881 6432.50 6502.96 88.00
2360 11.0919 6464.80 6502.92 87.90
2361 11.0957 6467.50 6502.87 88.80
2362 11.0994 6536.00 6502.82 88.90
2363 11.1032 6250.80 6502.77 86.90
2364 11.1069 6424.40 6502.71 89.30
2365 11.1107 6262.20 6502.66 87.00
2366 11.1145 6478.50 6502.60 87.80
2367 11.1182 6395.30 6502.54 88.00
2368 11.1220 6415.90 6502.47 87.10
2369 11.1257 6288.20 6502.41 84.30
2370 11.1295 6439.10 6502.35 89.60
2371 11.1332 6321.60 6502.28 87.40
2372 11.1370 6369.50 6502.21 87.30
2373 11.1408 6551.50 6502.14 89.60
2374 11.1445 6491.00 6502.06 89.20
2375 11.1483 6429.40 6501.99 88.10
2376 11.1520 6585.40 6501.91 88.60
2377 11.1558 6378.70 6501.83 87.50
2378 11.1595 6428.80 6501.75 87.40
2379 11.1633 6435.20 6501.67 88.70
2380 11.1671 6373.00 6501.58 87.10
2381 11.1708 6229.50 6501.49 87.60
2382 11.1746 6418.60 6501.41 87.90
2383 11.1783 6438.30 6501.31 88.50
2384 11.1821 6500.00 6501.22 88.80
2385 11.1859 6246.40 6501.13 86.80
2386 11.1896 6446.00 6501.03 88.70
2387 11.1934 6435.80 6500.93 87.30
2388 11.1971 6461.00 6500.83 89.10
2389 11.2009 6375.90 6500.73 88.00
2390 11.2046 6496.80 6500.62 89.00
2391 11.2084 6165.80 6500.52 85.20
2392 11.2121 6402.50 6500.41 88.00
2393 11.2159 6313.20 6500.30 87.70
2394 11.2197 6466.40 6500.19 88.20
2395 11.2234 6277.30 6500.07 86.80
2396 11.2272 6433.20 6499.96 87.80
2397 11.2309 6319.90 6499.84 87.40
2398 11.2347 6412.50 6499.72 87.90
2399 11.2385 6277.90 6499.60 87.90
2400 11.2422 6484.10 6499.47 89.90
2401 11.2460 6452.10 6499.35 88.00
2402 11.2497 6494.40 6499.22 89.30
2403 11.2535 6136.60 6499.09 86.20
2404 11.2572 6474.10 6498.96 89.30
2405 11.2610 6327.80 6498.83 88.10
2406 11.2648 6484.10 6498.69 89.20
2407 11.2685 6287.80 6498.55 88.20
2408 11.2723 6538.40 6498.41 90.10
2409 11.2760 6327.20 6498.27 87.40
2410 11.2798 6476.10 6498.13 89.00
2411 11.2836 6315.80 6497.98 87.20
2412 11.2873 6465.20 6497.83 88.50
2413 11.2911 6285.90 6497.68 87.90
2414 11.2948 6539.60 6497.53 89.80
2415 11.2986 6339.40 6497.38 87.70
2416 11.3023 6506.20 6497.22 88.50
2417 11.3061 6236.20 6497.07 87.60
2418 11.3098 6524.00 6496.91 89.20
2419 11.3136 6307.00 6496.75 87.70
2420 11.3174 6595.50 6496.58 90.90
2421 11.3211 6320.60 6496.42 88.30
2422 11.3249 6547.30 6496.25 89.50
2423 11.3286 6304.20 6496.08 88.10
2424 11.3324 6562.60 6495.91 89.70
2425 11.3362 6390.40 6495.74 88.60
2426 11.3399 6529.90 6495.56 88.10
2427 11.3437 6347.70 6495.38 87.70
2428 11.3474 6513.80 6495.20 89.20
2429 11.3512 6392.80 6495.02 89.00
2430 11.3549 6432.50 6494.84 88.40
2431 11.3587 6407.60 6494.65 88.30
2432 11.3624 6471.60 6494.47 89.30
2433 11.3662 6511.90 6494.28 88.60
2434 11.3700 6326.90 6494.09 88.20
2435 11.3737 6303.60 6493.89 87.50
2436 11.3775 6516.20 6493.70 88.40
2437 11.3812 6274.90 6493.50 87.50
2438 11.3850 6485.70 6493.30 88.30
2439 11.3888 6293.10 6493.10 87.30
2440 11.3925 6315.00 6492.90 87.10
2441 11.3963 6425.70 6492.69 89.50
2442 11.4000 6424.90 6492.48 86.50
2443 11.4038 6294.60 6492.27 87.90
2444 11.4075 6401.60 6492.06 87.90
2445 11.4113 6346.40 6491.85 88.00
2446 11.4150 6391.50 6491.63 88.40
2447 11.4188 6264.00 6491.41 88.30
2448 11.4226 6349.80 6491.19 87.50
2449 11.4263 6388.40 6490.97 89.00
2450 11.4301 6488.90 6490.75 88.80
2451 11.4338 6256.10 6490.52 87.20
2452 11.4376 6336.20 6490.30 87.40
2453 11.4413 6210.80 6490.07 86.30
2454 11.4451 6563.70 6489.83 90.20
2455 11.4489 6359.80 6489.60 87.70
2456 11.4526 6400.60 6489.36 88.00
2457 11.4564 6338.80 6489.13 87.40
2458 11.4601 6413.10 6488.89 88.50
2459 11.4639 6414.00 6488.64 88.10
2460 11.4676 6386.60 6488.40 88.50
2461 11.4714 6302.00 6488.15 88.50
2462 11.4752 6554.60 6487.91 90.20
2463 11.4789 6273.40 6487.66 88.40
2464 11.4827 6533.10 6487.40 88.50
2465 11.4864 6374.50 6487.15 88.70
2466 11.4902 6298.60 6486.89 87.70
2467 11.4939 6366.60 6486.63 88.40
2468 11.4977 6443.60 6486.37 85.60
2469 11.5014 6231.60 6486.11 88.50
2470 11.5052 6557.70 6485.85 88.00
2471 11.5090 6346.70 6485.58 88.20
2472 11.5127 6393.70 6485.31 89.70
2473 11.5165 6297.90 6485.04 88.10
2474 11.5202 6581.10 6484.77 90.30
2475 11.5240 6318.10 6484.49 95.70
2476 11.5278 6331.10 6484.22 85.70
2477 11.5315 6299.70 6483.94 85.40
2478 11.5353 6465.90 6483.66 87.90
2479 11.5390 6208.90 6483.37 84.10
2480 11.5428 6504.40 6483.09 88.40
2481 11.5465 6507.00 6482.80 86.30
2482 11.5503 6330.30 6482.51 86.90
2483 11.5540 6252.80 6482.22 85.10
2484 11.5578 6442.00 6481.93 85.70
2485 11.5616 6343.40 6481.63 85.40
2486 11.5653 6418.10 6481.33 87.50
2487 11.5691 6354.50 6481.03 85.10
2488 11.5728 6374.20 6480.73 85.40
2489 11.5766 6428.10 6480.43 86.80
2490 11.5803 6342.00 6480.12 86.80
2491 11.5841 6222.40 6479.82 85.50
2492 11.5878 6525.30 6479.51 87.10
2493 11.5916 6150.70 6479.19 85.00
2494 11.5954 6380.20 6478.88 86.90
2495 11.5991 6526.40 6478.56 87.70
2496 11.6029 6619.00 6478.25 87.60
2497 11.6066 6286.50 6477.92 85.40
2498 11.6104 6496.80 6477.60 88.20
2499 11.6141 6360.20 6477.28 87.20
2500 11.6179 6436.30 6476.95 85.90
2501 11.6216 6327.40 6476.62 85.50
2502 11.6254 6449.10 6476.29 87.30
2503 11.6292 6235.80 6475.96 85.50
2504 11.6329 6498.00 6475.62 87.20
2505 11.6367 6428.20 6475.29 87.10
2506 11.6404 6557.00 6474.95 88.40
2507 11.6442 6243.60 6474.61 86.00
2508 11.6479 6612.30 6474.26 88.70
2509 11.6517 6333.90 6473.92 86.50
2510 11.6555 6450.30 6473.57 86.80
2511 11.6592 6446.60 6473.22 86.70
2512 11.6630 6588.80 6472.87 89.30
2513 11.6667 6392.80 6472.52 87.40
2514 11.6705 6474.30 6472.16 87.70
2515 11.6742 6313.50 6471.80 86.20
2516 11.6780 6504.80 6471.44 87.80
2517 11.6818 6406.00 6471.08 87.60
2518 11.6855 6532.50 6470.72 88.30
2519 11.6893 6481.60 6470.35 87.80
2520 11.6930 6494.40 6469.98 87.50
2521 11.6968 6330.80 6469.61 86.50
2522 11.7005 6485.30 6469.24 87.30
2523 11.7043 6448.90 6468.86 87.60
2524 11.7080 6381.20 6468.49 86.80
2525 11.7118 6396.00 6468.11 87.30
2526 11.7156 6426.30 6467.73 87.30
2527 11.7193 6394.30 6467.34 87.90
2528 11.7231 6444.20 6466.96 87.00
2529 11.7268 6437.40 6466.57 87.70
2530 11.7306 6455.30 6466.18 87.40
2531 11.7343 6332.90 6465.79 85.90
2532 11.7381 6435.60 6465.40 87.30
2533 11.7418 6474.80 6465.00 87.50
2534 11.7456 6575.70 6464.60 88.70
2535 11.7493 6376.90 6464.20 86.40
2536 11.7531 6484.30 6463.80 86.70
2537 11.7569 6373.30 6463.40 87.00
2538 11.7606 6428.30 6462.99 86.50
2539 11.7644 6251.90 6462.58 85.70
2540 11.7681 6588.80 6462.17 88.40
2541 11.7719 6456.00 6461.76 88.00
2542 11.7756 6429.50 6461.34 87.10
2543 11.7794 6480.10 6460.93 86.40
2544 11.7831 6439.80 6460.51 87.80
2545 11.7869 6438.90 6460.09 86.80
2546 11.7907 6433.70 6459.67 87.10
2547 11.7944 6304.10 6459.24 86.50
2548 11.7982 6493.80 6458.81 87.10
2549 11.8019 6431.30 6458.38 87.80
2550 11.8057 6297.60 6457.95 86.00
2551 11.8094 6331.30 6457.52 85.90
2552 11.8132 6274.70 6457.08 84.90
2553 11.8169 6214.00 6456.64 85.50
2554 11.8207 6592.90 6456.20 87.80
2555 11.8244 6487.40 6455.76 87.50
2556 11.8282 6479.00 6455.32 87.00
2557 11.8320 6371.00 6454.87 86.30
2558 11.8357 6365.30 6454.42 86.70
2559 11.8395 6364.60 6453.97 86.60
2560 11.8432 6345.30 6453.52 87.20
2561 11.8470 6385.40 6453.06 86.30
2562 11.8507 6529.10 6452.61 87.60
2563 11.8545 6343.00 6452.15 86.20
2564 11.8582 6363.70 6451.69 86.60
2565 11.8620 6333.80 6451.22 86.40
2566 11.8658 6751.40 6450.76 89.80
2567 11.8695 6254.00 6450.29 85.70
2568 11.8733 6349.80 6449.82 86.30
2569 11.8770 6334.30 6449.35 86.40
2570 11.8808 6483.80 6448.87 87.70
2571 11.8845 6301.30 6448.40 86.60
2572 11.8883 6532.30 6447.92 87.70
2573 11.8920 6460.30 6447.44 88.20
2574 11.8958 6386.40 6446.96 86.50
2575 11.8996 6347.90 6446.47 86.20
2576 11.9033 6412.00 6445.98 87.50
2577 11.9071 6401.60 6445.50 87.70
2578 11.9108 6479.30 6445.00 86.60
2579 11.9146 6430.80 6444.51 88.30
2580 11.9183 6426.80 6444.02 86.80
2581 11.9221 6249.10 6443.52 84.90
2582 11.9258 6442.80 6443.02 87.00
2583 11.9296 6207.00 6442.52 86.40
2584 11.9333 6431.40 6522.64 86.90
2585 11.9371 6477.40 6527.05 87.70
2586 11.9409 6440.90 6531.94 87.20
2587 11.9446 6468.10 6537.35 87.00
2588 11.9483 6531.40 6543.34 88.20
2589 11.9521 6460.50 6550.03 86.80
2590 11.9559 6536.80 6557.48 88.20
2591 11.9596 6481.60 6565.84 87.50
2592 11.9634 6410.70 6575.20 86.60
2593 11.9671 6396.50 6585.75 86.80
2594 11.9709 6472.40 6597.73 86.90
2595 11.9746 6421.10 6611.30 87.20
2596 11.9784 6489.50 6626.86 87.90
2597 11.9821 6385.30 6644.67 86.40
2598 11.9859 6625.10 6665.32 87.70
2599 11.9880 6471.40 6678.26 85.80
2600 11.9918 6554.20 6704.46 90.90
2601 11.9955 6506.00 6735.19 87.70
2602 11.9993 6455.30 6771.75 89.00
2603 12.0030 6759.00 6815.53 92.50
2604 12.0068 6533.30 6868.38 89.90
2605 12.0105 6805.00 6933.33 91.90
2606 12.0143 6803.90 7013.77 99.60
2607 12.0181 6817.20 7115.55 89.20
2608 12.0218 6796.90 7246.39 89.00
2609 12.0256 7199.20 7417.73 93.10
2610 12.0293 7054.70 7648.95 90.10
2611 12.0331 7583.70 7970.76 96.00
2612 12.0368 8094.40 8439.82 97.20
2613 12.0406 8780.70 9187.18 103.80
2614 12.0443 10355.90 10512.20 112.00
2615 12.0481 15167.30 13045.70 137.20
2616 12.0519 24228.70 17690.00 179.90
2617 12.0556 33337.00 24908.60 220.30
2618 12.0594 35040.50 32294.90 221.80
2619 12.0631 31965.60 32341.00 210.60
2620 12.0669 24832.10 25004.10 184.10
2621 12.0706 17026.40 17743.10 149.60
2622 12.0744 11370.60 13074.00 118.90
2623 12.0781 9171.00 10528.80 104.80
2624 12.0819 8189.30 9189.72 99.30
2625 12.0857 7758.50 8439.24 96.70
2626 12.0894 7101.40 7965.74 91.80
2627 12.0932 6998.90 7641.77 90.20
2628 12.0969 7054.80 7409.10 90.90
2629 12.1007 6969.70 7235.70 91.60
2630 12.1044 6695.10 7103.69 89.70
2631 12.1082 6728.00 7000.45 88.00
2632 12.1120 6662.10 6918.43 88.00
2633 12.1157 6542.70 6852.37 87.90
2634 12.1195 6608.50 6798.11 88.30
2635 12.1232 6639.00 6753.19 88.20
2636 12.1270 6510.70 6715.41 87.70
2637 12.1307 6603.20 6683.37 88.70
2638 12.1345 6568.60 6656.05 88.30
2639 12.1383 6695.30 6632.41 89.30
2640 12.1420 6515.20 6611.92 87.80
2641 12.1458 6505.40 6593.94 87.20
2642 12.1495 6429.00 6578.10 86.60
2643 12.1533 6510.50 6564.11 88.70
2644 12.1570 6386.80 6551.60 87.30
2645 12.1608 6346.10 6540.43 86.80
2646 12.1645 6499.40 6530.35 87.60
2647 12.1683 6535.70 6521.26 88.00
2648 12.1721 6430.30 6512.98 87.80
2649 12.1758 6539.50 6505.44 88.40
2650 12.1796 6374.40 6498.56 87.00
2651 12.1833 6528.20 6492.22 87.80
2652 12.1871 6484.40 6486.39 87.60
2653 12.1908 6485.30 6402.37 87.30
2654 12.1946 6403.70 6401.72 87.30
2655 12.1983 6546.60 6401.06 88.00
2656 12.2021 6281.50 6400.40 86.40
2657 12.2058 6389.30 6399.75 87.00
2658 12.2096 6414.70 6399.08 88.00
2659 12.2134 6577.00 6398.42 88.00
2660 12.2171 6319.50 6397.75 86.90
2661 12.2176 6371.40 6397.68 86.10
2662 12.2213 6491.40 6397.01 85.60
2663 12.2251 6324.70 6396.34 85.70
2664 12.2288 6648.80 6395.67 89.00
2665 12.2326 6424.30 6394.99 86.80
2666 12.2363 6394.80 6394.32 86.70
2667 12.2401 6235.90 6393.64 85.40
2668 12.2438 6329.90 6392.96 86.60
2669 12.2476 6359.20 6392.28 86.60
2670 12.2514 6460.20 6391.59 86.40
2671 12.2551 6356.00 6390.90 86.80
2672 12.2589 6490.20 6390.22 87.20
2673 12.2626 6353.40 6389.52 85.70
2674 12.2664 6498.00 6388.83 88.50
2675 12.2701 6307.60 6388.14 85.30
2676 12.2739 6487.50 6387.44 87.70
2677 12.2776 6391.80 6386.74 86.70
2678 12.2814 6497.20 6386.04 87.40
2679 12.2851 6256.80 6385.33 85.30
2680 12.2889 6460.30 6384.63 84.50
2681 12.2927 6380.30 6383.92 86.70
2682 12.2964 6474.00 6383.21 87.40
2683 12.3002 6358.90 6382.50 86.90
2684 12.3039 6498.00 6381.78 88.70
2685 12.3077 6309.20 6381.06 86.00
2686 12.3114 6552.90 6380.35 87.50
2687 12.3152 6353.20 6379.62 86.70
2688 12.3189 6364.70 6378.90 86.40
2689 12.3227 6327.10 6378.18 85.70
2690 12.3265 6606.60 6377.45 88.00
2691 12.3302 6448.90 6376.72 88.40
2692 12.3340 6449.70 6375.99 87.40
2693 12.3377 6442.90 6375.25 88.30
2694 12.3415 6495.20 6374.52 86.50
2695 12.3452 6338.20 6373.78 86.30
2696 12.3490 6536.80 6373.04 88.20
2697 12.3527 6242.50 6372.30 86.20
2698 12.3565 6499.90 6371.56 87.40
2699 12.3603 6386.80 6370.81 86.30
2700 12.3640 6367.70 6370.06 86.80
2701 12.3678 6195.30 6369.31 85.30
2702 12.3715 6328.30 6368.56 84.30
2703 12.3753 6363.00 6367.80 86.50
2704 12.3790 6646.50 6367.05 88.30
2705 12.3828 6423.50 6366.29 87.00
2706 12.3865 6385.80 6365.53 87.30
2707 12.3903 6301.80 6364.76 86.10
2708 12.3940 6558.90 6364.00 87.30
2709 12.3978 6374.90 6363.23 86.70
2710 12.4016 6431.20 6362.46 86.90
2711 12.4053 6527.30 6361.69 88.10
2712 12.4091 6506.50 6360.91 88.40
2713 12.4128 6296.90 6360.14 85.80
2714 12.4166 6402.40 6359.36 86.30
2715 12.4203 6456.10 6358.58 87.70
2716 12.4241 6555.60 6357.79 87.70
2717 12.4278 6506.00 6357.01 87.80
2718 12.4316 6562.60 6356.22 88.20
2719 12.4354 6457.20 6355.43 87.20
2720 12.4391 6357.30 6354.64 86.60
2721 12.4429 6389.80 6353.85 87.20
2722 12.4466 6480.20 6353.06 87.10
2723 12.4504 6291.90 6352.26 85.00
2724 12.4541 6601.90 6351.46 88.20
2725 12.4579 6335.50 6350.66 86.60
2726 12.4616 6590.40 6349.85 88.30
2727 12.4654 6370.90 6349.05 86.70
2728 12.4692 6517.00 6348.24 88.30
2729 12.4729 6256.90 6347.43 86.70
2730 12.4767 6449.30 6346.62 87.60
2731 12.4804 6346.50 6345.81 86.30
2732 12.4842 6699.10 6344.99 88.50
2733 12.4879 6204.70 6344.17 86.20
2734 12.4917 6602.20 6343.35 88.90
2735 12.4955 6270.50 6342.53 86.20
2736 12.4992 6641.10 6341.70 88.50
2737 12.5030 6474.80 6340.88 88.70
2738 12.5067 6594.10 6340.05 89.70
2739 12.5105 6340.00 6339.22 86.50
2740 12.5142 6505.80 6338.38 88.60
2741 12.5180 6259.50 6337.55 85.90
2742 12.5217 6366.80 6336.71 86.80
2743 12.5255 6402.60 6335.87 87.60
2744 12.5293 6511.20 6335.03 87.70
2745 12.5330 6290.10 6334.19 86.90
2746 12.5368 6293.40 6333.34 85.80
2747 12.5405 6321.90 6332.49 87.00
2748 12.5443 6502.30 6331.64 88.20
2749 12.5480 6477.10 6330.79 88.00
2750 12.5518 6332.90 6329.94 87.20
2751 12.5555 6375.80 6329.08 87.70
2752 12.5593 6412.80 6328.22 87.40
2753 12.5631 6115.80 6327.36 85.10
2754 12.5668 6573.50 6326.50 88.70
2755 12.5706 6348.40 6325.64 87.30
2756 12.5743 6517.90 6324.77 88.50
2757 12.5781 6275.80 6323.90 86.40
2758 12.5818 6601.50 6323.03 89.40
2759 12.5856 6237.00 6322.16 86.30
2760 12.5893 6326.40 6321.28 86.60
2761 12.5931 6380.00 6320.40 87.40
2762 12.5969 6469.20 6319.52 88.00
2763 12.6006 6243.70 6318.65 86.20
2764 12.6044 6378.30 6317.76 86.80
2765 12.6081 6432.80 6316.88 87.90
2766 12.6119 6465.90 6315.99 87.40
2767 12.6157 6385.30 6315.10 87.20
2768 12.6194 6454.00 6314.21 87.80
2769 12.6232 6256.50 6313.31 86.00
2770 12.6269 6433.30 6312.42 88.30
2771 12.6307 6330.80 6311.52 87.00
2772 12.6344 6442.90 6310.62 88.00
2773 12.6382 6363.70 6309.72 86.90
2774 12.6419 6467.60 6308.82 87.90
2775 12.6457 6236.40 6307.91 86.60
2776 12.6495 6490.00 6307.00 87.90
2777 12.6532 6297.10 6306.09 87.00
2778 12.6570 6408.90 6305.18 87.20
2779 12.6607 6344.10 6304.26 86.10
2780 12.6645 6424.30 6303.35 86.80
2781 12.6682 6232.10 6302.43 85.00
2782 12.6720 6477.00 6301.51 87.50
2783 12.6757 6176.40 6300.59 85.60
2784 12.6795 6553.50 6299.66 89.20
2785 12.6833 6247.00 6298.73 85.20
2786 12.6870 6366.80 6297.81 85.90
2787 12.6908 6226.40 6296.88 87.60
2788 12.6945 6466.10 6295.94 87.70
2789 12.6983 6358.60 6295.01 86.40
2790 12.7021 6341.10 6294.07 86.60
2791 12.7058 6325.90 6293.13 87.30
2792 12.7096 6441.00 6292.19 87.40
2793 12.7133 6281.20 6291.25 87.20
2794 12.7171 6457.00 6290.30 88.10
2795 12.7208 6267.20 6289.35 85.80
2796 12.7246 6553.70 6288.40 89.60
2797 12.7283 6270.90 6287.45 85.00
2798 12.7321 6368.50 6286.50 87.40
2799 12.7359 6338.90 6285.54 87.60
2800 12.7396 6538.00 6284.59 89.90
2801 12.7434 6372.20 6283.63 88.00
2802 12.7471 6388.30 6282.66 86.60
2803 12.7509 6403.70 6281.70 88.70
2804 12.7547 6508.20 6280.74 88.80
2805 12.7584 6546.80 6279.77 89.20
2806 12.7622 6467.00 6278.80 88.60
2807 12.7659 6235.10 6277.83 86.10
2808 12.7697 6569.60 6276.85 89.90
2809 12.7734 6353.20 6275.88 87.40
2810 12.7772 6305.70 6274.90 85.30
2811 12.7809 6352.40 6273.92 86.90
2812 12.7847 6358.60 6272.94 88.00
2813 12.7885 6371.60 6271.95 86.30
2814 12.7922 6561.80 6270.97 88.70
2815 12.7960 6192.90 6269.98 84.50
2816 12.7997 6385.40 6268.99 88.30
2817 12.8035 6462.30 6268.00 88.80
2818 12.8073 6364.90 6267.00 87.60
2819 12.8110 6201.90 6266.00 85.90
2820 12.8148 6303.80 6265.01 87.20
2821 12.8185 6367.90 6264.01 86.90
2822 12.8223 6414.40 6263.00 88.20
2823 12.8260 6258.20 6262.00 87.10
2824 12.8298 6266.50 6260.99 86.60
2825 12.8336 6277.30 6259.99 87.20
2826 12.8373 6257.10 6258.97 87.70
2827 12.8411 6203.80 6257.96 87.20
2828 12.8448 6487.40 6256.95 88.70
2829 12.8486 6379.10 6255.93 86.60
2830 12.8523 6338.70 6254.91 87.90
2831 12.8561 6166.80 6253.89 86.10
2832 12.8598 6432.10 6252.87 88.40
2833 12.8636 6213.90 6251.85 85.60
2834 12.8674 6380.80 6250.82 87.90
2835 12.8711 6215.60 6249.79 86.00
2836 12.8749 6364.10 6248.76 87.70
2837 12.8786 6202.50 6247.73 86.20
2838 12.8824 6556.20 6246.69 88.90
2839 12.8862 6358.10 6245.66 88.20
2840 12.8899 6396.70 6244.62 87.80
2841 12.8937 6473.20 6243.58 88.60
2842 12.8974 6612.60 6242.53 90.10
2843 12.9012 6189.70 6241.49 86.40
2844 12.9050 6401.40 6240.44 87.70
2845 12.9087 6147.80 6239.40 85.00
2846 12.9125 6309.40 6238.35 86.60
2847 12.9162 6394.10 6237.29 88.10
2848 12.9200 6383.80 6236.24 88.10
2849 12.9237 6215.40 6235.18 85.90
2850 12.9275 6507.60 6234.12 87.70
2851 12.9312 6218.20 6233.06 87.60
2852 12.9350 6337.40 6232.00 87.10
2853 12.9388 6358.40 6230.93 87.30
2854 12.9425 6527.70 6229.87 88.10
2855 12.9463 6409.50 6228.80 88.20
2856 12.9500 6337.70 6227.73 88.30
2857 12.9538 6245.30 6226.66 87.60
2858 12.9576 6225.70 6225.58 86.50
2859 12.9613 6181.80 6224.51 86.20
2860 12.9651 6399.50 6223.43 87.90
2861 12.9688 6405.30 6222.35 88.10
2862 12.9726 6269.60 6221.27 85.80
2863 12.9763 6328.70 6220.18 86.50
2864 12.9801 6393.90 6219.10 87.50
2865 12.9839 6277.30 6218.01 86.10
2866 12.9876 6202.20 6216.92 86.20
2867 12.9914 6278.70 6215.83 86.70
2868 12.9951 6376.00 6214.73 87.10
2869 12.9989 6086.20 6213.64 84.80
2870 13.0027 6509.40 6212.54 87.60
2871 13.0064 6262.60 6211.44 85.20
2872 13.0102 6282.10 6210.34 84.00
2873 13.0139 6177.40 6209.23 85.80
2874 13.0177 6405.70 6208.13 87.80
2875 13.0214 6323.80 6207.02 88.50
2876 13.0252 6391.00 6205.91 86.40
2877 13.0290 6194.40 6204.80 85.60
2878 13.0327 6399.80 6203.69 86.70
2879 13.0365 6281.50 6202.57 85.70
2880 13.0402 6326.10 6201.45 85.40
2881 13.0440 6157.00 6200.33 85.50
2882 13.0478 6345.60 6199.21 87.10
2883 13.0515 6181.00 6198.09 85.30
2884 13.0553 6356.90 6196.96 86.90
2885 13.0590 6189.30 6195.84 86.20
2886 13.0628 6393.30 6194.71 87.40
2887 13.0665 6289.60 6193.58 87.00
2888 13.0703 6328.90 6192.44 86.90
2889 13.0741 6289.80 6191.31 87.30
2890 13.0778 6307.60 6190.17 88.00
2891 13.0816 6207.00 6189.04 87.40
2892 13.0853 6301.50 6187.89 87.30
2893 13.0891 6190.90 6186.75 85.70
2894 13.0928 6330.60 6185.61 87.40
2895 13.0966 6092.10 6184.46 86.30
2896 13.1004 6329.60 6183.31 87.90
2897 13.1041 6165.80 6182.16 86.00
2898 13.1079 6255.00 6181.01 86.60
2899 13.1116 6188.30 6179.86 85.80
2900 13.1154 6122.50 6178.70 87.00
2901 13.1192 6308.60 6177.54 87.30
2902 13.1229 6416.10 6176.38 88.10
2903 13.1267 6144.60 6175.22 85.80
2904 13.1304 6392.40 6174.06 87.50
2905 13.1342 6205.20 6172.89 86.00
2906 13.1379 6266.80 6171.72 87.00
2907 13.1417 6262.00 6170.55 86.60
2908 13.1455 6241.10 6169.38 86.50
2909 13.1492 6309.80 6168.21 86.90
2910 13.1530 6303.60 6167.03 86.40
2911 13.1567 6195.70 6165.86 90.80
2912 13.1605 6371.10 6164.68 86.70
2913 13.1643 6353.80 6163.50 85.00
2914 13.1680 6238.70 6162.32 84.20
2915 13.1718 6189.60 6161.13 84.30
2916 13.1755 6263.00 6159.94 85.40
2917 13.1793 6291.30 6158.76 85.20
2918 13.1831 6364.30 6157.57 86.00
2919 13.1868 6243.00 6156.38 84.80
2920 13.1906 6357.50 6155.18 85.40
2921 13.1943 6499.10 6153.98 85.80
2922 13.1981 6488.30 6152.79 86.20
2923 13.2018 6246.10 6151.59 84.70
2924 13.2056 6328.60 6150.39 84.80
2925 13.2094 6209.20 6149.18 83.20
2926 13.2131 6306.70 6147.98 85.10
2927 13.2169 6150.60 6146.77 83.70
2928 13.2206 6341.80 6145.56 85.20
2929 13.2244 6283.90 6144.35 85.30
2930 13.2282 6170.80 6143.14 84.30
2931 13.2319 6265.60 6141.92 85.10
2932 13.2357 6138.10 6140.71 83.40
2933 13.2394 6025.50 6139.49 82.40
2934 13.2432 6289.20 6138.27 85.10
2935 13.2470 5996.50 6137.05 83.60
2936 13.2507 6281.40 6135.82 85.60
2937 13.2545 6085.20 6134.60 83.70
2938 13.2582 6311.60 6133.37 85.70
2939 13.2620 6104.20 6132.14 84.10
2940 13.2657 6225.00 6130.91 84.90
2941 13.2695 6117.10 6129.68 82.80
2942 13.2733 6332.10 6128.44 85.20
2943 13.2770 6140.70 6127.20 84.80
2944 13.2808 6516.70 6125.97 87.20
2945 13.2845 6266.40 6124.73 85.50
2946 13.2883 6220.90 6123.49 84.60
2947 13.2921 6059.90 6122.24 82.60
2948 13.2958 6406.60 6121.00 86.70
2949 13.2996 6125.90 6119.75 83.80
2950 13.3033 6328.00 6118.50 85.40
2951 13.3071 5979.50 6117.25 83.40
2952 13.3109 6238.00 6115.99 84.00
2953 13.3146 6230.00 6114.74 85.50
2954 13.3184 6391.90 6113.48 85.80
2955 13.3221 6124.90 6112.23 84.30
2956 13.3259 6317.50 6110.96 85.40
2957 13.3296 6161.30 6109.70 83.80
2958 13.3334 6200.00 6108.44 84.80
2959 13.3372 6201.60 6107.17 85.30
2960 13.3409 6356.40 6105.90 85.60
2961 13.3447 6293.20 6104.63 87.20
2962 13.3484 6176.60 6103.36 84.60
2963 13.3522 6038.00 6102.09 83.70
2964 13.3560 6376.50 6100.81 85.80
2965 13.3597 6188.30 6099.54 83.90
2966 13.3635 6058.40 6098.26 83.30
2967 13.3673 6170.90 6096.98 84.40
2968 13.3710 6319.90 6095.69 84.70
2969 13.3748 6292.50 6094.41 86.30
2970 13.3785 6267.20 6093.13 84.30
2971 13.3823 6217.00 6091.84 85.10
2972 13.3860 6162.70 6090.55 85.40
2973 13.3898 5928.30 6089.26 82.50
2974 13.3936 6292.40 6087.97 84.00
2975 13.3973 6057.20 6086.67 83.90
2976 13.4011 6335.40 6085.38 85.90
2977 13.4048 6233.20 6084.08 85.90
2978 13.4086 6269.20 6082.78 85.90
2979 13.4124 6192.50 6081.48 86.30
2980 13.4161 6347.40 6080.17 86.60
2981 13.4199 6190.80 6078.87 85.30
2982 13.4236 6303.80 6077.56 85.20
2983 13.4274 6191.40 6076.25 85.20
2984 13.4312 6265.00 6074.94 85.60
2985 13.4349 6157.80 6073.63 84.30
2986 13.4387 6204.90 6072.32 85.80
2987 13.4424 6078.50 6071.00 83.60
2988 13.4462 6322.40 6069.68 86.30
2989 13.4500 5996.20 6068.36 83.40
2990 13.4537 6347.10 6067.04 85.60
2991 13.4575 6160.40 6065.72 85.00
2992 13.4612 6225.10 6064.39 85.50
2993 13.4650 6152.70 6063.07 83.80
2994 13.4688 6394.50 6061.74 86.80
2995 13.4725 6181.00 6060.41 85.10
2996 13.4763 6056.50 6059.08 84.00
2997 13.4800 6144.70 6057.74 84.40
2998 13.4838 6162.60 6056.41 84.70
2999 13.4875 6077.60 6055.07 83.90
3000 13.4913 6179.20 6053.73 85.60
3001 13.4951 6128.10 6052.39 84.80
3002 13.4988 6211.90 6051.05 85.50
3003 13.5026 6082.50 6049.71 84.80
3004 13.5063 6272.10 6048.36 84.90
3005 13.5101 6201.80 6047.01 85.00
3006 13.5139 6065.40 6045.67 84.80
3007 13.5176 6146.90 6044.32 84.10
3008 13.5214 6177.30 6042.97 84.50
3009 13.5251 6028.50 6041.61 84.90
3010 13.5289 6269.20 6040.26 85.30
3011 13.5327 6092.50 6038.90 84.00
3012 13.5364 6143.00 6037.54 85.20
3013 13.5402 5973.20 6036.18 83.20
3014 13.5439 6367.80 6034.82 88.00
3015 13.5477 6157.80 6033.45 84.80
3016 13.5515 6188.30 6032.09 85.60
3017 13.5552 5918.20 6030.72 83.00
3018 13.5590 6169.30 6029.35 83.80
3019 13.5627 5932.00 6027.98 82.20
3020 13.5665 6163.70 6026.60 85.20
3021 13.5703 6183.50 6025.23 86.00
3022 13.5740 6070.90 6023.85 84.40
3023 13.5778 6107.40 6022.48 84.60
3024 13.5815 6117.80 6021.10 84.40
3025 13.5853 6031.50 6019.72 83.60
3026 13.5891 6192.10 6018.33 85.50
3027 13.5928 6143.10 6016.95 86.20
3028 13.5966 6002.90 6015.56 83.60
3029 13.6003 6168.40 6014.17 85.40
3030 13.6041 6259.90 6012.79 86.20
3031 13.6079 6060.20 6011.39 84.90
3032 13.6116 6197.10 6010.00 85.60
3033 13.6154 6171.20 6008.61 85.40
3034 13.6191 6254.80 6007.21 85.00
3035 13.6229 6068.10 6005.81 84.60
3036 13.6267 6170.90 6004.41 85.90
3037 13.6304 6007.50 6003.01 84.50
3038 13.6342 6233.60 6001.61 86.00
3039 13.6379 6068.30 6000.21 85.10
3040 13.6417 6066.30 5998.80 85.00
3041 13.6455 6036.90 5997.39 85.30
3042 13.6492 6213.10 5995.98 85.90
3043 13.6530 6154.30 5994.57 85.40
3044 13.6567 6349.90 5993.16 86.90
3045 13.6605 6098.90 5991.75 85.30
3046 13.6643 6282.10 5990.33 86.80
3047 13.6680 6093.50 5988.91 85.40
3048 13.6718 6141.70 5987.49 86.40
3049 13.6755 6123.70 5986.07 85.60
3050 13.6793 6202.80 5984.65 86.40
3051 13.6831 5969.00 5983.23 84.80
3052 13.6868 6125.70 5981.80 85.40
3053 13.6906 6178.20 5980.37 86.20
3054 13.6943 6131.90 5978.94 84.80
3055 13.6981 5993.60 5977.51 84.40
3056 13.7019 6190.40 5976.08 86.50
3057 13.7056 5974.50 5974.65 83.10
3058 13.7094 5938.90 5973.21 85.40
3059 13.7131 5916.00 5971.78 84.00
3060 13.7169 6106.30 5970.34 85.20
3061 13.7207 6148.70 5968.90 86.60
3062 13.7244 6186.30 5967.46 85.60
3063 13.7282 5970.80 5966.01 85.30
3064 13.7319 6258.70 5964.57 88.50
3065 13.7357 6126.40 5963.12 86.30
3066 13.7395 6066.50 5961.67 86.00
3067 13.7432 6079.70 5960.22 85.80
3068 13.7470 6192.80 5958.77 86.10
3069 13.7507 6112.50 5957.32 85.60
3070 13.7545 6034.50 5955.87 84.90
3071 13.7583 6032.90 5954.41 85.00
3072 13.7620 6044.80 5952.95 85.80
3073 13.7658 6093.10 5951.49 84.20
3074 13.7695 6145.30 5950.03 84.70
3075 13.7733 6080.50 5948.57 86.20
3076 13.7771 6182.90 5947.11 87.40
3077 13.7808 6141.70 5945.64 86.00
3078 13.7846 6121.90 5944.17 84.50
3079 13.7883 6097.30 5942.71 85.80
3080 13.7921 6064.50 5941.24 86.10
3081 13.7959 6068.50 5939.76 85.30
3082 13.7996 6073.60 5938.29 84.80
3083 13.8034 6026.90 5936.82 86.40
3084 13.8071 6099.90 5935.34 87.10
3085 13.8109 6053.90 5933.86 85.00
3086 13.8147 6077.10 5932.38 86.80
3087 13.8184 5920.60 5930.90 84.50
3088 13.8222 5984.00 5929.42 85.20
3089 13.8259 6036.80 5927.93 85.60
3090 13.8297 6121.60 5926.45 85.90
3091 13.8335 5974.30 5924.96 85.40
3092 13.8372 6088.90 5923.47 85.70
3093 13.8410 5958.00 5921.98 85.90
3094 13.8448 6076.10 5920.49 86.10
3095 13.8485 5933.20 5919.00 84.40
3096 13.8523 6067.00 5917.50 85.20
3097 13.8560 6007.70 5916.01 85.10
3098 13.8598 6145.60 5914.51 86.70
3099 13.8636 5976.30 5913.01 86.60
3100 13.8673 5987.40 5911.51 84.30
3101 13.8711 5820.50 5910.01 84.10
3102 13.8748 6131.90 5908.51 86.50
3103 13.8786 5981.50 5907.00 85.20
3104 13.8823 6101.70 5905.49 86.80
3105 13.8861 5950.20 5903.99 84.70
3106 13.8899 6045.90 5902.48 85.20
3107 13.8936 6005.60 5900.97 85.70
3108 13.8974 6121.30 5899.45 86.40
3109 13.9011 5798.60 5897.94 84.20
3110 13.9049 6141.30 5896.42 86.40
3111 13.9087 5959.10 5894.91 85.50
3112 13.9124 5994.20 5893.39 85.30
3113 13.9162 5942.00 5891.87 84.90
3114 13.9200 6036.70 5890.34 85.40
3115 13.9237 6028.60 5888.82 85.40
3116 13.9275 6127.90 5887.30 86.30
3117 13.9312 6012.20 5885.77 85.70
3118 13.9350 6151.10 5884.24 87.40
3119 13.9388 5783.10 5882.71 83.80
3120 13.9425 6113.20 5881.18 84.70
3121 13.9463 5989.90 5879.65 86.10
3122 13.9500 5960.50 5878.12 85.10
3123 13.9538 6063.70 5876.58 86.80
3124 13.9576 6042.60 5875.05 85.10
3125 13.9613 5935.70 5873.51 84.80
3126 13.9651 6085.50 5871.97 85.50
3127 13.9688 5982.20 5870.43 85.90
3128 13.9726 6136.20 5868.89 86.50
3129 13.9764 5874.90 5867.35 84.40
3130 13.9801 6070.20 5865.80 87.60
3131 13.9839 5907.90 5864.26 85.10
3132 13.9876 6096.40 5862.71 86.50
3133 13.9914 5912.60 5861.16 85.50
3134 13.9952 6081.70 5859.61 85.40
3135 13.9989 6014.80 5858.05 85.80
3136 14.0027 5889.60 5856.50 84.50
3137 14.0064 5930.80 5854.95 85.10
3138 14.0102 5997.60 5853.39 84.70
3139 14.0140 6040.80 5851.83 86.60
3140 14.0177 5946.00 5850.27 84.90
3141 14.0215 5881.60 5848.71 84.40
3142 14.0253 5867.10 5847.15 84.10
3143 14.0290 5945.70 5845.59 84.80
3144 14.0328 6083.20 5844.02 87.10
3145 14.0365 5908.30 5842.46 86.30
3146 14.0403 6114.40 5840.89 87.30
3147 14.0441 5823.70 5839.32 83.30
3148 14.0478 6061.30 5837.75 85.60
3149 14.0516 5844.40 5836.18 84.10
3150 14.0553 5994.30 5834.60 83.80
3151 14.0591 5883.20 5833.03 83.80
3152 14.0629 5909.70 5831.45 84.30
3153 14.0666 5761.20 5829.88 84.00
3154 14.0704 5975.90 5828.30 85.40
3155 14.0741 5841.10 5826.72 84.80
3156 14.0779 5996.60 5825.14 84.90
3157 14.0817 5765.20 5823.56 82.10
3158 14.0854 5974.60 5821.97 85.50
3159 14.0892 5956.90 5820.39 84.80
3160 14.0929 6038.10 5818.80 85.40
3161 14.0967 5817.50 5817.21 84.20
3162 14.1005 5917.80 5815.62 84.80
3163 14.1042 5907.20 5814.03 85.10
3164 14.1080 5907.10 5812.44 85.30
3165 14.1117 5826.10 5810.84 84.30
3166 14.1155 5990.60 5809.25 85.20
3167 14.1193 5989.30 5807.65 86.20
3168 14.1230 6028.20 5806.06 86.50
3169 14.1268 5861.70 5804.46 84.80
3170 14.1306 6028.50 5802.86 87.30
3171 14.1343 5949.10 5801.26 85.60
3172 14.1381 5906.30 5799.65 84.80
3173 14.1418 5830.10 5798.05 84.70
3174 14.1456 5684.40 5796.45 83.00
3175 14.1494 5955.20 5794.84 84.50
3176 14.1531 5917.30 5793.23 84.40
3177 14.1569 5989.60 5791.62 86.60
3178 14.1606 5976.60 5790.01 83.90
3179 14.1644 6020.80 5788.39 87.00
3180 14.1682 6071.00 5786.78 86.30
3181 14.1719 6077.60 5785.17 87.60
3182 14.1757 5921.80 5783.55 85.70
3183 14.1794 5996.40 5781.93 86.70
3184 14.1832 5960.00 5780.31 86.20
3185 14.1870 5746.80 5778.70 83.00
3186 14.1907 6056.20 5777.07 87.10
3187 14.1945 5841.50 5775.45 84.70
3188 14.1982 5834.70 5773.82 84.40
3189 14.2020 5807.00 5772.20 84.70
3190 14.2058 5955.80 5770.57 86.00
3191 14.2095 5878.30 5768.95 85.40
3192 14.2133 6014.30 5767.32 85.40
3193 14.2170 5653.00 5765.69 83.40
3194 14.2208 5820.20 5764.06 84.80
3195 14.2246 5796.70 5762.42 84.80
3196 14.2283 6049.90 5760.79 87.40
3197 14.2321 5775.20 5759.16 83.60
3198 14.2359 5989.30 5757.52 86.10
3199 14.2396 5789.90 5755.88 85.50
3200 14.2434 5988.80 5754.24 86.60
3201 14.2471 5828.20 5752.60 84.50
3202 14.2509 5938.90 5750.96 85.70
3203 14.2547 5947.60 5749.31 84.40
3204 14.2584 5794.30 5747.67 84.50
3205 14.2622 5762.70 5746.02 84.50
3206 14.2659 5786.50 5744.38 84.60
3207 14.2697 5928.70 5742.73 85.70
3208 14.2735 6001.40 5741.08 86.60
3209 14.2772 5895.50 5739.43 86.10
3210 14.2810 5855.80 5737.78 85.00
3211 14.2847 6091.00 5736.13 88.40
3212 14.2885 5897.30 5734.47 84.20
3213 14.2923 5736.40 5732.82 83.20
3214 14.2960 5933.50 5731.16 85.30
3215 14.2998 5801.90 5729.50 85.80
3216 14.3035 5991.80 5727.84 85.30
3217 14.3073 5735.90 5726.18 83.10
3218 14.3111 5948.30 5724.52 85.30
3219 14.3148 5729.20 5722.86 83.90
3220 14.3186 5950.20 5721.20 84.80
3221 14.3223 5642.70 5719.53 83.30
3222 14.3261 6011.30 5717.87 86.10
3223 14.3299 5866.80 5716.20 85.20
3224 14.3336 5848.20 5714.53 85.10
3225 14.3374 5820.80 5712.86 85.50
3226 14.3412 5824.10 5711.19 84.80
3227 14.3449 5687.10 5709.52 84.90
3228 14.3487 5899.80 5707.84 85.20
3229 14.3524 5907.80 5706.17 85.30
3230 14.3562 5835.60 5704.49 85.30
3231 14.3600 5742.30 5702.82 83.90
3232 14.3637 5793.90 5701.14 84.30
3233 14.3675 5815.60 5699.46 85.30
3234 14.3713 5917.70 5697.78 85.10
3235 14.3750 5866.70 5696.10 85.90
3236 14.3788 5817.60 5694.41 84.40
3237 14.3825 5754.40 5692.73 83.20
3238 14.3863 5770.70 5691.05 84.30
3239 14.3900 5743.40 5689.36 84.60
3240 14.3938 5689.60 5687.67 83.50
3241 14.3976 5653.60 5685.98 82.90
3242 14.4013 5758.30 5684.29 84.80
3243 14.4051 5587.60 5682.60 82.20
3244 14.4089 5873.80 5680.91 85.30
3245 14.4126 5794.40 5679.22 84.20
3246 14.4164 5804.10 5677.52 86.20
3247 14.4201 5744.70 5675.83 84.30
3248 14.4239 5809.90 5674.13 84.50
3249 14.4277 5754.80 5672.43 84.70
3250 14.4314 5807.50 5670.74 84.50
3251 14.4352 5619.90 5669.04 83.50
3252 14.4389 5737.10 5667.34 84.10
3253 14.4427 5854.60 5665.63 85.00
3254 14.4465 5868.30 5663.93 85.70
3255 14.4502 5853.00 5662.22 85.80
3256 14.4540 5819.30 5660.52 85.10
3257 14.4578 5779.00 5658.81 83.90
3258 14.4615 5674.30 5657.11 83.60
3259 14.4653 5566.30 5655.40 82.80
3260 14.4690 5839.00 5653.69 86.60
3261 14.4728 5786.70 5651.98 85.70
3262 14.4766 5929.60 5650.27 85.60
3263 14.4803 5695.60 5648.55 83.70
3264 14.4841 5758.20 5646.83 84.20
3265 14.4878 5823.20 5645.12 85.40
3266 14.4916 5820.90 5643.40 84.60
3267 14.4954 5609.10 5641.69 83.40
3268 14.4991 5847.20 5639.97 84.80
3269 14.5029 5579.80 5638.25 83.90
3270 14.5066 5866.00 5636.53 85.50
3271 14.5104 5586.60 5634.81 83.50
3272 14.5142 5696.50 5633.09 82.80
3273 14.5179 5650.50 5631.36 84.60
3274 14.5217 5939.30 5629.63 86.00
3275 14.5254 5687.80 5627.91 84.30
3276 14.5292 5639.60 5626.18 83.80
3277 14.5330 5703.50 5624.45 84.40
3278 14.5367 5862.00 5622.72 84.70
3279 14.5405 5764.40 5621.00 83.30
3280 14.5442 5797.50 5619.26 85.60
3281 14.5480 5725.80 5617.53 83.60
3282 14.5518 5932.30 5615.80 85.80
3283 14.5555 5769.60 5614.07 84.70
3284 14.5593 5824.00 5612.33 85.50
3285 14.5631 5925.30 5610.59 86.60
3286 14.5668 6117.10 5608.85 87.40
3287 14.5706 6075.30 5607.12 87.00
3288 14.5743 6242.70 5605.38 86.80
3289 14.5781 6005.60 5603.64 86.00
3290 14.5819 6030.50 5601.90 86.20
3291 14.5856 5914.40 5600.15 85.80
3292 14.5894 5905.60 5598.41 86.30
3293 14.5931 5692.30 5596.67 84.60
3294 14.5969 5871.40 5594.92 85.40
3295 14.6007 5747.00 5593.17 86.70
3296 14.6044 5997.30 5591.42 84.30
3297 14.6082 5612.70 5589.68 81.40
3298 14.6119 5803.60 5587.93 84.10
3299 14.6157 5793.10 5586.18 83.00
3300 14.6195 5699.00 5584.43 82.40
3301 14.6232 5653.10 5582.67 82.20
3302 14.6270 5792.60 5580.92 83.20
3303 14.6307 5675.80 5579.17 82.20
3304 14.6345 5858.80 5577.41 83.20
3305 14.6383 5733.40 5575.65 82.40
3306 14.6420 5701.10 5573.89 83.20
3307 14.6458 5675.30 5572.14 82.80
3308 14.6496 5721.70 5570.38 82.70
3309 14.6533 5577.50 5568.62 81.60
3310 14.6571 5756.00 5566.86 83.00
3311 14.6608 5634.40 5565.09 82.00
3312 14.6646 5688.90 5563.33 83.00
3313 14.6684 5575.70 5561.57 81.00
3314 14.6721 5843.70 5559.80 83.40
3315 14.6759 5674.20 5558.03 82.40
3316 14.6797 5772.80 5556.27 83.20
3317 14.6834 5560.30 5554.50 81.90
3318 14.6872 5607.00 5552.73 83.00
3319 14.6909 5511.80 5550.96 80.90
3320 14.6947 5636.80 5549.19 81.20
3321 14.6985 5719.10 5547.42 82.20
3322 14.7022 5863.50 5545.65 84.60
3323 14.7060 5796.70 5543.88 82.70
3324 14.7097 5769.90 5542.10 83.30
3325 14.7135 5706.10 5540.32 81.30
3326 14.7173 5662.60 5538.55 81.70
3327 14.7210 5692.90 5536.77 82.80
3328 14.7248 5896.40 5534.99 84.20
3329 14.7285 5382.60 5533.21 79.50
3330 14.7323 5656.10 5531.44 82.10
3331 14.7361 5793.80 5529.65 84.10
3332 14.7436 5579.70 5526.09 82.20
3333 14.7511 5597.70 5522.52 82.00
3334 14.7549 5633.00 5520.73 82.40
3335 14.7586 5587.00 5518.95 82.90
3336 14.7624 5660.30 5517.16 80.50
3337 14.7662 5532.30 5515.38 82.00
3338 14.7699 5447.40 5513.59 80.80
3339 14.7737 5594.50 5511.80 82.90
3340 14.7774 5622.30 5510.01 81.00
3341 14.7812 5542.70 5508.22 81.30
3342 14.7850 5488.80 5506.42 80.60
3343 14.7887 5484.00 5504.63 80.00
3344 14.7925 5732.60 5502.83 81.80
3345 14.7962 5523.40 5501.04 80.80
3346 14.8000 5522.00 5499.24 81.30
3347 14.8038 5556.60 5497.45 81.60
3348 14.8075 5572.10 5495.65 82.00
3349 14.8113 5592.10 5493.85 82.60
3350 14.8150 5599.00 5492.05 82.40
3351 14.8188 5466.00 5490.26 81.10
3352 14.8226 5619.40 5488.45 81.90
3353 14.8263 5445.80 5486.65 80.80
3354 14.8301 5570.00 5484.85 82.40
3355 14.8338 5418.30 5483.04 79.10
3356 14.8376 5753.80 5481.24 83.10
3357 14.8414 5442.90 5479.44 81.10
3358 14.8451 5670.80 5477.63 82.20
3359 14.8489 5447.10 5475.83 81.20
3360 14.8526 5665.90 5474.02 82.90
3361 14.8564 5592.90 5472.21 81.40
3362 14.8602 5542.60 5470.40 81.70
3363 14.8639 5585.70 5468.59 81.60
3364 14.8677 5525.00 5466.78 81.00
3365 14.8715 5529.00 5464.97 81.20
3366 14.8752 5683.40 5463.16 82.80
3367 14.8790 5531.20 5461.34 82.00
3368 14.8827 5453.10 5459.53 80.60
3369 14.8865 5643.40 5457.72 82.20
3370 14.8903 5542.10 5455.90 82.10
3371 14.8940 5683.10 5454.08 81.80
3372 14.8978 5643.10 5452.27 83.00
3373 14.9015 5738.50 5450.45 83.70
3374 14.9053 5623.00 5448.63 81.90
3375 14.9091 5699.40 5446.81 82.40
3376 14.9128 5663.40 5444.99 82.50
3377 14.9166 5818.50 5443.17 83.20
3378 14.9204 5983.80 5441.35 84.50
3379 14.9241 5945.70 5439.53 84.00
3380 14.9279 6045.80 5437.71 85.50
3381 14.9316 5977.70 5435.88 83.60
3382 14.9354 5943.10 5434.06 84.50
3383 14.9391 5920.40 5432.23 84.10
3384 14.9429 5885.40 5430.41 84.20
3385 14.9467 5702.10 5428.58 82.30
3386 14.9504 5471.50 5426.75 80.00
3387 14.9542 5419.80 5424.92 79.90
3388 14.9580 5641.00 5423.09 82.10
3389 14.9617 5433.50 5421.26 80.30
3390 14.9655 5419.50 5419.43 80.20
3391 14.9692 5541.10 5417.60 81.70
3392 14.9730 5708.70 5415.77 82.50
3393 14.9768 5338.40 5413.94 80.60
3394 14.9805 5565.00 5412.10 81.70
3395 14.9843 5542.50 5410.27 81.50
3396 14.9880 5468.40 5408.44 80.60
3397 14.9918 5517.30 5406.60 81.10
3398 14.9956 5448.60 5404.76 80.50
3399 14.9993 5479.90 5402.93 80.70
3400 15.0031 5484.90 5401.09 81.10
3401 15.0069 5496.20 5399.25 82.30
3402 15.0106 5635.50 5397.41 82.40
3403 15.0144 5527.50 5395.57 81.10
3404 15.0181 5743.10 5393.73 83.60
3405 15.0219 5542.90 5391.89 81.20
3406 15.0257 5572.40 5390.05 82.10
3407 15.0294 5534.20 5388.21 82.60
3408 15.0332 5337.60 5386.37 79.10
3409 15.0369 5607.70 5384.52 83.00
3410 15.0407 5622.40 5382.67 81.30
3411 15.0445 5440.20 5380.83 80.80
3412 15.0482 5524.70 5378.98 81.10
3413 15.0520 5445.20 5377.14 80.60
3414 15.0557 5457.80 5375.29 80.60
3415 15.0595 5325.60 5373.44 79.60
3416 15.0633 5498.60 5371.59 81.50
3417 15.0670 5364.30 5369.75 79.50
3418 15.0708 5421.80 5367.90 81.00
3419 15.0745 5445.30 5366.05 78.80
3420 15.0783 5487.60 5364.20 80.60
3421 15.0821 5531.20 5362.34 82.20
3422 15.0858 5586.90 5360.49 82.00
3423 15.0896 5384.10 5358.64 79.00
3424 15.0934 5498.40 5356.78 81.60
3425 15.0971 5474.20 5354.93 81.20
3426 15.1009 5629.80 5353.07 81.20
3427 15.1046 5267.60 5351.22 79.50
3428 15.1084 5454.90 5349.36 81.00
3429 15.1122 5441.60 5347.51 80.40
3430 15.1159 5658.70 5345.65 82.90
3431 15.1197 5475.90 5343.79 81.90
3432 15.1234 5713.30 5341.93 82.60
3433 15.1272 5707.50 5340.08 81.70
3434 15.1309 5594.80 5338.22 81.10
3435 15.1347 5591.20 5336.36 82.30
3436 15.1385 5517.90 5334.50 81.10
3437 15.1422 5442.20 5332.63 80.60
3438 15.1460 5496.60 5330.77 81.00
3439 15.1498 5374.60 5328.90 79.90
3440 15.1535 5472.20 5327.04 82.00
3441 15.1573 5325.30 5325.18 80.00
3442 15.1610 5692.90 5323.31 83.00
3443 15.1648 5358.40 5321.45 80.00
3444 15.1686 5379.60 5319.58 77.70
3445 15.1723 5455.30 5317.72 81.00
3446 15.1761 5423.10 5315.85 80.40
3447 15.1798 5284.80 5313.98 79.50
3448 15.1836 5431.90 5312.12 80.20
3449 15.1874 5436.00 5310.25 81.60
3450 15.1911 5494.30 5308.38 82.20
3451 15.1949 5288.90 5306.51 79.90
3452 15.1987 5467.50 5304.64 81.30
3453 15.2024 5430.20 5302.77 82.00
3454 15.2062 5370.00 5300.89 81.10
3455 15.2099 5180.60 5299.02 78.00
3456 15.2137 5406.90 5297.15 80.60
3457 15.2175 5244.70 5295.28 79.20
3458 15.2212 5456.10 5293.41 81.30
3459 15.2250 5392.10 5291.53 81.30
3460 15.2287 5234.70 5289.66 80.10
3461 15.2325 5370.20 5287.78 80.40
3462 15.2362 5409.10 5285.91 79.60
3463 15.2400 5372.50 5284.03 80.80
3464 15.2438 5285.10 5282.15 80.20
3465 15.2475 5291.80 5280.28 79.50
3466 15.2513 5301.60 5278.40 81.00
3467 15.2550 5331.60 5276.52 81.00
3468 15.2588 5330.10 5274.65 79.80
3469 15.2626 5391.70 5272.77 81.10
3470 15.2663 5469.40 5270.88 81.40
3471 15.2701 5247.70 5269.00 79.40
3472 15.2739 5464.70 5267.12 81.50
3473 15.2776 5274.00 5265.24 79.30
3474 15.2814 5321.30 5263.36 81.20
3475 15.2851 5474.00 5261.48 82.10
3476 15.2889 5312.70 5259.59 79.60
3477 15.2927 5278.30 5257.71 80.10
3478 15.2964 5420.50 5255.83 81.50
3479 15.3002 5151.70 5253.94 79.10
3480 15.3039 5269.60 5252.06 79.30
3481 15.3077 5349.30 5250.18 80.70
3482 15.3115 5453.20 5248.29 80.50
3483 15.3152 5136.90 5246.40 79.50
3484 15.3190 5290.80 5244.52 79.10
3485 15.3227 5263.50 5242.63 80.00
3486 15.3265 5411.30 5240.74 80.50
3487 15.3303 5145.00 5238.86 79.90
3488 15.3340 5339.30 5236.97 80.30
3489 15.3378 5158.20 5235.08 79.30
3490 15.3415 5268.80 5233.19 80.10
3491 15.3453 5304.30 5231.30 79.10
3492 15.3491 5233.60 5229.41 80.20
3493 15.3528 5245.10 5227.52 78.60
3494 15.3566 5273.90 5225.63 80.20
3495 15.3603 5163.90 5223.74 78.00
3496 15.3641 5325.20 5221.84 80.40
3497 15.3679 5316.70 5219.95 81.50
3498 15.3716 5177.40 5218.06 78.40
3499 15.3754 5169.70 5216.17 79.30
3500 15.3792 5271.00 5214.27 80.60
3501 15.3829 5101.10 5212.38 78.50
3502 15.3867 5425.90 5210.48 81.90
3503 15.3904 5224.20 5208.59 80.10
3504 15.3942 5223.90 5206.69 79.60
3505 15.3980 5259.30 5204.80 79.60
3506 15.4017 5212.00 5202.90 78.90
3507 15.4055 5130.50 5201.01 79.30
3508 15.4092 5165.50 5199.11 79.00
3509 15.4130 5273.10 5197.22 78.10
3510 15.4167 5229.30 5195.32 79.70
3511 15.4205 5266.50 5193.42 79.10
3512 15.4243 5309.30 5191.52 80.70
3513 15.4280 5191.70 5189.62 79.30
3514 15.4318 5299.60 5187.72 81.00
3515 15.4355 5099.90 5185.82 78.50
3516 15.4393 5288.80 5183.92 80.70
3517 15.4431 5158.20 5182.03 78.50
3518 15.4468 5219.10 5180.12 79.50
3519 15.4506 5160.90 5178.22 78.60
3520 15.4544 5343.50 5176.32 81.70
3521 15.4581 5166.50 5174.42 79.10
3522 15.4619 5279.90 5172.52 81.00
3523 15.4656 5269.80 5170.62 80.20
3524 15.4694 5208.50 5168.71 80.60
3525 15.4732 5234.50 5166.81 78.60
3526 15.4769 5307.90 5164.91 80.60
3527 15.4807 5238.40 5163.00 79.10
3528 15.4844 5140.60 5161.10 78.90
3529 15.4882 5108.10 5159.20 78.90
3530 15.4920 5274.50 5157.29 80.50
3531 15.4957 5193.90 5155.39 79.80
3532 15.4995 5206.80 5153.48 79.30
3533 15.5032 5064.60 5151.57 77.90
3534 15.5070 5258.80 5149.67 79.40
3535 15.5107 4973.80 5147.76 77.00
3536 15.5145 5136.70 5145.86 78.50
3537 15.5183 5140.30 5143.95 77.20
3538 15.5220 5336.50 5142.04 80.60
3539 15.5258 5249.60 5140.13 80.80
3540 15.5295 5221.80 5138.23 79.80
3541 15.5333 5189.20 5136.32 79.80
3542 15.5371 5241.30 5134.41 79.40
3543 15.5408 5404.20 5132.50 82.10
3544 15.5446 5265.50 5130.59 80.70
3545 15.5484 5202.40 5128.68 80.30
3546 15.5521 5349.00 5126.77 80.00
3547 15.5559 5275.90 5124.86 81.10
3548 15.5596 5462.40 5122.95 82.10
3549 15.5634 5114.50 5121.04 79.20
3550 15.5672 5398.30 5119.13 78.60
3551 15.5709 5187.70 5117.22 77.20
3552 15.5747 5273.70 5115.31 76.90
3553 15.5784 5158.70 5113.40 76.90
3554 15.5822 5390.00 5111.48 79.20
3555 15.5859 5219.20 5109.57 77.10
3556 15.5897 5272.20 5107.66 78.10
3557 15.5935 5075.50 5105.75 75.90
3558 15.5972 5074.40 5103.83 76.30
3559 15.6010 5151.30 5101.92 76.10
3560 15.6047 5224.10 5100.01 77.90
3561 15.6085 5160.70 5098.09 76.90
3562 15.6123 5137.30 5096.18 77.50
3563 15.6160 5158.40 5094.27 76.70
3564 15.6198 5181.00 5092.35 77.50
3565 15.6236 5209.30 5090.43 77.20
3566 15.6273 5159.20 5088.52 76.80
3567 15.6311 4975.40 5086.60 74.70
3568 15.6348 5047.90 5084.69 75.60
3569 15.6386 5071.20 5082.77 75.80
3570 15.6424 5032.30 5080.86 76.30
3571 15.6461 5107.50 5078.94 76.60
3572 15.6499 4973.00 5077.02 75.10
3573 15.6536 5174.40 5075.11 77.10
3574 15.6574 5226.50 5073.19 77.70
3575 15.6611 5094.60 5071.27 76.20
3576 15.6649 5055.90 5069.36 76.20
3577 15.6687 5139.40 5067.44 76.10
3578 15.6724 5141.70 5065.52 76.80
3579 15.6762 5075.60 5063.60 75.80
3580 15.6799 5217.60 5061.69 76.60
3581 15.6837 4946.90 5059.77 75.30
3582 15.6875 5075.70 5057.85 76.10
3583 15.6912 5025.60 5055.93 76.40
3584 15.6950 5237.10 5054.01 78.10
3585 15.6987 5178.60 5052.09 77.60
3586 15.7025 5093.60 5050.17 76.60
3587 15.7063 5085.30 5048.25 76.90
3588 15.7100 5164.80 5046.33 76.70
3589 15.7138 4915.10 5044.41 74.60
3590 15.7176 5164.60 5042.49 78.30
3591 15.7213 5107.20 5040.58 76.30
3592 15.7251 5279.20 5038.66 78.00
3593 15.7288 5123.60 5036.74 75.70
3594 15.7326 5315.70 5034.82 78.70
3595 15.7363 5066.20 5032.90 77.30
3596 15.7401 5321.70 5030.97 78.10
3597 15.7439 5282.20 5029.05 78.70
3598 15.7476 5366.40 5027.13 78.50
3599 15.7514 5519.10 5025.21 80.10
3600 15.7551 5684.50 5023.29 80.80
3601 15.7589 5606.90 5021.37 80.40
3602 15.7627 5730.70 5019.45 80.90
3603 15.7664 5604.30 5017.52 80.60
3604 15.7702 5680.40 5015.60 82.50
3605 15.7739 5428.00 5013.68 79.40
3606 15.7777 5494.80 5011.76 80.00
3607 15.7815 5203.30 5009.83 78.20
3608 15.7852 5260.00 5007.91 78.50
3609 15.7890 5132.70 5005.99 77.50
3610 15.7927 5269.60 5004.07 78.70
3611 15.7965 5034.70 5002.15 76.80
3612 15.8003 5083.40 5000.22 76.30
3613 15.8040 5020.30 4998.30 76.10
3614 15.8078 5012.50 4996.38 75.90
3615 15.8115 4949.70 4994.45 75.50
3616 15.8153 5186.90 4992.53 77.80
3617 15.8190 5011.40 4990.61 76.10
3618 15.8228 5065.90 4988.68 76.10
3619 15.8266 4944.10 4986.76 76.20
3620 15.8303 5053.50 4984.84 76.80
3621 15.8341 4904.80 4982.91 75.20
3622 15.8378 5025.50 4980.99 76.30
3623 15.8416 5202.00 4979.06 77.80
3624 15.8454 5001.30 4977.14 76.10
3625 15.8491 5139.80 4975.22 77.70
3626 15.8529 5057.20 4973.29 75.80
3627 15.8566 4959.60 4971.37 75.70
3628 15.8604 5083.90 4969.44 76.80
3629 15.8642 4944.60 4967.52 75.20
3630 15.8679 4895.80 4965.60 74.90
3631 15.8717 5084.00 4963.67 76.40
3632 15.8754 5009.50 4961.75 76.60
3633 15.8792 5077.60 4959.82 76.80
3634 15.8830 5030.80 4957.89 76.00
3635 15.8867 4949.70 4955.97 75.80
3636 15.8905 5184.00 4954.05 77.40
3637 15.8942 5088.00 4952.12 77.60
3638 15.8980 5043.00 4950.20 76.10
3639 15.9017 4959.10 4948.27 76.30
3640 15.9055 5184.20 4946.35 77.00
3641 15.9093 4939.40 4944.42 76.20
3642 15.9130 5099.20 4942.50 77.60
3643 15.9168 5017.40 4940.57 76.70
3644 15.9206 5298.90 4938.65 79.10
3645 15.9243 5229.70 4936.72 78.40
3646 15.9281 5254.20 4934.80 77.80
3647 15.9318 5333.80 4932.88 79.00
3648 15.9356 5401.60 4930.95 79.70
3649 15.9393 5056.10 4929.02 75.90
3650 15.9431 5129.80 4927.10 77.70
3651 15.9469 4912.30 4925.17 75.30
3652 15.9506 5057.90 4923.25 76.80
3653 15.9544 4968.80 4921.32 76.50
3654 15.9581 4935.90 4919.40 75.80
3655 15.9619 4970.30 4917.47 76.30
3656 15.9656 5024.60 4915.55 76.90
3657 15.9694 4972.80 4913.62 75.50
3658 15.9732 4976.90 4911.70 76.60
3659 15.9769 4850.10 4909.77 75.20
3660 15.9807 5067.10 4907.85 76.60
3661 15.9845 4804.50 4905.92 74.70
3662 15.9882 4946.40 4904.00 76.30
3663 15.9920 4895.20 4902.07 75.00
3664 15.9957 4848.80 4900.14 75.00
3665 15.9995 4768.20 4898.22 75.00
3666 16.0032 5041.50 4896.30 77.00
3667 16.0070 4845.60 4894.37 75.20
3668 16.0108 5028.10 4892.45 76.50
3669 16.0145 4758.20 4890.52 74.60
3670 16.0183 4911.50 4888.60 76.00
3671 16.0220 4811.00 4886.67 73.70
3672 16.0258 4919.20 4884.75 76.30
3673 16.0296 4902.00 4882.82 75.20
3674 16.0333 4937.70 4880.90 76.10
3675 16.0371 4974.50 4878.98 76.20
3676 16.0408 4864.30 4877.05 75.50
3677 16.0446 4828.40 4875.12 78.20
3678 16.0483 5126.70 4873.20 76.50
3679 16.0521 4872.00 4871.28 75.30
3680 16.0559 4884.20 4869.35 74.20
3681 16.0596 4945.60 4867.43 75.80
3682 16.0634 4947.70 4865.51 76.30
3683 16.0671 4758.90 4863.58 73.90
3684 16.0709 4975.70 4861.65 75.00
3685 16.0747 4808.70 4859.73 73.70
3686 16.0784 5019.00 4857.81 76.10
3687 16.0822 4778.20 4855.89 75.20
3688 16.0859 4951.00 4853.96 76.40
3689 16.0897 4928.30 4852.04 75.50
3690 16.0935 4920.80 4850.11 75.40
3691 16.0972 4856.00 4848.19 74.90
3692 16.1010 4859.80 4846.27 75.00
3693 16.1047 4829.70 4844.35 75.00
3694 16.1085 4895.50 4842.42 75.70
3695 16.1122 4868.80 4840.50 74.60
3696 16.1160 4836.00 4838.58 74.90
3697 16.1198 4855.10 4836.65 75.60
3698 16.1235 4870.50 4834.73 74.80
3699 16.1273 4833.40 4832.81 75.80
3700 16.1310 4849.90 4830.89 75.30
3701 16.1348 4684.30 4828.96 74.30
3702 16.1385 4787.00 4827.04 74.80
3703 16.1423 4792.50 4825.12 74.30
3704 16.1461 4928.30 4823.20 76.10
3705 16.1498 4902.70 4821.28 75.70
3706 16.1536 4932.70 4819.36 75.90
3707 16.1573 4854.60 4817.43 76.10
3708 16.1611 4889.90 4815.51 75.50
3709 16.1649 4751.50 4813.59 74.40
3710 16.1686 4865.70 4811.67 76.20
3711 16.1724 4922.70 4809.75 75.90
3712 16.1761 4849.00 4807.83 75.00
3713 16.1799 4716.50 4805.91 74.70
3714 16.1836 4722.10 4803.99 73.60
3715 16.1874 4783.20 4802.07 74.30
3716 16.1912 4776.60 4800.15 74.20
3717 16.1949 4855.90 4798.23 75.50
3718 16.1987 4970.40 4796.31 77.20
3719 16.2024 4723.40 4794.39 74.40
3720 16.2062 4923.60 4792.47 75.90
3721 16.2100 4751.80 4790.55 75.10
3722 16.2137 4851.70 4788.63 75.30
3723 16.2175 4892.00 4786.71 75.40
3724 16.2212 4842.10 4784.79 75.70
3725 16.2250 4790.50 4782.87 75.10
3726 16.2287 4929.40 4780.96 75.90
3727 16.2325 4731.10 4779.04 74.00
3728 16.2363 4704.60 4777.12 73.80
3729 16.2400 4802.10 4775.20 74.70
3730 16.2438 4965.80 4773.28 76.60
3731 16.2475 4750.90 4771.36 74.10
3732 16.2513 4842.80 4769.45 75.20
3733 16.2551 4750.00 4767.53 74.80
3734 16.2588 4890.30 4765.61 76.10
3735 16.2626 4797.00 4763.70 75.10
3736 16.2663 4821.20 4761.78 74.20
3737 16.2701 4753.70 4759.87 74.30
3738 16.2738 4583.70 4757.95 73.70
3739 16.2776 4831.10 4756.03 74.30
3740 16.2813 4884.30 4754.12 75.30
3741 16.2851 4810.10 4752.21 75.10
3742 16.2889 4705.80 4750.29 73.90
3743 16.2926 4655.90 4748.37 73.70
3744 16.2964 4699.20 4746.46 73.20
3745 16.3001 4667.80 4744.55 74.20
3746 16.3039 4964.20 4742.63 75.80
3747 16.3077 4619.80 4740.72 74.50
3748 16.3114 4813.10 4738.80 74.40
3749 16.3152 4785.70 4736.89 75.20
3750 16.3189 4935.20 4734.98 74.90
3751 16.3227 4728.80 4733.06 74.30
3752 16.3265 4829.90 4731.15 74.80
3753 16.3302 4641.90 4729.24 73.60
3754 16.3340 4852.70 4727.33 75.90
3755 16.3377 4764.50 4725.41 74.50
3756 16.3415 4717.30 4723.50 74.00
3757 16.3452 4768.20 4721.59 74.20
3758 16.3490 4751.40 4719.68 74.20
3759 16.3528 4780.70 4717.77 75.00
3760 16.3565 4761.20 4715.86 74.00
3761 16.3603 4718.70 4713.95 74.50
3762 16.3640 4692.00 4712.04 73.10
3763 16.3678 4827.80 4710.13 75.20
3764 16.3715 4707.00 4708.22 74.50
3765 16.3753 4740.60 4706.31 73.90
3766 16.3790 4717.00 4704.40 74.20
3767 16.3828 4575.80 4702.49 72.70
3768 16.3866 4764.10 4700.58 74.80
3769 16.3903 4713.20 4698.67 73.20
3770 16.3941 4873.70 4696.77 75.80
3771 16.3978 4659.40 4694.86 73.60
3772 16.4016 4760.10 4692.95 74.30
3773 16.4053 4715.20 4691.05 74.60
3774 16.4091 4678.70 4689.14 73.30
3775 16.4129 4773.40 4687.23 74.20
3776 16.4166 4736.20 4685.32 74.90
3777 16.4204 4675.50 4683.42 73.70
3778 16.4241 4695.10 4681.51 74.10
3779 16.4279 4595.50 4679.61 72.50
3780 16.4317 4775.20 4677.71 75.60
3781 16.4354 4532.90 4675.80 72.20
3782 16.4392 4816.00 4673.89 75.50
3783 16.4429 4657.90 4671.99 72.90
3784 16.4467 4753.90 4670.09 74.40
3785 16.4504 4737.70 4668.19 74.00
3786 16.4542 4813.70 4666.28 74.10
3787 16.4580 4701.30 4664.38 74.10
3788 16.4617 4870.20 4662.48 75.50
3789 16.4655 4511.70 4660.57 72.80
3790 16.4692 4679.70 4658.68 73.40
3791 16.4730 4736.40 4656.77 73.30
3792 16.4767 4827.20 4654.87 75.30
3793 16.4805 4681.00 4652.97 74.30
3794 16.4842 4744.80 4651.07 74.30
3795 16.4880 4564.40 4649.17 73.20
3796 16.4918 4673.10 4647.27 74.00
3797 16.4955 4604.20 4645.38 73.00
3798 16.4993 4777.70 4643.47 74.20
3799 16.5030 4675.60 4641.57 73.50
3800 16.5068 4722.10 4639.68 73.60
3801 16.5105 4682.00 4637.78 73.90
3802 16.5143 4703.70 4635.88 74.30
3803 16.5181 4565.50 4633.99 73.50
3804 16.5218 4693.90 4632.09 74.30
3805 16.5256 4653.60 4630.19 73.80
3806 16.5293 4798.00 4628.30 76.60
3807 16.5331 4574.30 4626.40 74.20
3808 16.5368 4666.00 4624.51 73.50
3809 16.5406 4721.50 4622.61 75.30
3810 16.5444 4686.70 4620.72 74.50
3811 16.5481 4651.30 4618.82 74.40
3812 16.5519 4778.80 4616.93 75.70
3813 16.5556 4646.40 4615.04 74.70
3814 16.5594 4734.40 4613.14 74.70
3815 16.5631 4593.10 4611.25 73.80
3816 16.5669 4771.70 4609.36 73.50
3817 16.5707 4700.30 4607.47 74.70
3818 16.5744 4720.60 4605.58 75.70
3819 16.5782 4689.50 4603.69 74.70
3820 16.5819 4692.70 4601.80 73.80
3821 16.5857 4692.50 4599.90 74.90
3822 16.5894 4745.00 4598.02 75.10
3823 16.5932 4664.10 4596.13 74.70
3824 16.5970 4701.90 4594.24 74.30
3825 16.6007 4572.80 4592.35 73.90
3826 16.6045 4792.60 4590.46 75.90
3827 16.6082 4740.90 4588.58 75.50
3828 16.6120 4789.10 4586.69 76.30
3829 16.6157 4707.60 4584.80 75.20
3830 16.6195 4655.90 4582.92 74.30
3831 16.6232 4633.50 4581.03 74.60
3832 16.6270 4772.90 4579.15 75.70
3833 16.6308 4486.90 4577.26 73.40
3834 16.6345 4714.70 4575.38 75.00
3835 16.6383 4658.60 4573.50 75.10
3836 16.6420 4746.70 4571.61 75.00
3837 16.6458 4683.70 4569.72 75.60
3838 16.6495 4719.60 4567.84 74.40
3839 16.6533 4718.60 4565.96 75.10
3840 16.6570 4629.50 4564.08 75.00
3841 16.6608 4729.60 4562.20 74.40
3842 16.6646 4756.30 4560.32 75.40
3843 16.6683 4547.70 4558.44 73.90
3844 16.6721 4751.30 4556.56 75.90
3845 16.6758 4693.00 4554.68 75.30
3846 16.6796 4762.70 4552.80 75.30
3847 16.6833 4641.00 4550.92 75.60
3848 16.6871 4649.40 4549.04 74.20
3849 16.6909 4648.00 4547.16 74.80
3850 16.6946 4588.50 4545.28 73.10
3851 16.6984 4643.90 4543.41 74.50
3852 16.7021 4659.50 4541.53 74.20
3853 16.7059 4580.60 4539.66 72.10
3854 16.7096 4622.60 4537.78 74.50
3855 16.7134 4490.70 4535.91 72.20
3856 16.7171 4665.90 4534.04 74.10
3857 16.7209 4786.20 4532.16 76.10
3858 16.7247 4752.90 4530.29 74.50
3859 16.7284 4591.40 4528.41 74.70
3860 16.7322 4764.20 4526.54 76.10
3861 16.7359 4850.60 4524.67 76.00
3862 16.7397 4843.60 4522.80 77.10
3863 16.7434 4807.40 4520.93 75.10
3864 16.7472 4813.20 4519.06 76.30
3865 16.7509 4747.10 4517.19 75.50
3866 16.7547 5140.90 4515.32 78.10
3867 16.7585 5126.00 4513.46 78.30
3868 16.7622 5284.40 4511.58 79.70
3869 16.7660 5226.00 4509.71 80.20
3870 16.7697 5289.90 4507.85 80.30
3871 16.7735 5191.30 4505.98 79.80
3872 16.7772 5071.00 4504.12 78.70
3873 16.7810 5039.30 4502.25 77.90
3874 16.7847 5118.20 4500.39 78.70
3875 16.7885 4994.50 4498.52 78.20
3876 16.7923 5072.50 4496.66 78.30
3877 16.7960 4922.10 4494.79 76.70
3878 16.7998 5030.30 4492.93 77.50
3879 16.8035 5056.30 4491.07 78.00
3880 16.8073 5169.90 4489.21 78.40
3881 16.8110 5122.50 4487.35 78.40
3882 16.8148 5188.10 4485.48 78.80
3883 16.8186 5213.90 4483.62 79.00
3884 16.8223 5235.10 4481.76 79.00
3885 16.8261 5019.00 4479.90 77.00
3886 16.8298 4992.20 4478.04 77.40
3887 16.8336 5002.60 4476.19 78.90
3888 16.8373 5064.80 4474.33 78.20
3889 16.8411 4965.10 4472.47 77.50
3890 16.8448 4889.00 4470.62 76.90
3891 16.8486 4892.10 4468.76 76.70
3892 16.8524 4986.10 4466.91 76.60
3893 16.8561 4826.60 4465.05 76.50
3894 16.8599 5039.50 4463.20 78.40
3895 16.8636 4937.10 4461.34 77.70
3896 16.8674 5040.10 4459.49 79.20
3897 16.8711 4983.50 4457.64 77.10
3898 16.8749 4890.80 4455.79 77.10
3899 16.8786 4938.60 4453.93 77.60
3900 16.8824 5009.90 4452.08 77.80
3901 16.8862 4887.60 4450.23 77.00
3902 16.8899 5146.20 4448.39 79.70
3903 16.8937 4831.90 4446.53 75.80
3904 16.8974 5065.80 4444.69 77.70
3905 16.9012 5199.30 4442.84 79.70
3906 16.9049 5228.30 4440.99 80.10
3907 16.9087 5295.10 4439.14 80.50
3908 16.9124 5388.40 4437.30 78.50
3909 16.9162 5119.90 4435.45 79.40
3910 16.9199 5320.00 4433.61 81.60
3911 16.9237 5301.50 4431.76 80.10
3912 16.9275 5438.70 4429.92 81.10
3913 16.9312 5363.20 4428.08 81.30
3914 16.9350 5520.10 4426.24 82.80
3915 16.9387 5375.50 4424.40 79.40
3916 16.9425 5732.90 4422.55 82.40
3917 16.9462 5803.20 4420.72 83.90
3918 16.9500 5798.30 4418.87 84.80
3919 16.9537 5866.90 4417.03 85.20
3920 16.9575 6001.80 6728.35 86.50
3921 16.9612 6036.20 6863.71 86.20
3922 16.9650 6027.50 7012.07 85.60
3923 16.9688 6361.30 7174.17 88.80
3924 16.9725 6432.10 7352.68 88.20
3925 16.9763 6616.90 7548.93 90.20
3926 16.9800 6722.00 7766.55 91.70
3927 16.9838 6888.40 8007.12 91.90
3928 16.9875 7359.70 8275.59 95.80
3929 16.9896 7351.30 8434.99 93.60
3930 16.9933 7438.20 8754.07 94.40
3931 16.9971 7838.10 9113.25 96.80
3932 17.0009 8171.10 9517.72 99.80
3933 17.0046 8569.00 9978.18 102.70
3934 17.0084 9011.30 10503.70 106.20
3935 17.0121 9535.10 11105.70 109.10
3936 17.0159 10330.20 11803.80 113.70
3937 17.0196 11145.50 12616.40 121.20
3938 17.0234 11552.90 13569.50 122.80
3939 17.0271 12551.20 14695.10 126.10
3940 17.0309 13739.20 16044.80 134.90
3941 17.0347 15007.80 17675.50 140.80
3942 17.0384 16348.40 19665.10 148.00
3943 17.0422 18808.00 22138.80 160.80
3944 17.0459 21357.50 25252.80 173.00
3945 17.0497 24537.80 29256.70 185.40
3946 17.0534 28663.70 34512.70 203.60
3947 17.0572 34695.10 41593.80 222.30
3948 17.0610 43116.30 51426.30 258.80
3949 17.0647 57146.40 65926.60 309.70
3950 17.0685 78727.40 89332.70 373.40
3951 17.0722 128115.00 131309.00 501.20
3952 17.0760 243658.00 210969.00 776.60
3953 17.0797 478246.00 352461.00 1238.80
3954 17.0835 705851.00 564770.00 1652.70
3955 17.0873 801350.00 768423.00 1798.90
3956 17.0910 727508.00 758817.00 1688.60
3957 17.0948 572464.00 548340.00 1418.30
3958 17.0985 342521.00 340067.00 983.90
3959 17.1023 171661.00 203622.00 620.00
3960 17.1060 98451.10 127395.00 430.80
3961 17.1098 68775.00 87142.90 342.80
3962 17.1136 51113.00 64668.50 288.10
3963 17.1173 39808.40 50582.60 248.20
3964 17.1211 31869.20 40965.90 218.20
3965 17.1248 26235.30 34059.70 194.00
3966 17.1286 21972.30 28903.20 176.50
3967 17.1323 19003.20 24975.70 160.70
3968 17.1361 16749.60 21903.30 152.10
3969 17.1398 15117.40 19469.00 140.60
3970 17.1436 13456.80 17498.60 133.10
3971 17.1474 12511.10 15886.30 128.90
3972 17.1511 11452.40 14554.00 120.30
3973 17.1549 10815.00 13434.50 117.90
3974 17.1586 10081.20 12488.60 113.80
3975 17.1624 9471.20 11683.20 110.20
3976 17.1661 8945.20 10988.70 106.70
3977 17.1699 8574.40 10386.90 103.50
3978 17.1737 7986.40 9863.79 101.40
3979 17.1774 7794.70 9403.69 98.10
3980 17.1812 7450.30 8998.97 96.40
3981 17.1849 7186.60 8639.34 93.00
3982 17.1887 6916.30 8319.74 92.30
3983 17.1924 6716.10 8032.93 90.40
3984 17.1962 6425.40 7775.46 86.50
3985 17.1999 6422.50 7543.95 88.90
3986 17.2037 5956.40 7334.00 84.00
3987 17.2075 6112.40 7143.75 85.70
3988 17.2112 5826.50 6970.10 84.60
3989 17.2150 5897.30 6811.52 83.70
3990 17.2187 5671.20 6666.69 83.70
3991 17.2221 5562.90 4287.27 80.40
3992 17.2258 5557.40 4285.49 80.80
3993 17.2296 5307.00 4283.69 77.70
3994 17.2334 5328.80 4281.91 78.90
3995 17.2371 5247.40 4280.12 78.10
3996 17.2409 5328.20 4278.33 79.20
3997 17.2446 5222.60 4276.55 77.90
3998 17.2484 4997.20 4274.76 76.20
3999 17.2521 5028.40 4272.98 77.10
4000 17.2559 5030.10 4271.19 76.30
4001 17.2596 4826.70 4269.41 74.60
4002 17.2634 4915.80 4267.62 75.60
4003 17.2671 4751.70 4265.85 74.20
4004 17.2709 4915.30 4264.07 75.40
4005 17.2747 4641.70 4262.28 72.90
4006 17.2784 4736.70 4260.51 74.50
4007 17.2822 4732.30 4258.73 73.40
4008 17.2859 4679.40 4256.95 72.50
4009 17.2897 4717.00 4255.17 74.50
4010 17.2934 4757.10 4253.40 74.30
4011 17.2972 4650.40 4251.62 72.90
4012 17.3009 4677.80 4249.84 73.60
4013 17.3047 4580.90 4248.07 73.40
4014 17.3084 4581.50 4246.30 71.40
4015 17.3122 4512.20 4244.52 72.10
4016 17.3160 4691.60 4242.75 73.10
4017 17.3197 4525.40 4240.98 72.00
4018 17.3235 4498.00 4239.21 72.70
4019 17.3272 4435.60 4237.44 71.80
4020 17.3310 4405.00 4235.67 71.20
4021 17.3347 4512.10 4233.90 72.10
4022 17.3385 4445.60 4232.14 72.50
4023 17.3422 4454.30 4230.37 71.60
4024 17.3460 4313.90 4228.61 70.80
4025 17.3498 4420.90 4226.84 71.90
4026 17.3535 4406.00 4225.08 71.40
4027 17.3573 4343.60 4223.31 71.10
4028 17.3610 4452.10 4221.55 72.70
4029 17.3648 4336.00 4219.79 70.80
4030 17.3685 4429.90 4218.03 72.50
4031 17.3723 4369.90 4216.27 71.70
4032 17.3760 4327.60 4214.51 70.60
4033 17.3798 4346.10 4212.75 71.10
4034 17.3835 4385.30 4211.00 71.40
4035 17.3873 4296.10 4209.24 71.00
4036 17.3911 4330.80 4207.48 71.40
4037 17.3948 4114.10 4205.73 68.80
4038 17.3986 4325.30 4203.97 71.40
4039 17.4023 4217.80 4202.22 71.00
4040 17.4061 4269.80 4200.47 70.80
4041 17.4098 4443.80 4198.71 72.50
4042 17.4136 4246.00 4196.96 70.00
4043 17.4173 4215.30 4195.21 69.70
4044 17.4211 4280.80 4193.46 70.10
4045 17.4249 4484.50 4191.72 72.30
4046 17.4286 4430.00 4189.97 71.80
4047 17.4324 4376.70 4188.22 71.60
4048 17.4361 4288.60 4186.47 69.50
4049 17.4399 4300.20 4184.73 71.20
4050 17.4436 4386.40 4182.98 71.70
4051 17.4474 4400.30 4181.24 72.20
4052 17.4511 4321.10 4179.50 71.10
4053 17.4549 4284.50 4177.75 70.50
4054 17.4587 4322.60 4176.02 71.10
4055 17.4624 4192.80 4174.27 70.10
4056 17.4662 4126.50 4172.54 69.40
4057 17.4699 4296.70 4170.80 70.80
4058 17.4737 4200.70 4169.06 69.90
4059 17.4774 4226.00 4167.32 69.80
4060 17.4812 4161.90 4165.59 68.60
4061 17.4849 4112.50 4163.85 69.70
4062 17.4887 4252.60 4162.12 71.20
4063 17.4925 4186.20 4160.39 70.00
4064 17.4962 4170.40 4158.65 69.60
4065 17.5000 4086.40 4156.92 69.60
4066 17.5037 4254.50 4155.19 70.20
4067 17.5075 4359.60 4153.46 71.30
4068 17.5112 4361.30 4151.73 71.60
4069 17.5150 4335.80 4150.00 71.50
4070 17.5187 4285.80 4148.28 71.40
4071 17.5225 4119.80 4146.55 69.30
4072 17.5263 4183.00 4144.82 70.70
4073 17.5300 4100.10 4143.10 69.20
4074 17.5338 4107.90 4141.37 69.00
4075 17.5375 4132.60 4139.65 69.60
4076 17.5413 4110.20 4137.93 69.10
4077 17.5450 4070.80 4136.21 69.10
4078 17.5488 4130.90 4134.49 69.30
4079 17.5525 4060.60 4132.77 69.20
4080 17.5563 4112.90 4131.05 69.50
4081 17.5601 3997.60 4129.33 67.90
4082 17.5638 4063.00 4127.61 69.00
4083 17.5676 4136.40 4125.90 69.20
4084 17.5713 4146.50 4124.18 70.40
4085 17.5751 4056.80 4122.47 68.60
4086 17.5788 4157.40 4120.76 70.00
4087 17.5826 4051.20 4119.04 69.10
4088 17.5863 4108.80 4117.33 69.20
4089 17.5901 4075.30 4115.62 68.40
4090 17.5939 4168.90 4113.91 69.00
4091 17.5976 3991.60 4112.20 68.40
4092 17.6014 4066.70 4110.50 69.50
4093 17.6051 4178.30 4108.79 70.00
4094 17.6089 4083.00 4107.08 69.70
4095 17.6126 3992.50 4105.38 68.40
4096 17.6164 4006.40 4103.68 68.30
4097 17.6202 4003.40 4101.97 68.50
4098 17.6239 4034.00 4100.27 69.10
4099 17.6277 3983.70 4098.57 68.70
4100 17.6314 4083.30 4096.86 70.00
4101 17.6352 4041.10 4095.16 69.20
4102 17.6389 4026.20 4093.47 69.50
4103 17.6427 4050.60 4091.77 70.10
4104 17.6465 4001.90 4090.07 67.90
4105 17.6502 4103.00 4088.38 69.50
4106 17.6540 4019.60 4086.68 69.00
4107 17.6577 4017.10 4084.99 69.00
4108 17.6615 3979.60 4083.29 69.40
4109 17.6652 3898.30 4081.60 68.10
4110 17.6690 4045.30 4079.91 69.80
4111 17.6728 4032.70 4078.22 69.20
4112 17.6765 4054.80 4076.53 69.40
4113 17.6803 3955.90 4074.84 68.70
4114 17.6840 3993.90 4073.15 68.00
4115 17.6878 3996.40 4071.46 67.70
4116 17.6915 3968.90 4069.78 67.70
4117 17.6953 4000.30 4068.10 68.20
4118 17.6991 3914.80 4066.41 67.30
4119 17.7028 3980.00 4064.73 67.60
4120 17.7066 4070.00 4063.05 68.00
4121 17.7103 3968.50 4061.36 67.40
4122 17.7141 4064.10 4059.68 68.40
4123 17.7178 3891.00 4058.01 67.00
4124 17.7216 4010.40 4056.33 68.40
4125 17.7253 3979.50 4054.65 67.80
4126 17.7291 3983.30 4052.97 67.30
4127 17.7329 3901.00 4051.30 67.10
4128 17.7366 3971.60 4049.62 68.20
4129 17.7404 4003.40 4047.95 67.50
4130 17.7441 3977.10 4046.28 68.00
4131 17.7479 3915.70 4044.60 67.60
4132 17.7516 3940.40 4042.94 66.90
4133 17.7554 3942.40 4041.27 67.20
4134 17.7592 4054.30 4039.60 68.40
4135 17.7629 3881.70 4037.93 66.70
4136 17.7667 3903.80 4036.26 67.60
4137 17.7704 3866.90 4034.60 66.40
4138 17.7742 3991.60 4032.93 67.30
4139 17.7779 3913.20 4031.27 67.30
4140 17.7817 3903.60 4029.60 67.80
4141 17.7855 3836.50 4027.94 66.70
4142 17.7892 3933.50 4026.28 67.10
4143 17.7930 3955.50 4024.62 66.40
4144 17.7967 3999.20 4022.96 67.60
4145 17.8005 3954.20 4021.30 67.80
4146 17.8042 3927.70 4019.65 67.50
4147 17.8080 3990.10 4017.99 67.00
4148 17.8118 4139.20 4016.33 69.70
4149 17.8155 4002.40 4014.68 68.80
4150 17.8193 3975.10 4013.03 67.80
4151 17.8230 3877.30 4011.38 67.10
4152 17.8268 3940.10 4009.72 67.60
4153 17.8305 3955.30 4008.08 67.60
4154 17.8343 4041.00 4006.43 67.30
4155 17.8381 3793.10 4004.78 66.00
4156 17.8418 3909.70 4003.13 68.00
4157 17.8456 3827.90 4001.49 66.90
4158 17.8493 3907.70 3999.84 67.80
4159 17.8531 3874.60 3998.19 67.10
4160 17.8568 3830.30 3996.55 66.20
4161 17.8606 3842.00 3994.91 65.60
4162 17.8644 4048.70 3993.27 69.00
4163 17.8681 3866.20 3991.63 67.10
4164 17.8719 3916.40 3989.99 67.20
4165 17.8756 3878.80 3988.35 66.90
4166 17.8794 3967.60 3986.71 68.00
4167 17.8832 3890.50 3985.07 68.00
4168 17.8869 3918.80 3983.44 67.50
4169 17.8907 3837.30 3981.81 66.90
4170 17.8944 3810.30 3980.17 66.50
4171 17.8982 3791.40 3978.54 66.00
4172 17.9019 3819.30 3976.91 65.30
4173 17.9057 3851.10 3975.28 67.10
4174 17.9095 3860.30 3973.65 67.00
4175 17.9132 3955.10 3972.02 67.70
4176 17.9170 4003.30 3970.39 67.70
4177 17.9207 3874.80 3968.77 66.80
4178 17.9245 3943.90 3967.14 67.30
4179 17.9282 3764.30 3965.52 66.20
4180 17.9320 3903.90 3963.89 67.20
4181 17.9357 3865.20 3962.28 66.90
4182 17.9395 3928.00 3960.65 67.90
4183 17.9433 3959.40 3959.03 67.90
4184 17.9470 3872.40 3957.41 66.40
4185 17.9508 3887.50 3955.80 67.00
4186 17.9545 3925.30 3954.18 67.80
4187 17.9583 3807.60 3952.56 66.40
4188 17.9621 3789.90 3950.95 65.70
4189 17.9658 3889.20 3949.34 67.40
4190 17.9696 3798.40 3947.72 66.90
4191 17.9733 3785.50 3946.11 65.70
4192 17.9771 3798.60 3944.50 66.50
4193 17.9809 3860.30 3942.89 66.30
4194 17.9846 3921.00 3941.28 68.30
4195 17.9884 3831.40 3939.67 66.80
4196 17.9921 3849.40 3938.07 67.00
4197 17.9959 3797.20 3936.46 66.50
4198 17.9996 3898.80 3934.85 67.80
4199 18.0034 3800.10 3933.25 66.60
4200 18.0072 3850.70 3931.65 66.80
4201 18.0109 3968.50 3930.05 69.00
4202 18.0147 3846.50 3928.45 67.30
4203 18.0184 3899.60 3926.85 67.90
4204 18.0222 3748.20 3925.25 66.10
4205 18.0259 3767.30 3923.65 65.40
4206 18.0297 3899.50 3922.06 66.80
4207 18.0335 3693.70 3920.46 65.50
4208 18.0372 3823.60 3918.87 67.20
4209 18.0410 3890.20 3917.28 67.30
4210 18.0447 3812.00 3915.69 66.70
4211 18.0485 3681.00 3914.09 65.80
4212 18.0522 3852.40 3912.50 67.70
4213 18.0560 3682.80 3910.91 65.70
4214 18.0598 3799.40 3909.33 65.20
4215 18.0635 3771.20 3907.74 65.30
4216 18.0673 3681.80 3906.15 65.50
4217 18.0710 3830.10 3904.57 67.30
4218 18.0748 3744.10 3902.99 66.00
4219 18.0786 3763.60 3901.40 66.40
4220 18.0823 3846.70 3899.82 67.10
4221 18.0861 3714.30 3898.24 65.80
4222 18.0898 4000.20 3896.66 69.20
4223 18.0936 3829.70 3895.09 66.60
4224 18.0973 3732.90 3893.51 66.20
4225 18.1011 3884.40 3891.93 67.50
4226 18.1049 3810.60 3890.36 66.00
4227 18.1086 3728.80 3888.78 65.40
4228 18.1124 3921.10 3887.21 67.70
4229 18.1161 3767.70 3885.64 66.30
4230 18.1199 3952.80 3884.07 68.60
4231 18.1237 3776.30 3882.50 65.90
4232 18.1274 3809.40 3880.93 67.40
4233 18.1312 3775.30 3879.36 66.10
4234 18.1349 3776.80 3877.80 65.80
4235 18.1387 3705.00 3876.23 65.70
4236 18.1425 3785.00 3874.67 67.00
4237 18.1462 3669.40 3873.10 65.30
4238 18.1500 3751.00 3871.54 66.10
4239 18.1537 3691.60 3869.98 65.10
4240 18.1575 3722.40 3868.42 66.20
4241 18.1612 3673.50 3866.86 66.40
4242 18.1650 3887.20 3865.30 68.10
4243 18.1688 3639.30 3863.75 64.40
4244 18.1725 3850.00 3862.19 67.10
4245 18.1763 3695.40 3860.64 65.30
4246 18.1800 3695.70 3859.09 65.60
4247 18.1838 3690.30 3857.54 65.00
4248 18.1875 3800.30 3855.98 65.40
4249 18.1913 3823.90 3854.43 66.20
4250 18.1951 3713.00 3852.88 64.50
4251 18.1988 3650.00 3851.34 65.00
4252 18.2026 3784.80 3849.79 66.10
4253 18.2063 3737.10 3848.25 65.90
4254 18.2101 3720.40 3846.70 65.60
4255 18.2139 3645.70 3845.16 65.10
4256 18.2176 3728.40 3843.62 66.00
4257 18.2214 3704.10 3842.07 65.60
4258 18.2251 3811.50 3840.53 66.20
4259 18.2289 3802.20 3838.99 66.40
4260 18.2327 3793.40 3837.46 66.40
4261 18.2364 3734.30 3835.92 66.30
4262 18.2402 3754.50 3834.39 65.70
4263 18.2439 3733.30 3832.85 66.10
4264 18.2477 3753.20 3831.32 65.10
4265 18.2514 3663.60 3829.79 63.80
4266 18.2552 3803.90 3828.25 66.50
4267 18.2590 3752.20 3826.73 65.90
4268 18.2627 3808.50 3825.20 66.60
4269 18.2665 3799.60 3823.67 66.20
4270 18.2702 3720.50 3822.14 66.00
4271 18.2740 3606.70 3820.62 64.50
4272 18.2778 3629.90 3819.09 65.20
4273 18.2815 3644.40 3817.57 65.50
4274 18.2853 3861.50 3816.05 66.00
4275 18.2890 3644.70 3814.52 63.70
4276 18.2928 3605.30 3813.00 65.00
4277 18.2966 3763.30 3811.49 65.90
4278 18.3003 3588.80 3809.97 64.80
4279 18.3041 3565.40 3808.45 63.90
4280 18.3078 3745.10 3806.94 65.90
4281 18.3116 3652.80 3805.42 64.60
4282 18.3153 3668.50 3803.91 64.20
4283 18.3191 3715.00 3802.40 65.90
4284 18.3229 3696.80 3800.89 65.60
4285 18.3266 3595.30 3799.38 64.40
4286 18.3304 3509.10 3797.87 63.40
4287 18.3341 3616.50 3796.36 64.30
4288 18.3379 3641.30 3794.86 65.10
4289 18.3417 3761.70 3793.35 66.60
4290 18.3454 3720.00 3791.85 65.40
4291 18.3492 3621.50 3790.34 64.50
4292 18.3529 3607.90 3788.84 64.50
4293 18.3567 3574.40 3787.34 64.00
4294 18.3605 3597.20 3785.84 64.30
4295 18.3642 3778.80 3784.34 66.00
4296 18.3680 3643.80 3782.84 64.50
4297 18.3717 3694.00 3781.35 64.10
4298 18.3755 3723.70 3779.86 64.80
4299 18.3792 3593.00 3778.36 64.50
4300 18.3830 3617.40 3776.87 64.90
4301 18.3868 3581.90 3775.38 62.80
4302 18.3905 3719.70 3773.89 65.90
4303 18.3943 3580.50 3772.40 64.30
4304 18.3981 3644.80 3770.91 64.60
4305 18.4018 3675.70 3769.42 64.60
4306 18.4056 3711.00 3767.94 65.30
4307 18.4093 3630.10 3766.45 64.20
4308 18.4131 3644.90 3764.97 64.60
4309 18.4168 3571.80 3763.49 64.00
4310 18.4206 3719.60 3762.01 64.80
4311 18.4244 3573.20 3760.53 63.30
4312 18.4281 3696.40 3759.05 65.50
4313 18.4319 3655.40 3757.57 64.80
4314 18.4356 3647.10 3756.09 65.20
4315 18.4394 3574.90 3754.62 64.30
4316 18.4432 3602.00 3753.14 63.40
4317 18.4469 3715.80 3751.67 65.50
4318 18.4507 3635.20 3750.20 65.00
4319 18.4544 3716.60 3748.73 65.50
4320 18.4582 3600.60 3747.26 64.50
4321 18.4620 3827.30 3745.79 65.20
4322 18.4657 3595.70 3744.32 64.60
4323 18.4695 3541.70 3742.86 64.40
4324 18.4732 3493.70 3741.39 63.10
4325 18.4770 3642.50 3739.93 65.10
4326 18.4807 3638.70 3738.47 64.50
4327 18.4845 3507.50 3737.01 64.20
4328 18.4883 3643.40 3735.55 64.40
4329 18.4920 3618.50 3734.09 64.50
4330 18.4958 3527.20 3732.63 63.80
4331 18.4995 3568.70 3731.17 64.40
4332 18.5033 3664.50 3729.72 65.40
4333 18.5071 3666.40 3728.26 64.90
4334 18.5108 3626.50 3726.81 64.30
4335 18.5146 3585.00 3725.36 63.90
4336 18.5184 3738.20 3723.90 65.70
4337 18.5221 3533.60 3722.45 63.40
4338 18.5259 3567.00 3721.01 64.20
4339 18.5296 3559.00 3719.56 63.80
4340 18.5334 3617.10 3718.11 63.70
4341 18.5371 3644.60 3716.67 65.30
4342 18.5409 3553.70 3715.22 64.10
4343 18.5447 3445.00 3713.78 62.90
4344 18.5484 3672.00 3712.34 65.10
4345 18.5522 3459.50 3710.90 62.90
4346 18.5560 3579.00 3709.46 64.70
4347 18.5597 3546.30 3708.02 63.20
4348 18.5635 3697.10 3706.58 64.00
4349 18.5672 3581.00 3705.15 64.20
4350 18.5710 3591.60 3703.72 64.10
4351 18.5747 3448.10 3702.28 63.10
4352 18.5785 3531.50 3700.85 63.90
4353 18.5823 3526.40 3699.42 63.90
4354 18.5860 3608.10 3697.99 65.30
4355 18.5898 3446.80 3696.56 62.60
4356 18.5935 3697.50 3695.14 65.40
4357 18.5973 3576.90 3693.71 63.80
4358 18.6011 3570.30 3692.28 63.40
4359 18.6048 3507.90 3690.86 63.30
4360 18.6086 3509.00 3689.44 63.90
4361 18.6123 3561.80 3688.02 63.80
4362 18.6161 3495.90 3686.60 63.00
4363 18.6199 3552.30 3685.18 63.40
4364 18.6236 3631.40 3683.76 64.30
4365 18.6274 3479.50 3682.34 63.30
4366 18.6311 3606.50 3680.93 64.00
4367 18.6349 3600.70 3679.51 64.00
4368 18.6387 3520.60 3678.10 63.50
4369 18.6424 3520.40 3676.69 64.80
4370 18.6462 3485.70 3675.28 62.40
4371 18.6499 3510.40 3673.87 62.80
4372 18.6537 3557.20 3672.46 63.20
4373 18.6575 3486.10 3671.05 62.40
4374 18.6612 3459.50 3669.65 61.00
4375 18.6650 3566.80 3668.24 62.90
4376 18.6687 3598.60 3666.84 63.60
4377 18.6725 3467.80 3665.44 63.00
4378 18.6763 3520.20 3664.04 62.90
4379 18.6800 3511.30 3662.64 62.80
4380 18.6838 3503.90 3661.24 62.40
4381 18.6875 3457.20 3659.84 62.50
4382 18.6913 3616.40 3658.45 63.00
4383 18.6951 3540.00 3657.05 63.40
4384 18.6988 3546.20 3655.66 62.80
4385 18.7026 3498.30 3654.26 62.30
4386 18.7063 3605.80 3652.87 63.70
4387 18.7101 3473.60 3651.48 62.40
4388 18.7139 3495.70 3650.09 62.40
4389 18.7176 3526.30 3648.71 62.70
4390 18.7214 3603.10 3647.32 64.10
4391 18.7251 3462.30 3645.94 62.50
4392 18.7289 3606.70 3644.55 63.50
4393 18.7327 3423.20 3643.17 62.60
4394 18.7364 3523.20 3641.79 63.20
4395 18.7402 3560.60 3640.41 63.30
4396 18.7439 3613.50 3639.03 63.20
4397 18.7477 3493.70 3637.65 62.00
4398 18.7515 3556.90 3636.27 62.40
4399 18.7552 3510.60 3634.90 62.60
4400 18.7590 3514.60 3633.52 63.00
4401 18.7627 3428.40 3632.15 62.10
4402 18.7665 3447.50 3630.78 62.80
4403 18.7703 3530.20 3629.41 63.40
4404 18.7740 3445.20 3628.04 62.60
4405 18.7778 3555.70 3626.67 63.50
4406 18.7815 3533.20 3625.30 63.20
4407 18.7853 3465.70 3623.94 61.70
4408 18.7891 3540.70 3622.57 63.00
4409 18.7928 3545.80 3621.21 63.10
4410 18.7966 3586.90 3619.85 64.40
4411 18.8003 3440.00 3618.49 62.40
4412 18.8041 3505.80 3617.13 62.20
4413 18.8079 3459.80 3615.77 62.30
4414 18.8116 3344.10 3614.41 60.30
4415 18.8154 3427.00 3613.05 62.30
4416 18.8191 3452.50 3611.70 62.10
4417 18.8229 3424.80 3610.35 62.10
4418 18.8267 3431.60 3608.99 62.10
4419 18.8304 3485.60 3607.64 62.30
4420 18.8342 3433.70 3606.29 62.40
4421 18.8379 3477.80 3604.94 62.00
4422 18.8417 3565.60 3603.60 63.60
4423 18.8455 3437.90 3602.25 62.10
4424 18.8492 3521.60 3600.91 63.10
4425 18.8530 3420.70 3599.56 62.20
4426 18.8567 3323.70 3598.22 61.40
4427 18.8605 3527.50 3596.88 63.20
4428 18.8643 3453.20 3595.54 62.00
4429 18.8680 3365.80 3594.20 61.20
4430 18.8718 3444.30 3592.86 61.90
4431 18.8755 3437.30 3591.53 62.70
4432 18.8793 3459.50 3590.19 62.60
4433 18.8831 3571.40 3588.86 63.30
4434 18.8868 3564.20 3587.52 63.80
4435 18.8906 3530.30 3586.19 63.20
4436 18.8944 3523.00 3584.86 63.00
4437 18.8981 3529.50 3583.53 63.50
4438 18.9019 3442.30 3582.20 61.60
4439 18.9056 3414.70 3580.88 62.60
4440 18.9094 3397.20 3579.55 62.40
4441 18.9132 3397.40 3578.23 62.30
4442 18.9169 3354.80 3576.90 61.90
4443 18.9207 3497.70 3575.58 62.30
4444 18.9244 3443.00 3574.26 62.60
4445 18.9282 3442.00 3572.94 62.30
4446 18.9319 3463.00 3571.63 62.40
4447 18.9357 3425.60 3570.31 62.40
4448 18.9395 3453.50 3568.99 61.70
4449 18.9432 3466.40 3567.68 63.00
4450 18.9470 3513.40 3566.37 62.80
4451 18.9508 3345.60 3565.05 62.10
4452 18.9545 3516.50 3563.74 62.90
4453 18.9583 3513.10 3562.44 63.50
4454 18.9620 3393.60 3561.13 62.30
4455 18.9658 3402.90 3559.82 62.20
4456 18.9695 3346.70 3558.52 61.80
4457 18.9733 3331.60 3557.21 61.50
4458 18.9771 3491.20 3555.91 62.80
4459 18.9808 3397.80 3554.61 62.30
4460 18.9846 3447.40 3553.31 62.60
4461 18.9884 3360.90 3552.00 61.30
4462 18.9921 3400.70 3550.71 61.80
4463 18.9959 3337.30 3549.41 61.60
4464 18.9996 3448.30 3548.11 62.50
4465 19.0034 3361.40 3546.82 61.40
4466 19.0072 3348.50 3545.53 61.60
4467 19.0109 3442.60 3544.23 62.60
4468 19.0147 3427.00 3542.94 62.00
4469 19.0184 3297.00 3541.65 61.20
4470 19.0222 3516.10 3540.37 63.50
4471 19.0260 3509.30 3539.08 63.70
4472 19.0297 3441.70 3537.79 62.70
4473 19.0335 3370.40 3536.51 61.80
4474 19.0372 3348.60 3535.23 60.50
4475 19.0410 3275.30 3533.94 61.00
4476 19.0448 3288.10 3532.66 61.30
4477 19.0485 3382.60 3531.39 62.70
4478 19.0523 3383.00 3530.11 62.10
4479 19.0560 3289.60 3528.83 61.10
4480 19.0598 3376.40 3527.56 61.60
4481 19.0636 3386.90 3526.28 61.70
4482 19.0673 3500.60 3525.00 63.30
4483 19.0711 3257.40 3523.73 61.10
4484 19.0749 3430.20 3522.46 62.60
4485 19.0786 3326.30 3521.19 61.60
4486 19.0824 3321.50 3519.92 61.90
4487 19.0861 3353.70 3518.66 61.20
4488 19.0899 3489.00 3517.39 63.20
4489 19.0937 3368.90 3516.13 61.90
4490 19.0974 3344.50 3514.86 61.90
4491 19.1012 3392.60 3513.60 62.00
4492 19.1049 3311.30 3512.34 61.70
4493 19.1087 3361.10 3511.08 61.70
4494 19.1124 3351.60 3509.83 62.00
4495 19.1162 3386.90 3508.57 62.40
4496 19.1200 3389.80 3507.31 62.20
4497 19.1237 3375.00 3506.06 63.10
4498 19.1275 3248.90 3504.81 60.30
4499 19.1313 3325.30 3503.55 61.50
4500 19.1350 3355.90 3502.30 62.20
4501 19.1388 3366.70 3501.05 61.50
4502 19.1425 3362.40 3499.80 60.40
4503 19.1463 3316.70 3498.56 61.50
4504 19.1501 3410.10 3497.31 62.50
4505 19.1538 3456.50 3496.07 62.90
4506 19.1576 3218.50 3494.82 60.10
4507 19.1613 3368.90 3493.58 61.30
4508 19.1651 3354.70 3492.34 61.30
4509 19.1689 3330.30 3491.10 60.10
4510 19.1726 3218.70 3489.86 60.30
4511 19.1764 3255.20 3488.63 61.40
4512 19.1801 3305.80 3487.39 61.30
4513 19.1839 3293.60 3486.16 61.50
4514 19.1877 3394.70 3484.92 62.00
4515 19.1914 3184.40 3483.69 60.40
4516 19.1952 3406.80 3482.46 61.30
4517 19.1989 3223.60 3481.23 60.80
4518 19.2027 3374.30 3480.00 62.00
4519 19.2065 3371.30 3478.78 62.70
4520 19.2102 3368.00 3477.55 62.00
4521 19.2140 3284.90 3476.33 61.10
4522 19.2178 3419.40 3475.10 62.40
4523 19.2215 3276.50 3473.88 61.10
4524 19.2253 3389.80 3472.66 62.40
4525 19.2290 3375.20 3471.44 61.70
4526 19.2328 3356.70 3470.23 61.30
4527 19.2366 3206.00 3469.01 60.00
4528 19.2403 3345.10 3467.79 61.80
4529 19.2441 3378.40 3466.58 62.60
4530 19.2478 3267.50 3465.36 61.20
4531 19.2516 3302.20 3464.15 60.80
4532 19.2554 3261.80 3462.94 60.70
4533 19.2591 3367.50 3461.73 61.90
4534 19.2629 3421.30 3460.53 62.10
4535 19.2666 3342.20 3459.32 61.40
4536 19.2704 3393.70 3458.11 62.80
4537 19.2742 3252.50 3456.91 61.10
4538 19.2779 3296.30 3455.71 61.20
4539 19.2817 3243.60 3454.51 61.10
4540 19.2854 3297.80 3453.30 61.60
4541 19.2892 3406.70 3452.10 61.40
4542 19.2930 3371.70 3450.91 62.10
4543 19.2967 3177.00 3449.71 60.40
4544 19.3005 3369.30 3448.51 61.90
4545 19.3043 3225.80 3447.32 60.50
4546 19.3080 3349.50 3446.13 62.80
4547 19.3118 3343.60 3444.94 62.40
4548 19.3155 3346.60 3443.75 62.60
4549 19.3193 3340.50 3442.56 60.90
4550 19.3230 3264.00 3441.37 61.20
4551 19.3268 3231.90 3440.18 61.30
4552 19.3306 3301.00 3439.00 61.40
4553 19.3343 3336.20 3437.81 62.30
4554 19.3381 3276.60 3436.63 61.30
4555 19.3419 3274.00 3435.45 61.90
4556 19.3456 3404.50 3434.27 62.40
4557 19.3494 3243.00 3433.09 61.80
4558 19.3531 3254.90 3431.91 61.80
4559 19.3569 3435.80 3430.73 62.70
4560 19.3607 3277.00 3429.56 61.70
4561 19.3644 3298.00 3428.39 61.30
4562 19.3682 3271.40 3427.21 60.40
4563 19.3719 3292.60 3426.04 61.60
4564 19.3757 3222.40 3424.87 60.60
4565 19.3795 3151.90 3423.70 59.90
4566 19.3832 3346.40 3422.53 62.30
4567 19.3870 3228.90 3421.37 60.20
4568 19.3908 3326.10 3420.20 61.20
4569 19.3945 3185.60 3419.04 60.50
4570 19.3983 3271.80 3417.88 60.90
4571 19.4020 3175.60 3416.72 60.30
4572 19.4058 3409.40 3415.56 62.70
4573 19.4095 3291.30 3414.40 61.70
4574 19.4133 3307.00 3413.24 61.70
4575 19.4171 3267.90 3412.08 61.80
4576 19.4208 3348.50 3410.93 62.50
4577 19.4246 3200.00 3409.78 59.30
4578 19.4284 3310.80 3408.62 60.70
4579 19.4321 3389.60 3407.47 62.00
4580 19.4359 3300.00 3406.32 61.30
4581 19.4396 3305.30 3405.17 61.30
4582 19.4434 3239.20 3404.02 60.30
4583 19.4472 3191.00 3402.88 60.00
4584 19.4509 3255.80 3401.73 60.80
4585 19.4547 3349.00 3400.59 62.20
4586 19.4584 3273.90 3399.45 61.80
4587 19.4622 3272.10 3398.31 59.50
4588 19.4660 3213.40 3397.16 60.30
4589 19.4697 3311.20 3396.03 61.50
4590 19.4735 3221.10 3394.89 60.50
4591 19.4772 3226.90 3393.75 60.40
4592 19.4810 3261.90 3392.62 60.30
4593 19.4848 3289.80 3391.49 61.30
4594 19.4885 3248.10 3390.35 61.30
4595 19.4923 3244.70 3389.22 60.70
4596 19.4960 3252.20 3388.09 60.70
4597 19.4998 3175.40 3386.96 60.80
4598 19.5036 3228.10 3385.84 60.20
4599 19.5073 3249.10 3384.71 60.30
4600 19.5111 3218.70 3383.58 60.10
4601 19.5149 3233.70 3382.46 60.10
4602 19.5186 3181.80 3381.34 59.90
4603 19.5224 3262.80 3380.22 61.40
4604 19.5261 3372.00 3379.10 62.40
4605 19.5299 3257.90 3377.98 60.30
4606 19.5337 3185.70 3376.86 60.20
4607 19.5374 3211.90 3375.75 61.00
4608 19.5412 3292.40 3374.63 61.80
4609 19.5449 3167.20 3373.52 60.60
4610 19.5487 3208.90 3372.41 61.30
4611 19.5525 3273.10 3371.30 61.50
4612 19.5562 3298.50 3370.19 61.60
4613 19.5600 3246.20 3369.08 60.90
4614 19.5637 3233.50 3367.97 60.70
4615 19.5675 3162.30 3366.87 60.70
4616 19.5713 3171.10 3365.76 59.80
4617 19.5750 3231.20 3364.66 60.70
4618 19.5788 3251.20 3363.56 60.70
4619 19.5826 3013.50 3362.46 58.20
4620 19.5863 3220.90 3361.36 61.40
4621 19.5901 3188.50 3360.26 60.50
4622 19.5938 3168.40 3359.16 60.60
4623 19.5976 3175.80 3358.06 59.10
4624 19.6014 3239.70 3356.97 61.50
4625 19.6051 3096.40 3355.88 61.00
4626 19.6089 3114.90 3354.79 60.80
4627 19.6126 3079.40 3353.69 59.70
4628 19.6164 3215.90 3352.61 61.00
4629 19.6202 3279.10 3351.52 60.90
4630 19.6239 3232.00 3350.43 61.70
4631 19.6277 3218.70 3349.35 61.00
4632 19.6314 3105.40 3348.26 59.70
4633 19.6352 3180.20 3347.18 61.60
4634 19.6390 3344.00 3346.09 62.30
4635 19.6427 3157.30 3345.01 59.60
4636 19.6465 3262.60 3343.94 60.40
4637 19.6502 3187.40 3342.86 60.00
4638 19.6540 3268.40 3341.78 61.70
4639 19.6578 3208.70 3340.71 61.30
4640 19.6615 3197.40 3339.63 61.50
4641 19.6653 3209.20 3338.56 61.30
4642 19.6691 3241.80 3337.49 61.30
4643 19.6728 3096.30 3336.42 59.40
4644 19.6766 3231.10 3335.35 61.60
4645 19.6803 3217.70 3334.28 61.50
4646 19.6841 3261.80 3333.21 62.60
4647 19.6879 3214.50 3332.15 61.20
4648 19.6916 3227.90 3331.08 61.20
4649 19.6954 3156.00 3330.02 61.10
4650 19.6991 3227.80 3328.96 61.20
4651 19.7029 3116.50 3327.90 58.40
4652 19.7067 3247.10 3326.84 60.80
4653 19.7104 3304.40 3325.78 62.00
4654 19.7142 3198.00 3324.72 61.20
4655 19.7180 3133.90 3323.67 60.10
4656 19.7217 3307.10 3322.61 62.00
4657 19.7255 3102.50 3321.56 60.00
4658 19.7292 3245.50 3320.51 61.40
4659 19.7330 3144.20 3319.46 60.70
4660 19.7367 3201.40 3318.41 61.40
4661 19.7405 3196.80 3317.36 60.30
4662 19.7443 3330.90 3316.31 62.10
4663 19.7480 3074.10 3315.27 59.60
4664 19.7518 3226.60 3314.23 61.20
4665 19.7556 3122.00 3313.18 60.30
4666 19.7593 3194.70 3312.14 62.00
4667 19.7631 3167.20 3311.10 60.70
4668 19.7668 3276.90 3310.06 61.40
4669 19.7706 3200.50 3309.02 60.70
4670 19.7744 3244.70 3307.99 61.20
4671 19.7781 3120.60 3306.95 59.40
4672 19.7819 3247.10 3305.92 62.00
4673 19.7856 3218.50 3304.88 60.70
4674 19.7894 3189.90 3303.85 60.90
4675 19.7932 3124.90 3302.82 60.40
4676 19.7969 3140.00 3301.79 59.50
4677 19.8007 3147.60 3300.77 59.50
4678 19.8044 3195.10 3299.74 60.30
4679 19.8082 3160.70 3298.71 59.40
4680 19.8120 3191.60 3297.69 59.30
4681 19.8157 3195.40 3296.67 60.90
4682 19.8195 3183.80 3295.64 61.30
4683 19.8232 3041.10 3294.62 59.00
4684 19.8270 3325.50 3293.60 62.70
4685 19.8308 3159.20 3292.59 60.60
4686 19.8345 3197.30 3291.57 60.70
4687 19.8383 3154.40 3290.56 61.10
4688 19.8421 3145.50 3289.54 59.80
4689 19.8458 3025.10 3288.53 59.10
4690 19.8496 3104.50 3287.51 58.80
4691 19.8533 3202.70 3286.50 61.50
4692 19.8571 3180.10 3285.50 61.00
4693 19.8609 3134.70 3284.49 60.50
4694 19.8646 3123.50 3283.48 59.50
4695 19.8684 3173.30 3282.48 60.70
4696 19.8721 3182.30 3281.47 60.10
4697 19.8759 3197.30 3280.47 61.30
4698 19.8797 3244.20 3279.47 60.90
4699 19.8834 3205.30 3278.47 59.50
4700 19.8872 3234.40 3277.47 61.10
4701 19.8909 3260.80 3276.47 61.40
4702 19.8947 3124.50 3275.48 60.00
4703 19.8985 3124.10 3274.48 60.20
4704 19.9022 3147.30 3273.48 60.30
4705 19.9060 3080.70 3272.49 59.80
4706 19.9097 3257.80 3271.50 61.90
4707 19.9135 3145.10 3270.51 60.60
4708 19.9173 3210.00 3269.52 61.40
4709 19.9210 3131.80 3268.53 59.80
4710 19.9248 3188.30 3267.55 60.70
4711 19.9286 3200.20 3266.56 61.20
4712 19.9323 3144.80 3265.58 60.60
4713 19.9361 3146.50 3264.59 60.30
4714 19.9398 3166.60 3263.61 60.90
4715 19.9436 3089.10 3262.63 59.70
4716 19.9474 3158.30 3261.65 60.00
4717 19.9511 3159.70 3260.67 61.20
4718 19.9549 3204.80 3259.70 60.40
4719 19.9586 3127.60 3258.72 60.10
4720 19.9624 3248.30 3257.75 61.40
4721 19.9662 3113.80 3256.77 59.80
4722 19.9699 3198.30 3255.80 61.20
4723 19.9737 3144.70 3254.83 59.40
4724 19.9774 3045.00 3253.86 58.20
4725 19.9812 3051.80 3252.89 58.50
4726 19.9850 3104.80 3251.93 60.00
4727 19.9887 3103.20 3250.96 60.20
4728 19.9925 3173.20 3249.99 60.80
4729 19.9962 3117.90 3249.03 60.40
4730 20.0000 3106.50 3248.07 59.60
4731 20.0038 3208.70 3247.11 61.10
4732 20.0075 3113.90 3246.15 59.70
4733 20.0113 3155.60 3245.19 59.20
4734 20.0151 3113.60 3244.23 59.80
4735 20.0188 3070.90 3243.28 59.80
4736 20.0226 3223.60 3242.33 61.80
4737 20.0263 3010.00 3241.37 58.60
4738 20.0301 3123.40 3240.42 60.00
4739 20.0338 3090.00 3239.47 59.20
4740 20.0376 3018.00 3238.52 59.10
4741 20.0414 3109.90 3237.57 60.00
4742 20.0451 3077.20 3236.62 59.90
4743 20.0489 3050.60 3235.68 59.30
4744 20.0527 3150.00 3234.73 60.30
4745 20.0564 3099.80 3233.79 59.30
4746 20.0602 3078.70 3232.85 59.20
4747 20.0639 3133.70 3231.91 60.70
4748 20.0677 3070.10 3230.97 59.70
4749 20.0715 3060.00 3230.03 58.60
4750 20.0752 3079.20 3229.09 59.60
4751 20.0790 3085.50 3228.15 59.40
4752 20.0827 3124.70 3227.22 60.60
4753 20.0865 3143.20 3226.29 61.30
4754 20.0903 3175.30 3225.35 61.20
4755 20.0940 3095.80 3224.42 59.20
4756 20.0978 3234.30 3223.49 61.00
4757 20.1015 3085.00 3222.56 59.30
4758 20.1053 3188.40 3221.64 60.40
4759 20.1091 2972.10 3220.71 57.90
4760 20.1128 3154.40 3219.78 60.30
4761 20.1166 3048.70 3218.86 59.20
4762 20.1203 3226.00 3217.94 61.10
4763 20.1241 3099.70 3217.02 59.40
4764 20.1279 3215.90 3216.10 60.90
4765 20.1316 3042.40 3215.18 58.60
4766 20.1354 3126.40 3214.26 59.40
4767 20.1392 3044.10 3213.34 58.30
4768 20.1429 3207.10 3212.43 59.80
4769 20.1467 3084.20 3211.51 58.30
4770 20.1504 3197.80 3210.60 60.90
4771 20.1542 3069.00 3209.69 59.70
4772 20.1579 3137.90 3208.78 60.40
4773 20.1617 3040.20 3207.87 58.90
4774 20.1655 3131.70 3206.96 59.50
4775 20.1692 3127.00 3206.06 59.90
4776 20.1730 3041.60 3205.15 58.60
4777 20.1768 3058.30 3204.24 59.00
4778 20.1805 3277.80 3203.34 61.10
4779 20.1843 3048.40 3202.44 58.70
4780 20.1880 3174.00 3201.54 60.10
4781 20.1918 3056.00 3200.64 59.50
4782 20.1956 3168.10 3199.74 60.30
4783 20.1993 3087.60 3198.84 59.30
4784 20.2031 3168.90 3197.95 60.40
4785 20.2068 3012.20 3197.05 57.30
4786 20.2106 3074.50 3196.16 59.20
4787 20.2144 3128.10 3195.27 59.30
4788 20.2181 3074.60 3194.38 59.80
4789 20.2219 3092.70 3193.49 59.70
4790 20.2256 3127.90 3192.60 59.50
4791 20.2294 2976.00 3191.71 58.70
4792 20.2332 3138.50 3190.82 60.30
4793 20.2369 3052.60 3189.94 59.50
4794 20.2407 3171.80 3189.06 60.50
4795 20.2444 3088.60 3188.17 59.50
4796 20.2482 3126.00 3187.29 60.60
4797 20.2520 3058.50 3186.41 58.90
4798 20.2557 3033.80 3185.53 58.80
4799 20.2595 3073.30 3184.65 59.50
4800 20.2633 3099.20 3183.78 60.00
4801 20.2670 3029.70 3182.90 59.10
4802 20.2708 3181.60 3182.03 60.80
4803 20.2745 3066.80 3181.15 59.10
4804 20.2783 3119.80 3180.28 59.80
4805 20.2820 3005.10 3179.41 59.30
4806 20.2858 3155.40 3178.54 59.60
4807 20.2896 3060.20 3177.68 59.30
4808 20.2933 3082.10 3176.81 59.50
4809 20.2971 3056.10 3175.94 58.80
4810 20.3008 3016.30 3175.08 58.50
4811 20.3046 3129.60 3174.22 60.00
4812 20.3084 3018.40 3173.35 58.60
4813 20.3121 3146.70 3172.49 59.40
4814 20.3159 3117.40 3171.63 60.20
4815 20.3197 3034.60 3170.77 58.80
4816 20.3234 3093.40 3169.92 60.00
4817 20.3272 3078.60 3169.06 59.80
4818 20.3309 3035.60 3168.21 59.00
4819 20.3347 2977.70 3167.35 57.90
4820 20.3384 3110.70 3166.50 61.00
4821 20.3422 2996.80 3165.65 59.20
4822 20.3460 3132.60 3164.80 60.40
4823 20.3497 3094.40 3163.95 59.60
4824 20.3535 3097.80 3163.10 59.70
4825 20.3573 2998.60 3162.25 59.20
4826 20.3610 3118.40 3161.41 60.20
4827 20.3648 2975.80 3160.56 58.50
4828 20.3685 3127.60 3159.72 59.80
4829 20.3723 2949.10 3158.88 57.90
4830 20.3761 3095.90 3158.04 60.20
4831 20.3798 3000.60 3157.20 58.60
4832 20.3836 3164.60 3156.36 59.20
4833 20.3873 2979.00 3155.52 58.10
4834 20.3911 3071.50 3154.69 59.50
4835 20.3949 3065.20 3153.85 59.80
4836 20.3986 3089.30 3153.02 59.90
4837 20.4024 3063.00 3152.19 59.40
4838 20.4061 3040.50 3151.35 58.70
4839 20.4099 3034.40 3150.52 58.90
4840 20.4137 3050.00 3149.70 58.10
4841 20.4174 3018.80 3148.87 59.10
4842 20.4212 3002.50 3148.04 57.90
4843 20.4249 3150.90 3147.22 60.80
4844 20.4287 3125.80 3146.39 60.20
4845 20.4325 3095.30 3145.57 60.20
4846 20.4362 3084.00 3144.75 59.70
4847 20.4400 3153.00 3143.93 60.00
4848 20.4437 3093.00 3143.11 59.90
4849 20.4475 3025.00 3142.29 58.90
4850 20.4513 3140.50 3141.47 60.70
4851 20.4550 3086.40 3140.66 59.80
4852 20.4588 3103.40 3139.84 60.20
4853 20.4625 3013.10 3139.03 58.30
4854 20.4663 3095.50 3138.22 59.00
4855 20.4701 3020.00 3137.40 58.20
4856 20.4738 3115.50 3136.59 60.80
4857 20.4776 3074.10 3135.79 60.10
4858 20.4813 3162.10 3134.98 60.70
4859 20.4851 2972.20 3134.17 58.80
4860 20.4889 3213.50 3133.37 61.80
4861 20.4926 3022.60 3132.56 59.30
4862 20.4964 3067.90 3131.76 59.80
4863 20.5001 3031.50 3130.96 59.50
4864 20.5039 3095.50 3130.16 59.90
4865 20.5077 2942.50 3129.36 58.00
4866 20.5114 3088.00 3128.56 60.70
4867 20.5152 2912.10 3127.76 58.70
4868 20.5189 3050.90 3126.96 60.60
4869 20.5227 3005.70 3126.17 59.50
4870 20.5265 3000.90 3125.38 58.40
4871 20.5302 3013.90 3124.58 59.30
4872 20.5340 3046.70 3123.79 60.30
4873 20.5377 2933.30 3123.00 58.60
4874 20.5415 3042.30 3122.21 59.30
4875 20.5453 3143.70 3121.42 60.40
4876 20.5490 3034.80 3120.64 59.30
4877 20.5528 2998.90 3119.85 58.50
4878 20.5565 2968.50 3119.07 58.80
4879 20.5603 3058.00 3118.28 59.40
4880 20.5641 3142.20 3117.50 60.80
4881 20.5678 3018.30 3116.72 59.90
4882 20.5716 3044.40 3115.94 61.40
4883 20.5753 3032.70 3115.16 59.60
4884 20.5791 3091.50 3114.38 60.50
4885 20.5829 2983.60 3113.61 60.20
4886 20.5866 3040.70 3112.83 60.40
4887 20.5904 2938.70 3112.06 57.40
4888 20.5941 3069.20 3111.29 60.00
4889 20.5979 3194.40 3110.52 60.50
4890 20.6017 3127.90 3109.75 62.10
4891 20.6054 2973.20 3108.97 59.40
4892 20.6092 3033.60 3108.21 60.10
4893 20.6129 3126.70 3107.44 61.50
4894 20.6167 2980.30 3106.67 60.10
4895 20.6204 2954.40 3105.91 60.30
4896 20.6242 3257.50 3105.15 63.00
4897 20.6280 2994.00 3104.38 60.60
4898 20.6317 3015.10 3103.62 60.80
4899 20.6355 3098.00 3102.86 61.60
4900 20.6392 3024.50 3102.10 59.30
4901 20.6430 3018.20 3101.34 60.20
4902 20.6468 3045.80 3100.59 60.40
4903 20.6505 3047.00 3099.83 60.60
4904 20.6543 3138.70 3099.08 61.00
4905 20.6581 3055.70 3098.32 60.30
4906 20.6618 3122.70 3097.57 61.70
4907 20.6656 2939.90 3096.82 59.80
4908 20.6693 3042.10 3096.07 61.30
4909 20.6731 2992.50 3095.32 61.40
4910 20.6768 3056.80 3094.57 60.40
4911 20.6806 3081.00 3093.83 60.90
4912 20.6844 3004.90 3093.08 60.30
4913 20.6881 2994.80 3092.34 59.80
4914 20.6919 2974.70 3091.59 59.70
4915 20.6957 3048.60 3090.85 60.70
4916 20.6994 3094.70 3090.11 59.80
4917 20.7032 3138.20 3089.37 61.40
4918 20.7069 3139.80 3088.63 60.60
4919 20.7107 3080.10 3087.89 61.40
4920 20.7144 3133.40 3087.16 61.90
4921 20.7182 3068.90 3086.42 60.40
4922 20.7220 3119.50 3085.69 61.70
4923 20.7257 3099.60 3084.96 61.30
4924 20.7295 3189.60 3084.22 61.90
4925 20.7332 2990.00 3083.49 59.20
4926 20.7370 3161.00 3082.76 61.10
4927 20.7408 3072.40 3082.03 60.80
4928 20.7445 3159.60 3081.31 61.90
4929 20.7483 2960.60 3080.58 59.50
4930 20.7520 3065.10 3079.85 60.10
4931 20.7558 3097.60 3079.13 60.20
4932 20.7596 3075.60 3078.41 60.00
4933 20.7633 3001.70 3077.68 60.20
4934 20.7671 3101.60 3076.97 61.00
4935 20.7708 3001.70 3076.25 60.60
4936 20.7746 3167.50 3075.53 62.20
4937 20.7784 3088.70 3074.81 61.10
4938 20.7821 3022.10 3074.09 59.00
4939 20.7859 3003.30 3073.38 58.70
4940 20.7896 3123.60 3072.66 59.80
4941 20.7934 3011.40 3071.95 59.50
4942 20.7971 3197.70 3071.24 62.30
4943 20.8009 3048.20 3070.53 60.50
4944 20.8047 3145.30 3069.82 61.90
4945 20.8084 3115.90 3069.11 61.10
4946 20.8122 3194.40 3068.40 61.90
4947 20.8160 2997.30 3067.70 59.30
4948 20.8197 3164.50 3066.99 61.70
4949 20.8235 3158.80 3066.29 60.60
4950 20.8272 3138.80 3065.58 61.70
4951 20.8310 3155.70 3064.88 60.20
4952 20.8347 3117.90 3220.64 61.80
4953 20.8385 3065.00 3229.05 60.00
4954 20.8423 3139.00 3238.27 60.90
4955 20.8460 3088.50 3248.42 61.30
4956 20.8498 3162.20 3259.60 61.30
4957 20.8535 3261.40 3271.95 62.60
4958 20.8573 3103.30 3285.64 60.50
4959 20.8611 3124.10 3300.84 61.50
4960 20.8648 3238.80 3317.74 62.80
4961 20.8686 3274.00 3336.67 62.80
4962 20.8723 3312.90 3357.91 64.10
4963 20.8761 3300.20 3381.85 62.70
4964 20.8799 3349.90 3408.93 63.10
4965 20.8836 3329.20 3439.71 63.60
4966 20.8874 3574.60 3474.87 66.40
4967 20.8911 3499.10 3515.27 66.00
4968 20.8949 3580.50 3561.98 65.90
4969 20.8986 3537.80 3616.34 65.90
4970 20.9024 3593.40 3679.93 64.80
4971 20.9062 3691.80 3755.24 67.80
4972 20.9099 3825.90 3845.16 67.90
4973 20.9137 3848.00 3953.61 67.10
4974 20.9174 4073.30 4085.95 70.60
4975 20.9212 4091.00 4249.61 70.40
4976 20.9250 4267.40 4455.11 72.00
4977 20.9287 4516.90 4717.71 75.00
4978 20.9325 4981.60 5060.17 78.60
4979 20.9362 5211.00 5517.86 80.50
4980 20.9400 5960.00 6147.72 86.00
4981 20.9438 6676.50 7065.58 92.30
4982 20.9475 8167.60 8521.81 102.10
4983 20.9513 10738.00 11096.60 119.80
4984 20.9550 17519.90 15925.30 157.50
4985 20.9588 31028.30 24581.20 216.90
4986 20.9625 53366.30 37948.30 302.10
4987 20.9663 66198.00 52645.40 341.30
4988 20.9701 68574.90 56491.60 340.90
4989 20.9738 59024.40 44729.90 323.10
4990 20.9776 43270.30 29876.00 265.00
4991 20.9813 23894.70 19143.90 186.80
4992 20.9851 13724.50 12836.20 137.60
4993 20.9889 9486.20 9450.69 111.20
4994 20.9926 7816.70 7604.13 99.40
4995 20.9964 6437.40 6494.24 90.90
4996 21.0001 5832.40 5757.10 85.60
4997 21.0039 5272.90 5231.06 81.80
4998 21.0077 4944.90 4842.46 77.00
4999 21.0114 4521.50 4547.00 72.90
5000 21.0152 4191.50 4317.45 73.00
5001 21.0189 4027.20 4135.69 69.50
5002 21.0227 3922.50 3989.39 69.30
5003 21.0264 3729.00 3869.93 66.60
5004 21.0302 3620.10 3771.34 66.10
5005 21.0340 3672.30 3688.68 67.10
5006 21.0377 3612.70 3618.86 66.60
5007 21.0415 3428.80 3559.31 64.40
5008 21.0452 3454.50 3508.09 65.00
5009 21.0490 3257.90 3463.77 62.70
5010 21.0528 3357.20 3425.11 62.40
5011 21.0565 3256.80 3391.25 60.20
5012 21.0603 3350.20 3361.29 62.40
5013 21.0640 3237.40 3334.72 61.00
5014 21.0678 3259.10 3311.01 61.10
5015 21.0716 3190.00 3289.77 59.70
5016 21.0753 3284.30 3270.68 61.30
5017 21.0791 3138.70 3253.46 59.30
5018 21.0828 3226.60 3237.80 60.30
5019 21.0866 3067.00 3223.56 58.70
5020 21.0903 3274.00 3210.56 61.10
5021 21.0941 3109.10 3198.64 58.80
5022 21.0979 3263.80 3187.72 61.30
5023 21.1016 3054.00 3177.64 58.90
5024 21.1054 3171.20 3016.57 59.70
5025 21.1091 3124.70 3015.95 60.10
5026 21.1129 3067.90 3015.32 59.20
5027 21.1166 3085.90 3014.70 59.40
5028 21.1204 3104.10 3014.08 59.70
5029 21.1242 2998.70 3013.47 58.50
5030 21.1279 3093.00 3012.85 58.40
5031 21.1317 2972.40 3012.23 58.20
5032 21.1354 3057.10 3011.62 59.20
5033 21.1392 3107.60 3011.00 60.20
5034 21.1430 3137.10 3010.39 60.20
5035 21.1467 3010.40 3009.78 58.70
5036 21.1505 3006.10 3009.17 58.50
5037 21.1542 2992.20 3008.56 58.70
5038 21.1580 3197.30 3007.95 61.30
5039 21.1618 3079.80 3007.34 59.00
5040 21.1655 3040.30 3006.73 58.80
5041 21.1693 3058.20 3006.13 59.30
5042 21.1730 2976.50 3005.52 59.00
5043 21.1768 2948.00 3004.92 57.80
5044 21.1805 3039.60 3004.31 57.70
5045 21.1843 3076.40 3003.71 59.40
5046 21.1880 3050.70 3003.11 59.30
5047 21.1918 2996.20 3002.51 58.50
5048 21.1956 2968.70 3001.91 57.80
5049 21.1993 3026.00 3001.31 59.10
5050 21.2031 3129.20 3000.72 59.80
5051 21.2068 2949.90 3000.12 57.40
5052 21.2106 3024.70 2999.53 58.70
5053 21.2144 2965.30 2998.93 58.10
5054 21.2181 3160.00 2998.34 60.40
5055 21.2219 2936.30 2997.75 58.30
5056 21.2256 2966.20 2997.16 58.10
5057 21.2294 3044.60 2996.57 59.00
5058 21.2332 3051.80 2995.98 59.20
5059 21.2369 2973.00 2995.39 58.70
5060 21.2407 3048.50 2994.81 59.20
5061 21.2444 2980.80 2994.22 58.20
5062 21.2482 3023.00 2993.63 57.70
5063 21.2519 2957.70 2993.05 58.20
5064 21.2557 3032.60 2992.47 58.60
5065 21.2595 3048.50 2991.89 59.30
5066 21.2632 3088.00 2991.31 58.90
5067 21.2670 2987.00 2990.73 59.00
5068 21.2707 2995.70 2990.15 57.90
5069 21.2745 2981.60 2989.57 58.80
5070 21.2782 3010.10 2988.99 58.00
5071 21.2820 3019.60 2988.42 58.90
5072 21.2858 3076.00 2987.84 59.30
5073 21.2895 3016.60 2987.27 58.80
5074 21.2933 3067.70 2986.70 59.60
5075 21.2970 2893.20 2986.12 57.60
5076 21.3008 3033.10 2985.55 59.00
5077 21.3045 2939.20 2984.99 58.20
5078 21.3083 3051.30 2984.42 58.80
5079 21.3121 2939.70 2983.85 57.90
5080 21.3158 2939.60 2983.28 58.20
5081 21.3196 2897.50 2982.72 56.90
5082 21.3233 3124.90 2982.15 60.30
5083 21.3271 2916.50 2981.59 57.50
5084 21.3309 2995.40 2981.02 57.90
5085 21.3346 3018.90 2980.46 58.90
5086 21.3384 2979.20 2979.90 58.60
5087 21.3421 2890.70 2979.34 58.00
5088 21.3459 3054.40 2978.78 59.00
5089 21.3496 2951.10 2978.23 58.10
5090 21.3534 2982.80 2977.67 59.00
5091 21.3571 2912.50 2977.11 58.30
5092 21.3609 2997.30 2976.56 58.80
5093 21.3647 2989.60 2976.00 58.80
5094 21.3684 3036.10 2975.45 59.10
5095 21.3722 3019.30 2974.90 58.90
5096 21.3759 3025.40 2974.35 57.90
5097 21.3797 2920.10 2973.80 57.00
5098 21.3834 2946.30 2973.25 58.60
5099 21.3872 2904.60 2972.70 58.20
5100 21.3910 2996.00 2972.15 59.50
5101 21.3947 2969.60 2971.61 58.60
5102 21.3985 3063.40 2971.06 58.70
5103 21.4022 3002.60 2970.52 59.40
5104 21.4060 2909.30 2969.97 57.40
5105 21.4097 2928.00 2969.43 59.00
5106 21.4135 2994.00 2968.89 58.90
5107 21.4173 2930.70 2968.35 57.30
5108 21.4210 3033.60 2967.81 59.00
5109 21.4248 2868.00 2967.27 57.50
5110 21.4285 3101.10 2966.73 59.20
5111 21.4323 2887.40 2966.20 57.70
5112 21.4361 3004.20 2965.66 58.20
5113 21.4398 2952.30 2965.13 59.10
5114 21.4436 2848.30 2964.59 56.70
5115 21.4473 2867.00 2964.06 57.40
5116 21.4511 3049.60 2963.53 59.30
5117 21.4548 2917.00 2963.00 57.40
5118 21.4586 3046.70 2962.47 59.80
5119 21.4624 2979.60 2961.94 59.20
5120 21.4661 2870.90 2961.41 57.70
5121 21.4699 2885.00 2960.89 57.50
5122 21.4736 2945.70 2960.36 58.20
5123 21.4774 2986.00 2959.83 59.90
5124 21.4811 3047.30 2959.31 59.10
5125 21.4849 2957.40 2958.79 58.40
5126 21.4886 2958.70 2958.26 58.10
5127 21.4924 2903.70 2957.74 58.10
5128 21.4962 2997.60 2957.22 58.80
5129 21.4999 2970.00 2956.70 57.00
5130 21.5037 3019.40 2956.18 59.70
5131 21.5074 2932.50 2955.67 58.50
5132 21.5112 3104.30 2955.15 60.00
5133 21.5149 2935.10 2954.63 58.50
5134 21.5187 3026.30 2954.12 59.90
5135 21.5225 2979.70 2953.61 58.80
5136 21.5262 2907.30 2953.09 56.70
5137 21.5300 2856.20 2952.58 57.80
5138 21.5337 2930.40 2952.07 58.60
5139 21.5375 2888.20 2951.56 57.40
5140 21.5412 2943.40 2951.05 56.20
5141 21.5450 2824.20 2950.54 56.60
5142 21.5488 2923.80 2950.03 57.70
5143 21.5525 2902.10 2949.53 57.30
5144 21.5563 2992.30 2949.02 58.10
5145 21.5600 2889.80 2948.52 56.80
5146 21.5638 3165.10 2948.02 59.60
5147 21.5675 3036.40 2947.51 58.60
5148 21.5713 2894.60 2947.01 56.30
5149 21.5751 2925.50 2946.51 57.30
5150 21.5788 2903.70 2946.01 57.30
5151 21.5826 2972.00 2945.51 58.30
5152 21.5863 2945.50 2945.01 57.80
5153 21.5901 2968.90 2944.51 57.50
5154 21.5938 3029.60 2944.02 58.70
5155 21.5976 2904.60 2943.52 57.30
5156 21.6014 2970.20 2943.03 57.50
5157 21.6051 3050.30 2942.54 58.80
5158 21.6089 3028.10 2942.04 58.70
5159 21.6126 2924.90 2941.55 57.80
5160 21.6164 2997.60 2941.06 58.10
5161 21.6201 2860.60 2940.57 57.30
5162 21.6239 2974.40 2940.08 58.20
5163 21.6276 2996.60 2939.59 58.30
5164 21.6314 2963.90 2939.11 57.80
5165 21.6352 2864.90 2938.62 56.60
5166 21.6389 2862.30 2938.13 56.90
5167 21.6427 2859.50 2937.65 56.80
5168 21.6464 2950.60 2937.17 57.20
5169 21.6502 2887.40 2936.68 57.80
5170 21.6539 3109.20 2936.20 59.00
5171 21.6577 2928.90 2935.72 58.00
5172 21.6614 3015.30 2935.24 58.60
5173 21.6652 2960.40 2934.76 57.10
5174 21.6690 3012.90 2934.28 58.20
5175 21.6727 2999.60 2933.81 57.90
5176 21.6765 2971.30 2933.33 58.00
5177 21.6802 2975.50 2932.86 58.00
5178 21.6840 3068.30 2932.38 59.10
5179 21.6877 2872.10 2931.91 56.90
5180 21.6915 3133.00 2931.43 60.00
5181 21.6952 2908.50 2930.96 57.60
5182 21.6990 2988.00 2930.49 58.70
5183 21.7028 2857.50 2930.02 56.00
5184 21.7065 3065.80 2929.55 58.40
5185 21.7103 3015.10 2929.08 58.70
5186 21.7140 2973.40 2928.62 57.40
5187 21.7178 2830.00 2928.15 57.00
5188 21.7215 3011.80 2927.68 58.70
5189 21.7253 2920.70 2927.22 56.70
5190 21.7290 2980.40 2926.75 57.60
5191 21.7328 2925.40 2926.29 57.40
5192 21.7366 2972.30 2925.83 58.30
5193 21.7403 2884.60 2925.37 56.50
5194 21.7441 2940.60 2924.91 58.60
5195 21.7478 2964.20 2924.45 58.50
5196 21.7516 2940.80 2923.99 57.50
5197 21.7553 2927.60 2923.53 58.50
5198 21.7591 3009.40 2923.07 58.70
5199 21.7628 2939.30 2922.62 57.90
5200 21.7666 2936.90 2922.16 57.60
5201 21.7704 2927.20 2921.71 58.20
5202 21.7741 2915.70 2921.25 57.50
5203 21.7779 3008.70 2920.80 59.00
5204 21.7816 2964.60 2920.35 57.50
5205 21.7854 2984.20 2919.90 58.90
5206 21.7891 2925.60 2919.45 57.70
5207 21.7929 2939.90 2919.00 57.40
5208 21.7966 2912.90 2918.55 57.40
5209 21.8004 2888.80 2918.10 55.80
5210 21.8042 2892.80 2917.66 57.90
5211 21.8079 2868.40 2917.21 56.00
5212 21.8117 2956.90 2916.77 58.60
5213 21.8154 2934.20 2916.32 58.10
5214 21.8192 3011.50 2915.88 58.90
5215 21.8229 2956.10 2915.43 57.70
5216 21.8267 2998.20 2914.99 58.40
5217 21.8305 2930.80 2914.55 57.80
5218 21.8342 2992.30 2914.11 58.90
5219 21.8380 2923.20 2913.67 58.00
5220 21.8417 2959.80 2913.24 57.90
5221 21.8455 2901.10 2912.80 58.00
5222 21.8492 2977.80 2912.36 58.20
5223 21.8530 2843.30 2911.93 57.70
5224 21.8567 2841.30 2911.49 56.80
5225 21.8605 2902.20 2911.06 58.20
5226 21.8642 2952.10 2910.62 58.30
5227 21.8680 2858.60 2910.19 56.80
5228 21.8717 2912.20 2909.76 57.40
5229 21.8755 2845.60 2909.33 56.10
5230 21.8793 2998.90 2908.90 58.40
5231 21.8830 2925.70 2908.47 57.30
5232 21.8868 3006.80 2908.04 58.50
5233 21.8905 3020.70 2907.62 58.80
5234 21.8943 3031.10 2907.19 59.00
5235 21.8980 3002.30 2906.76 58.90
5236 21.9018 2985.80 2906.34 58.50
5237 21.9056 2940.20 2905.91 58.20
5238 21.9093 3063.10 2905.49 59.40
5239 21.9131 2827.00 2905.07 56.50
5240 21.9168 2959.30 2904.65 58.90
5241 21.9206 2870.30 2904.23 57.40
5242 21.9243 2935.60 2903.81 57.90
5243 21.9281 2972.50 2903.39 58.20
5244 21.9318 2949.40 2902.97 58.10
5245 21.9356 2942.20 2902.55 58.50
5246 21.9393 2913.90 2902.14 57.50
5247 21.9431 2807.00 2901.72 56.70
5248 21.9468 2912.60 2901.30 57.60
5249 21.9506 2906.60 2900.89 58.10
5250 21.9544 2953.50 2900.48 57.60
5251 21.9581 2851.60 2900.06 57.10
5252 21.9619 3013.90 2899.65 59.20
5253 21.9656 2883.90 2899.24 57.90
5254 21.9694 2985.90 2898.83 57.90
5255 21.9731 2947.70 2898.42 58.00
5256 21.9769 2865.00 2898.01 57.60
5257 21.9806 2895.00 2897.61 57.50
5258 21.9844 2991.90 2897.20 58.20
5259 21.9881 2904.20 2896.79 57.50
5260 21.9902 2864.20 2896.57 55.90
5261 21.9940 2975.40 2896.16 59.20
5262 21.9977 2918.90 2895.76 58.40
5263 22.0015 2978.80 2895.36 58.70
5264 22.0053 2852.10 2894.95 57.60
5265 22.0090 3019.00 2894.55 59.80
5266 22.0128 2866.10 2894.15 57.60
5267 22.0165 2921.10 2893.75 56.80
5268 22.0203 3024.20 2893.35 59.60
5269 22.0240 2975.10 2892.95 59.00
5270 22.0278 2812.00 2892.55 56.60
5271 22.0315 3043.50 2892.16 57.20
5272 22.0353 2899.10 2891.76 57.40
5273 22.0391 3073.70 2891.36 59.20
5274 22.0428 2884.90 2890.97 57.20
5275 22.0466 2930.10 2890.58 57.50
5276 22.0503 2859.90 2890.18 56.50
5277 22.0541 2930.60 2889.79 57.20
5278 22.0578 2939.10 2889.40 57.60
5279 22.0616 2837.10 2889.01 55.70
5280 22.0653 2851.70 2888.62 56.50
5281 22.0691 2979.10 2888.23 58.10
5282 22.0729 2899.80 2887.84 57.60
5283 22.0766 2904.20 2887.45 57.30
5284 22.0804 2843.20 2887.06 56.20
5285 22.0841 2981.00 2886.68 58.20
5286 22.0879 2896.50 2886.29 57.20
5287 22.0917 2972.10 2885.91 57.50
5288 22.0954 2936.50 2885.52 57.70
5289 22.0992 2956.40 2885.14 57.90
5290 22.1029 2865.10 2884.76 57.10
5291 22.1067 2947.70 2884.38 57.50
5292 22.1104 2859.60 2884.00 57.20
5293 22.1142 2940.00 2883.62 57.80
5294 22.1179 3012.80 2883.24 58.50
5295 22.1217 2849.60 2882.86 56.60
5296 22.1255 2855.90 2882.48 56.50
5297 22.1292 2911.70 2882.10 57.50
5298 22.1330 2907.80 2881.73 57.30
5299 22.1367 2968.40 2881.35 57.40
5300 22.1405 2940.90 2880.98 58.40
5301 22.1442 2930.80 2880.60 57.10
5302 22.1480 2895.20 2880.23 57.60
5303 22.1518 3012.30 2879.86 58.50
5304 22.1555 2870.10 2879.49 56.20
5305 22.1593 3017.90 2879.11 58.20
5306 22.1630 2879.30 2878.74 56.70
5307 22.1668 2918.90 2878.37 57.50
5308 22.1705 2880.10 2878.01 57.00
5309 22.1743 2930.00 2877.64 57.70
5310 22.1780 2882.20 2877.27 57.00
5311 22.1818 2950.70 2876.90 58.10
5312 22.1856 2831.30 2876.54 56.80
5313 22.1893 2951.10 2876.17 58.30
5314 22.1931 2944.60 2875.81 56.90
5315 22.1968 2962.00 2875.45 57.40
5316 22.2006 2922.90 2875.08 57.70
5317 22.2043 2858.00 2874.72 56.20
5318 22.2081 2933.20 2874.36 58.00
5319 22.2118 2859.30 2874.00 57.10
5320 22.2156 2969.70 2873.64 57.20
5321 22.2194 2909.20 2873.28 56.90
5322 22.2231 2895.40 2872.92 57.10
5323 22.2243 2979.70 2872.81 57.00
5324 22.2280 2986.60 2872.45 57.40
5325 22.2318 2874.10 2872.10 56.30
5326 22.2355 3020.40 2871.74 57.90
5327 22.2393 2911.20 2871.39 57.20
5328 22.2430 2969.60 2871.03 57.20
5329 22.2468 3052.10 2870.68 58.70
5330 22.2505 3027.50 2870.32 58.00
5331 22.2543 2929.40 2869.97 56.40
5332 22.2581 3073.80 2869.62 58.60
5333 22.2618 3007.80 2869.27 58.30
5334 22.2656 3153.90 2868.92 58.80
5335 22.2693 3052.40 2868.57 58.20
5336 22.2731 3251.90 2868.22 60.10
5337 22.2768 3113.10 2867.87 58.90
5338 22.2806 3167.30 2867.53 59.90
5339 22.2843 3184.90 2867.18 59.60
5340 22.2881 3109.20 2866.83 58.60
5341 22.2918 3023.00 2866.49 58.20
5342 22.2956 3105.90 2866.14 58.00
5343 22.2994 3027.70 2865.80 58.00
5344 22.3031 3145.60 2865.46 59.40
5345 22.3069 2989.50 2865.12 57.90
5346 22.3106 3045.90 2864.77 58.00
5347 22.3144 3012.30 2864.43 57.80
5348 22.3181 2964.40 2864.09 57.70
5349 22.3219 2885.90 2863.75 56.40
5350 22.3256 2983.30 2863.41 57.10
5351 22.3294 2966.30 2863.08 57.40
5352 22.3332 3083.80 2862.74 59.00
5353 22.3369 2960.10 2862.40 57.80
5354 22.3407 2978.20 2862.07 57.90
5355 22.3444 2902.70 2861.73 56.40
5356 22.3482 3004.90 2861.40 57.60
5357 22.3519 2857.60 2861.06 56.50
5358 22.3557 2981.20 2860.73 57.90
5359 22.3594 2866.00 2860.40 56.00
5360 22.3632 2994.00 2860.07 58.20
5361 22.3669 2913.40 2859.73 57.00
5362 22.3707 2930.50 2859.40 57.50
5363 22.3745 2859.00 2859.07 56.50
5364 22.3782 2898.60 2858.75 57.00
5365 22.3820 2974.20 2858.42 57.40
5366 22.3857 2840.50 2858.09 55.60
5367 22.3895 2953.50 2857.76 57.00
5368 22.3932 2942.00 2857.44 58.00
5369 22.3970 2896.00 2857.11 57.30
5370 22.4007 2902.10 2856.78 56.70
5371 22.4045 2819.30 2856.46 56.70
5372 22.4083 3059.60 2856.14 59.30
5373 22.4120 2906.80 2855.81 57.00
5374 22.4158 3046.10 2855.49 58.60
5375 22.4195 2908.40 2855.17 56.90
5376 22.4233 2904.00 2854.85 57.20
5377 22.4270 2907.90 2854.53 55.70
5378 22.4308 2885.40 2854.21 56.60
5379 22.4345 2779.10 2853.89 55.90
5380 22.4383 3106.90 2853.57 59.20
5381 22.4421 2944.60 2853.25 57.80
5382 22.4458 2958.80 2852.94 57.20
5383 22.4496 2885.20 2852.62 56.20
5384 22.4533 2930.90 2852.30 57.30
5385 22.4571 2936.70 2851.99 56.90
5386 22.4608 2941.60 2851.67 57.30
5387 22.4646 3016.00 2851.36 58.60
5388 22.4683 3035.60 2851.05 58.30
5389 22.4721 2990.00 2850.74 57.60
5390 22.4758 3006.60 2850.42 58.10
5391 22.4796 2844.60 2850.11 56.30
5392 22.4834 3063.10 2849.80 58.90
5393 22.4871 2912.70 2849.49 57.50
5394 22.4909 2988.60 2849.18 58.10
5395 22.4946 2950.70 2848.87 57.80
5396 22.4984 3006.20 2848.57 58.40
5397 22.5021 2851.50 2848.26 56.30
5398 22.5059 3029.20 2847.95 58.40
5399 22.5096 3058.20 2847.65 58.40
5400 22.5134 3008.00 2847.34 57.40
5401 22.5172 2980.10 2847.04 58.10
5402 22.5209 2961.40 2846.73 58.00
5403 22.5247 2905.70 2846.43 57.80
5404 22.5284 3042.00 2846.13 58.80
5405 22.5322 3007.40 2845.83 59.00
5406 22.5359 3023.40 2845.52 58.10
5407 22.5397 2829.30 2845.22 56.10
5408 22.5434 3169.60 2844.92 60.60
5409 22.5472 3029.70 2844.62 58.30
5410 22.5510 3061.10 2844.32 58.80
5411 22.5547 3061.70 2844.03 58.40
5412 22.5585 3063.10 2843.73 59.10
5413 22.5622 3076.00 2843.43 58.80
5414 22.5660 3021.40 2843.13 58.80
5415 22.5697 2980.30 2842.84 58.80
5416 22.5735 2997.00 2842.54 58.10
5417 22.5773 2937.00 2842.25 57.40
5418 22.5810 3030.60 2841.96 58.00
5419 22.5848 2874.10 2841.66 57.30
5420 22.5885 2985.70 2841.37 58.10
5421 22.5923 2851.70 2841.08 56.90
5422 22.5960 3008.50 2840.79 58.80
5423 22.5998 2921.70 2840.49 58.20
5424 22.6035 2837.90 2840.20 56.30
5425 22.6073 2791.20 2839.91 56.10
5426 22.6111 2951.30 2839.63 58.10
5427 22.6148 3003.50 2839.34 58.40
5428 22.6186 2889.20 2839.05 57.50
5429 22.6223 2941.00 2838.76 57.60
5430 22.6261 2891.00 2838.48 57.40
5431 22.6298 2921.60 2838.19 57.80
5432 22.6336 2957.70 2837.90 58.40
5433 22.6374 2927.20 2837.62 57.40
5434 22.6411 2962.30 2837.34 57.40
5435 22.6449 2885.40 2837.05 56.70
5436 22.6486 2926.80 2836.77 57.30
5437 22.6524 2891.00 2836.49 57.10
5438 22.6561 2929.80 2836.21 57.70
5439 22.6599 2912.80 2835.92 57.40
5440 22.6637 2933.00 2835.64 57.30
5441 22.6674 2860.50 2835.36 57.10
5442 22.6712 3029.60 2835.08 59.00
5443 22.6749 2941.70 2834.81 57.90
5444 22.6787 2966.30 2834.53 58.30
5445 22.6824 2922.00 2834.25 58.80
5446 22.6862 2947.40 2833.97 57.70
5447 22.6899 2927.90 2833.70 57.50
5448 22.6937 3020.70 2833.42 58.00
5449 22.6975 2854.40 2833.15 57.60
5450 22.7012 2852.90 2832.87 56.90
5451 22.7050 2927.10 2832.60 58.20
5452 22.7087 3011.40 2832.32 58.60
5453 22.7125 2893.50 2832.05 57.60
5454 22.7162 2952.40 2831.78 57.30
5455 22.7200 2869.90 2831.51 57.20
5456 22.7237 2940.70 2831.24 58.20
5457 22.7275 2870.50 2830.96 56.90
5458 22.7313 2977.10 2830.69 58.00
5459 22.7350 2940.10 2830.43 57.60
5460 22.7388 2952.60 2830.16 58.00
5461 22.7425 2881.80 2829.89 57.50
5462 22.7463 2983.40 2829.62 58.60
5463 22.7500 2850.40 2829.35 57.10
5464 22.7538 3049.80 2829.09 58.30
5465 22.7576 2901.20 2828.82 57.50
5466 22.7613 3023.10 2828.56 58.80
5467 22.7651 2846.30 2828.29 56.80
5468 22.7688 2973.30 2828.03 58.10
5469 22.7726 2814.60 2827.76 56.60
5470 22.7764 2968.00 2827.50 58.40
5471 22.7801 2810.80 2827.24 56.20
5472 22.7839 2954.20 2826.98 58.30
5473 22.7876 2846.80 2826.71 57.30
5474 22.7914 2933.90 2826.45 58.00
5475 22.7951 2838.70 2826.19 56.00
5476 22.7989 2930.50 2825.93 57.80
5477 22.8027 2907.80 2825.67 56.70
5478 22.8064 2995.50 2825.42 59.30
5479 22.8102 2817.70 2825.16 56.50
5480 22.8139 2943.00 2824.90 58.80
5481 22.8177 2746.30 2824.64 55.50
5482 22.8214 2931.20 2824.39 58.10
5483 22.8252 2866.20 2824.13 57.00
5484 22.8290 3020.80 2823.87 59.50
5485 22.8327 2888.50 2823.62 57.60
5486 22.8365 2914.10 2823.37 57.50
5487 22.8402 2952.70 2823.11 58.50
5488 22.8440 2905.60 2822.86 57.60
5489 22.8477 2816.30 2822.61 56.40
5490 22.8515 2871.20 2822.35 57.00
5491 22.8552 2871.80 2822.10 57.80
5492 22.8590 2917.60 2821.85 56.60
5493 22.8628 2873.00 2821.60 57.20
5494 22.8665 2961.40 2821.35 57.20
5495 22.8703 2903.50 2821.10 57.30
5496 22.8740 2854.80 2820.85 56.70
5497 22.8778 2854.70 2820.60 57.90
5498 22.8815 3010.10 2820.36 58.90
5499 22.8853 2909.40 2820.11 57.40
5500 22.8891 2939.30 2819.86 58.10
5501 22.8928 2878.80 2819.62 57.30
5502 22.8966 2835.80 2819.37 56.40
5503 22.9003 2929.00 2819.12 57.20
5504 22.9041 2897.20 2818.88 57.10
5505 22.9079 2830.30 2818.64 56.70
5506 22.9116 2924.60 2818.39 57.40
5507 22.9154 2888.70 2818.15 57.40
5508 22.9191 2924.30 2817.91 57.90
5509 22.9229 2962.20 2817.66 58.40
5510 22.9266 2946.30 2817.42 57.60
5511 22.9304 2850.60 2817.18 57.60
5512 22.9342 2889.30 2816.94 57.70
5513 22.9379 2982.80 2816.70 58.50
5514 22.9417 2863.00 2816.46 57.40
5515 22.9454 2962.30 2816.22 57.00
5516 22.9492 2889.60 2815.98 57.90
5517 22.9529 2935.00 2815.75 57.80
5518 22.9567 2926.20 2815.51 58.20
5519 22.9604 2793.30 2815.27 56.30
5520 22.9642 2985.20 2815.04 58.90
5521 22.9680 2878.80 2814.80 57.10
5522 22.9717 2961.30 2814.56 58.40
5523 22.9755 2864.30 2814.33 57.10
5524 22.9792 2870.30 2814.10 57.30
5525 22.9830 2875.90 2813.86 57.00
5526 22.9868 2999.00 2813.63 59.00
5527 22.9905 2847.10 2813.40 57.60
5528 22.9943 2925.00 2813.16 57.40
5529 22.9980 2874.80 2812.93 57.30
5530 23.0018 2863.80 2812.70 57.40
5531 23.0056 2883.10 2812.47 56.70
5532 23.0093 2841.30 2812.24 56.70
5533 23.0131 2908.80 2812.01 57.60
5534 23.0168 2901.80 2811.78 58.00
5535 23.0206 2866.40 2811.55 57.40
5536 23.0243 2871.70 2811.32 57.30
5537 23.0281 2743.00 2811.09 55.90
5538 23.0319 2922.10 2810.87 58.00
5539 23.0356 2837.70 2810.64 56.50
5540 23.0394 2864.80 2810.41 57.30
5541 23.0431 2924.00 2810.19 58.70
5542 23.0469 2868.70 2809.96 56.60
5543 23.0506 2796.60 2809.74 56.00
5544 23.0544 2865.70 2809.51 57.20
5545 23.0582 2920.10 2809.29 58.00
5546 23.0619 2922.50 2809.06 58.00
5547 23.0657 2783.50 2808.84 56.00
5548 23.0694 2940.20 2808.62 58.30
5549 23.0732 2852.00 2808.40 57.40
5550 23.0770 2899.10 2808.17 57.80
5551 23.0807 2931.60 2807.95 56.90
5552 23.0845 2891.10 2807.73 57.40
5553 23.0882 2862.20 2807.51 57.50
5554 23.0920 2926.30 2807.29 57.50
5555 23.0957 2941.10 2807.07 58.40
5556 23.0995 2958.00 2806.85 58.80
5557 23.1033 2960.50 2806.64 58.10
5558 23.1070 2970.50 2806.42 58.30
5559 23.1108 2815.80 2806.20 56.60
5560 23.1145 2891.70 2805.98 58.50
5561 23.1183 2891.80 2805.77 57.00
5562 23.1220 2868.40 2805.55 57.60
5563 23.1258 2877.80 2805.33 57.80
5564 23.1296 2945.30 2805.12 58.90
5565 23.1333 2920.50 2804.90 57.80
5566 23.1371 2905.90 2804.69 58.60
5567 23.1408 2874.90 2804.48 57.60
5568 23.1446 2943.70 2804.26 58.70
5569 23.1483 2855.30 2804.05 57.30
5570 23.1521 2974.30 2803.84 59.00
5571 23.1559 2806.70 2803.63 56.60
5572 23.1596 2963.30 2803.41 58.60
5573 23.1634 2807.60 2803.20 57.30
5574 23.1671 2947.90 2802.99 59.20
5575 23.1709 2927.50 2802.78 58.80
5576 23.1747 3014.30 2802.57 59.40
5577 23.1784 2937.80 2802.36 59.00
5578 23.1822 2982.20 2802.15 59.80
5579 23.1859 2786.20 2801.95 56.70
5580 23.1897 2900.10 2801.74 56.80
5581 23.1935 2879.00 2801.53 58.00
5582 23.1972 2964.10 2801.32 57.80
5583 23.2010 2884.30 2801.12 58.50
5584 23.2047 2920.90 2800.91 58.10
5585 23.2085 2961.00 2800.70 58.90
5586 23.2122 2985.40 2800.50 59.10
5587 23.2160 2889.70 2800.29 57.20
5588 23.2198 2790.80 2800.09 57.50
5589 23.2235 2816.30 2799.89 57.50
5590 23.2273 2850.20 2799.68 57.70
5591 23.2310 2850.20 2799.48 57.50
5592 23.2348 2784.30 2799.27 56.90
5593 23.2386 2902.20 2799.07 58.40
5594 23.2423 3008.00 2798.87 60.40
5595 23.2461 2914.30 2798.67 58.50
5596 23.2498 2975.10 2798.47 59.00
5597 23.2536 2729.20 2798.27 55.60
5598 23.2574 2886.80 2798.07 57.60
5599 23.2611 2820.60 2797.87 57.30
5600 23.2649 3016.10 2797.67 59.70
5601 23.2686 2898.40 2797.47 58.80
5602 23.2724 2884.20 2797.27 58.70
5603 23.2761 2826.50 2797.07 57.60
5604 23.2799 2918.30 2796.87 57.20
5605 23.2837 2757.80 2796.68 57.00
5606 23.2874 2871.40 2796.48 58.50
5607 23.2912 2882.30 2796.28 58.20
5608 23.2949 2948.10 2796.09 58.10
5609 23.2987 2936.50 2795.89 59.20
5610 23.3025 2942.50 2795.70 58.80
5611 23.3062 2828.90 2795.50 57.30
5612 23.3100 2946.90 2795.31 58.10
5613 23.3137 2867.60 2795.11 57.40
5614 23.3175 2924.40 2794.92 58.40
5615 23.3213 2918.80 2794.73 58.60
5616 23.3250 2922.90 2794.53 58.50
5617 23.3288 2870.60 2794.34 58.20
5618 23.3325 2846.70 2794.15 57.60
5619 23.3363 2915.10 2793.96 58.00
5620 23.3400 2928.10 2793.77 57.40
5621 23.3438 2827.30 2793.57 57.10
5622 23.3476 2885.50 2793.38 57.70
5623 23.3513 2879.30 2793.19 58.00
5624 23.3551 2971.40 2793.00 59.20
5625 23.3588 2902.90 2792.81 58.30
5626 23.3626 2869.00 2792.63 58.30
5627 23.3664 2989.50 2792.44 59.30
5628 23.3701 2948.00 2792.25 58.70
5629 23.3739 2964.70 2792.06 58.40
5630 23.3776 2877.80 2791.87 58.40
5631 23.3814 2908.30 2791.69 58.50
5632 23.3852 2922.50 2791.50 58.50
5633 23.3889 2888.60 2791.31 58.40
5634 23.3927 2933.80 2791.13 58.80
5635 23.3964 2904.80 2790.94 58.50
5636 23.4002 3002.20 2790.76 59.60
5637 23.4039 2989.20 2790.57 59.40
5638 23.4077 2829.40 2790.39 57.50
5639 23.4115 2926.40 2790.21 58.40
5640 23.4152 2831.70 2790.02 57.20
5641 23.4190 2911.00 2789.84 58.40
5642 23.4227 3017.00 2789.66 59.70
5643 23.4265 2943.20 2789.47 58.30
5644 23.4303 2891.80 2789.29 58.30
5645 23.4340 2935.90 2789.11 59.00
5646 23.4378 2978.30 2788.93 60.00
5647 23.4415 2959.50 2788.75 59.70
5648 23.4453 2908.00 2788.57 59.30
5649 23.4491 2963.10 2788.39 59.00
5650 23.4528 2893.40 2788.21 58.00
5651 23.4566 2837.10 2788.03 58.20
5652 23.4603 2896.50 2787.85 58.20
5653 23.4641 2963.70 2787.67 59.10
5654 23.4678 2951.50 2787.49 58.20
5655 23.4716 2861.70 2787.31 57.50
5656 23.4754 2852.50 2787.13 57.90
5657 23.4791 2890.70 2786.96 58.50
5658 23.4829 2948.40 2786.78 57.30
5659 23.4866 2844.80 2786.60 56.80
5660 23.4904 2919.70 2786.43 58.60
5661 23.4942 2840.50 2786.25 57.00
5662 23.4979 2889.60 2786.08 58.50
5663 23.5017 2919.50 2785.90 58.40
5664 23.5054 2943.50 2785.73 58.10
5665 23.5092 2921.90 2785.55 57.60
5666 23.5130 2941.20 2785.38 58.30
5667 23.5167 2921.50 2785.20 58.30
5668 23.5205 2947.40 2785.03 58.70
5669 23.5242 2840.10 2784.86 57.30
5670 23.5280 2979.50 2784.68 59.30
5671 23.5318 2884.00 2784.51 58.00
5672 23.5355 2876.20 2784.34 58.80
5673 23.5393 2776.70 2784.17 56.90
5674 23.5430 2948.80 2784.00 58.60
5675 23.5468 2927.70 2783.83 59.00
5676 23.5506 2974.90 2783.65 59.30
5677 23.5543 2822.80 2783.48 57.20
5678 23.5581 2838.90 2783.31 57.00
5679 23.5618 2781.30 2783.14 56.90
5680 23.5656 2961.80 2782.97 58.70
5681 23.5693 2866.60 2782.81 58.10
5682 23.5731 3050.80 2782.64 60.10
5683 23.5769 2928.80 2782.47 58.50
5684 23.5806 2905.70 2782.30 59.00
5685 23.5844 2928.70 2782.13 58.10
5686 23.5882 2968.10 2781.96 58.10
5687 23.5919 2850.00 2781.80 58.20
5688 23.5957 2954.90 2781.63 59.40
5689 23.5994 2946.10 2781.46 59.40
5690 23.6032 2920.50 2781.30 58.50
5691 23.6070 2961.90 2781.13 58.60
5692 23.6107 2942.20 2780.97 58.70
5693 23.6145 2889.60 2780.80 58.10
5694 23.6182 2903.10 2780.64 58.50
5695 23.6220 2786.60 2780.47 56.70
5696 23.6257 2934.40 2780.31 57.20
5697 23.6295 2883.40 2780.14 57.90
5698 23.6333 2953.40 2779.98 59.20
5699 23.6370 2758.90 2779.82 57.10
5700 23.6408 2854.90 2779.65 57.60
5701 23.6445 2873.00 2779.49 57.60
5702 23.6483 2833.70 2779.33 56.70
5703 23.6521 2862.40 2779.17 56.20
5704 23.6558 2863.00 2779.01 56.80
5705 23.6596 2917.20 2778.84 57.50
5706 23.6633 2852.50 2778.68 56.30
5707 23.6671 2793.60 2778.52 55.90
5708 23.6709 2926.80 2778.36 57.00
5709 23.6746 2838.30 2778.20 56.00
5710 23.6784 2875.00 2778.04 57.00
5711 23.6821 2939.80 2777.88 57.80
5712 23.6859 2844.00 2777.72 56.60
5713 23.6897 2889.30 2777.56 56.30
5714 23.6934 2945.30 2777.40 57.90
5715 23.6972 2893.10 2777.25 56.90
5716 23.7009 2938.40 2777.09 57.90
5717 23.7047 2854.00 2776.93 56.40
5718 23.7085 2947.20 2776.77 57.80
5719 23.7122 2944.50 2776.62 57.20
5720 23.7160 2967.60 2776.46 57.70
5721 23.7197 2879.60 2776.30 56.70
5722 23.7235 2905.60 2776.15 57.20
5723 23.7273 2876.10 2775.99 57.10
5724 23.7310 3033.30 2775.83 59.20
5725 23.7348 2884.80 2775.68 56.40
5726 23.7385 2860.80 2775.52 56.00
5727 23.7423 2830.70 2775.37 56.90
5728 23.7461 2969.40 2775.21 58.20
5729 23.7498 2832.40 2775.06 56.80
5730 23.7536 2913.40 2774.90 57.20
5731 23.7573 2917.70 2774.75 57.00
5732 23.7611 2845.00 2774.60 56.80
5733 23.7649 2917.40 2774.44 57.40
5734 23.7686 2944.10 2774.29 57.20
5735 23.7724 2840.60 2774.14 56.20
5736 23.7761 2934.40 2773.99 57.60
5737 23.7799 2838.20 2773.83 56.40
5738 23.7837 2887.20 2773.68 56.70
5739 23.7874 2836.60 2773.53 56.60
5740 23.7912 2956.20 2773.38 57.10
5741 23.7949 2871.00 2773.23 57.00
5742 23.7987 2975.10 2773.08 58.30
5743 23.8025 2936.40 2772.93 57.50
5744 23.8062 2939.30 2772.78 58.00
5745 23.8100 2834.70 2772.63 56.10
5746 23.8137 3018.60 2772.48 58.60
5747 23.8175 2897.50 2772.33 57.60
5748 23.8213 2867.60 2772.18 57.00
5749 23.8250 2891.60 2772.03 57.30
5750 23.8288 2969.10 2771.88 58.20
5751 23.8325 2919.70 2771.73 57.90
5752 23.8363 3018.60 2771.58 59.00
5753 23.8401 2799.80 2771.44 56.30
5754 23.8438 3113.50 2771.29 59.50
5755 23.8476 2937.60 2771.14 57.80
5756 23.8513 2921.80 2770.99 57.90
5757 23.8551 2969.40 2770.85 58.50
5758 23.8589 3044.60 2770.70 58.80
5759 23.8626 2918.80 2770.55 57.60
5760 23.8664 3058.10 2770.41 58.80
5761 23.8701 2929.00 2770.26 57.60
5762 23.8739 3002.90 2770.12 58.40
5763 23.8777 2998.70 2769.97 58.20
5764 23.8814 2971.70 2769.82 58.80
5765 23.8852 2882.40 2769.68 57.10
5766 23.8889 2918.50 2769.54 57.20
5767 23.8927 3006.40 2769.39 57.70
5768 23.8965 2981.60 2769.25 51.30
5769 23.9040 3002.40 2768.96 52.80
5770 23.9077 2996.20 2768.82 58.20
5771 23.9115 2949.50 2768.67 58.10
5772 23.9153 2874.00 2768.53 57.10
5773 23.9190 3035.70 2768.39 58.70
5774 23.9228 2866.20 2768.24 57.00
5775 23.9265 2988.30 2768.10 58.60
5776 23.9303 2846.50 2767.96 56.90
5777 23.9341 2949.00 2767.82 57.30
5778 23.9378 2928.00 2767.68 57.70
5779 23.9416 2990.50 2767.54 58.20
5780 23.9453 2835.30 2767.39 56.90
5781 23.9491 3021.40 2767.25 58.70
5782 23.9529 2949.50 2767.11 58.10
5783 23.9566 3030.20 2766.97 58.60
5784 23.9604 2871.10 2766.83 57.00
5785 23.9641 3005.50 2766.69 58.40
5786 23.9679 3016.60 2766.55 58.70
5787 23.9717 3027.80 2766.41 58.30
5788 23.9754 2985.70 2766.27 57.80
5789 23.9792 2998.80 2766.14 57.90
5790 23.9829 3074.30 2766.00 59.40
5791 23.9867 3141.60 2765.86 59.40
5792 23.9905 2989.70 2765.72 58.90
5793 23.9942 3109.70 2765.58 58.80
5794 23.9980 3033.70 2765.44 58.90
5795 24.0017 3086.50 2765.31 58.60
5796 24.0055 3029.90 2765.17 58.50
5797 24.0093 3075.90 2765.03 59.30
5798 24.0130 3102.30 2764.89 59.20
5799 24.0168 3143.30 2764.76 59.40
5800 24.0205 3093.90 2764.62 60.30
5801 24.0243 3165.40 2764.48 59.70
5802 24.0281 3179.80 2764.35 60.20
5803 24.0318 3238.70 2764.21 61.30
5804 24.0356 3096.90 2764.07 59.50
5805 24.0394 3160.40 2763.94 60.30
5806 24.0431 3108.70 2763.80 60.20
5807 24.0469 3192.70 2763.67 60.10
5808 24.0506 3224.60 2763.53 60.80
5809 24.0544 3176.10 2763.40 59.80
5810 24.0581 3269.10 2763.26 61.80
5811 24.0619 3245.20 2763.13 61.10
5812 24.0657 3314.40 2763.00 61.90
5813 24.0694 3344.00 2762.86 61.90
5814 24.0732 3259.60 2762.73 60.50
5815 24.0770 3435.40 2762.59 62.60
5816 24.0807 3370.40 2762.46 62.20
5817 24.0845 3420.80 2762.33 62.60
5818 24.0882 3493.90 2762.19 63.50
5819 24.0920 3601.40 2762.06 64.80
5820 24.0958 3536.70 2761.93 64.10
5821 24.0995 3754.30 2761.80 65.60
5822 24.1033 3682.40 2761.66 64.90
5823 24.1070 3819.60 2761.53 66.00
5824 24.1108 3861.90 2761.40 66.70
5825 24.1146 4066.60 2761.27 68.60
5826 24.1183 4100.80 2761.14 69.10
5827 24.1221 4295.30 3754.51 70.60
5828 24.1258 4205.00 3811.12 70.60
5829 24.1296 4345.10 3872.76 68.70
5830 24.1334 4231.80 3939.94 67.80
5831 24.1371 4450.10 4013.44 69.50
5832 24.1409 4442.70 4094.08 70.30
5833 24.1446 4619.20 4182.69 70.20
5834 24.1484 4520.30 4280.49 70.50
5835 24.1522 4584.90 4388.79 71.00
5836 24.1559 4591.50 4508.97 70.90
5837 24.1597 4879.50 4643.01 73.50
5838 24.1634 5035.30 4793.13 75.00
5839 24.1672 5154.90 4961.76 75.30
5840 24.1710 5156.20 5152.31 75.90
5841 24.1747 5515.70 5368.75 78.20
5842 24.1785 5594.40 5615.62 78.40
5843 24.1822 6012.30 5899.25 82.30
5844 24.1860 6223.90 6227.31 83.70
5845 24.1898 6724.70 6608.95 86.80
5846 24.1935 7040.80 7058.40 90.10
5847 24.1973 7579.40 7587.97 93.60
5848 24.2010 8203.70 8224.12 97.20
5849 24.2048 9075.00 8991.66 103.60
5850 24.2086 9652.60 9931.21 106.60
5851 24.2123 10917.20 11097.50 113.50
5852 24.2161 11947.40 12568.80 119.80
5853 24.2199 13874.20 14459.20 130.90
5854 24.2236 15653.60 16941.40 139.20
5855 24.2274 18863.90 20290.60 155.90
5856 24.2311 22669.90 24994.50 170.80
5857 24.2349 29138.90 32069.60 198.10
5858 24.2386 39278.20 43859.40 234.90
5859 24.2424 60275.30 65391.00 306.00
5860 24.2462 103234.00 105086.00 426.10
5861 24.2499 186687.00 171835.00 627.30
5862 24.2537 273373.00 263943.00 816.50
5863 24.2575 321639.00 340799.00 910.60
5864 24.2612 308722.00 325780.00 885.10
5865 24.2650 263217.00 237303.00 791.90
5866 24.2687 176269.00 150299.00 604.10
5867 24.2725 100091.00 91674.80 410.90
5868 24.2763 57210.20 58006.30 296.40
5869 24.2800 39347.30 39888.10 237.10
5870 24.2838 29493.10 29772.70 201.50
5871 24.2875 24128.30 23509.00 176.80
5872 24.2913 19983.10 19250.70 161.00
5873 24.2951 17414.50 16179.70 149.60
5874 24.2988 14817.60 13882.30 135.70
5875 24.3026 13163.80 12122.20 125.90
5876 24.3063 11491.40 10745.40 117.80
5877 24.3101 10619.50 9647.84 111.70
5878 24.3139 9442.20 8760.46 105.50
5879 24.3176 8706.40 8033.18 101.00
5880 24.3214 8088.90 7429.13 96.20
5881 24.3251 7596.70 6921.71 92.90
5882 24.3289 6765.90 6492.94 88.40
5883 24.3327 6859.70 6126.93 88.40
5884 24.3364 6156.00 5812.04 83.90
5885 24.3402 5914.20 5538.86 82.30
5886 24.3440 5662.10 5300.67 80.50
5887 24.3477 5519.80 5091.75 79.40
5888 24.3515 5074.00 4907.26 74.70
5889 24.3552 4912.40 4743.76 73.60
5890 24.3590 4670.70 4598.19 72.60
5891 24.3627 4544.40 4467.91 71.20
5892 24.3665 4294.00 4350.85 69.20
5893 24.3703 4287.60 4245.43 68.70
5894 24.3740 4190.70 4150.02 68.20
5895 24.3778 3993.20 4063.40 66.00
5896 24.3816 3889.30 3984.42 65.70
5897 24.3853 3970.60 3912.69 66.20
5898 24.3891 3748.50 3846.66 64.60
5899 24.3928 3831.50 3786.25 64.70
5900 24.3966 3559.40 3730.68 62.50
5901 24.4004 3684.30 2751.73 63.30
5902 24.4041 3490.00 2751.61 61.90
5903 24.4079 3604.90 2751.49 62.80
5904 24.4116 3459.60 2751.37 62.10
5905 24.4154 3489.40 2751.25 62.00
5906 24.4192 3386.60 2751.14 61.20
5907 24.4229 3458.80 2751.02 61.10
5908 24.4267 3376.40 2750.90 61.00
5909 24.4304 3302.30 2750.78 59.90
5910 24.4342 3345.20 2750.66 59.70
5911 24.4380 3292.20 2750.54 59.80
5912 24.4417 3118.90 2750.42 58.60
5913 24.4455 3249.60 2750.30 60.00
5914 24.4492 3156.20 2750.18 58.50
5915 24.4530 3202.10 2750.06 59.00
5916 24.4568 3125.00 2749.94 58.20
5917 24.4605 3223.50 2749.83 59.30
5918 24.4643 3208.20 2749.71 59.30
5919 24.4681 3161.10 2749.59 59.10
5920 24.4718 2990.40 2749.47 57.00
5921 24.4756 3228.80 2749.35 59.20
5922 24.4793 2955.90 2749.24 56.70
5923 24.4831 3140.80 2749.12 58.20
5924 24.4869 2969.90 2749.00 57.10
5925 24.4906 2991.10 2748.88 56.90
5926 24.4944 3001.40 2748.77 57.50
5927 24.4981 3082.20 2748.65 57.90
5928 24.5019 2964.80 2748.53 56.20
5929 24.5057 2990.70 2748.41 57.90
5930 24.5094 2842.30 2748.30 55.50
5931 24.5132 2853.50 2748.18 55.90
5932 24.5169 2986.20 2748.06 57.00
5933 24.5207 3022.50 2747.95 56.80
5934 24.5245 2961.80 2747.83 57.00
5935 24.5282 2940.10 2747.71 57.00
5936 24.5320 2893.30 2747.60 56.30
5937 24.5357 3060.80 2747.48 57.80
5938 24.5395 2890.90 2747.36 56.20
5939 24.5433 2898.80 2747.25 56.30
5940 24.5470 2980.90 2747.13 56.90
5941 24.5508 3105.70 2747.01 58.10
5942 24.5546 2857.00 2746.90 55.50
5943 24.5583 2979.20 2746.78 56.80
5944 24.5621 2938.00 2746.67 56.20
5945 24.5658 2959.30 2746.55 56.80
5946 24.5696 2911.00 2746.43 56.40
5947 24.5734 2984.80 2746.32 56.90
5948 24.5771 2832.10 2746.20 55.20
5949 24.5809 2994.60 2746.09 57.80
5950 24.5846 2857.00 2745.97 55.30
5951 24.5884 2807.30 2745.86 55.10
5952 24.5921 2877.70 2745.74 56.20
5953 24.5959 2908.70 2745.63 57.00
5954 24.5997 2897.00 2745.51 56.30
5955 24.6034 2839.10 2745.40 55.60
5956 24.6072 2926.10 2745.28 56.80
5957 24.6110 2857.90 2745.17 58.20
5958 24.6147 2754.90 2745.05 55.80
5959 24.6185 2846.60 2744.94 56.60
5960 24.6222 2796.90 2744.82 56.60
5961 24.6260 2770.50 2744.71 55.80
5962 24.6298 2773.30 2744.59 55.40
5963 24.6335 2914.50 2744.48 57.40
5964 24.6373 2725.40 2744.36 55.00
5965 24.6410 2821.40 2744.25 55.60
5966 24.6448 2761.80 2744.14 55.80
5967 24.6486 2879.30 2744.02 56.90
5968 24.6523 2760.20 2743.91 55.80
5969 24.6561 2940.00 2743.79 57.50
5970 24.6598 2812.90 2743.68 56.60
5971 24.6636 2822.40 2743.56 56.10
5972 24.6674 2780.60 2743.45 55.80
5973 24.6711 2904.00 2743.34 57.10
5974 24.6749 2794.50 2743.22 55.80
5975 24.6786 2790.20 2743.11 56.40
5976 24.6824 2775.80 2743.00 55.90
5977 24.6862 2820.50 2742.88 57.10
5978 24.6899 2711.20 2742.77 55.10
5979 24.6937 2991.20 2742.65 58.60
5980 24.6975 2708.60 2742.54 55.40
5981 24.7012 2905.80 2742.43 57.80
5982 24.7050 2756.90 2742.31 55.90
5983 24.7087 2924.80 2742.20 57.40
5984 24.7125 2714.90 2742.09 54.90
5985 24.7163 2789.10 2741.97 56.40
5986 24.7200 2831.40 2741.86 56.40
5987 24.7238 2756.50 2741.75 55.80
5988 24.7275 2795.40 2741.63 56.50
5989 24.7313 2794.70 2741.52 56.50
5990 24.7351 2719.90 2741.41 55.40
5991 24.7388 2901.20 2741.30 57.50
5992 24.7426 2674.10 2741.18 54.90
5993 24.7463 2821.50 2741.07 57.30
5994 24.7501 2758.00 2740.96 56.30
5995 24.7539 2764.50 2740.84 56.40
5996 24.7576 2741.60 2740.73 56.20
5997 24.7614 2776.80 2740.62 56.20
5998 24.7652 2788.20 2740.51 55.70
5999 24.7689 2768.90 2740.39 55.60
6000 24.7727 2721.80 2740.28 55.30
6001 24.7764 2761.90 2740.17 55.80
6002 24.7802 2870.10 2740.06 56.40
6003 24.7840 2731.10 2739.94 55.40
6004 24.7877 2809.20 2739.83 56.60
6005 24.7915 2792.40 2739.72 56.10
6006 24.7952 2812.30 2739.61 56.80
6007 24.7990 2872.40 2739.49 57.40
6008 24.8027 2742.00 2739.38 55.30
6009 24.8065 2798.30 2739.27 56.30
6010 24.8103 2755.80 2739.16 55.20
6011 24.8140 2751.00 2739.04 55.40
6012 24.8178 2736.10 2738.93 55.60
6013 24.8216 2875.00 2738.82 57.30
6014 24.8253 2839.80 2738.71 57.10
6015 24.8291 2835.10 2738.60 56.70
6016 24.8328 2670.80 2738.48 54.50
6017 24.8366 2707.90 2738.37 55.20
6018 24.8404 2724.80 2738.26 55.30
6019 24.8441 2844.70 2738.15 57.10
6020 24.8479 2710.80 2738.03 55.30
6021 24.8516 2782.60 2737.92 56.40
6022 24.8554 2618.60 2737.81 54.40
6023 24.8592 2833.90 2737.70 56.60
6024 24.8629 2747.80 2737.59 55.70
6025 24.8667 2790.90 2737.47 55.60
6026 24.8704 2786.00 2737.36 57.10
6027 24.8742 2806.70 2737.25 56.40
6028 24.8780 2717.50 2737.14 55.30
6029 24.8817 2763.20 2737.03 55.70
6030 24.8855 2845.50 2736.92 57.60
6031 24.8892 2798.50 2736.80 55.80
6032 24.8930 2718.80 2736.69 54.90
6033 24.8968 2880.70 2736.58 56.80
6034 24.9005 2798.00 2736.47 56.50
6035 24.9043 2782.00 2736.36 56.30
6036 24.9081 2852.50 2736.24 56.20
6037 24.9118 2853.50 2736.13 56.60
6038 24.9156 2802.40 2736.02 55.90
6039 24.9193 2818.10 2735.91 56.40
6040 24.9231 2728.30 2735.80 55.20
6041 24.9269 2745.20 2735.69 55.70
6042 24.9306 2767.60 2735.57 56.30
6043 24.9344 2795.30 2735.46 55.30
6044 24.9381 2678.40 2735.35 54.50
6045 24.9419 2717.00 2735.24 55.20
6046 24.9457 2755.30 2735.13 56.00
6047 24.9494 2750.80 2735.02 56.00
6048 24.9532 2623.00 2734.90 54.20
6049 24.9569 2749.20 2734.79 55.60
6050 24.9607 2639.00 2734.68 54.50
6051 24.9645 2704.60 2734.57 55.10
6052 24.9682 2734.30 2734.46 55.10
6053 24.9720 2820.70 2734.35 56.40
6054 24.9757 2639.80 2734.23 54.20
6055 24.9795 2733.90 2734.12 55.50
6056 24.9833 2715.10 2734.01 56.20
6057 24.9870 2775.80 2733.90 56.10
6058 24.9908 2670.30 2733.79 54.60
6059 24.9945 2766.60 2733.68 56.10
6060 24.9983 2701.00 2733.56 54.80
6061 25.0021 2756.30 2733.45 56.00
6062 25.0058 2626.40 2733.34 54.00
6063 25.0096 2770.40 2733.23 55.90
6064 25.0133 2679.20 2733.12 54.40
6065 25.0171 2649.60 2733.00 54.50
6066 25.0209 2703.10 2732.89 54.60
6067 25.0246 2690.10 2732.78 54.70
6068 25.0284 2820.80 2732.67 55.70
6069 25.0322 2796.40 2732.56 55.90
6070 25.0359 2658.00 2732.45 54.60
6071 25.0397 2710.20 2732.33 55.50
6072 25.0434 2672.20 2732.22 54.60
6073 25.0472 2777.60 2732.11 55.60
6074 25.0509 2717.80 2732.00 55.50
6075 25.0547 2819.50 2731.89 56.00
6076 25.0585 2731.80 2731.77 55.20
6077 25.0622 2749.90 2731.66 55.00
6078 25.0660 2696.00 2731.55 54.80
6079 25.0698 2706.20 2731.44 55.30
6080 25.0735 2629.60 2731.33 54.70
6081 25.0773 2699.20 2731.21 55.00
6082 25.0810 2652.10 2731.10 54.20
6083 25.0848 2749.90 2730.99 55.70
6084 25.0886 2677.00 2730.88 54.70
6085 25.0923 2896.40 2730.77 57.30
6086 25.0961 2746.20 2730.65 55.30
6087 25.0998 2669.60 2730.54 54.40
6088 25.1036 2723.30 2730.43 55.10
6089 25.1074 2756.60 2730.32 55.60
6090 25.1111 2700.20 2730.21 54.40
6091 25.1149 2695.90 2730.09 54.20
6092 25.1186 2699.80 2729.98 54.10
6093 25.1224 2642.90 2729.87 53.70
6094 25.1262 2689.70 2729.76 53.30
6095 25.1299 2692.60 2729.64 54.60
6096 25.1337 2699.60 2729.53 54.80
6097 25.1374 2640.80 2729.42 54.20
6098 25.1412 2745.20 2729.31 55.50
6099 25.1450 2703.00 2729.19 54.50
6100 25.1487 2644.30 2729.08 54.30
6101 25.1525 2724.30 2728.97 54.80
6102 25.1562 2769.10 2728.86 55.90
6103 25.1600 2699.20 2728.74 53.40
6104 25.1638 2640.60 2728.63 53.90
6105 25.1675 2672.70 2728.52 54.40
6106 25.1713 2645.70 2728.40 54.40
6107 25.1751 2693.90 2728.29 54.50
6108 25.1788 2638.20 2728.18 54.30
6109 25.1826 2602.90 2728.07 54.10
6110 25.1863 2742.50 2727.95 55.30
6111 25.1901 2698.00 2727.84 55.20
6112 25.1938 2601.60 2727.73 53.70
6113 25.1976 2705.20 2727.61 55.00
6114 25.2014 2672.60 2727.50 54.50
6115 25.2051 2741.20 2727.39 55.30
6116 25.2089 2806.70 2727.27 55.80
6117 25.2127 2786.40 2727.16 55.40
6118 25.2164 2696.40 2727.05 55.10
6119 25.2202 2747.30 2726.94 55.50
6120 25.2239 2610.10 2726.82 53.70
6121 25.2277 2752.40 2726.71 55.30
6122 25.2314 2651.40 2726.59 54.60
6123 25.2352 2676.60 2726.48 55.10
6124 25.2390 2756.00 2726.37 55.30
6125 25.2427 2798.70 2726.25 56.00
6126 25.2465 2767.50 2726.14 55.40
6127 25.2502 2698.80 2726.03 54.30
6128 25.2540 2646.60 2725.91 54.00
6129 25.2578 2737.00 2725.80 55.20
6130 25.2615 2647.70 2725.69 53.80
6131 25.2653 2711.40 2725.57 54.90
6132 25.2691 2707.10 2725.46 54.90
6133 25.2728 2695.10 2725.34 54.70
6134 25.2766 2668.50 2725.23 53.50
6135 25.2803 2651.20 2725.11 54.10
6136 25.2841 2639.20 2725.00 54.50
6137 25.2879 2744.60 2724.89 55.40
6138 25.2916 2652.90 2724.77 54.10
6139 25.2954 2715.00 2724.66 54.70
6140 25.2991 2752.40 2724.54 56.10
6141 25.3029 2733.50 2724.43 55.00
6142 25.3067 2686.50 2724.31 54.50
6143 25.3104 2783.40 2724.20 55.40
6144 25.3142 2659.40 2724.09 54.30
6145 25.3179 2758.10 2723.97 55.10
6146 25.3217 2602.10 2723.86 53.70
6147 25.3255 2686.20 2723.74 54.50
6148 25.3292 2698.30 2723.63 54.70
6149 25.3330 2697.00 2723.51 55.30
6150 25.3367 2597.50 2723.40 53.60
6151 25.3405 2751.90 2723.28 55.30
6152 25.3443 2668.70 2723.17 54.40
6153 25.3480 2755.70 2723.05 55.40
6154 25.3518 2596.40 2722.94 53.50
6155 25.3555 2785.10 2722.82 55.80
6156 25.3593 2674.00 2722.70 54.20
6157 25.3631 2682.80 2722.59 54.30
6158 25.3668 2733.20 2722.47 55.00
6159 25.3706 2710.90 2722.36 54.90
6160 25.3743 2657.50 2722.24 53.90
6161 25.3781 2699.80 2722.13 54.80
6162 25.3819 2764.70 2722.01 55.40
6163 25.3856 2665.90 2721.89 54.20
6164 25.3894 2663.90 2721.78 54.50
6165 25.3931 2675.20 2721.66 54.70
6166 25.3969 2659.70 2721.55 54.00
6167 25.4007 2631.60 2721.43 54.10
6168 25.4044 2627.70 2721.31 54.00
6169 25.4082 2749.20 2721.20 55.50
6170 25.4119 2793.70 2721.08 55.80
6171 25.4157 2726.50 2720.96 55.80
6172 25.4195 2621.30 2720.85 53.70
6173 25.4232 2714.00 2720.73 55.00
6174 25.4270 2592.20 2720.61 53.40
6175 25.4307 2748.10 2720.50 54.90
6176 25.4345 2696.70 2720.38 54.80
6177 25.4383 2724.30 2720.26 55.10
6178 25.4420 2635.60 2720.15 54.50
6179 25.4458 2650.40 2720.03 54.20
6180 25.4495 2669.10 2719.91 54.70
6181 25.4533 2724.90 2719.79 54.60
6182 25.4571 2615.20 2719.68 53.70
6183 25.4608 2669.90 2719.56 54.40
6184 25.4646 2684.00 2719.44 54.00
6185 25.4683 2663.60 2719.32 54.40
6186 25.4721 2611.50 2719.21 53.60
6187 25.4759 2747.30 2719.09 55.40
6188 25.4796 2602.80 2718.97 53.60
6189 25.4834 2707.60 2718.85 54.10
6190 25.4871 2720.20 2718.73 55.00
6191 25.4909 2719.80 2718.62 54.90
6192 25.4947 2617.10 2718.50 53.70
6193 25.4984 2608.40 2718.38 53.90
6194 25.5022 2565.30 2718.26 52.70
6195 25.5059 2664.90 2718.14 54.80
6196 25.5097 2653.00 2718.02 53.90
6197 25.5135 2726.70 2717.90 55.30
6198 25.5172 2615.10 2717.79 53.60
6199 25.5210 2684.90 2717.67 54.60
6200 25.5247 2833.90 2717.55 56.00
6201 25.5285 2654.40 2717.43 54.10
6202 25.5323 2573.90 2717.31 53.20
6203 25.5360 2635.30 2717.19 53.70
6204 25.5398 2682.90 2717.07 54.60
6205 25.5435 2702.00 2716.95 54.50
6206 25.5473 2637.80 2716.83 53.90
6207 25.5511 2580.90 2716.71 53.30
6208 25.5548 2667.00 2716.59 54.40
6209 25.5586 2635.00 2716.47 54.20
6210 25.5623 2663.70 2716.35 54.30
6211 25.5661 2667.60 2716.23 54.60
6212 25.5699 2607.00 2716.11 53.90
6213 25.5736 2619.80 2715.99 54.90
6214 25.5774 2666.90 2715.87 55.00
6215 25.5811 2640.60 2715.75 54.60
6216 25.5849 2705.80 2715.63 55.30
6217 25.5886 2652.20 2715.51 54.40
6218 25.5924 2572.20 2715.39 53.80
6219 25.5962 2686.20 2715.27 55.10
6220 25.5999 2589.30 2715.15 54.30
6221 25.6037 2630.60 2715.03 53.80
6222 25.6075 2676.30 2714.91 55.10
6223 25.6112 2750.60 2714.78 56.10
6224 25.6150 2721.40 2714.66 56.00
6225 25.6187 2584.40 2714.54 54.00
6226 25.6225 2648.90 2714.42 53.60
6227 25.6262 2684.80 2714.30 55.10
6228 25.6300 2587.30 2714.18 53.90
6229 25.6338 2659.50 2714.05 55.00
6230 25.6375 2707.20 2713.93 55.20
6231 25.6413 2708.90 2713.81 55.40
6232 25.6450 2551.80 2713.69 53.90
6233 25.6488 2724.00 2713.56 55.70
6234 25.6526 2540.40 2713.44 53.40
6235 25.6563 2669.30 2713.32 54.50
6236 25.6601 2656.80 2713.20 55.50
6237 25.6638 2667.40 2713.07 54.40
6238 25.6676 2709.50 2712.95 55.90
6239 25.6714 2783.30 2712.83 56.20
6240 25.6751 2575.80 2712.71 54.20
6241 25.6789 2557.80 2712.58 54.20
6242 25.6826 2686.10 2712.46 54.90
6243 25.6864 2665.20 2712.33 55.30
6244 25.6902 2609.20 2712.21 54.00
6245 25.6939 2675.50 2712.09 55.10
6246 25.6977 2546.40 2711.96 54.00
6247 25.7014 2825.60 2711.84 57.10
6248 25.7052 2675.80 2711.72 54.40
6249 25.7090 2686.70 2711.59 55.60
6250 25.7127 2561.60 2711.47 53.40
6251 25.7165 2708.80 2711.34 55.30
6252 25.7202 2684.40 2711.22 55.00
6253 25.7240 2758.40 2711.09 56.80
6254 25.7278 2633.10 2710.97 54.60
6255 25.7315 2643.70 2710.84 54.60
6256 25.7353 2550.00 2710.72 53.60
6257 25.7390 2726.80 2710.59 56.00
6258 25.7428 2701.50 2710.47 55.20
6259 25.7465 2701.20 2710.34 55.40
6260 25.7503 2578.00 2710.22 53.70
6261 25.7541 2737.70 2710.09 56.10
6262 25.7578 2571.80 2709.97 54.20
6263 25.7616 2726.10 2709.84 56.50
6264 25.7653 2641.00 2709.71 54.10
6265 25.7691 2623.40 2709.59 54.40
6266 25.7729 2511.30 2709.46 53.30
6267 25.7766 2709.00 2709.34 55.40
6268 25.7804 2672.60 2709.21 55.20
6269 25.7841 2638.30 2709.08 55.00
6270 25.7879 2614.30 2708.96 54.10
6271 25.7917 2549.30 2708.83 53.20
6272 25.7954 2588.90 2708.70 54.10
6273 25.7992 2655.70 2708.57 54.80
6274 25.8029 2615.90 2708.45 54.60
6275 25.8067 2606.80 2708.32 54.70
6276 25.8104 2581.20 2708.19 54.00
6277 25.8142 2825.90 2708.06 57.20
6278 25.8180 2639.00 2707.94 55.20
6279 25.8217 2637.90 2707.81 54.80
6280 25.8255 2569.20 2707.68 55.20
6281 25.8293 2683.00 2707.55 55.50
6282 25.8330 2573.80 2707.42 54.20
6283 25.8368 2677.10 2707.30 54.80
6284 25.8405 2706.50 2707.17 55.70
6285 25.8443 2648.60 2707.04 54.70
6286 25.8480 2566.10 2706.91 54.00
6287 25.8518 2609.70 2706.78 55.30
6288 25.8556 2609.30 2706.65 54.50
6289 25.8593 2643.70 2706.52 54.60
6290 25.8631 2613.10 2706.39 55.10
6291 25.8668 2646.90 2706.26 54.60
6292 25.8706 2635.10 2706.13 54.60
6293 25.8743 2783.20 2706.00 56.70
6294 25.8781 2622.70 2705.87 54.60
6295 25.8819 2690.30 2705.74 55.70
6296 25.8856 2614.00 2705.61 54.50
6297 25.8894 2667.70 2705.48 54.40
6298 25.8932 2557.00 2705.35 53.70
6299 25.8969 2656.00 2705.22 55.00
6300 25.9007 2602.50 2705.09 55.00
6301 25.9044 2668.10 2704.96 55.50
6302 25.9082 2623.10 2704.83 54.20
6303 25.9119 2655.80 2704.70 55.30
6304 25.9157 2536.20 2704.57 53.60
6305 25.9195 2703.60 2704.43 55.60
6306 25.9232 2623.30 2704.30 55.10
6307 25.9270 2595.10 2704.17 54.30
6308 25.9307 2707.00 2704.04 55.30
6309 25.9345 2728.40 2703.91 55.80
6310 25.9382 2616.20 2703.78 54.80
6311 25.9420 2723.60 2703.64 54.90
6312 25.9458 2594.20 2703.51 54.00
6313 25.9495 2739.20 2703.38 55.90
6314 25.9533 2683.00 2703.24 55.40
6315 25.9571 2705.50 2703.11 55.50
6316 25.9608 2611.40 2702.98 54.90
6317 25.9646 2599.20 2702.85 54.30
6318 25.9683 2654.00 2702.71 54.90
6319 25.9721 2614.60 2702.58 54.50
6320 25.9758 2634.40 2702.44 55.90
6321 25.9796 2866.60 2702.31 57.50
6322 25.9834 2706.70 2702.18 55.90
6323 25.9871 2711.70 2702.04 56.60
6324 25.9909 2495.00 2701.91 53.10
6325 25.9946 2593.10 2701.77 54.60
6326 25.9984 2640.20 2701.64 54.80
6327 26.0021 2720.80 2701.50 56.80
6328 26.0059 2649.70 2701.37 55.30
6329 26.0097 2746.30 2701.23 56.40
6330 26.0134 2652.80 2701.10 55.50
6331 26.0172 2645.60 2700.96 55.40
6332 26.0209 2624.60 2700.83 55.30
6333 26.0247 2685.90 2700.69 56.70
6334 26.0285 2540.00 2700.56 54.10
6335 26.0322 2686.60 2700.42 55.50
6336 26.0360 2612.00 2700.29 55.00
6337 26.0397 2749.20 2700.15 57.10
6338 26.0435 2652.60 2700.01 55.40
6339 26.0473 2722.30 2699.88 56.20
6340 26.0510 2623.80 2699.74 55.30
6341 26.0548 2709.10 2699.60 55.20
6342 26.0585 2669.00 2699.47 55.10
6343 26.0623 2718.90 2699.33 54.20
6344 26.0660 2567.50 2699.19 53.10
6345 26.0698 2649.40 2699.05 55.00
6346 26.0736 2643.60 2698.92 54.80
6347 26.0773 2576.70 2698.78 53.60
6348 26.0811 2664.90 2698.64 55.30
6349 26.0848 2628.00 2698.50 54.80
6350 26.0886 2601.40 2698.36 54.30
6351 26.0924 2666.00 2698.23 54.70
6352 26.0961 2547.20 2698.09 53.50
6353 26.0999 2691.90 2697.95 54.80
6354 26.1036 2515.80 2697.81 53.00
6355 26.1074 2661.00 2697.67 55.30
6356 26.1111 2627.50 2697.53 54.40
6357 26.1149 2668.70 2697.39 55.60
6358 26.1187 2695.60 2697.25 54.70
6359 26.1224 2594.00 2697.11 53.80
6360 26.1262 2560.80 2696.97 53.80
6361 26.1299 2627.20 2696.83 54.70
6362 26.1337 2548.60 2696.69 54.20
6363 26.1374 2626.40 2696.55 54.60
6364 26.1412 2537.60 2696.41 53.80
6365 26.1450 2638.70 2696.27 54.80
6366 26.1487 2656.50 2696.13 54.60
6367 26.1525 2583.70 2695.99 53.80
6368 26.1562 2570.70 2695.85 53.90
6369 26.1600 2600.10 2695.71 53.30
6370 26.1637 2590.00 2695.56 54.20
6371 26.1675 2649.70 2695.42 54.60
6372 26.1713 2578.00 2695.28 54.20
6373 26.1750 2559.00 2695.14 54.60
6374 26.1788 2653.40 2695.00 54.90
6375 26.1825 2611.70 2694.85 54.20
6376 26.1863 2515.90 2694.71 53.70
6377 26.1901 2643.30 2694.57 54.50
6378 26.1938 2545.00 2694.43 53.60
6379 26.1976 2720.00 2694.28 55.20
6380 26.2013 2583.90 2694.14 54.50
6381 26.2051 2711.30 2694.00 55.50
6382 26.2089 2686.80 2693.85 55.20
6383 26.2126 2720.00 2693.71 55.60
6384 26.2164 2619.70 2693.57 55.30
6385 26.2201 2644.60 2693.42 55.10
6386 26.2239 2652.40 2693.28 55.80
6387 26.2276 2514.50 2693.13 53.20
6388 26.2314 2552.20 2692.99 54.30
6389 26.2351 2611.40 2692.84 54.80
6390 26.2389 2605.40 2692.70 54.90
6391 26.2427 2700.10 2692.55 55.90
6392 26.2464 2674.80 2692.41 55.30
6393 26.2502 2666.60 2692.26 55.10
6394 26.2539 2598.40 2692.12 54.50
6395 26.2577 2782.60 2691.97 56.10
6396 26.2615 2630.60 2691.82 54.40
6397 26.2652 2790.70 2691.68 56.30
6398 26.2690 2684.10 2691.53 55.10
6399 26.2727 2675.90 2691.39 55.30
6400 26.2765 2631.40 2691.24 54.90
6401 26.2802 2699.00 2691.09 54.50
6402 26.2840 2618.40 2690.95 54.90
6403 26.2878 2642.60 2690.80 55.20
6404 26.2915 2641.10 2690.65 54.30
6405 26.2953 2657.90 2690.50 54.40
6406 26.2990 2668.60 2690.36 55.50
6407 26.3028 2601.20 2690.21 54.90
6408 26.3065 2641.80 2690.06 54.50
6409 26.3103 2627.00 2689.91 54.60
6410 26.3141 2659.00 2689.76 55.10
6411 26.3178 2693.70 2689.61 55.80
6412 26.3216 2651.70 2689.47 55.10
6413 26.3253 2708.80 2689.32 55.40
6414 26.3291 2675.40 2689.17 54.60
6415 26.3328 2650.20 2689.02 55.10
6416 26.3366 2590.90 2688.87 54.50
6417 26.3404 2634.00 2688.72 55.20
6418 26.3441 2594.10 2688.57 55.10
6419 26.3479 2580.40 2688.42 54.50
6420 26.3516 2604.90 2688.27 54.40
6421 26.3554 2638.30 2688.12 54.70
6422 26.3591 2645.10 2687.97 55.50
6423 26.3629 2651.90 2687.82 55.30
6424 26.3667 2544.10 2687.67 53.80
6425 26.3704 2687.40 2687.51 55.80
6426 26.3742 2611.00 2687.36 55.00
6427 26.3779 2704.10 2687.21 55.20
6428 26.3817 2569.60 2687.06 54.60
6429 26.3855 2705.90 2686.91 55.40
6430 26.3892 2668.80 2686.76 55.30
6431 26.3930 2760.80 2686.60 56.60
6432 26.3967 2681.70 2686.45 54.80
6433 26.4005 2672.80 2686.30 55.00
6434 26.4042 2666.40 2686.15 54.80
6435 26.4080 2613.80 2685.99 54.30
6436 26.4118 2516.50 2685.84 53.70
6437 26.4155 2699.00 2685.69 56.10
6438 26.4193 2478.70 2685.53 52.90
6439 26.4230 2684.20 2685.38 55.20
6440 26.4268 2575.50 2685.23 53.50
6441 26.4305 2528.50 2685.07 54.00
6442 26.4343 2599.80 2684.92 54.80
6443 26.4380 2593.90 2684.76 54.60
6444 26.4418 2541.00 2684.61 54.20
6445 26.4456 2639.40 2684.45 55.20
6446 26.4493 2606.60 2684.30 54.80
6447 26.4531 2629.30 2684.14 55.40
6448 26.4568 2637.60 2683.99 55.90
6449 26.4606 2511.80 2683.83 53.90
6450 26.4643 2596.20 2683.68 54.10
6451 26.4681 2577.90 2683.52 54.40
6452 26.4719 2528.40 2683.36 53.90
6453 26.4756 2560.20 2683.21 54.00
6454 26.4794 2555.90 2683.05 54.20
6455 26.4831 2586.00 2682.89 54.30
6456 26.4869 2633.10 2682.74 55.00
6457 26.4906 2603.20 2682.58 54.70
6458 26.4944 2633.20 2682.42 54.90
6459 26.4981 2581.70 2682.27 55.00
6460 26.5019 2602.30 2682.11 55.00
6461 26.5057 2529.90 2681.95 54.50
6462 26.5094 2602.60 2681.79 54.70
6463 26.5132 2638.50 2681.63 55.10
6464 26.5169 2568.60 2681.48 53.50
6465 26.5207 2687.90 2681.32 55.70
6466 26.5245 2579.40 2681.16 54.50
6467 26.5282 2570.10 2681.00 54.70
6468 26.5320 2613.30 2680.84 55.50
6469 26.5357 2614.30 2680.68 55.30
6470 26.5395 2608.20 2680.52 54.60
6471 26.5432 2636.80 2680.36 55.00
6472 26.5470 2557.60 2680.20 53.70
6473 26.5507 2596.40 2680.04 54.00
6474 26.5545 2630.30 2679.88 54.60
6475 26.5583 2567.00 2679.72 53.50
6476 26.5620 2663.60 2679.56 55.20
6477 26.5658 2631.50 2679.40 55.10
6478 26.5695 2584.30 2679.24 53.60
6479 26.5733 2577.00 2679.08 54.10
6480 26.5770 2642.60 2678.92 54.60
6481 26.5808 2598.00 2678.75 54.10
6482 26.5846 2594.30 2678.59 54.30
6483 26.5883 2643.40 2678.43 54.80
6484 26.5921 2545.90 2678.27 53.50
6485 26.5958 2618.70 2678.10 54.20
6486 26.5996 2492.70 2677.94 53.10
6487 26.6033 2607.40 2677.78 54.50
6488 26.6071 2478.80 2677.62 53.30
6489 26.6108 2548.20 2677.45 53.20
6490 26.6146 2666.30 2677.29 55.50
6491 26.6184 2617.20 2677.13 54.40
6492 26.6221 2517.00 2676.96 53.80
6493 26.6259 2622.00 2676.80 54.80
6494 26.6296 2625.70 2676.63 54.40
6495 26.6334 2679.60 2676.47 54.90
6496 26.6371 2525.50 2676.30 53.90
6497 26.6409 2564.60 2676.14 54.20
6498 26.6446 2529.70 2675.97 53.50
6499 26.6484 2570.10 2675.81 54.20
6500 26.6522 2606.80 2675.64 54.40
6501 26.6559 2647.90 2675.48 54.70
6502 26.6597 2582.60 2675.31 53.90
6503 26.6634 2689.90 2675.15 55.40
6504 26.6672 2658.20 2674.98 55.10
6505 26.6709 2539.50 2674.81 52.90
6506 26.6747 2589.00 2674.65 54.20
6507 26.6784 2553.90 2674.48 53.80
6508 26.6822 2549.50 2674.31 53.70
6509 26.6860 2608.40 2674.15 54.40
6510 26.6897 2466.70 2673.98 53.20
6511 26.6935 2641.10 2673.81 55.30
6512 26.6972 2507.80 2673.64 53.30
6513 26.7010 2554.20 2673.47 53.80
6514 26.7047 2598.20 2673.31 54.10
6515 26.7085 2539.50 2673.14 53.80
6516 26.7122 2544.60 2672.97 54.00
6517 26.7160 2520.90 2672.80 53.60
6518 26.7198 2494.80 2672.63 53.50
6519 26.7235 2632.80 2672.46 54.80
6520 26.7273 2472.10 2672.29 53.10
6521 26.7310 2621.40 2672.12 54.90
6522 26.7348 2621.70 2671.95 53.90
6523 26.7385 2674.10 2671.78 54.60
6524 26.7423 2467.60 2671.61 52.80
6525 26.7460 2588.00 2671.44 54.60
6526 26.7498 2542.30 2671.27 53.90
6527 26.7536 2614.50 2671.10 54.20
6528 26.7573 2631.70 2670.93 54.60
6529 26.7611 2598.60 2670.76 54.40
6530 26.7648 2543.10 2670.59 53.40
6531 26.7686 2546.70 2670.42 54.00
6532 26.7723 2558.30 2670.24 54.20
6533 26.7761 2643.40 2670.07 55.40
6534 26.7799 2502.50 2669.90 52.80
6535 26.7836 2506.00 2669.73 52.90
6536 26.7874 2538.40 2669.55 53.60
6537 26.7911 2586.70 2669.38 54.10
6538 26.7949 2498.70 2669.21 53.20
6539 26.7986 2587.00 2669.04 54.40
6540 26.8024 2582.70 2668.86 54.90
6541 26.8061 2574.60 2668.69 54.40
6542 26.8099 2521.90 2668.51 54.30
6543 26.8137 2659.50 2668.34 55.30
6544 26.8174 2451.10 2668.17 52.80
6545 26.8212 2595.00 2667.99 54.50
6546 26.8249 2490.20 2667.82 53.10
6547 26.8287 2661.80 2667.64 55.60
6548 26.8324 2486.30 2667.47 52.90
6549 26.8362 2615.40 2667.29 54.60
6550 26.8399 2558.30 2667.12 53.90
6551 26.8437 2528.60 2666.94 53.50
6552 26.8475 2494.50 2666.76 53.40
6553 26.8512 2600.20 2666.59 54.40
6554 26.8550 2622.50 2666.41 54.70
6555 26.8587 2627.00 2666.23 54.90
6556 26.8625 2545.70 2666.06 54.00
6557 26.8662 2543.00 2665.88 53.60
6558 26.8700 2547.20 2665.70 53.40
6559 26.8737 2589.10 2665.53 54.50
6560 26.8775 2549.10 2665.35 53.80
6561 26.8812 2562.10 2665.17 53.80
6562 26.8850 2534.50 2664.99 53.60
6563 26.8888 2490.20 2664.81 52.80
6564 26.8925 2570.20 2664.64 53.10
6565 26.8963 2583.80 2664.46 53.50
6566 26.9000 2510.30 2664.28 53.20
6567 26.9038 2551.10 2664.10 53.90
6568 26.9075 2556.50 2663.92 53.70
6569 26.9113 2542.90 2663.74 54.10
6570 26.9150 2551.00 2663.56 53.80
6571 26.9188 2606.10 2663.38 54.10
6572 26.9225 2455.80 2663.20 52.90
6573 26.9263 2659.00 2663.02 55.00
6574 26.9300 2519.70 2662.84 53.30
6575 26.9338 2547.50 2662.66 53.40
6576 26.9376 2505.30 2662.48 52.10
6577 26.9413 2541.70 2662.30 53.50
6578 26.9451 2527.50 2662.12 53.50
6579 26.9488 2619.70 2661.93 54.70
6580 26.9526 2518.70 2661.75 53.70
6581 26.9563 2557.10 2661.57 53.60
6582 26.9601 2524.60 2661.39 53.70
6583 26.9638 2572.80 2661.21 53.70
6584 26.9676 2528.00 2661.02 53.50
6585 26.9713 2635.10 2660.84 54.80
6586 26.9751 2547.60 2660.66 54.00
6587 26.9789 2678.40 2660.47 55.30
6588 26.9826 2546.10 2660.29 54.30
6589 26.9864 2640.30 2660.11 54.10
6590 26.9901 2521.20 2659.92 53.40
6591 26.9939 2517.30 2659.74 53.40
6592 26.9960 2587.90 2659.64 55.20
6593 26.9997 2462.80 2659.45 53.10
6594 27.0035 2619.00 2659.27 54.90
6595 27.0072 2529.60 2659.08 53.10
6596 27.0110 2628.00 2658.90 55.10
6597 27.0147 2566.00 2658.71 54.40
6598 27.0185 2625.30 2658.53 55.30
6599 27.0223 2586.90 2658.34 55.20
6600 27.0260 2662.40 2658.16 55.80
6601 27.0298 2517.20 2657.97 53.60
6602 27.0335 2584.60 2672.97 54.40
6603 27.0373 2464.70 2673.63 52.60
6604 27.0410 2638.60 2674.36 54.50
6605 27.0448 2550.20 2675.17 53.70
6606 27.0486 2544.10 2676.06 53.20
6607 27.0523 2620.70 2677.06 54.70
6608 27.0561 2611.90 2678.18 54.90
6609 27.0598 2540.60 2679.42 53.10
6610 27.0636 2643.10 2680.81 54.80
6611 27.0673 2408.80 2682.36 52.00
6612 27.0711 2663.60 2684.12 54.80
6613 27.0749 2576.00 2686.09 54.10
6614 27.0786 2553.00 2688.31 53.80
6615 27.0824 2580.20 2690.84 53.90
6616 27.0861 2670.00 2693.72 54.80
6617 27.0899 2644.90 2697.01 54.80
6618 27.0936 2583.00 2700.80 54.20
6619 27.0974 2562.10 2705.17 54.20
6620 27.1012 2605.00 2710.25 53.90
6621 27.1049 2539.10 2716.19 54.10
6622 27.1087 2763.80 2723.20 55.90
6623 27.1124 2631.40 2731.53 55.10
6624 27.1162 2676.20 2741.51 55.40
6625 27.1199 2514.60 2753.62 53.20
6626 27.1237 2680.60 2768.48 54.90
6627 27.1274 2677.40 2786.91 55.60
6628 27.1312 2822.00 2810.25 57.00
6629 27.1350 2699.20 2840.16 55.40
6630 27.1387 2766.70 2879.53 56.30
6631 27.1425 2851.00 2932.65 57.10
6632 27.1462 2832.70 3007.26 56.70
6633 27.1500 3003.20 3120.54 58.40
6634 27.1537 3209.30 3309.95 60.80
6635 27.1575 3510.60 3656.03 63.80
6636 27.1612 4174.30 4283.88 68.80
6637 27.1650 5775.90 5323.54 83.10
6638 27.1688 7343.00 6736.23 94.60
6639 27.1725 7984.00 7920.46 98.90
6640 27.1763 8041.20 7760.00 99.30
6641 27.1800 7032.80 6441.47 93.10
6642 27.1838 5627.70 5080.55 82.70
6643 27.1875 4101.30 4129.75 69.20
6644 27.1913 3341.20 3567.53 62.00
6645 27.1950 3135.40 3260.94 59.80
6646 27.1988 3049.00 3091.07 59.20
6647 27.2026 2901.70 2987.15 57.80
6648 27.2063 2849.40 2917.38 57.20
6649 27.2101 2597.80 2867.07 54.70
6650 27.2138 2783.70 2829.44 56.40
6651 27.2176 2655.10 2800.65 55.10
6652 27.2213 2599.80 2778.02 54.60
6653 27.2251 2607.80 2760.00 53.80
6654 27.2254 2656.40 2758.80 54.40
6655 27.2291 2722.50 2744.37 55.20
6656 27.2329 2603.30 2732.53 53.70
6657 27.2366 2633.00 2722.66 54.30
6658 27.2404 2705.10 2714.32 55.40
6659 27.2441 2576.20 2707.25 53.60
6660 27.2479 2542.50 2701.18 53.70
6661 27.2516 2556.70 2695.90 53.00
6662 27.2554 2513.50 2691.32 53.50
6663 27.2591 2607.40 2687.29 54.30
6664 27.2629 2547.60 2683.72 53.70
6665 27.2667 2610.90 2680.56 54.20
6666 27.2704 2561.70 2677.73 54.20
6667 27.2742 2523.40 2675.18 53.10
6668 27.2779 2499.80 2672.89 53.00
6669 27.2817 2547.90 2670.80 53.30
6670 27.2854 2555.30 2668.90 53.90
6671 27.2892 2653.10 2667.17 54.80
6672 27.2929 2506.60 2665.57 52.60
6673 27.2967 2554.90 2664.10 53.90
6674 27.3004 2526.20 2662.74 53.50
6675 27.3042 2608.30 2661.48 54.10
6676 27.3079 2566.20 2660.30 53.70
6677 27.3117 2484.10 2659.20 52.90
6678 27.3155 2620.40 2658.18 54.80
6679 27.3192 2503.00 2642.98 53.30
6680 27.3230 2552.00 2642.78 54.20
6681 27.3267 2519.60 2642.58 53.60
6682 27.3305 2512.50 2642.37 52.70
6683 27.3342 2538.00 2642.17 53.10
6684 27.3380 2581.10 2641.97 53.60
6685 27.3417 2595.60 2641.76 54.50
6686 27.3455 2496.20 2641.56 52.30
6687 27.3493 2502.90 2641.35 53.20
6688 27.3530 2481.80 2641.15 53.50
6689 27.3568 2505.60 2640.95 53.20
6690 27.3605 2460.50 2640.74 53.00
6691 27.3643 2611.80 2640.54 54.20
6692 27.3680 2525.10 2640.33 52.80
6693 27.3718 2580.50 2640.13 53.80
6694 27.3755 2498.20 2639.92 53.00
6695 27.3793 2622.60 2639.71 54.20
6696 27.3830 2588.90 2639.51 54.20
6697 27.3868 2531.00 2639.30 53.70
6698 27.3905 2546.60 2639.09 53.50
6699 27.3943 2459.00 2638.89 53.40
6700 27.3981 2543.80 2638.68 53.60
6701 27.4018 2553.20 2638.47 54.40
6702 27.4056 2599.00 2638.27 54.80
6703 27.4093 2557.90 2638.06 54.00
6704 27.4131 2468.90 2637.85 52.30
6705 27.4168 2565.90 2637.64 53.60
6706 27.4206 2517.40 2637.43 53.90
6707 27.4243 2563.60 2637.23 54.30
6708 27.4281 2390.10 2637.02 52.50
6709 27.4318 2531.90 2636.81 54.10
6710 27.4356 2523.60 2636.60 53.60
6711 27.4394 2511.00 2636.39 53.50
6712 27.4431 2555.80 2636.18 54.50
6713 27.4469 2533.30 2635.97 53.20
6714 27.4506 2463.50 2635.76 52.90
6715 27.4544 2694.30 2635.55 55.40
6716 27.4581 2482.60 2635.34 53.40
6717 27.4619 2612.20 2635.13 54.90
6718 27.4656 2546.70 2634.92 54.00
6719 27.4694 2481.00 2634.71 53.00
6720 27.4731 2468.30 2634.50 52.50
6721 27.4769 2482.70 2634.28 53.10
6722 27.4806 2472.10 2634.07 53.00
6723 27.4844 2589.10 2633.86 53.90
6724 27.4882 2505.40 2633.65 53.40
6725 27.4919 2576.40 2633.44 54.70
6726 27.4957 2537.70 2633.22 54.20
6727 27.4994 2516.90 2633.01 53.20
6728 27.5032 2457.90 2632.80 53.00
6729 27.5069 2561.00 2632.58 54.00
6730 27.5107 2522.10 2632.37 53.80
6731 27.5144 2600.80 2632.16 53.90
6732 27.5182 2438.40 2631.94 52.80
6733 27.5219 2521.40 2631.73 54.00
6734 27.5257 2541.50 2631.52 53.80
6735 27.5295 2666.90 2631.30 55.10
6736 27.5332 2515.30 2631.09 54.00
6737 27.5370 2580.40 2630.87 54.20
6738 27.5407 2457.50 2630.66 52.70
6739 27.5445 2574.50 2630.44 53.60
6740 27.5482 2491.20 2630.23 53.10
6741 27.5520 2408.30 2630.01 52.60
6742 27.5557 2567.80 2629.79 53.90
6743 27.5595 2535.10 2629.58 54.00
6744 27.5633 2588.80 2629.36 54.60
6745 27.5670 2626.70 2629.15 55.10
6746 27.5708 2392.40 2628.93 52.70
6747 27.5745 2503.00 2628.71 53.00
6748 27.5783 2543.20 2628.49 53.70
6749 27.5820 2516.20 2628.28 53.20
6750 27.5858 2533.40 2628.06 54.10
6751 27.5896 2662.40 2627.84 55.20
6752 27.5933 2453.20 2627.62 53.00
6753 27.5971 2576.00 2627.40 54.30
6754 27.6008 2510.70 2627.19 53.70
6755 27.6046 2611.10 2626.97 55.10
6756 27.6083 2599.70 2626.75 55.00
6757 27.6121 2563.70 2626.53 54.00
6758 27.6158 2526.70 2626.31 53.70
6759 27.6196 2521.40 2626.09 54.00
6760 27.6233 2513.60 2625.87 52.90
6761 27.6271 2649.30 2625.65 55.20
6762 27.6309 2528.80 2625.43 54.20
6763 27.6346 2545.60 2625.21 53.30
6764 27.6384 2430.30 2624.99 52.60
6765 27.6421 2612.70 2624.77 54.70
6766 27.6459 2478.20 2624.55 53.70
6767 27.6496 2534.90 2624.33 54.30
6768 27.6534 2498.80 2624.11 52.40
6769 27.6571 2633.00 2623.88 54.70
6770 27.6609 2464.10 2623.66 53.70
6771 27.6646 2474.70 2623.44 53.30
6772 27.6684 2484.40 2623.22 53.30
6773 27.6722 2531.20 2622.99 53.60
6774 27.6759 2507.30 2622.77 53.50
6775 27.6797 2554.30 2622.55 54.50
6776 27.6834 2526.80 2622.33 54.10
6777 27.6872 2567.90 2622.10 53.30
6778 27.6909 2453.40 2621.88 52.40
6779 27.6947 2513.80 2621.66 52.30
6780 27.6985 2512.10 2621.43 52.90
6781 27.7022 2624.70 2621.21 54.00
6782 27.7060 2534.00 2620.98 53.00
6783 27.7097 2615.60 2620.76 53.80
6784 27.7135 2664.00 2620.53 54.50
6785 27.7172 2646.50 2620.31 54.40
6786 27.7210 2580.20 2620.08 53.40
6787 27.7248 2717.90 2619.86 55.00
6788 27.7285 2611.90 2619.63 53.60
6789 27.7323 2680.50 2619.41 55.00
6790 27.7360 2664.30 2619.18 54.50
6791 27.7398 2524.60 2618.95 52.30
6792 27.7435 2643.40 2618.73 54.40
6793 27.7473 2664.60 2618.50 54.50
6794 27.7510 2619.20 2618.27 54.00
6795 27.7548 2690.70 2618.05 55.20
6796 27.7586 2533.20 2617.82 53.80
6797 27.7623 2542.20 2617.59 52.90
6798 27.7661 2469.40 2617.36 51.80
6799 27.7698 2444.80 2617.14 52.30
6800 27.7736 2521.70 2616.91 53.30
6801 27.7773 2566.20 2616.68 53.60
6802 27.7811 2530.20 2616.45 53.00
6803 27.7848 2621.00 2616.22 54.50
6804 27.7886 2463.50 2615.99 52.00
6805 27.7924 2563.80 2615.77 53.60
6806 27.7961 2478.30 2615.54 53.20
6807 27.7999 2532.30 2615.31 53.40
6808 27.8036 2493.90 2615.08 53.00
6809 27.8074 2513.80 2614.85 53.20
6810 27.8111 2491.00 2614.62 53.10
6811 27.8149 2594.70 2614.39 53.60
6812 27.8186 2563.70 2614.16 53.30
6813 27.8224 2494.90 2613.92 52.60
6814 27.8262 2454.40 2613.69 51.90
6815 27.8299 2607.10 2613.46 53.90
6816 27.8337 2524.20 2613.23 53.10
6817 27.8374 2482.70 2613.00 52.60
6818 27.8412 2463.00 2612.77 52.80
6819 27.8449 2555.10 2612.54 53.90
6820 27.8487 2496.80 2612.30 52.90
6821 27.8525 2512.60 2612.07 53.10
6822 27.8562 2543.80 2611.84 53.70
6823 27.8600 2563.00 2611.60 54.30
6824 27.8637 2463.40 2611.37 52.00
6825 27.8675 2572.20 2611.14 53.30
6826 27.8712 2470.50 2610.91 52.80
6827 27.8750 2546.70 2610.67 53.30
6828 27.8787 2426.00 2610.44 51.90
6829 27.8825 2524.70 2610.20 53.10
6830 27.8863 2465.80 2609.97 52.30
6831 27.8900 2614.70 2609.73 53.90
6832 27.8938 2388.20 2609.50 51.80
6833 27.8975 2592.90 2609.27 54.20
6834 27.9013 2442.40 2609.03 52.10
6835 27.9051 2509.90 2608.79 52.90
6836 27.9088 2390.10 2608.56 52.10
6837 27.9126 2552.20 2608.32 53.30
6838 27.9163 2546.60 2608.09 53.50
6839 27.9201 2467.80 2607.85 52.80
6840 27.9238 2408.80 2607.62 52.10
6841 27.9276 2491.00 2607.38 52.80
6842 27.9313 2592.90 2607.14 53.40
6843 27.9351 2587.80 2606.91 54.20
6844 27.9389 2432.90 2606.67 52.10
6845 27.9426 2480.00 2606.43 52.40
6846 27.9464 2468.10 2606.19 52.80
6847 27.9501 2428.10 2605.96 52.40
6848 27.9539 2540.90 2605.72 53.30
6849 27.9576 2544.50 2605.48 53.20
6850 27.9614 2459.80 2605.24 52.10
6851 27.9652 2607.90 2605.00 53.90
6852 27.9689 2457.40 2604.76 51.70
6853 27.9727 2522.80 2604.53 53.10
6854 27.9764 2569.70 2604.29 53.60
6855 27.9802 2468.50 2604.05 52.50
6856 27.9839 2557.40 2603.81 53.50
6857 27.9877 2448.10 2603.57 52.20
6858 27.9914 2489.60 2603.33 52.40
6859 27.9952 2495.90 2603.09 52.90
6860 27.9990 2569.10 2602.85 53.50
6861 28.0027 2629.30 2602.61 54.00
6862 28.0065 2507.30 2602.37 52.90
6863 28.0102 2576.00 2602.13 53.70
6864 28.0140 2571.20 2601.88 53.40
6865 28.0177 2570.30 2601.64 54.40
6866 28.0215 2516.70 2601.40 52.90
6867 28.0253 2529.30 2601.16 53.50
6868 28.0290 2450.30 2600.92 51.90
6869 28.0328 2545.40 2600.68 53.40
6870 28.0365 2560.10 2600.43 53.40
6871 28.0403 2558.50 2600.19 52.80
6872 28.0441 2503.30 2599.95 53.00
6873 28.0478 2558.10 2599.71 53.70
6874 28.0516 2427.30 2599.46 51.90
6875 28.0553 2480.80 2599.22 52.30
6876 28.0591 2487.70 2598.98 52.60
6877 28.0628 2546.90 2598.73 53.30
6878 28.0666 2472.10 2598.49 52.60
6879 28.0704 2457.40 2598.24 51.90
6880 28.0741 2523.40 2598.00 53.50
6881 28.0779 2460.70 2597.76 52.10
6882 28.0816 2511.50 2597.51 53.20
6883 28.0854 2496.00 2597.27 52.80
6884 28.0891 2572.00 2597.02 53.80
6885 28.0929 2536.10 2596.78 53.90
6886 28.0966 2463.40 2596.53 52.90
6887 28.1004 2441.70 2596.28 52.10
6888 28.1042 2526.10 2596.04 53.30
6889 28.1079 2632.00 2595.79 55.00
6890 28.1117 2459.20 2595.55 52.80
6891 28.1154 2478.40 2595.30 52.40
6892 28.1192 2446.80 2595.05 52.40
6893 28.1229 2415.90 2594.81 52.00
6894 28.1267 2499.90 2594.56 52.60
6895 28.1305 2525.20 2594.31 53.20
6896 28.1342 2357.50 2594.07 51.20
6897 28.1380 2448.30 2593.82 51.90
6898 28.1417 2572.40 2593.57 53.80
6899 28.1455 2493.50 2593.32 53.00
6900 28.1493 2534.80 2593.07 53.40
6901 28.1530 2510.30 2592.83 53.00
6902 28.1568 2450.60 2592.58 51.90
6903 28.1605 2490.10 2592.33 52.90
6904 28.1643 2457.30 2592.08 53.20
6905 28.1680 2563.40 2591.83 52.90
6906 28.1718 2453.40 2591.58 51.90
6907 28.1756 2520.60 2591.33 52.50
6908 28.1793 2478.30 2591.08 52.30
6909 28.1831 2544.80 2590.83 53.40
6910 28.1868 2499.30 2590.58 53.40
6911 28.1906 2513.30 2590.33 53.20
6912 28.1943 2547.30 2590.08 53.20
6913 28.1981 2541.90 2589.83 53.00
6914 28.2019 2466.70 2589.58 52.40
6915 28.2056 2576.40 2589.33 52.80
6916 28.2094 2552.40 2589.08 53.20
6917 28.2131 2593.40 2588.83 54.00
6918 28.2169 2525.40 2588.58 52.50
6919 28.2206 2506.70 2588.32 52.50
6920 28.2244 2511.00 2588.07 52.40
6921 28.2282 2463.20 2587.82 52.10
6922 28.2319 2514.30 2587.57 52.80
6923 28.2357 2485.50 2587.32 52.60
6924 28.2394 2527.40 2587.06 52.50
6925 28.2432 2508.10 2586.81 52.80
6926 28.2470 2401.00 2586.56 51.70
6927 28.2507 2600.30 2586.30 53.50
6928 28.2545 2442.40 2586.05 51.80
6929 28.2582 2506.50 2585.80 53.40
6930 28.2620 2472.90 2585.54 52.30
6931 28.2657 2531.40 2585.29 53.10
6932 28.2695 2429.40 2585.04 52.20
6933 28.2733 2580.50 2584.78 53.80
6934 28.2770 2491.30 2584.53 53.10
6935 28.2808 2562.40 2584.27 53.30
6936 28.2845 2552.80 2584.02 53.90
6937 28.2883 2474.70 2583.76 52.80
6938 28.2920 2517.00 2583.51 53.50
6939 28.2958 2641.10 2583.25 54.40
6940 28.2996 2525.70 2583.00 52.70
6941 28.3033 2571.60 2582.74 53.40
6942 28.3071 2560.70 2582.48 53.20
6943 28.3108 2543.80 2582.23 53.30
6944 28.3146 2556.30 2581.97 53.30
6945 28.3183 2553.80 2581.72 53.20
6946 28.3221 2467.90 2581.46 52.20
6947 28.3259 2541.40 2581.20 53.40
6948 28.3296 2469.50 2580.95 52.50
6949 28.3334 2492.90 2580.69 52.60
6950 28.3371 2413.70 2580.43 51.70
6951 28.3409 2507.80 2580.17 52.80
6952 28.3447 2604.50 2579.92 54.10
6953 28.3484 2472.40 2579.66 52.20
6954 28.3522 2448.60 2579.40 52.10
6955 28.3559 2530.60 2579.14 53.40
6956 28.3597 2501.80 2578.88 52.30
6957 28.3634 2439.50 2578.62 52.10
6958 28.3672 2433.00 2578.36 51.70
6959 28.3710 2554.00 2578.11 53.00
6960 28.3747 2474.80 2577.85 51.90
6961 28.3785 2483.50 2577.59 52.30
6962 28.3822 2422.90 2577.33 51.90
6963 28.3860 2528.90 2577.07 52.90
6964 28.3898 2493.70 2576.81 53.50
6965 28.3935 2563.00 2576.55 53.30
6966 28.3973 2533.30 2576.29 53.20
6967 28.4010 2469.60 2576.03 51.80
6968 28.4048 2433.40 2575.77 51.90
6969 28.4086 2537.70 2575.51 53.30
6970 28.4123 2400.20 2575.24 51.80
6971 28.4161 2490.70 2574.98 53.10
6972 28.4198 2448.90 2574.72 52.10
6973 28.4236 2465.20 2574.46 52.80
6974 28.4273 2469.10 2574.20 52.70
6975 28.4311 2455.30 2573.94 51.80
6976 28.4349 2511.80 2573.68 53.00
6977 28.4386 2520.00 2573.41 53.40
6978 28.4424 2496.10 2573.15 52.50
6979 28.4461 2492.90 2572.89 52.30
6980 28.4499 2461.40 2572.63 52.10
6981 28.4536 2585.40 2572.36 54.20
6982 28.4574 2514.70 2572.10 52.60
6983 28.4612 2449.70 2571.84 52.60
6984 28.4649 2521.80 2571.57 53.60
6985 28.4687 2509.80 2571.31 53.20
6986 28.4724 2426.20 2571.05 51.70
6987 28.4762 2542.10 2570.78 53.60
6988 28.4800 2502.40 2570.52 52.70
6989 28.4837 2503.10 2570.25 52.70
6990 28.4875 2501.00 2569.99 53.00
6991 28.4912 2601.90 2569.72 54.10
6992 28.4950 2545.10 2569.46 53.40
6993 28.4988 2465.50 2569.20 52.60
6994 28.5025 2516.10 2568.93 52.90
6995 28.5063 2662.90 2568.66 55.10
6996 28.5100 2478.30 2568.40 52.50
6997 28.5138 2524.00 2568.13 52.80
6998 28.5175 2493.90 2567.87 52.40
6999 28.5213 2542.20 2567.60 53.60
7000 28.5251 2508.00 2567.34 52.90
7001 28.5288 2536.50 2567.07 52.90
7002 28.5326 2514.70 2566.80 52.70
7003 28.5363 2482.50 2566.54 52.10
7004 28.5401 2489.70 2566.27 53.00
7005 28.5438 2549.50 2566.00 53.70
7006 28.5476 2474.80 2565.74 53.20
7007 28.5514 2625.60 2565.47 54.70
7008 28.5551 2440.70 2565.20 52.10
7009 28.5589 2545.00 2564.93 53.20
7010 28.5627 2586.80 2564.67 54.00
7011 28.5664 2564.80 2564.40 53.30
7012 28.5702 2489.70 2564.13 53.10
7013 28.5739 2504.80 2563.86 52.90
7014 28.5777 2583.40 2563.59 53.60
7015 28.5814 2599.60 2563.32 54.50
7016 28.5852 2441.30 2563.06 52.30
7017 28.5890 2527.90 2562.79 53.10
7018 28.5927 2451.90 2562.52 51.70
7019 28.5965 2505.00 2562.25 52.40
7020 28.6002 2356.30 2561.98 51.00
7021 28.6040 2520.90 2561.71 52.90
7022 28.6077 2423.10 2561.44 51.80
7023 28.6115 2435.50 2561.17 51.90
7024 28.6153 2493.20 2560.90 52.50
7025 28.6190 2508.40 2560.63 53.20
7026 28.6228 2440.30 2560.36 52.30
7027 28.6265 2487.80 2560.09 52.90
7028 28.6303 2427.30 2559.82 51.80
7029 28.6341 2454.80 2559.55 52.50
7030 28.6378 2474.00 2559.28 52.50
7031 28.6416 2522.20 2559.00 53.30
7032 28.6453 2434.00 2558.73 52.70
7033 28.6491 2586.20 2558.46 53.50
7034 28.6529 2439.00 2558.19 51.00
7035 28.6566 2497.00 2557.92 52.40
7036 28.6604 2572.60 2557.65 53.40
7037 28.6641 2561.90 2557.37 52.90
7038 28.6679 2532.80 2557.10 53.00
7039 28.6716 2515.40 2556.83 52.20
7040 28.6754 2478.40 2556.56 52.10
7041 28.6792 2650.60 2556.28 54.30
7042 28.6829 2482.90 2556.01 52.70
7043 28.6867 2582.30 2555.74 52.80
7044 28.6905 2511.60 2555.46 52.10
7045 28.6942 2566.50 2555.19 53.00
7046 28.6980 2425.70 2554.92 51.70
7047 28.7017 2478.00 2554.64 51.70
7048 28.7055 2474.70 2554.37 51.90
7049 28.7092 2490.70 2554.10 52.10
7050 28.7130 2383.60 2553.82 51.10
7051 28.7168 2406.30 2553.55 51.60
7052 28.7205 2434.00 2553.27 51.60
7053 28.7243 2467.20 2553.00 52.40
7054 28.7280 2460.80 2552.72 52.10
7055 28.7318 2536.90 2552.45 52.80
7056 28.7355 2551.60 2552.17 52.80
7057 28.7393 2516.60 2551.90 52.80
7058 28.7431 2440.80 2551.62 51.90
7059 28.7468 2535.30 2551.35 52.90
7060 28.7506 2490.20 2551.07 52.70
7061 28.7544 2455.20 2550.79 52.30
7062 28.7581 2480.30 2550.52 52.10
7063 28.7619 2457.60 2550.24 51.80
7064 28.7656 2385.90 2549.97 51.30
7065 28.7694 2494.90 2549.69 52.20
7066 28.7731 2455.10 2549.41 51.80
7067 28.7769 2491.30 2549.14 52.40
7068 28.7807 2445.10 2548.86 51.90
7069 28.7844 2419.20 2548.58 51.90
7070 28.7882 2420.10 2548.31 52.00
7071 28.7919 2575.00 2548.03 53.40
7072 28.7957 2446.20 2547.75 51.70
7073 28.7995 2498.90 2547.47 52.10
7074 28.8032 2494.40 2547.19 52.40
7075 28.8070 2506.00 2546.92 52.50
7076 28.8107 2491.50 2546.64 52.60
7077 28.8145 2543.20 2546.36 52.80
7078 28.8183 2506.30 2546.08 52.20
7079 28.8220 2540.80 2545.80 53.00
7080 28.8258 2516.90 2545.52 53.10
7081 28.8295 2572.40 2545.25 53.80
7082 28.8333 2492.00 2544.97 52.40
7083 28.8370 2584.60 2544.69 53.20
7084 28.8408 2580.90 2544.41 53.80
7085 28.8446 2485.40 2544.13 52.40
7086 28.8483 2439.00 2543.85 52.20
7087 28.8521 2511.80 2543.57 52.90
7088 28.8559 2464.80 2543.29 52.20
7089 28.8596 2573.10 2543.01 53.30
7090 28.8634 2493.80 2542.73 52.30
7091 28.8671 2527.70 2542.45 52.00
7092 28.8709 2537.90 2542.17 52.70
7093 28.8746 2540.50 2541.89 53.50
7094 28.8784 2472.50 2541.61 52.50
7095 28.8822 2475.30 2541.33 51.70
7096 28.8859 2531.20 2541.05 53.00
7097 28.8897 2427.50 2540.76 52.10
7098 28.8934 2404.40 2540.48 51.20
7099 28.8972 2488.80 2540.20 52.50
7100 28.9010 2486.00 2539.92 52.40
7101 28.9047 2456.40 2539.64 52.30
7102 28.9085 2487.70 2539.36 52.10
7103 28.9122 2470.80 2539.07 52.50
7104 28.9160 2506.90 2538.79 53.00
7105 28.9198 2530.10 2538.51 53.20
7106 28.9235 2498.40 2538.23 52.50
7107 28.9273 2468.40 2537.95 52.10
7108 28.9310 2445.90 2537.66 51.60
7109 28.9348 2478.20 2537.38 53.00
7110 28.9386 2454.70 2537.10 52.60
7111 28.9423 2498.60 2536.81 52.80
7112 28.9461 2539.30 2536.53 53.40
7113 28.9498 2593.80 2536.25 53.50
7114 28.9536 2521.50 2535.96 53.10
7115 28.9573 2591.30 2535.68 53.40
7116 28.9611 2393.50 2535.40 51.60
7117 28.9649 2489.60 2535.11 52.80
7118 28.9686 2419.20 2534.83 51.50
7119 28.9724 2464.90 2534.55 52.20
7120 28.9762 2413.70 2534.26 52.00
7121 28.9799 2430.90 2533.98 51.40
7122 28.9837 2464.40 2533.69 52.70
7123 28.9874 2478.30 2533.41 52.20
7124 28.9912 2425.00 2533.12 51.90
7125 28.9949 2453.30 2532.84 52.60
7126 28.9987 2376.00 2532.55 51.50
7127 29.0025 2506.10 2532.27 53.70
7128 29.0062 2473.60 2531.98 52.20
7129 29.0100 2496.80 2531.70 52.90
7130 29.0137 2422.50 2531.41 51.50
7131 29.0175 2465.90 2531.13 52.30
7132 29.0213 2453.40 2530.84 52.40
7133 29.0250 2532.20 2530.55 52.80
7134 29.0288 2525.70 2530.27 53.70
7135 29.0325 2463.50 2529.98 52.20
7136 29.0363 2404.60 2529.69 52.10
7137 29.0401 2470.70 2529.41 52.30
7138 29.0438 2456.60 2529.12 52.30
7139 29.0476 2453.70 2528.83 52.50
7140 29.0513 2396.40 2528.55 51.60
7141 29.0551 2478.40 2528.26 52.90
7142 29.0589 2427.30 2527.97 52.60
7143 29.0626 2401.80 2527.69 51.70
7144 29.0664 2426.80 2527.40 52.10
7145 29.0701 2492.00 2527.11 53.10
7146 29.0739 2390.00 2526.82 52.00
7147 29.0777 2533.10 2526.54 52.90
7148 29.0814 2436.10 2526.25 52.60
7149 29.0852 2392.90 2525.96 51.40
7150 29.0889 2493.40 2525.67 52.80
7151 29.0927 2358.80 2525.38 51.50
7152 29.0965 2460.00 2525.10 52.20
7153 29.1002 2364.80 2524.81 51.60
7154 29.1040 2558.50 2524.52 53.90
7155 29.1077 2431.10 2524.23 52.00
7156 29.1115 2403.30 2523.94 52.00
7157 29.1152 2465.60 2523.65 52.50
7158 29.1190 2397.60 2523.36 52.10
7159 29.1228 2515.00 2523.07 52.60
7160 29.1265 2466.20 2522.78 53.00
7161 29.1303 2326.10 2522.50 51.80
7162 29.1341 2444.40 2522.21 52.60
7163 29.1378 2496.20 2521.92 53.40
7164 29.1416 2471.70 2521.63 52.60
7165 29.1453 2411.30 2521.34 52.30
7166 29.1491 2444.80 2521.05 52.90
7167 29.1528 2486.50 2520.76 52.20
7168 29.1566 2487.20 2520.47 52.70
7169 29.1604 2488.60 2520.18 53.20
7170 29.1641 2499.20 2519.89 53.60
7171 29.1679 2558.10 2519.59 53.20
7172 29.1716 2517.40 2519.30 53.50
7173 29.1754 2468.80 2519.01 52.10
7174 29.1792 2478.30 2518.72 52.70
7175 29.1829 2532.90 2518.43 52.60
7176 29.1867 2353.20 2518.14 51.90
7177 29.1904 2496.60 2517.85 52.70
7178 29.1942 2519.20 2517.56 53.00
7179 29.1980 2566.00 2517.27 53.60
7180 29.2017 2531.80 2516.97 53.30
7181 29.2055 2633.10 2516.68 53.20
7182 29.2092 2445.40 2516.39 51.90
7183 29.2130 2486.50 2516.10 53.30
7184 29.2168 2529.80 2515.81 54.00
7185 29.2205 2486.60 2515.51 53.10
7186 29.2243 2485.70 2515.22 53.10
7187 29.2280 2576.70 2514.93 54.20
7188 29.2318 2435.60 2514.64 52.80
7189 29.2356 2527.30 2514.34 53.90
7190 29.2393 2476.90 2514.05 53.10
7191 29.2431 2511.80 2513.76 53.60
7192 29.2468 2486.70 2513.47 53.50
7193 29.2506 2510.90 2513.17 53.30
7194 29.2544 2459.00 2512.88 52.40
7195 29.2581 2556.50 2512.59 52.80
7196 29.2619 2400.70 2512.29 52.80
7197 29.2656 2481.50 2512.00 52.60
7198 29.2694 2503.90 2511.71 53.50
7199 29.2732 2590.30 2511.41 54.60
7200 29.2769 2540.70 2511.12 53.30
7201 29.2807 2565.60 2510.82 54.60
7202 29.2844 2525.90 2510.53 53.60
7203 29.2882 2542.50 2510.24 52.70
7204 29.2920 2450.50 2509.94 53.10
7205 29.2957 2515.70 2509.65 53.90
7206 29.2995 2453.60 2509.35 53.10
7207 29.3032 2480.30 2509.06 52.80
7208 29.3070 2534.40 2508.76 53.60
7209 29.3108 2594.70 2508.47 53.80
7210 29.3145 2565.90 2508.17 53.70
7211 29.3183 2547.80 2507.88 54.50
7212 29.3220 2608.50 2507.58 54.10
7213 29.3258 2498.30 2507.29 53.00
7214 29.3296 2509.00 2506.99 52.90
7215 29.3333 2572.70 2506.70 54.20
7216 29.3371 2557.50 2506.40 54.40
7217 29.3408 2512.70 2506.11 53.30
7218 29.3446 2520.40 2505.81 52.60
7219 29.3484 2592.10 2505.51 54.60
7220 29.3521 2631.20 2505.22 53.30
7221 29.3559 2611.10 2504.92 53.40
7222 29.3596 2553.30 2504.63 53.20
7223 29.3634 2653.30 2504.33 55.80
7224 29.3672 2509.00 2504.03 52.90
7225 29.3709 2549.00 2503.74 54.70
7226 29.3747 2540.90 2503.44 53.30
7227 29.3784 2604.40 2503.14 53.40
7228 29.3822 2467.80 2502.85 52.10
7229 29.3860 2521.20 2502.55 53.80
7230 29.3897 2636.10 2502.26 55.40
7231 29.3935 2665.00 2501.96 54.00
7232 29.3972 2516.20 2501.66 53.20
7233 29.4010 2578.60 2501.36 54.60
7234 29.4048 2593.00 2501.07 54.90
7235 29.4085 2621.40 2500.77 54.70
7236 29.4123 2498.90 2500.47 52.20
7237 29.4160 2632.30 2500.17 55.90
7238 29.4198 2660.80 2499.88 56.10
7239 29.4235 2740.80 2499.58 56.50
7240 29.4273 2679.40 2499.28 55.30
7241 29.4311 2762.00 2498.98 56.70
7242 29.4348 2712.30 2498.69 55.40
7243 29.4386 2720.70 2498.39 54.80
7244 29.4424 2682.40 2498.09 55.70
7245 29.4461 2736.50 2497.79 55.70
7246 29.4499 2697.90 2497.49 54.40
7247 29.4536 2618.90 2497.19 54.20
7248 29.4574 2619.70 2496.90 54.40
7249 29.4611 2786.90 2496.60 57.70
7250 29.4649 2641.20 2496.30 55.10
7251 29.4687 2705.10 2496.00 56.70
7252 29.4724 2658.90 2495.70 55.40
7253 29.4762 2701.10 2495.40 56.00
7254 29.4799 2687.10 2495.10 55.00
7255 29.4837 2827.20 2494.80 57.80
7256 29.4875 2732.70 2494.50 55.80
7257 29.4912 2751.00 2494.21 56.20
7258 29.4950 2804.10 2493.91 55.90
7259 29.4988 2795.90 2493.61 57.30
7260 29.5025 2699.50 2493.31 56.10
7261 29.5063 2804.10 2493.01 56.80
7262 29.5100 2740.60 2492.71 56.30
7263 29.5138 2763.00 2492.41 56.50
7264 29.5175 2831.50 2492.11 57.80
7265 29.5213 2785.70 2491.81 56.90
7266 29.5251 2799.00 2491.51 57.10
7267 29.5288 2677.10 2491.21 55.00
7268 29.5326 2725.40 2490.91 56.70
7269 29.5364 2796.80 2490.61 56.40
7270 29.5401 2804.50 2490.31 56.40
7271 29.5439 2837.40 2490.01 55.80
7272 29.5476 2857.50 2489.71 57.30
7273 29.5514 2852.00 2489.41 57.00
7274 29.5551 2829.00 2489.10 57.20
7275 29.5589 2801.10 2488.80 57.70
7276 29.5627 2746.60 2488.50 55.40
7277 29.5664 2906.90 2488.20 59.00
7278 29.5702 2795.40 2487.90 57.30
7279 29.5739 2859.30 2487.60 58.00
7280 29.5777 2883.70 2487.30 56.20
7281 29.5815 2861.80 2487.00 57.80
7282 29.5852 2821.80 2486.70 57.40
7283 29.5890 2820.20 2486.40 57.30
7284 29.5928 2803.00 2486.09 57.80
7285 29.5965 2891.70 2485.79 57.40
7286 29.6003 2768.70 2485.49 57.40
7287 29.6040 2857.50 2485.19 57.30
7288 29.6078 2897.90 2484.89 58.70
7289 29.6115 2961.20 2484.59 58.90
7290 29.6153 2955.20 2484.28 58.40
7291 29.6191 2895.80 2483.98 57.60
7292 29.6228 2913.00 2483.68 57.90
7293 29.6266 2903.60 2483.38 57.60
7294 29.6304 2954.50 2483.08 58.40
7295 29.6341 3014.60 2482.77 58.90
7296 29.6379 2867.10 2482.47 56.80
7297 29.6416 3122.10 2482.17 59.10
7298 29.6454 3096.70 2481.87 59.20
7299 29.6492 3170.60 2481.56 59.20
7300 29.6529 3081.00 2481.26 58.90
7301 29.6567 3174.10 2480.96 60.70
7302 29.6604 3233.60 2480.66 61.40
7303 29.6642 3266.90 2480.35 61.50
7304 29.6679 3266.70 2480.05 61.40
7305 29.6717 3301.20 2479.75 61.80
7306 29.6755 3228.80 2479.44 61.30
7307 29.6792 3400.20 3315.46 63.10
7308 29.6830 3415.20 3359.84 62.30
7309 29.6868 3504.70 3407.89 63.20
7310 29.6905 3457.10 3460.03 63.10
7311 29.6943 3640.30 3516.73 65.60
7312 29.6980 3671.70 3578.53 65.60
7313 29.7018 3779.40 3646.07 66.70
7314 29.7055 3848.00 3720.05 67.90
7315 29.7093 3944.80 3801.34 67.90
7316 29.7131 4150.20 3890.91 69.40
7317 29.7168 4236.30 3989.93 70.60
7318 29.7206 4225.10 4099.75 69.90
7319 29.7243 4500.00 4222.01 71.80
7320 29.7281 4608.50 4358.64 74.10
7321 29.7319 4945.30 4511.54 76.90
7322 29.7356 4957.20 4684.84 76.30
7323 29.7394 5248.50 4880.66 79.50
7324 29.7431 5350.50 5103.02 80.70
7325 29.7469 5623.60 5358.38 81.50
7326 29.7507 5835.10 5653.58 84.70
7327 29.7544 6318.40 5995.33 87.90
7328 29.7582 6584.80 6393.84 90.50
7329 29.7619 7113.40 6864.98 94.10
7330 29.7657 7674.90 7427.47 98.20
7331 29.7695 8434.30 8100.33 103.30
7332 29.7732 8876.90 8921.15 105.60
7333 29.7770 9829.00 9936.28 111.40
7334 29.7807 11132.50 11199.80 119.70
7335 29.7845 12340.70 12812.50 126.20
7336 29.7883 13746.10 14907.50 134.70
7337 29.7920 16726.80 17698.80 151.30
7338 29.7958 19592.00 21560.60 165.90
7339 29.7995 24798.90 27257.70 188.80
7340 29.8033 31892.80 36519.80 217.60
7341 29.8071 46412.90 53039.80 270.20
7342 29.8108 75192.30 83166.70 357.90
7343 29.8146 134146.00 134321.00 522.20
7344 29.8183 216101.00 208647.00 712.10
7345 29.8221 284579.00 286826.00 860.60
7346 29.8259 303414.00 311135.00 899.40
7347 29.8296 285705.00 254715.00 872.90
7348 29.8334 219166.00 173373.00 705.70
7349 29.8371 137964.00 108782.00 534.50
7350 29.8409 73895.50 67674.70 351.40
7351 29.8447 45723.50 44493.90 269.90
7352 29.8484 32449.10 31814.50 216.70
7353 29.8522 25104.60 24431.80 190.00
7354 29.8559 20071.20 19682.50 163.50
7355 29.8597 17346.20 16358.60 155.60
7356 29.8635 14811.40 13905.60 139.70
7357 29.8672 13027.50 12043.80 130.80
7358 29.8710 11472.70 10598.20 120.40
7359 29.8747 10529.60 9451.59 116.10
7360 29.8785 9478.90 8529.95 109.70
7361 29.8823 8731.20 7778.45 103.30
7362 29.8860 7746.20 7156.35 100.30
7363 29.8898 7278.00 6637.07 95.40
7364 29.8935 6593.80 6199.25 89.00
7365 29.8973 6170.60 5825.81 86.10
7366 29.9011 5792.10 5505.61 85.30
7367 29.9048 5526.60 5229.01 80.10
7368 29.9086 5143.80 4987.84 77.90
7369 29.9123 5019.40 4776.86 78.30
7370 29.9161 4721.40 4591.25 76.10
7371 29.9199 4781.20 4426.67 76.30
7372 29.9236 4477.30 4280.45 73.80
7373 29.9274 4309.50 4149.96 72.00
7374 29.9311 4278.40 4032.71 72.00
7375 29.9349 4042.30 3927.25 68.50
7376 29.9387 3988.50 3832.04 68.80
7377 29.9424 3976.50 3745.58 68.40
7378 29.9462 3750.80 3667.03 65.80
7379 29.9499 3816.00 3595.45 66.90
7380 29.9537 3705.20 3529.93 65.50
7381 29.9575 3584.60 3469.79 64.20
7382 29.9612 3525.80 3414.60 63.90
7383 29.9650 3585.60 3363.71 64.50
7384 29.9687 3361.60 3316.68 61.80
7385 29.9725 3360.40 2455.33 61.80
7386 29.9763 3216.20 2455.02 61.80
7387 29.9800 3322.60 2454.71 62.40
7388 29.9838 3069.40 2454.40 59.90
7389 29.9875 3275.20 2454.10 62.40
7390 29.9913 3189.50 2453.79 61.10
7391 29.9951 3058.90 2453.48 59.60
7392 29.9988 3070.60 2453.18 58.30
7393 30.0026 3025.10 2452.87 59.30
7394 30.0063 2878.10 2452.56 58.20
7395 30.0101 2922.90 2452.25 58.50
7396 30.0138 2908.00 2451.95 57.50
7397 30.0176 3023.60 2451.64 58.20
7398 30.0214 2914.40 2451.33 58.00
7399 30.0251 2764.00 2451.02 57.00
7400 30.0289 2881.80 2450.72 57.60
7401 30.0326 2877.20 2450.41 58.10
7402 30.0364 2705.20 2450.10 56.20
7403 30.0402 2839.70 2449.79 57.70
7404 30.0439 2723.50 2449.48 56.10
7405 30.0477 2719.20 2449.18 56.40
7406 30.0515 2722.20 2448.87 56.00
7407 30.0552 2851.80 2448.56 57.90
7408 30.0590 2757.70 2448.25 57.70
7409 30.0627 2709.70 2447.95 55.60
7410 30.0665 2686.30 2447.64 55.60
7411 30.0702 2743.40 2447.33 56.90
7412 30.0740 2715.70 2447.02 56.60
7413 30.0778 2737.90 2446.71 55.40
7414 30.0815 2522.10 2446.41 54.40
7415 30.0853 2648.60 2446.10 54.20
7416 30.0891 2702.90 2445.79 57.10
7417 30.0928 2666.10 2445.48 54.70
7418 30.0966 2668.80 2445.17 54.10
7419 30.1003 2691.70 2444.86 54.60
7420 30.1041 2579.20 2444.56 54.00
7421 30.1078 2623.10 2444.25 54.10
7422 30.1116 2604.60 2443.94 53.80
7423 30.1154 2579.20 2443.63 53.70
7424 30.1191 2605.80 2443.32 54.50
7425 30.1229 2563.40 2443.02 52.90
7426 30.1266 2548.50 2442.71 53.10
7427 30.1304 2603.80 2442.40 53.60
7428 30.1342 2544.50 2442.09 53.00
7429 30.1379 2568.60 2441.78 53.10
7430 30.1417 2591.10 2441.47 53.30
7431 30.1454 2627.60 2441.17 54.20
7432 30.1492 2569.50 2440.86 53.60
7433 30.1530 2577.20 2440.55 52.90
7434 30.1567 2495.30 2440.24 52.50
7435 30.1605 2519.80 2439.93 52.40
7436 30.1642 2511.40 2439.62 53.20
7437 30.1680 2505.40 2439.31 52.30
7438 30.1718 2579.90 2439.01 53.10
7439 30.1755 2482.70 2438.70 51.30
7440 30.1793 2438.10 2438.39 52.60
7441 30.1830 2498.00 2438.08 52.60
7442 30.1868 2476.10 2437.77 51.50
7443 30.1906 2493.80 2437.46 52.00
7444 30.1943 2502.80 2437.16 52.00
7445 30.1981 2529.10 2436.85 52.50
7446 30.2018 2425.80 2436.54 51.00
7447 30.2056 2568.80 2436.23 53.00
7448 30.2094 2585.30 2435.92 53.70
7449 30.2131 2521.70 2435.61 52.70
7450 30.2169 2420.60 2435.30 51.90
7451 30.2206 2547.10 2434.99 53.30
7452 30.2244 2462.40 2434.69 52.00
7453 30.2281 2596.10 2434.38 53.80
7454 30.2319 2599.90 2434.07 54.40
7455 30.2357 2550.90 2433.76 53.80
7456 30.2394 2483.30 2433.45 52.70
7457 30.2432 2471.80 2433.14 52.60
7458 30.2470 2502.00 2432.83 53.30
7459 30.2507 2490.10 2432.52 53.00
7460 30.2545 2404.60 2432.22 50.80
7461 30.2582 2495.00 2431.91 52.70
7462 30.2620 2404.50 2431.60 50.70
7463 30.2658 2482.60 2431.29 52.30
7464 30.2695 2483.50 2430.98 53.00
7465 30.2733 2581.30 2430.67 52.50
7466 30.2770 2429.80 2430.36 52.40
7467 30.2808 2432.90 2430.05 52.30
7468 30.2845 2545.80 2429.75 53.00
7469 30.2883 2487.20 2429.44 52.30
7470 30.2921 2487.20 2429.13 52.30
7471 30.2958 2526.50 2428.82 52.90
7472 30.2996 2607.10 2428.51 54.00
7473 30.3033 2655.40 2428.20 54.30
7474 30.3071 2551.90 2427.89 53.10
7475 30.3109 2478.60 2427.58 52.50
7476 30.3146 2565.00 2427.28 53.10
7477 30.3184 2533.80 2426.97 52.50
7478 30.3221 2506.00 2426.66 53.10
7479 30.3259 2573.30 2426.35 53.30
7480 30.3297 2579.30 2426.04 53.90
7481 30.3334 2453.30 2425.73 52.50
7482 30.3372 2492.60 2425.42 52.40
7483 30.3409 2429.60 2425.11 51.80
7484 30.3447 2522.40 2424.80 52.80
7485 30.3484 2393.10 2424.50 50.10
7486 30.3522 2425.60 2424.19 51.30
7487 30.3560 2409.50 2423.88 51.10
7488 30.3597 2401.40 2423.57 51.70
7489 30.3635 2433.90 2423.26 52.30
7490 30.3673 2430.90 2422.95 51.60
7491 30.3710 2495.30 2422.64 52.50
7492 30.3748 2447.90 2422.33 52.00
7493 30.3785 2479.50 2422.03 51.80
7494 30.3823 2322.10 2421.72 50.90
7495 30.3860 2403.30 2421.41 51.00
7496 30.3898 2472.90 2421.10 51.30
7497 30.3936 2433.10 2420.79 51.50
7498 30.3973 2341.60 2420.48 50.50
7499 30.4011 2386.70 2420.17 51.00
7500 30.4048 2398.80 2419.86 51.50
7501 30.4086 2393.30 2419.56 51.10
7502 30.4124 2306.20 2419.25 50.50
7503 30.4161 2365.70 2418.94 51.30
7504 30.4199 2390.60 2418.63 50.90
7505 30.4236 2332.80 2418.32 51.10
7506 30.4274 2334.80 2418.01 50.30
7507 30.4312 2354.50 2417.70 50.50
7508 30.4349 2408.10 2417.39 51.90
7509 30.4387 2352.50 2417.09 50.30
7510 30.4424 2417.30 2416.78 51.10
7511 30.4462 2315.40 2416.47 50.60
7512 30.4499 2401.70 2416.16 50.70
7513 30.4537 2383.00 2415.85 52.50
7514 30.4575 2361.00 2415.54 50.60
7515 30.4612 2446.90 2415.23 50.50
7516 30.4650 2447.00 2414.93 52.10
7517 30.4688 2366.20 2414.62 51.10
7518 30.4725 2401.70 2414.31 52.10
7519 30.4763 2427.40 2414.00 51.60
7520 30.4800 2374.70 2413.69 51.00
7521 30.4838 2394.50 2413.38 50.80
7522 30.4875 2333.60 2413.07 50.00
7523 30.4913 2498.80 2412.77 52.90
7524 30.4951 2405.80 2412.46 51.80
7525 30.4988 2412.40 2412.15 51.70
7526 30.5026 2437.10 2411.84 51.90
7527 30.5063 2335.70 2411.53 50.70
7528 30.5101 2361.70 2411.22 50.50
7529 30.5138 2395.50 2410.92 51.60
7530 30.5176 2350.50 2410.61 50.90
7531 30.5214 2477.60 2410.30 51.70
7532 30.5251 2420.50 2409.99 51.80
7533 30.5289 2423.70 2409.68 51.30
7534 30.5326 2301.70 2409.37 49.90
7535 30.5364 2486.30 2409.07 52.50
7536 30.5402 2361.90 2408.76 51.00
7537 30.5439 2317.90 2408.45 50.40
7538 30.5477 2388.10 2408.14 51.50
7539 30.5514 2355.90 2407.83 51.10
7540 30.5552 2383.30 2407.53 51.40
7541 30.5590 2347.80 2407.22 50.00
7542 30.5627 2295.90 2406.91 50.50
7543 30.5665 2499.40 2406.60 53.00
7544 30.5702 2256.00 2406.29 50.60
7545 30.5740 2398.10 2405.99 51.40
7546 30.5777 2327.00 2405.68 49.90
7547 30.5815 2308.30 2405.37 49.80
7548 30.5853 2296.20 2405.06 50.20
7549 30.5890 2371.60 2404.75 50.70
7550 30.5928 2427.90 2404.45 51.60
7551 30.5965 2406.00 2404.14 50.80
7552 30.6003 2308.30 2403.83 50.30
7553 30.6041 2383.90 2403.52 51.50
7554 30.6078 2326.30 2403.21 50.50
7555 30.6116 2422.40 2402.91 51.50
7556 30.6153 2310.60 2402.60 49.50
7557 30.6191 2331.70 2402.29 50.20
7558 30.6229 2316.50 2401.98 50.30
7559 30.6266 2381.80 2401.68 49.90
7560 30.6304 2380.20 2401.37 51.00
7561 30.6341 2383.70 2401.06 51.20
7562 30.6379 2335.80 2400.75 50.70
7563 30.6416 2404.00 2400.45 50.30
7564 30.6454 2307.20 2400.14 50.70
7565 30.6492 2365.20 2399.83 51.00
7566 30.6529 2358.60 2399.52 50.80
7567 30.6567 2356.30 2399.22 50.10
7568 30.6604 2348.30 2398.91 51.20
7569 30.6642 2428.50 2398.60 51.70
7570 30.6680 2289.00 2398.30 49.90
7571 30.6717 2434.90 2397.99 50.90
7572 30.6755 2276.40 2397.68 50.00
7573 30.6792 2382.20 2397.37 51.10
7574 30.6830 2293.30 2397.07 50.20
7575 30.6868 2446.60 2396.76 52.20
7576 30.6905 2371.90 2396.45 51.50
7577 30.6943 2346.90 2396.15 50.20
7578 30.6980 2343.20 2395.84 50.90
7579 30.7018 2384.90 2395.53 51.60
7580 30.7055 2331.90 2395.22 50.60
7581 30.7093 2408.10 2394.92 51.70
7582 30.7131 2295.80 2394.61 50.90
7583 30.7168 2416.80 2394.30 51.30
7584 30.7206 2277.40 2394.00 50.50
7585 30.7243 2395.10 2393.69 51.40
7586 30.7281 2298.80 2393.38 50.50
7587 30.7319 2301.40 2393.08 50.10
7588 30.7356 2321.40 2392.77 50.50
7589 30.7394 2344.20 2392.46 50.50
7590 30.7431 2381.80 2392.16 50.70
7591 30.7469 2374.70 2391.85 50.80
7592 30.7507 2378.60 2391.55 51.30
7593 30.7544 2322.00 2391.24 50.90
7594 30.7582 2289.70 2390.93 48.80
7595 30.7619 2371.50 2390.63 51.20
7596 30.7657 2278.30 2390.32 50.20
7597 30.7694 2249.30 2390.01 49.70
7598 30.7732 2313.70 2389.71 50.40
7599 30.7770 2279.00 2389.40 49.30
7600 30.7807 2303.50 2389.10 49.30
7601 30.7845 2384.90 2388.79 50.80
7602 30.7882 2397.20 2388.48 51.20
7603 30.7920 2312.00 2388.18 50.00
7604 30.7957 2303.70 2387.87 50.30
7605 30.7995 2330.70 2387.57 50.70
7606 30.8033 2302.30 2387.26 50.20
7607 30.8070 2397.80 2386.96 50.30
7608 30.8108 2247.40 2386.65 49.20
7609 30.8145 2372.90 2386.34 51.10
7610 30.8183 2280.40 2386.04 49.70
7611 30.8221 2418.30 2385.73 52.20
7612 30.8258 2237.40 2385.43 48.90
7613 30.8296 2375.70 2385.12 51.00
7614 30.8333 2213.00 2384.82 50.00
7615 30.8371 2289.70 2384.51 50.40
7616 30.8409 2315.90 2384.21 50.40
7617 30.8446 2256.80 2383.90 49.70
7618 30.8484 2270.10 2383.60 49.90
7619 30.8521 2334.10 2383.29 50.80
7620 30.8559 2269.90 2382.99 50.50
7621 30.8596 2379.20 2382.68 50.80
7622 30.8634 2294.40 2382.38 50.80
7623 30.8672 2373.70 2382.07 51.30
7624 30.8709 2246.90 2381.77 49.50
7625 30.8747 2301.80 2381.46 50.70
7626 30.8784 2330.80 2381.16 51.00
7627 30.8822 2413.40 2380.85 52.20
7628 30.8860 2359.50 2380.55 51.30
7629 30.8897 2415.10 2380.24 52.00
7630 30.8935 2310.10 2379.94 49.90
7631 30.8972 2338.50 2379.64 51.10
7632 30.9010 2241.90 2379.33 50.10
7633 30.9047 2397.90 2379.03 50.90
7634 30.9085 2341.20 2378.72 50.70
7635 30.9123 2279.10 2378.42 49.90
7636 30.9160 2394.40 2378.11 51.90
7637 30.9198 2352.70 2377.81 50.70
7638 30.9235 2299.10 2377.51 50.60
7639 30.9273 2253.40 2377.20 49.30
7640 30.9310 2281.20 2376.90 49.80
7641 30.9348 2384.80 2376.59 51.70
7642 30.9386 2372.90 2376.29 51.30
7643 30.9423 2366.40 2375.99 51.10
7644 30.9461 2405.80 2375.68 51.40
7645 30.9498 2290.20 2375.38 50.20
7646 30.9536 2300.60 2375.08 50.50
7647 30.9573 2326.50 2374.77 51.10
7648 30.9611 2264.00 2374.47 49.90
7649 30.9649 2421.00 2374.17 51.90
7650 30.9686 2320.60 2373.86 50.70
7651 30.9724 2365.20 2373.56 50.60
7652 30.9761 2412.20 2373.26 51.60
7653 30.9799 2272.90 2372.95 50.10
7654 30.9837 2229.10 2372.65 49.30
7655 30.9874 2319.50 2372.35 50.50
7656 30.9912 2266.80 2372.04 49.90
7657 30.9949 2298.50 2371.74 50.50
7658 30.9987 2365.50 2371.44 51.30
7659 31.0024 2337.60 2371.14 51.20
7660 31.0062 2250.80 2370.83 50.00
7661 31.0100 2307.30 2370.53 51.00
7662 31.0137 2272.60 2370.23 50.60
7663 31.0175 2316.70 2369.93 50.20
7664 31.0212 2350.00 2369.62 50.90
7665 31.0250 2299.70 2369.32 50.70
7666 31.0287 2279.40 2369.02 50.10
7667 31.0325 2358.00 2368.72 50.50
7668 31.0363 2324.80 2368.42 50.40
7669 31.0400 2326.20 2368.11 51.20
7670 31.0438 2232.30 2367.81 49.70
7671 31.0475 2271.60 2367.51 50.10
7672 31.0513 2383.30 2367.21 51.70
7673 31.0550 2397.90 2366.91 51.50
7674 31.0588 2266.90 2366.61 49.50
7675 31.0626 2329.90 2366.31 50.80
7676 31.0663 2290.80 2366.00 49.30
7677 31.0701 2333.30 2365.70 50.30
7678 31.0738 2306.80 2365.40 50.00
7679 31.0776 2284.60 2365.10 49.60
7680 31.0814 2243.30 2364.80 49.80
7681 31.0851 2339.20 2364.50 50.60
7682 31.0889 2293.90 2364.20 49.70
7683 31.0926 2437.40 2363.90 51.50
7684 31.0964 2311.90 2363.59 50.60
7685 31.1001 2313.30 2363.29 50.00
7686 31.1039 2301.80 2362.99 50.90
7687 31.1077 2323.90 2362.69 50.00
7688 31.1114 2307.70 2362.39 50.80
7689 31.1152 2331.70 2362.09 50.30
7690 31.1189 2332.90 2361.79 50.40
7691 31.1227 2346.40 2361.49 50.90
7692 31.1264 2246.30 2361.19 49.40
7693 31.1302 2396.00 2360.89 51.20
7694 31.1339 2280.80 2360.59 50.20
7695 31.1377 2297.50 2360.29 50.00
7696 31.1415 2298.80 2359.99 50.20
7697 31.1452 2312.90 2359.69 50.60
7698 31.1490 2399.00 2359.39 51.10
7699 31.1527 2282.20 2359.09 49.80
7700 31.1565 2259.90 2358.79 49.50
7701 31.1603 2302.60 2358.49 49.90
7702 31.1640 2247.00 2358.19 49.50
7703 31.1678 2320.70 2357.89 50.90
7704 31.1715 2353.90 2357.59 51.00
7705 31.1753 2300.20 2357.30 50.70
7706 31.1790 2303.90 2357.00 50.50
7707 31.1828 2248.00 2356.70 49.30
7708 31.1866 2320.50 2356.40 50.60
7709 31.1903 2203.90 2356.10 49.80
7710 31.1941 2308.10 2355.80 49.40
7711 31.1978 2315.00 2355.50 50.60
7712 31.2016 2303.30 2355.20 49.60
7713 31.2053 2325.50 2354.91 50.60
7714 31.2091 2277.50 2354.61 50.10
7715 31.2129 2277.90 2354.31 49.40
7716 31.2166 2259.60 2354.01 49.60
7717 31.2204 2338.50 2353.71 50.20
7718 31.2241 2295.30 2353.42 50.00
7719 31.2279 2355.10 2353.12 50.60
7720 31.2316 2185.40 2352.82 48.90
7721 31.2354 2318.50 2352.52 50.90
7722 31.2391 2367.50 2352.22 50.90
7723 31.2429 2357.80 2351.93 50.70
7724 31.2467 2229.10 2351.63 49.40
7725 31.2504 2316.20 2351.33 50.50
7726 31.2542 2302.50 2351.03 50.70
7727 31.2579 2252.40 2350.74 49.40
7728 31.2617 2257.20 2350.44 49.50
7729 31.2654 2300.50 2350.14 50.90
7730 31.2692 2327.40 2349.85 50.20
7731 31.2730 2265.60 2349.55 50.40
7732 31.2767 2287.30 2349.25 50.00
7733 31.2805 2262.50 2348.96 49.80
7734 31.2842 2322.50 2348.66 50.70
7735 31.2880 2283.00 2348.36 49.60
7736 31.2917 2390.10 2348.07 51.60
7737 31.2955 2266.00 2347.77 50.30
7738 31.2993 2295.50 2347.47 49.70
7739 31.3030 2373.80 2347.18 51.40
7740 31.3068 2275.30 2346.88 50.00
7741 31.3105 2244.20 2346.59 49.30
7742 31.3143 2241.10 2346.29 50.10
7743 31.3180 2300.60 2346.00 50.70
7744 31.3218 2204.10 2345.70 49.60
7745 31.3256 2337.00 2345.40 50.50
7746 31.3293 2293.30 2345.11 50.40
7747 31.3331 2275.10 2344.81 50.90
7748 31.3368 2235.30 2344.52 50.10
7749 31.3406 2304.70 2344.22 50.70
7750 31.3443 2217.70 2343.93 49.20
7751 31.3481 2188.30 2343.63 49.70
7752 31.3519 2264.20 2343.34 50.30
7753 31.3556 2233.70 2343.04 49.90
7754 31.3594 2259.80 2342.75 49.40
7755 31.3631 2353.20 2342.46 51.40
7756 31.3669 2267.40 2342.16 50.30
7757 31.3706 2295.90 2341.87 50.30
7758 31.3744 2315.00 2341.57 50.90
7759 31.3782 2305.10 2341.28 50.90
7760 31.3819 2248.90 2340.98 50.40
7761 31.3857 2280.20 2340.69 49.30
7762 31.3894 2246.10 2340.40 50.30
7763 31.3932 2284.10 2340.10 50.10
7764 31.3969 2215.00 2339.81 49.30
7765 31.4007 2365.10 2339.52 51.20
7766 31.4044 2239.90 2339.22 50.20
7767 31.4082 2205.60 2338.93 50.20
7768 31.4119 2305.20 2338.64 50.90
7769 31.4157 2291.90 2338.34 50.20
7770 31.4195 2279.10 2338.05 49.80
7771 31.4232 2282.40 2337.76 49.80
7772 31.4270 2265.50 2337.46 51.00
7773 31.4307 2315.40 2337.17 50.50
7774 31.4345 2213.80 2336.88 49.80
7775 31.4382 2297.60 2336.59 50.80
7776 31.4420 2244.70 2336.30 50.60
7777 31.4458 2295.80 2336.00 50.60
7778 31.4495 2195.30 2335.71 49.20
7779 31.4533 2296.50 2335.42 50.30
7780 31.4570 2236.00 2335.13 50.20
7781 31.4608 2305.20 2334.84 50.20
7782 31.4645 2243.10 2334.54 50.20
7783 31.4683 2352.80 2334.25 50.00
7784 31.4720 2307.80 2333.96 49.90
7785 31.4758 2297.10 2333.67 50.90
7786 31.4796 2223.60 2333.38 49.60
7787 31.4833 2356.60 2333.09 51.00
7788 31.4871 2302.50 2332.80 50.50
7789 31.4908 2283.00 2332.51 50.50
7790 31.4946 2201.30 2332.21 49.00
7791 31.4983 2249.40 2331.92 49.80
7792 31.5021 2354.90 2331.63 51.40
7793 31.5058 2255.10 2331.34 50.30
7794 31.5096 2266.90 2331.05 49.80
7795 31.5134 2240.70 2330.76 49.60
7796 31.5171 2212.10 2330.47 49.40
7797 31.5209 2284.50 2330.18 50.90
7798 31.5246 2385.20 2329.89 52.00
7799 31.5284 2381.90 2329.60 51.60
7800 31.5321 2203.80 2329.31 50.70
7801 31.5359 2271.10 2329.02 51.00
7802 31.5397 2261.80 2328.73 49.80
7803 31.5434 2342.50 2328.45 50.80
7804 31.5472 2249.90 2328.16 50.60
7805 31.5509 2269.40 2327.87 50.60
7806 31.5547 2273.30 2327.58 49.40
7807 31.5584 2328.50 2327.29 51.40
7808 31.5622 2317.20 2327.00 49.80
7809 31.5659 2267.80 2326.71 50.30
7810 31.5697 2374.70 2326.42 51.70
7811 31.5735 2252.40 2326.14 49.60
7812 31.5772 2253.50 2325.85 50.10
7813 31.5810 2240.60 2325.56 50.80
7814 31.5847 2266.00 2325.27 50.20
7815 31.5885 2392.00 2324.98 52.60
7816 31.5922 2242.90 2324.70 49.80
7817 31.5960 2314.00 2324.41 50.60
7818 31.5997 2282.20 2324.12 50.40
7819 31.6035 2298.10 2323.83 50.80
7820 31.6073 2261.70 2323.55 50.00
7821 31.6110 2288.10 2323.26 50.40
7822 31.6148 2263.40 2322.97 50.20
7823 31.6185 2216.70 2322.69 48.80
7824 31.6223 2238.40 2322.40 50.50
7825 31.6260 2330.30 2322.11 51.70
7826 31.6298 2257.90 2321.83 50.80
7827 31.6335 2335.70 2321.54 51.40
7828 31.6373 2258.00 2321.25 50.70
7829 31.6411 2168.90 2320.97 48.50
7830 31.6448 2331.20 2320.68 51.50
7831 31.6486 2250.60 2320.40 49.20
7832 31.6523 2310.40 2320.11 51.10
7833 31.6561 2263.10 2319.83 50.80
7834 31.6598 2226.70 2319.54 49.40
7835 31.6636 2380.40 2319.25 52.20
7836 31.6673 2341.30 2318.97 51.40
7837 31.6711 2307.50 2318.68 50.50
7838 31.6749 2297.70 2318.40 50.80
7839 31.6786 2333.30 2318.11 51.30
7840 31.6824 2283.40 2317.83 50.70
7841 31.6861 2183.80 2317.55 49.90
7842 31.6899 2329.90 2317.26 51.30
7843 31.6936 2273.00 2316.98 50.90
7844 31.6974 2298.10 2316.69 50.40
7845 31.7011 2252.40 2316.41 50.40
7846 31.7049 2174.80 2316.12 48.60
7847 31.7086 2279.20 2315.84 51.00
7848 31.7124 2217.90 2315.56 49.70
7849 31.7162 2298.10 2315.27 50.40
7850 31.7199 2248.40 2314.99 50.60
7851 31.7237 2251.20 2314.71 50.40
7852 31.7274 2240.10 2314.42 50.30
7853 31.7312 2223.30 2314.14 50.10
7854 31.7349 2197.30 2313.86 49.60
7855 31.7387 2271.00 2313.58 49.70
7856 31.7424 2278.00 2313.29 50.60
7857 31.7462 2302.30 2313.01 51.10
7858 31.7499 2303.00 2312.73 50.40
7859 31.7537 2280.10 2312.45 50.80
7860 31.7575 2243.80 2312.16 50.50
7861 31.7612 2244.10 2311.88 50.10
7862 31.7650 2252.20 2311.60 50.40
7863 31.7687 2245.60 2311.32 50.60
7864 31.7725 2295.40 2311.04 50.90
7865 31.7762 2305.20 2310.76 51.30
7866 31.7800 2261.20 2310.47 49.40
7867 31.7837 2285.50 2310.19 50.90
7868 31.7875 2217.80 2309.91 50.20
7869 31.7912 2335.70 2309.63 51.50
7870 31.7950 2312.20 2309.35 49.70
7871 31.7987 2236.40 2309.07 50.50
7872 31.8025 2277.00 2308.79 50.20
7873 31.8063 2267.30 2308.51 50.50
7874 31.8100 2295.70 2308.23 50.80
7875 31.8138 2229.30 2307.95 50.10
7876 31.8175 2254.10 2307.67 50.10
7877 31.8213 2315.20 2307.39 51.30
7878 31.8250 2195.70 2307.11 49.60
7879 31.8288 2409.70 2306.83 51.70
7880 31.8325 2263.70 2306.55 50.10
7881 31.8363 2246.80 2306.27 50.40
7882 31.8400 2163.70 2305.99 49.50
7883 31.8438 2331.50 2305.71 51.20
7884 31.8476 2249.00 2305.44 50.80
7885 31.8513 2244.70 2305.16 49.90
7886 31.8551 2276.00 2304.88 49.60
7887 31.8588 2280.50 2304.60 51.10
7888 31.8626 2208.30 2304.32 48.90
7889 31.8663 2276.90 2304.04 51.00
7890 31.8701 2158.60 2303.77 49.20
7891 31.8738 2331.20 2303.49 51.70
7892 31.8776 2257.40 2303.21 50.40
7893 31.8813 2276.00 2302.93 50.20
7894 31.8851 2172.80 2302.66 49.00
7895 31.8888 2197.50 2302.38 49.70
7896 31.8926 2233.70 2302.10 49.90
7897 31.8964 2294.10 2301.82 49.90
7898 31.9001 2198.00 2301.55 48.90
7899 31.9039 2226.10 2301.27 50.00
7900 31.9076 2154.60 2301.00 48.30
7901 31.9114 2258.90 2300.72 49.70
7902 31.9151 2271.30 2300.44 49.90
7903 31.9189 2209.10 2300.17 49.80
7904 31.9226 2278.10 2299.89 50.60
7905 31.9264 2203.20 2299.61 49.10
7906 31.9301 2285.90 2299.34 51.30
7907 31.9339 2299.40 2299.06 51.00
7908 31.9377 2136.10 2298.79 48.40
7909 31.9414 2253.70 2298.51 50.30
7910 31.9452 2199.80 2298.24 49.70
7911 31.9489 2287.20 2297.96 49.50
7912 31.9527 2312.90 2297.69 50.60
7913 31.9564 2239.20 2297.41 49.70
7914 31.9602 2220.00 2297.14 49.30
7915 31.9639 2219.30 2296.87 50.20
7916 31.9677 2289.00 2296.59 50.60
7917 31.9714 2310.60 2296.32 50.90
7918 31.9752 2230.40 2296.04 49.90
7919 31.9789 2253.20 2295.77 50.10
7920 31.9827 2186.40 2295.50 49.10
7921 31.9865 2355.40 2295.22 50.40
7922 31.9902 2183.30 2294.95 49.50
7923 31.9940 2236.00 2294.68 49.30
7924 31.9962 2160.20 2294.52 49.10
7925 31.9999 2144.40 2294.24 48.40
7926 32.0037 2223.80 2293.97 49.40
7927 32.0074 2264.90 2293.70 50.10
7928 32.0112 2386.80 2293.43 52.10
7929 32.0149 2166.10 2293.15 49.40
7930 32.0187 2228.30 2292.88 49.80
7931 32.0224 2170.10 2292.61 50.30
7932 32.0262 2231.90 2292.34 50.50
7933 32.0300 2172.80 2292.07 48.80
7934 32.0337 2239.40 2291.79 49.60
7935 32.0375 2166.60 2291.52 49.60
7936 32.0412 2235.90 2291.25 50.20
7937 32.0450 2218.10 2290.98 48.80
7938 32.0487 2263.00 2290.71 50.70
7939 32.0525 2228.40 2290.44 48.80
7940 32.0563 2245.60 2290.17 50.10
7941 32.0600 2201.20 2289.90 49.70
7942 32.0638 2246.40 2289.63 49.60
7943 32.0675 2149.10 2289.36 48.80
7944 32.0713 2222.90 2289.09 50.60
7945 32.0750 2097.50 2288.82 48.20
7946 32.0788 2174.10 2288.55 50.10
7947 32.0825 2209.00 2288.28 49.40
7948 32.0863 2193.30 2288.01 49.20
7949 32.0900 2237.90 2287.74 49.90
7950 32.0938 2236.30 2287.47 50.10
7951 32.0976 2264.70 2287.20 50.00
7952 32.1013 2240.00 2286.93 49.90
7953 32.1051 2216.20 2286.66 49.70
7954 32.1088 2273.90 2286.40 49.50
7955 32.1126 2168.50 2286.13 49.70
7956 32.1163 2266.30 2285.86 50.90
7957 32.1201 2231.10 2285.59 50.50
7958 32.1238 2213.40 2285.32 50.00
7959 32.1276 2253.90 2285.06 50.70
7960 32.1314 2121.90 2284.79 47.90
7961 32.1351 2245.30 2284.52 50.50
7962 32.1389 2258.40 2284.25 49.30
7963 32.1426 2188.30 2283.99 49.60
7964 32.1464 2261.10 2283.72 50.80
7965 32.1501 2175.20 2283.45 48.80
7966 32.1539 2283.70 2283.19 51.10
7967 32.1576 2169.80 2282.92 49.40
7968 32.1614 2272.70 2282.65 50.10
7969 32.1651 2269.30 2282.39 50.50
7970 32.1689 2277.40 2282.12 50.70
7971 32.1727 2273.20 2281.86 50.60
7972 32.1764 2285.70 2281.59 51.10
7973 32.1802 2170.00 2281.33 49.50
7974 32.1839 2323.40 2281.06 51.50
7975 32.1877 2139.90 2280.80 48.50
7976 32.1914 2289.10 2280.53 50.90
7977 32.1952 2229.80 2280.27 49.30
7978 32.1989 2183.40 2280.00 49.90
7979 32.2027 2189.70 2279.74 49.40
7980 32.2065 2159.50 2279.47 48.80
7981 32.2102 2250.40 2279.21 50.60
7982 32.2140 2218.60 2278.95 50.00
7983 32.2177 2165.80 2278.68 49.40
7984 32.2215 2202.90 2278.42 49.90
7985 32.2252 2277.20 2278.16 50.50
7986 32.2279 2212.30 2277.97 49.40
7987 32.2316 2256.90 2277.71 49.90
7988 32.2354 2189.50 2277.44 48.50
7989 32.2391 2314.50 2277.18 51.10
7990 32.2429 2266.40 2276.92 50.50
7991 32.2466 2254.30 2276.66 50.10
7992 32.2504 2230.50 2276.39 50.30
7993 32.2541 2345.70 2276.13 51.20
7994 32.2579 2185.20 2275.87 49.20
7995 32.2617 2253.80 2275.61 50.30
7996 32.2654 2159.10 2275.35 49.20
7997 32.2692 2219.30 2275.09 49.70
7998 32.2729 2293.50 2274.83 51.10
7999 32.2767 2206.20 2274.56 49.70
8000 32.2804 2236.80 2274.30 50.30
8001 32.2842 2230.90 2274.04 49.90
8002 32.2879 2181.40 2273.78 49.60
8003 32.2917 2252.50 2273.52 50.30
8004 32.2954 2230.90 2273.26 50.20
8005 32.2992 2288.80 2273.00 50.80
8006 32.3029 2149.70 2272.74 49.30
8007 32.3067 2257.30 2272.48 50.30
8008 32.3105 2240.70 2272.22 50.50
8009 32.3142 2300.40 2271.96 51.00
8010 32.3180 2149.40 2271.70 48.70
8011 32.3217 2286.40 2271.45 50.20
8012 32.3255 2294.80 2271.19 50.60
8013 32.3292 2291.90 2270.93 51.10
8014 32.3330 2219.70 2270.67 50.20
8015 32.3367 2214.40 2270.41 50.40
8016 32.3405 2225.90 2270.15 50.00
8017 32.3442 2246.50 2269.90 49.70
8018 32.3480 2172.10 2269.64 49.60
8019 32.3517 2229.20 2269.38 50.30
8020 32.3555 2092.10 2269.12 48.90
8021 32.3592 2242.10 2268.87 50.10
8022 32.3630 2234.00 2268.61 50.00
8023 32.3668 2219.10 2268.35 50.10
8024 32.3705 2249.20 2268.09 50.40
8025 32.3743 2249.10 2267.84 50.30
8026 32.3780 2158.70 2267.58 49.20
8027 32.3818 2255.70 2267.33 50.40
8028 32.3855 2256.90 2267.07 50.60
8029 32.3893 2222.70 2266.81 49.60
8030 32.3930 2170.20 2266.56 49.30
8031 32.3968 2203.20 2266.30 50.10
8032 32.4006 2126.50 2266.05 48.80
8033 32.4043 2297.30 2265.79 50.70
8034 32.4081 2274.50 2265.54 50.70
8035 32.4118 2222.50 2265.28 50.20
8036 32.4156 2232.20 2265.03 50.10
8037 32.4193 2288.80 2264.77 50.70
8038 32.4231 2255.10 2264.52 50.40
8039 32.4268 2270.90 2264.26 51.20
8040 32.4306 2203.50 2264.01 50.30
8041 32.4343 2253.80 2263.76 50.00
8042 32.4381 2218.70 2263.50 50.20
8043 32.4418 2227.80 2263.25 50.50
8044 32.4456 2248.20 2263.00 50.80
8045 32.4494 2335.00 2262.74 51.60
8046 32.4531 2138.50 2262.49 49.60
8047 32.4569 2203.10 2262.24 50.20
8048 32.4606 2156.80 2261.99 48.50
8049 32.4644 2237.40 2261.73 50.30
8050 32.4681 2156.70 2261.48 49.20
8051 32.4719 2228.30 2261.23 50.00
8052 32.4756 2117.50 2260.98 48.60
8053 32.4794 2302.50 2260.73 51.10
8054 32.4832 2109.40 2260.47 49.20
8055 32.4869 2250.50 2260.22 50.40
8056 32.4907 2208.90 2259.97 50.30
8057 32.4944 2178.70 2259.72 49.50
8058 32.4982 2179.90 2259.47 49.40
8059 32.5019 2242.90 2259.22 49.70
8060 32.5057 2178.50 2258.97 50.00
8061 32.5094 2181.20 2258.72 49.00
8062 32.5132 2212.70 2258.47 50.10
8063 32.5169 2206.90 2258.22 49.60
8064 32.5207 2134.90 2257.97 48.50
8065 32.5245 2245.90 2257.72 50.30
8066 32.5282 2205.50 2257.47 50.30
8067 32.5320 2273.80 2257.22 51.00
8068 32.5357 2237.60 2256.97 49.90
8069 32.5395 2207.60 2256.72 50.30
8070 32.5432 2145.00 2256.48 49.30
8071 32.5470 2265.40 2256.23 50.50
8072 32.5507 2188.60 2255.98 49.20
8073 32.5545 2152.10 2255.73 48.40
8074 32.5583 2206.30 2255.48 49.90
8075 32.5620 2303.30 2255.24 50.80
8076 32.5658 2277.80 2254.99 51.30
8077 32.5695 2362.60 2254.74 51.40
8078 32.5733 2215.10 2254.49 49.90
8079 32.5770 2207.50 2254.25 49.70
8080 32.5808 2178.80 2254.00 49.70
8081 32.5845 2218.50 2253.75 49.40
8082 32.5883 2180.60 2253.51 48.80
8083 32.5920 2268.40 2253.26 51.20
8084 32.5958 2196.60 2253.02 50.40
8085 32.5996 2225.60 2252.77 50.00
8086 32.6033 2179.70 2252.52 50.20
8087 32.6071 2194.30 2252.28 50.00
8088 32.6108 2250.10 2252.03 50.40
8089 32.6146 2269.80 2251.79 50.80
8090 32.6183 2250.00 2251.54 50.30
8091 32.6221 2203.40 2251.30 50.10
8092 32.6259 2147.70 2251.05 49.50
8093 32.6296 2221.00 2250.81 50.00
8094 32.6334 2191.10 2250.57 49.20
8095 32.6371 2181.20 2250.32 49.70
8096 32.6409 2197.50 2250.08 50.20
8097 32.6446 2247.50 2249.84 50.60
8098 32.6484 2167.20 2249.59 49.20
8099 32.6521 2247.30 2249.35 50.30
8100 32.6559 2201.90 2249.11 49.60
8101 32.6596 2219.10 2248.86 50.00
8102 32.6634 2196.50 2248.62 50.30
8103 32.6672 2189.50 2248.38 49.80
8104 32.6709 2201.70 2248.14 50.30
8105 32.6747 2345.90 2247.89 52.00
8106 32.6784 2248.20 2247.65 50.20
8107 32.6822 2210.00 2247.41 49.80
8108 32.6859 2185.70 2247.17 50.90
8109 32.6897 2192.50 2246.93 49.40
8110 32.6935 2224.30 2246.69 49.40
8111 32.6972 2197.30 2246.45 49.10
8112 32.7010 2224.60 2246.21 49.70
8113 32.7047 2250.40 2245.97 49.60
8114 32.7085 2203.10 2245.72 48.70
8115 32.7122 2260.10 2245.48 50.10
8116 32.7160 2229.50 2245.24 49.70
8117 32.7197 2255.80 2245.00 49.90
8118 32.7235 2168.40 2244.77 48.60
8119 32.7273 2286.70 2244.53 50.40
8120 32.7310 2164.10 2244.29 48.80
8121 32.7348 2142.20 2244.05 48.60
8122 32.7385 2116.10 2243.81 48.50
8123 32.7423 2166.40 2243.57 48.10
8124 32.7460 2221.00 2243.33 49.60
8125 32.7498 2222.20 2243.09 49.50
8126 32.7536 2187.90 2242.86 49.60
8127 32.7573 2169.00 2242.62 49.20
8128 32.7611 2266.00 2242.38 50.70
8129 32.7648 2225.40 2242.14 49.60
8130 32.7686 2221.40 2241.91 48.90
8131 32.7723 2148.80 2241.67 48.70
8132 32.7761 2152.50 2241.43 49.30
8133 32.7798 2150.00 2241.20 48.30
8134 32.7836 2181.20 2240.96 49.50
8135 32.7873 2185.40 2240.72 49.50
8136 32.7911 2120.20 2240.49 48.20
8137 32.7949 2175.00 2240.25 49.10
8138 32.7986 2211.10 2240.02 49.20
8139 32.8024 2213.90 2239.78 49.10
8140 32.8061 2178.30 2239.55 49.40
8141 32.8099 2228.80 2239.31 49.60
8142 32.8136 2176.00 2239.08 49.60
8143 32.8174 2288.50 2238.84 50.50
8144 32.8212 2157.20 2238.61 49.10
8145 32.8249 2256.20 2238.37 49.60
8146 32.8287 2144.70 2238.14 48.70
8147 32.8324 2252.90 2237.90 49.90
8148 32.8362 2216.30 2237.67 49.40
8149 32.8399 2173.60 2237.44 49.30
8150 32.8437 2128.50 2237.20 48.60
8151 32.8475 2194.60 2236.97 49.30
8152 32.8512 2104.80 2236.74 48.30
8153 32.8550 2138.60 2236.51 48.30
8154 32.8587 2134.40 2236.27 48.20
8155 32.8625 2217.50 2236.04 49.20
8156 32.8662 2161.30 2235.81 48.60
8157 32.8700 2290.80 2235.58 50.40
8158 32.8737 2084.90 2235.34 48.30
8159 32.8775 2250.50 2235.11 50.10
8160 32.8813 2165.30 2234.88 48.90
8161 32.8850 2192.70 2234.65 49.00
8162 32.8888 2221.60 2234.42 49.70
8163 32.8925 2242.20 2234.19 50.20
8164 32.8963 2207.50 2233.96 49.40
8165 32.9001 2244.00 2233.73 50.40
8166 32.9038 2125.40 2233.50 49.00
8167 32.9076 2280.10 2233.27 49.90
8168 32.9113 2115.30 2233.04 47.70
8169 32.9151 2266.90 2232.81 50.10
8170 32.9188 2251.10 2232.58 50.20
8171 32.9226 2235.40 2232.35 49.90
8172 32.9263 2051.40 2232.12 47.70
8173 32.9301 2288.20 2231.89 50.90
8174 32.9339 2172.70 2231.66 49.00
8175 32.9376 2190.40 2231.44 49.10
8176 32.9414 2138.30 2231.21 47.80
8177 32.9451 2187.00 2230.98 49.00
8178 32.9489 2168.60 2230.75 48.80
8179 32.9526 2224.00 2230.53 49.50
8180 32.9564 2172.40 2230.30 49.30
8181 32.9602 2131.00 2230.07 48.50
8182 32.9639 2158.60 2229.84 48.30
8183 32.9677 2165.50 2229.62 49.30
8184 32.9714 2078.90 2229.39 48.10
8185 32.9752 2177.50 2229.16 49.60
8186 32.9789 2217.90 2228.94 50.00
8187 32.9827 2206.90 2228.71 49.20
8188 32.9865 2093.80 2228.49 48.50
8189 32.9902 2338.40 2228.26 51.30
8190 32.9940 2222.80 2228.04 50.40
8191 32.9977 2148.50 2227.81 49.00
8192 33.0015 2171.20 2227.59 48.70
8193 33.0052 2144.10 2227.36 49.40
8194 33.0090 2176.80 2227.14 49.80
8195 33.0128 2232.70 2226.91 49.80
8196 33.0165 2121.00 2226.69 49.20
8197 33.0203 2229.60 2226.47 50.10
8198 33.0240 2214.70 2226.24 49.60
8199 33.0278 2200.00 2226.02 49.90
8200 33.0315 2135.70 2225.80 48.80
8201 33.0353 2176.70 2225.57 49.00
8202 33.0391 2188.40 2225.35 49.30
8203 33.0428 2291.90 2225.13 50.50
8204 33.0466 2099.00 2224.90 48.70
8205 33.0503 2179.70 2224.68 49.50
8206 33.0541 2107.10 2224.46 48.80
8207 33.0578 2187.50 2224.24 49.90
8208 33.0616 2286.90 2224.02 51.20
8209 33.0654 2247.60 2223.80 50.40
8210 33.0691 2313.20 2223.57 51.20
8211 33.0729 2306.50 2223.35 51.10
8212 33.0766 2241.00 2223.13 49.90
8213 33.0804 2290.20 2222.91 50.10
8214 33.0841 2245.10 2222.69 50.20
8215 33.0879 2200.30 2222.47 49.80
8216 33.0917 2120.40 2222.25 48.80
8217 33.0954 2244.10 2222.03 49.30
8218 33.0992 2204.60 2221.81 50.30
8219 33.1029 2207.10 2221.59 49.50
8220 33.1067 2111.80 2221.37 49.30
8221 33.1104 2156.80 2221.16 49.50
8222 33.1142 2168.60 2220.94 49.60
8223 33.1180 2159.20 2220.72 48.90
8224 33.1217 2202.60 2220.50 49.80
8225 33.1255 2190.60 2220.28 49.60
8226 33.1292 2065.10 2220.06 48.30
8227 33.1330 2112.30 2219.85 48.40
8228 33.1367 2027.60 2219.63 47.50
8229 33.1405 2148.40 2219.41 49.10
8230 33.1443 2186.40 2219.20 49.20
8231 33.1480 2207.50 2218.98 49.50
8232 33.1518 2142.70 2218.76 49.20
8233 33.1555 2177.80 2218.55 49.20
8234 33.1593 2228.70 2218.33 50.40
8235 33.1631 2223.30 2218.11 50.20
8236 33.1668 2212.80 2217.90 50.90
8237 33.1706 2193.00 2217.68 50.00
8238 33.1743 2106.00 2217.47 49.10
8239 33.1781 2189.30 2217.25 49.10
8240 33.1818 2166.10 2217.04 49.30
8241 33.1856 2131.90 2216.82 47.80
8242 33.1894 2107.10 2216.61 48.50
8243 33.1931 2210.50 2216.39 49.90
8244 33.1969 2194.00 2216.18 50.20
8245 33.2006 2289.70 2215.96 50.50
8246 33.2044 2160.60 2215.75 49.50
8247 33.2081 2265.10 2215.54 50.70
8248 33.2119 2174.60 2215.32 49.60
8249 33.2157 2246.00 2215.11 49.10
8250 33.2194 2140.20 2214.90 48.20
8251 33.2232 2229.20 2214.69 50.10
8252 33.2269 2260.70 2214.47 50.20
8253 33.2307 2209.70 2214.26 49.30
8254 33.2345 2241.30 2214.05 50.20
8255 33.2382 2182.60 2213.84 48.40
8256 33.2420 2166.30 2213.63 49.30
8257 33.2457 2211.30 2213.41 50.50
8258 33.2495 2235.40 2213.20 49.90
8259 33.2532 2262.60 2212.99 50.40
8260 33.2570 2120.40 2212.78 48.90
8261 33.2607 2315.30 2212.57 50.90
8262 33.2645 2170.10 2212.36 49.10
8263 33.2683 2277.00 2212.15 50.60
8264 33.2720 2229.30 2211.94 49.90
8265 33.2758 2223.70 2211.73 50.20
8266 33.2795 2262.20 2211.52 49.90
8267 33.2833 2202.20 2211.31 49.30
8268 33.2871 2245.70 2211.10 50.40
8269 33.2908 2220.00 2210.89 48.80
8270 33.2946 2195.90 2210.69 49.90
8271 33.2983 2185.60 2210.48 49.10
8272 33.3021 2217.90 2210.27 49.50
8273 33.3059 2173.00 2210.06 49.30
8274 33.3096 2153.20 2209.85 49.00
8275 33.3134 2198.60 2209.65 49.90
8276 33.3171 2247.00 2209.44 50.40
8277 33.3209 2206.90 2209.23 49.80
8278 33.3246 2045.20 2209.03 47.90
8279 33.3284 2095.40 2208.82 48.60
8280 33.3322 2144.80 2208.61 49.30
8281 33.3359 2098.70 2208.41 48.30
8282 33.3397 2161.50 2208.20 49.40
8283 33.3434 2208.10 2207.99 49.60
8284 33.3472 2221.10 2207.79 50.60
8285 33.3509 2280.20 2207.58 50.10
8286 33.3547 2068.20 2207.38 48.10
8287 33.3585 2238.90 2207.17 50.10
8288 33.3622 2073.70 2206.97 48.60
8289 33.3660 2250.60 2206.76 50.20
8290 33.3697 2089.30 2206.56 48.50
8291 33.3735 2144.40 2206.35 49.20
8292 33.3773 2159.40 2206.15 49.10
8293 33.3810 2151.40 2205.95 49.10
8294 33.3848 2039.80 2205.74 47.80
8295 33.3885 2187.80 2205.54 49.60
8296 33.3923 2130.30 2205.34 48.70
8297 33.3960 2173.70 2205.14 49.30
8298 33.3998 2147.30 2204.93 49.10
8299 33.4036 2171.30 2204.73 49.70
8300 33.4073 2137.80 2204.53 48.80
8301 33.4111 2159.70 2204.33 49.60
8302 33.4148 2071.00 2204.12 48.30
8303 33.4186 2138.50 2203.92 49.20
8304 33.4224 2090.70 2203.72 48.70
8305 33.4261 2039.80 2203.52 47.60
8306 33.4299 2169.00 2203.32 49.50
8307 33.4336 2177.90 2203.12 49.70
8308 33.4374 2167.10 2202.92 49.30
8309 33.4412 2229.30 2202.72 49.80
8310 33.4449 2169.90 2202.52 49.50
8311 33.4487 2144.00 2202.32 49.20
8312 33.4524 2113.20 2202.12 48.80
8313 33.4562 2101.00 2201.92 48.60
8314 33.4599 2118.80 2201.72 48.80
8315 33.4637 2177.20 2201.52 50.00
8316 33.4675 2127.20 2201.32 49.00
8317 33.4712 2081.00 2201.12 48.60
8318 33.4750 2139.70 2200.93 49.10
8319 33.4787 2175.10 2200.73 49.10
8320 33.4825 2140.70 2200.53 49.20
8321 33.4863 2173.60 2200.33 49.00
8322 33.4900 2113.10 2200.13 48.80
8323 33.4938 2119.00 2199.94 48.10
8324 33.4975 2208.70 2199.74 50.10
8325 33.5013 2195.70 2199.54 49.70
8326 33.5050 2121.00 2199.35 48.40
8327 33.5088 2131.20 2199.15 48.70
8328 33.5126 2149.90 2198.95 49.10
8329 33.5163 2198.60 2198.76 49.40
8330 33.5201 2096.60 2198.56 49.00
8331 33.5238 2182.60 2198.37 49.40
8332 33.5276 2085.40 2198.17 48.20
8333 33.5313 2149.10 2197.98 49.10
8334 33.5351 2026.70 2197.78 47.80
8335 33.5389 2262.20 2197.59 50.90
8336 33.5426 2128.60 2197.39 48.70
8337 33.5464 2178.20 2197.20 49.20
8338 33.5502 2142.10 2197.00 49.50
8339 33.5539 2070.00 2196.81 48.50
8340 33.5577 2031.80 2196.62 47.20
8341 33.5614 2117.50 2196.42 48.40
8342 33.5652 2127.30 2196.23 49.30
8343 33.5689 2183.10 2196.04 49.20
8344 33.5727 2125.00 2195.85 49.20
8345 33.5765 2067.10 2195.65 47.70
8346 33.5802 2092.90 2195.46 48.60
8347 33.5840 2193.20 2195.27 49.70
8348 33.5877 2141.60 2195.08 49.20
8349 33.5915 2120.50 2194.89 49.10
8350 33.5952 2197.50 2194.69 49.50
8351 33.5990 2162.90 2194.50 48.90
8352 33.6028 2145.30 2194.31 48.40
8353 33.6065 2173.90 2194.12 49.90
8354 33.6103 2230.70 2193.93 50.40
8355 33.6141 2170.10 2193.74 49.40
8356 33.6178 2107.10 2193.55 48.60
8357 33.6216 2120.90 2193.36 49.10
8358 33.6253 2095.70 2193.17 48.80
8359 33.6291 2140.80 2192.98 49.00
8360 33.6328 2090.70 2192.79 48.40
8361 33.6366 2132.60 2192.60 49.20
8362 33.6404 2104.70 2192.42 48.50
8363 33.6441 2163.80 2192.23 49.20
8364 33.6479 2166.30 2192.04 50.80
8365 33.6516 2135.10 2191.85 46.70
8366 33.6554 2192.50 2191.66 47.30
8367 33.6591 2181.00 2191.48 47.80
8368 33.6629 2180.80 2191.29 48.00
8369 33.6667 2223.30 2191.10 48.30
8370 33.6704 2082.90 2190.91 46.20
8371 33.6742 2175.30 2190.73 47.20
8372 33.6780 2204.10 2190.54 47.80
8373 33.6817 2242.00 2190.35 48.40
8374 33.6855 2150.50 2190.17 47.20
8375 33.6892 2267.50 2189.98 48.80
8376 33.6930 2183.30 2189.80 47.90
8377 33.6967 2193.00 2189.61 48.00
8378 33.7005 2200.00 2189.43 47.70
8379 33.7043 2156.70 2189.24 47.60
8380 33.7080 2151.00 2189.06 47.50
8381 33.7118 2188.60 2188.87 47.80
8382 33.7155 2198.00 2188.69 48.10
8383 33.7193 2106.50 2188.50 46.80
8384 33.7231 2114.10 2188.32 46.70
8385 33.7268 2172.10 2188.13 47.70
8386 33.7306 2175.60 2187.95 47.60
8387 33.7343 2201.10 2187.77 48.10
8388 33.7381 2182.20 2187.59 48.10
8389 33.7419 2246.70 2187.40 48.60
8390 33.7456 2230.80 2187.22 48.50
8391 33.7494 2169.80 2187.04 47.80
8392 33.7531 2149.30 2186.86 47.40
8393 33.7569 2183.90 2186.67 48.10
8394 33.7607 2136.50 2186.49 47.50
8395 33.7644 2200.30 2186.31 48.30
8396 33.7682 2072.40 2186.13 46.50
8397 33.7719 2229.70 2185.95 48.50
8398 33.7757 2145.80 2185.77 47.60
8399 33.7794 2178.90 2185.59 48.10
8400 33.7832 2148.50 2185.41 47.40
8401 33.7870 2105.90 2185.23 47.10
8402 33.7907 2137.20 2185.05 47.20
8403 33.7945 2127.30 2184.87 47.40
8404 33.7982 2100.20 2184.69 47.40
8405 33.8020 2216.70 2184.51 48.30
8406 33.8058 2130.80 2184.33 47.10
8407 33.8095 2194.80 2184.15 48.20
8408 33.8133 2187.70 2183.97 47.80
8409 33.8170 2283.70 2183.79 49.50
8410 33.8208 2150.00 2183.61 47.70
8411 33.8246 2214.30 2183.44 48.30
8412 33.8283 2109.50 2183.26 47.20
8413 33.8321 2154.70 2183.08 47.80
8414 33.8358 2105.80 2182.90 47.20
8415 33.8396 2252.50 2182.73 49.00
8416 33.8433 2133.50 2182.55 47.10
8417 33.8471 2154.10 2182.37 47.60
8418 33.8509 2129.00 2182.20 47.50
8419 33.8546 2189.40 2182.02 48.30
8420 33.8584 2228.80 2181.84 48.40
8421 33.8621 2239.30 2181.67 48.80
8422 33.8659 2159.80 2181.49 47.30
8423 33.8697 2163.10 2181.32 47.60
8424 33.8734 2201.40 2181.14 48.40
8425 33.8772 2216.30 2180.97 48.70
8426 33.8810 2192.90 2180.79 48.00
8427 33.8847 2255.60 2180.62 48.70
8428 33.8885 2131.60 2180.44 47.30
8429 33.8922 2185.10 2180.27 48.20
8430 33.8960 2247.90 2180.10 48.80
8431 33.8997 2336.80 2179.92 49.80
8432 33.9035 2296.90 2179.75 49.40
8433 33.9073 2271.70 2179.58 48.90
8434 33.9110 2273.10 2179.40 49.10
8435 33.9148 2250.40 2179.23 48.80
8436 33.9185 2268.60 2179.06 49.20
8437 33.9223 2232.50 2178.89 48.80
8438 33.9261 2130.30 2178.71 46.90
8439 33.9298 2233.40 2178.54 49.10
8440 33.9336 2154.60 2178.37 47.30
8441 33.9373 2178.00 2178.20 48.10
8442 33.9411 2203.70 2178.03 48.10
8443 33.9449 2252.00 2177.86 49.00
8444 33.9486 2196.60 2177.69 48.40
8445 33.9524 2266.70 2177.51 49.40
8446 33.9561 2216.60 2177.34 48.60
8447 33.9599 2278.10 2177.17 49.20
8448 33.9637 2144.10 2177.00 47.60
8449 33.9674 2179.00 2176.84 48.60
8450 33.9712 2269.50 2176.67 49.30
8451 33.9749 2275.00 2176.50 49.20
8452 33.9787 2180.40 2176.33 48.30
8453 33.9825 2225.80 2176.16 48.50
8454 33.9862 2189.60 2175.99 48.10
8455 33.9900 2245.40 2175.82 48.70
8456 33.9937 2145.60 2175.65 47.90
8457 33.9975 2282.50 2175.49 49.50
8458 34.0013 2190.10 2175.32 48.40
8459 34.0050 2282.30 2175.15 49.40
8460 34.0088 2204.10 2174.98 48.60
8461 34.0125 2222.70 2174.82 48.10
8462 34.0163 2271.80 2174.65 49.20
8463 34.0201 2234.20 2174.48 48.90
8464 34.0238 2195.80 2174.32 48.50
8465 34.0276 2270.50 2174.15 49.40
8466 34.0313 2208.40 2173.99 48.10
8467 34.0351 2267.50 2173.82 49.00
8468 34.0388 2103.90 2173.65 47.50
8469 34.0426 2133.60 2173.49 47.90
8470 34.0464 2203.40 2173.32 48.30
8471 34.0501 2223.70 2173.16 49.10
8472 34.0539 2151.40 2172.99 47.80
8473 34.0577 2201.30 2172.83 48.10
8474 34.0614 2182.10 2172.67 48.00
8475 34.0652 2145.50 2172.50 47.90
8476 34.0689 2138.10 2172.34 47.70
8477 34.0727 2214.10 2172.17 49.00
8478 34.0765 2169.20 2172.01 47.80
8479 34.0802 2181.50 2171.85 48.20
8480 34.0840 2288.90 2171.69 49.40
8481 34.0877 2259.90 2171.52 49.30
8482 34.0915 2140.40 2171.36 47.80
8483 34.0952 2209.60 2171.20 48.90
8484 34.0990 2208.60 2171.04 48.30
8485 34.1028 2271.80 2170.88 49.60
8486 34.1065 2178.40 2170.71 47.80
8487 34.1103 2243.60 2170.55 48.90
8488 34.1140 2185.60 2170.39 49.20
8489 34.1178 2281.80 2170.23 49.20
8490 34.1216 2211.50 2170.07 48.60
8491 34.1253 2186.70 2169.91 48.10
8492 34.1291 2213.20 2169.75 48.80
8493 34.1328 2301.70 2169.59 50.20
8494 34.1366 2195.90 2169.43 49.20
8495 34.1404 2201.50 2169.27 49.20
8496 34.1441 2112.50 2169.11 48.00
8497 34.1479 2243.30 2168.95 49.50
8498 34.1516 2245.30 2168.79 49.50
8499 34.1554 2288.70 2168.63 50.10
8500 34.1592 2257.80 2168.48 49.50
8501 34.1629 2175.20 2168.32 48.90
8502 34.1667 2178.90 2168.16 49.10
8503 34.1704 2266.50 2168.00 50.00
8504 34.1742 2280.00 2167.84 50.20
8505 34.1780 2204.90 2167.69 49.10
8506 34.1817 2138.00 2167.53 48.10
8507 34.1855 2199.10 2167.37 48.90
8508 34.1892 2225.30 2167.22 49.50
8509 34.1930 2231.90 2167.06 49.40
8510 34.1968 2178.60 2166.90 49.10
8511 34.2005 2250.20 2166.75 49.40
8512 34.2043 2224.30 2166.59 49.70
8513 34.2080 2216.30 2166.44 49.00
8514 34.2118 2266.30 2166.28 49.60
8515 34.2156 2243.30 2166.12 48.30
8516 34.2193 2238.70 2165.97 49.60
8517 34.2231 2243.10 2165.82 49.50
8518 34.2268 2214.00 2165.66 49.50
8519 34.2306 2283.60 2165.51 50.00
8520 34.2344 2248.50 2165.35 50.00
8521 34.2381 2347.00 2165.20 50.50
8522 34.2419 2245.10 2165.04 49.90
8523 34.2456 2253.90 2164.89 49.70
8524 34.2494 2201.40 2164.74 48.50
8525 34.2532 2253.50 2164.59 50.20
8526 34.2569 2269.90 2164.43 50.30
8527 34.2607 2181.80 2164.28 48.40
8528 34.2644 2299.00 2164.13 50.30
8529 34.2682 2260.30 2163.98 50.30
8530 34.2720 2233.10 2163.82 49.70
8531 34.2757 2242.80 2163.67 49.70
8532 34.2795 2205.70 2163.52 49.20
8533 34.2832 2340.50 2163.37 50.50
8534 34.2870 2297.20 2163.22 50.50
8535 34.2908 2354.20 2163.07 50.60
8536 34.2945 2270.10 2162.92 50.30
8537 34.2983 2389.20 2162.77 51.50
8538 34.3020 2270.80 2162.62 49.40
8539 34.3058 2341.70 2162.47 51.20
8540 34.3096 2288.90 2162.32 50.00
8541 34.3133 2352.60 2162.17 50.70
8542 34.3171 2311.90 2162.02 50.60
8543 34.3208 2269.30 2161.87 49.50
8544 34.3246 2397.30 2161.72 51.10
8545 34.3284 2514.70 2161.57 52.50
8546 34.3321 2409.10 2161.42 51.50
8547 34.3359 2425.70 2161.27 51.60
8548 34.3396 2368.90 2161.13 51.10
8549 34.3434 2449.40 2160.98 52.20
8550 34.3472 2343.40 2160.83 50.90
8551 34.3509 2468.60 2160.68 51.90
8552 34.3547 2457.70 2160.54 52.10
8553 34.3584 2445.40 2160.39 51.80
8554 34.3622 2375.20 2160.24 50.50
8555 34.3660 2470.90 2160.10 52.50
8556 34.3697 2500.70 2159.95 52.40
8557 34.3735 2521.10 2159.80 52.90
8558 34.3772 2478.80 2159.66 51.90
8559 34.3810 2585.80 2159.51 53.80
8560 34.3848 2510.60 2159.37 53.30
8561 34.3885 2662.80 2159.22 54.30
8562 34.3923 2559.00 2159.08 53.20
8563 34.3960 2707.00 2158.93 54.80
8564 34.3998 2630.80 2158.79 54.00
8565 34.4035 2613.30 2158.64 54.00
8566 34.4073 2739.00 2158.50 55.10
8567 34.4111 2592.80 2158.36 53.30
8568 34.4148 2844.20 2158.21 56.10
8569 34.4186 2740.00 2158.07 55.00
8570 34.4224 2689.00 2673.98 54.60
8571 34.4261 2878.10 2700.30 56.50
8572 34.4299 2869.00 2728.78 56.20
8573 34.4336 2971.50 2759.68 56.80
8574 34.4374 2974.60 2792.98 57.30
8575 34.4412 3114.10 2829.25 58.90
8576 34.4449 2937.60 2868.84 57.30
8577 34.4487 3142.30 2911.82 59.40
8578 34.4524 3064.80 2958.95 58.40
8579 34.4562 3271.70 3010.81 60.10
8580 34.4599 3254.60 3067.56 60.70
8581 34.4637 3424.10 3130.35 62.20
8582 34.4675 3416.20 3200.07 61.80
8583 34.4712 3522.60 3277.12 62.40
8584 34.4750 3589.80 3363.28 63.70
8585 34.4788 3811.00 3460.04 65.50
8586 34.4825 3899.70 3568.28 66.10
8587 34.4863 4047.90 3690.91 67.20
8588 34.4900 4248.20 3830.60 69.60
8589 34.4938 4448.70 3989.26 70.90
8590 34.4976 4528.70 4172.04 71.40
8591 34.5013 4894.70 4384.04 74.20
8592 34.5051 4963.10 4629.67 74.70
8593 34.5088 5448.50 4918.84 79.60
8594 34.5126 5724.40 5262.42 81.80
8595 34.5163 6330.80 5671.22 86.10
8596 34.5201 6643.80 6166.89 88.20
8597 34.5239 7487.50 6775.67 93.90
8598 34.5276 7950.30 7527.46 97.30
8599 34.5314 8955.60 8478.24 104.50
8600 34.5352 9599.20 9704.04 106.70
8601 34.5389 11317.70 11308.10 116.80
8602 34.5427 12699.20 13498.30 125.90
8603 34.5464 15667.00 16672.90 140.30
8604 34.5502 19372.40 21667.90 159.40
8605 34.5540 26767.10 30395.30 191.10
8606 34.5577 40047.40 46084.50 242.90
8607 34.5615 67486.60 72866.20 333.80
8608 34.5652 109002.00 113568.00 447.00
8609 34.5690 155037.00 162585.00 557.60
8610 34.5728 179182.00 195549.00 617.00
8611 34.5765 181615.00 182031.00 623.10
8612 34.5803 151960.00 135923.00 553.80
8613 34.5840 110357.00 90030.40 452.70
8614 34.5878 64500.10 56790.80 321.70
8615 34.5916 38196.10 36480.30 234.90
8616 34.5953 25183.10 25083.30 184.30
8617 34.5991 19726.00 18661.80 160.90
8618 34.6028 15611.30 14800.50 139.80
8619 34.6066 13381.00 12234.40 128.30
8620 34.6104 11419.50 10383.70 119.70
8621 34.6141 10220.10 9001.00 112.70
8622 34.6179 8956.50 7938.34 105.00
8623 34.6216 8285.40 7098.25 100.20
8624 34.6254 7474.70 6428.43 94.20
8625 34.6292 7181.80 5886.08 93.00
8626 34.6329 6313.10 5437.65 86.50
8627 34.6367 6091.10 5065.70 85.20
8628 34.6404 5478.30 4753.85 80.50
8629 34.6442 4996.60 4487.83 76.20
8630 34.6480 4658.50 4260.92 73.10
8631 34.6517 4459.10 4065.83 71.60
8632 34.6555 4224.80 3895.57 70.00
8633 34.6592 4023.70 3747.29 67.90
8634 34.6630 3912.70 3617.37 65.80
8635 34.6668 3886.00 3502.00 66.70
8636 34.6705 3613.50 3399.91 64.00
8637 34.6743 3661.70 3309.13 64.20
8638 34.6780 3381.70 3227.41 62.60
8639 34.6818 3380.70 3154.17 62.40
8640 34.6856 3293.40 3088.28 61.30
8641 34.6893 3202.60 3028.30 60.10
8642 34.6931 3098.10 2974.00 58.80
8643 34.6968 3196.70 2924.67 60.00
8644 34.7006 2951.50 2879.37 57.60
8645 34.7044 3066.00 2838.00 58.90
8646 34.7081 2882.90 2800.11 57.10
8647 34.7119 2874.10 2765.06 56.80
8648 34.7156 2808.40 2732.81 56.40
8649 34.7194 2807.50 2703.09 56.50
8650 34.7232 2814.80 2675.40 56.80
8651 34.7269 2805.20 2147.03 56.40
8652 34.7307 2639.60 2146.90 54.20
8653 34.7344 2675.50 2146.78 54.60
8654 34.7382 2635.00 2146.65 54.20
8655 34.7420 2655.70 2146.53 55.10
8656 34.7457 2628.20 2146.40 54.90
8657 34.7495 2564.70 2146.28 54.10
8658 34.7532 2595.70 2146.15 53.60
8659 34.7570 2597.90 2146.03 54.10
8660 34.7608 2498.70 2145.90 52.60
8661 34.7645 2593.10 2145.78 53.80
8662 34.7683 2429.80 2145.65 52.00
8663 34.7720 2511.00 2145.53 53.40
8664 34.7758 2405.80 2145.41 52.10
8665 34.7796 2428.90 2145.28 52.20
8666 34.7833 2412.30 2145.16 51.60
8667 34.7871 2445.20 2145.04 52.40
8668 34.7908 2360.60 2144.92 51.20
8669 34.7946 2382.30 2144.79 52.00
8670 34.7984 2357.20 2144.67 51.40
8671 34.8021 2432.90 2144.55 51.00
8672 34.8059 2347.20 2144.43 50.80
8673 34.8096 2374.80 2144.31 51.40
8674 34.8134 2365.30 2144.18 51.40
8675 34.8172 2439.80 2144.06 52.50
8676 34.8209 2280.20 2143.94 50.60
8677 34.8247 2349.80 2143.82 50.80
8678 34.8284 2300.20 2143.70 50.50
8679 34.8322 2389.70 2143.58 51.90
8680 34.8360 2302.50 2143.46 51.40
8681 34.8397 2254.80 2143.34 49.30
8682 34.8435 2299.90 2143.22 50.80
8683 34.8472 2312.20 2143.10 50.60
8684 34.8510 2283.20 2142.98 50.90
8685 34.8548 2273.20 2142.86 50.30
8686 34.8585 2217.80 2142.74 49.90
8687 34.8623 2250.50 2142.62 50.30
8688 34.8660 2161.40 2142.51 49.80
8689 34.8698 2240.50 2142.39 50.20
8690 34.8736 2181.70 2142.27 49.50
8691 34.8773 2262.00 2142.15 51.10
8692 34.8811 2220.10 2142.03 49.90
8693 34.8848 2240.10 2141.92 49.10
8694 34.8886 2173.60 2141.80 49.10
8695 34.8924 2238.40 2141.68 50.00
8696 34.8961 2235.40 2141.56 49.80
8697 34.8999 2236.50 2141.45 50.20
8698 34.9036 2264.60 2141.33 50.60
8699 34.9074 2282.90 2141.22 49.90
8700 34.9112 2213.30 2141.10 49.80
8701 34.9149 2217.40 2140.98 50.00
8702 34.9187 2069.40 2140.87 48.10
8703 34.9224 2190.90 2140.75 49.80
8704 34.9262 2171.20 2140.64 49.00
8705 34.9300 2272.80 2140.52 50.50
8706 34.9337 2154.00 2140.41 48.80
8707 34.9375 2218.90 2140.29 49.40
8708 34.9412 2192.90 2140.18 49.40
8709 34.9450 2274.60 2140.06 50.40
8710 34.9487 2178.00 2139.95 49.40
8711 34.9525 2181.10 2139.84 48.50
8712 34.9563 2206.20 2139.72 49.90
8713 34.9600 2286.30 2139.61 50.60
8714 34.9638 2159.90 2139.49 49.40
8715 34.9676 2139.20 2139.38 49.00
8716 34.9713 2046.00 2139.27 47.60
8717 34.9751 2306.50 2139.16 50.70
8718 34.9788 2095.70 2139.04 48.40
8719 34.9826 2287.70 2138.93 50.60
8720 34.9864 2087.70 2138.82 48.40
8721 34.9901 2208.00 2138.71 49.80
8722 34.9939 2188.60 2138.60 49.90
8723 34.9976 2179.30 2138.48 49.60
8724 35.0014 2113.20 2138.37 48.80
8725 35.0051 2172.30 2138.26 50.00
8726 35.0089 2077.50 2138.15 47.90
8727 35.0127 2186.00 2138.04 49.30
8728 35.0164 2117.50 2137.93 48.60
8729 35.0202 2133.10 2137.82 49.30
8730 35.0239 2197.80 2137.71 49.90
8731 35.0277 2142.50 2137.60 49.00
8732 35.0315 2188.00 2137.49 49.90
8733 35.0352 2201.00 2137.38 49.60
8734 35.0390 2104.40 2137.27 48.40
8735 35.0428 2238.00 2137.16 50.90
8736 35.0465 2124.70 2137.05 49.30
8737 35.0503 2169.90 2136.94 49.50
8738 35.0540 2138.60 2136.83 49.00
8739 35.0578 2228.30 2136.73 49.90
8740 35.0616 2142.40 2136.62 49.40
8741 35.0653 2075.90 2136.51 48.40
8742 35.0691 2218.50 2136.40 50.20
8743 35.0728 2132.30 2136.29 49.00
8744 35.0766 2068.50 2136.19 47.70
8745 35.0803 2136.70 2136.08 48.90
8746 35.0841 2187.00 2135.97 49.90
8747 35.0879 2131.80 2135.87 48.20
8748 35.0916 2086.40 2135.76 48.70
8749 35.0954 2268.80 2135.65 50.60
8750 35.0992 2012.90 2135.55 47.70
8751 35.1029 2203.10 2135.44 49.60
8752 35.1067 2186.40 2135.33 48.90
8753 35.1104 2160.30 2135.23 48.70
8754 35.1142 2145.70 2135.12 48.90
8755 35.1180 2120.70 2135.02 48.10
8756 35.1217 2188.60 2134.91 49.60
8757 35.1255 2139.70 2134.81 48.80
8758 35.1292 2141.60 2134.70 48.40
8759 35.1330 2187.80 2134.60 49.70
8760 35.1367 2033.80 2134.50 48.00
8761 35.1405 2121.50 2134.39 48.20
8762 35.1443 2112.60 2134.29 48.70
8763 35.1480 2162.50 2134.18 49.30
8764 35.1518 2177.20 2134.08 49.40
8765 35.1555 2155.30 2133.98 49.30
8766 35.1593 2130.00 2133.87 48.70
8767 35.1631 2175.90 2133.77 49.10
8768 35.1668 2088.10 2133.67 48.70
8769 35.1706 2137.30 2133.57 48.20
8770 35.1743 2030.70 2133.46 47.70
8771 35.1781 2080.30 2133.36 48.10
8772 35.1819 2093.50 2133.26 48.40
8773 35.1856 2209.00 2133.16 49.30
8774 35.1894 2074.40 2133.06 48.10
8775 35.1931 2193.40 2132.95 49.20
8776 35.1969 2074.30 2132.85 47.90
8777 35.2007 2204.60 2132.75 50.00
8778 35.2044 2159.70 2132.65 48.60
8779 35.2082 2198.30 2132.55 50.20
8780 35.2119 2087.30 2132.45 48.70
8781 35.2157 2111.30 2132.35 48.00
8782 35.2195 2025.90 2132.25 47.50
8783 35.2232 2156.20 2132.15 49.30
8784 35.2270 2030.50 2132.05 47.50
8785 35.2307 2134.00 2131.95 48.40
8786 35.2345 2099.00 2131.85 48.30
8787 35.2383 2060.60 2131.75 48.20
8788 35.2420 2116.00 2131.65 48.60
8789 35.2458 2205.30 2131.55 49.60
8790 35.2495 2087.40 2131.46 48.50
8791 35.2533 2136.40 2131.36 48.40
8792 35.2570 2003.00 2131.26 47.60
8793 35.2608 2198.20 2131.16 49.30
8794 35.2646 2085.40 2131.06 48.50
8795 35.2683 2129.70 2130.96 48.80
8796 35.2721 2043.70 2130.87 48.00
8797 35.2758 2105.10 2130.77 48.60
8798 35.2796 2152.10 2130.67 49.20
8799 35.2834 2150.70 2130.58 49.40
8800 35.2871 2120.10 2130.48 48.90
8801 35.2909 2147.10 2130.38 49.80
8802 35.2947 2096.80 2130.29 48.80
8803 35.2984 2146.90 2130.19 49.20
8804 35.3022 2092.90 2130.09 48.70
8805 35.3059 2168.70 2130.00 49.40
8806 35.3097 2117.80 2129.90 48.80
8807 35.3134 2191.60 2129.81 49.30
8808 35.3172 2144.80 2129.71 48.60
8809 35.3210 2100.20 2129.62 48.80
8810 35.3247 2110.80 2129.52 48.90
8811 35.3285 2099.60 2129.43 48.70
8812 35.3322 2121.10 2129.33 48.10
8813 35.3360 2126.20 2129.24 48.00
8814 35.3398 2088.60 2129.14 49.10
8815 35.3435 2126.00 2129.05 48.50
8816 35.3473 2081.00 2128.96 48.60
8817 35.3510 2078.90 2128.86 48.20
8818 35.3548 2116.10 2128.77 49.40
8819 35.3586 2200.20 2128.68 50.10
8820 35.3623 2012.30 2128.58 47.70
8821 35.3661 2103.30 2128.49 48.20
8822 35.3698 2033.40 2128.40 48.00
8823 35.3736 2151.70 2128.30 49.40
8824 35.3774 1999.10 2128.21 46.30
8825 35.3811 2119.00 2128.12 48.60
8826 35.3849 2052.10 2128.03 48.30
8827 35.3886 2235.20 2127.94 50.10
8828 35.3924 2101.00 2127.84 48.60
8829 35.3961 2118.90 2127.75 48.90
8830 35.3999 2071.30 2127.66 49.00
8831 35.4037 2157.10 2127.57 49.50
8832 35.4074 2093.00 2127.48 49.00
8833 35.4112 2158.70 2127.39 50.20
8834 35.4150 2037.60 2127.30 48.30
8835 35.4187 2160.50 2127.21 49.50
8836 35.4225 2098.50 2127.12 49.00
8837 35.4262 2150.30 2127.03 49.40
8838 35.4300 2191.60 2126.94 50.00
8839 35.4338 2115.60 2126.85 49.40
8840 35.4375 2077.90 2126.76 48.40
8841 35.4413 2153.70 2126.67 49.30
8842 35.4450 2100.10 2126.58 48.50
8843 35.4488 2108.40 2126.49 49.10
8844 35.4525 2037.50 2126.40 47.90
8845 35.4563 2230.10 2126.31 50.70
8846 35.4601 2157.90 2126.23 49.20
8847 35.4638 2107.10 2126.14 49.60
8848 35.4676 2131.10 2126.05 49.20
8849 35.4713 2128.80 2125.96 49.30
8850 35.4751 2122.30 2125.87 49.60
8851 35.4789 2112.20 2125.79 48.80
8852 35.4826 2116.10 2125.70 48.50
8853 35.4864 2139.50 2125.61 49.50
8854 35.4901 2015.00 2125.53 47.60
8855 35.4939 2125.30 2125.44 49.40
8856 35.4977 2106.20 2125.35 48.80
8857 35.5014 2162.10 2125.27 49.80
8858 35.5052 2115.40 2125.18 49.50
8859 35.5089 2110.90 2125.09 48.90
8860 35.5127 2122.20 2125.01 48.60
8861 35.5164 2202.70 2124.92 50.40
8862 35.5202 2109.40 2124.84 48.80
8863 35.5240 2098.40 2124.75 48.90
8864 35.5277 2053.50 2124.67 48.20
8865 35.5315 2179.70 2124.58 49.70
8866 35.5352 2097.00 2124.50 48.60
8867 35.5390 2120.20 2124.41 49.10
8868 35.5428 2040.80 2124.33 49.10
8869 35.5465 2111.60 2124.24 49.50
8870 35.5503 2106.10 2124.16 49.40
8871 35.5540 2087.30 2124.07 49.40
8872 35.5578 2162.10 2123.99 49.70
8873 35.5616 2142.00 2123.91 49.20
8874 35.5653 2094.10 2123.82 48.90
8875 35.5691 2052.00 2123.74 48.20
8876 35.5728 2095.10 2123.66 48.70
8877 35.5766 2113.00 2123.57 48.50
8878 35.5803 2047.70 2123.49 47.20
8879 35.5841 2063.40 2123.41 47.40
8880 35.5879 2029.50 2123.32 47.10
8881 35.5916 2029.50 2123.24 47.00
8882 35.5954 2070.40 2123.16 47.80
8883 35.5992 2109.50 2123.08 47.80
8884 35.6029 1995.90 2123.00 46.70
8885 35.6067 2067.90 2122.91 47.90
8886 35.6104 2142.40 2122.83 48.60
8887 35.6142 2183.40 2122.75 49.30
8888 35.6179 2091.40 2122.67 48.20
8889 35.6217 2146.90 2122.59 48.60
8890 35.6255 2080.60 2122.51 48.20
8891 35.6292 2155.60 2122.43 48.90
8892 35.6330 2105.10 2122.35 48.50
8893 35.6367 2118.50 2122.27 48.40
8894 35.6405 2147.80 2122.19 49.30
8895 35.6442 2145.50 2122.11 48.70
8896 35.6480 2089.10 2122.03 48.40
8897 35.6518 2122.70 2121.95 48.40
8898 35.6555 2049.10 2121.87 47.70
8899 35.6593 2097.30 2121.79 48.20
8900 35.6631 2067.40 2121.71 47.80
8901 35.6668 2165.10 2121.63 49.10
8902 35.6706 2061.70 2121.55 47.80
8903 35.6743 2071.60 2121.47 47.80
8904 35.6781 2053.70 2121.39 48.20
8905 35.6818 2072.20 2121.32 48.00
8906 35.6856 2099.40 2121.24 47.60
8907 35.6894 2068.00 2121.16 47.60
8908 35.6931 2163.60 2121.08 48.90
8909 35.6969 2102.00 2121.00 48.50
8910 35.7006 2064.30 2120.93 48.00
8911 35.7044 2212.90 2120.85 49.80
8912 35.7081 2104.50 2120.77 48.50
8913 35.7119 2143.30 2120.70 48.60
8914 35.7157 2054.40 2120.62 48.20
8915 35.7194 2136.30 2120.54 48.70
8916 35.7232 2113.30 2120.47 48.00
8917 35.7269 2159.20 2120.39 49.20
8918 35.7307 2023.50 2120.31 47.20
8919 35.7345 2129.10 2120.24 49.00
8920 35.7382 2210.00 2120.16 50.00
8921 35.7420 2059.50 2120.09 48.10
8922 35.7457 2061.70 2120.01 48.20
8923 35.7495 2146.10 2119.93 48.80
8924 35.7533 2086.00 2119.86 48.60
8925 35.7570 2048.00 2119.78 47.60
8926 35.7608 2113.70 2119.71 48.40
8927 35.7645 2207.40 2119.63 49.70
8928 35.7683 2123.60 2119.56 48.70
8929 35.7720 2150.70 2119.49 48.90
8930 35.7758 2094.50 2119.41 48.10
8931 35.7796 2155.10 2119.34 49.50
8932 35.7833 2077.20 2119.26 47.80
8933 35.7871 2184.40 2119.19 50.00
8934 35.7908 2036.10 2119.12 48.00
8935 35.7946 2032.90 2119.04 47.30
8936 35.7984 2116.20 2118.97 48.50
8937 35.8021 2108.50 2118.90 48.50
8938 35.8059 2055.80 2118.82 47.50
8939 35.8096 2003.30 2118.75 47.70
8940 35.8134 2061.80 2118.68 47.90
8941 35.8172 2127.90 2118.60 48.80
8942 35.8209 2115.60 2118.53 49.10
8943 35.8247 2180.10 2118.46 49.70
8944 35.8284 2124.70 2118.39 49.00
8945 35.8322 2201.60 2118.32 49.60
8946 35.8359 2132.30 2118.24 49.40
8947 35.8397 2084.80 2118.17 48.10
8948 35.8435 2107.00 2118.10 48.80
8949 35.8472 2045.00 2118.03 48.30
8950 35.8510 2114.50 2117.96 49.20
8951 35.8547 2110.10 2117.89 48.90
8952 35.8585 2127.50 2117.82 49.00
8953 35.8623 2116.70 2117.75 48.00
8954 35.8660 2126.30 2117.68 48.80
8955 35.8698 2089.40 2117.60 47.40
8956 35.8735 2038.30 2117.53 47.40
8957 35.8773 2145.50 2117.46 49.30
8958 35.8810 2094.40 2117.39 48.50
8959 35.8848 2072.90 2117.32 47.90
8960 35.8886 2031.90 2117.26 47.70
8961 35.8923 2093.10 2117.19 48.70
8962 35.8961 2110.30 2117.12 49.00
8963 35.8998 2053.30 2117.05 48.00
8964 35.9036 2132.30 2116.98 49.30
8965 35.9073 2187.60 2116.91 49.30
8966 35.9111 2165.20 2116.84 49.60
8967 35.9149 2201.20 2116.77 50.00
8968 35.9186 2083.70 2116.70 47.10
8969 35.9224 2009.20 2116.64 47.90
8970 35.9261 2040.90 2116.57 48.30
8971 35.9299 2159.20 2116.50 48.80
8972 35.9337 2096.40 2116.43 49.00
8973 35.9374 2070.40 2116.36 48.60
8974 35.9412 2119.20 2116.30 49.10
8975 35.9449 2105.10 2116.23 48.30
8976 35.9487 2090.90 2116.16 48.60
8977 35.9524 2092.30 2116.09 48.80
8978 35.9562 2064.90 2116.03 48.20
8979 35.9600 2226.30 2115.96 50.70
8980 35.9637 2120.20 2115.89 48.60
8981 35.9675 2176.50 2115.83 49.40
8982 35.9712 2101.80 2115.76 49.00
8983 35.9750 2133.30 2115.70 48.70
8984 35.9787 2075.70 2115.63 47.30
8985 35.9825 2220.10 2115.56 50.20
8986 35.9863 2156.00 2115.50 50.10
8987 35.9900 2162.90 2115.43 49.60
8988 35.9938 2139.30 2115.37 49.20
8989 35.9975 2250.10 2115.30 50.80
8990 36.0013 2049.40 2115.24 48.30
8991 36.0051 2135.80 2115.17 48.60
8992 36.0088 2036.20 2115.11 47.60
8993 36.0126 2225.40 2115.04 50.20
8994 36.0163 2108.40 2114.98 49.30
8995 36.0201 2236.90 2114.91 50.60
8996 36.0238 2012.10 2114.85 47.40
8997 36.0276 2156.30 2114.78 49.50
8998 36.0314 2197.20 2114.72 49.80
8999 36.0351 2137.70 2114.66 49.30
9000 36.0389 2036.80 2114.59 48.00
9001 36.0426 2102.70 2114.53 47.80
9002 36.0464 2085.70 2114.47 48.40
9003 36.0501 2036.50 2114.40 47.60
9004 36.0539 2089.00 2114.34 49.10
9005 36.0577 1991.00 2114.28 46.70
9006 36.0614 2054.30 2114.21 47.20
9007 36.0652 2125.80 2114.15 48.30
9008 36.0689 2009.80 2114.09 46.70
9009 36.0727 2039.90 2114.03 46.90
9010 36.0765 2098.70 2113.96 48.20
9011 36.0802 2189.50 2113.90 49.40
9012 36.0840 2073.20 2113.84 47.80
9013 36.0877 2272.00 2113.78 50.30
9014 36.0915 2116.40 2113.72 48.50
9015 36.0952 2138.00 2113.65 47.90
9016 36.0990 2073.30 2113.59 47.80
9017 36.1027 2122.40 2113.53 47.90
9018 36.1065 2039.40 2113.47 47.40
9019 36.1103 2126.60 2113.41 48.10
9020 36.1140 2053.00 2113.35 47.30
9021 36.1178 2201.10 2113.29 48.90
9022 36.1215 2055.20 2113.23 47.40
9023 36.1253 2151.00 2113.17 48.90
9024 36.1291 2121.90 2113.11 48.00
9025 36.1328 2144.20 2113.05 48.20
9026 36.1366 2091.30 2112.99 47.30
9027 36.1403 2076.00 2112.93 47.20
9028 36.1441 2137.30 2112.87 48.50
9029 36.1478 2106.90 2112.81 48.20
9030 36.1516 2090.00 2112.75 47.80
9031 36.1554 2150.50 2112.69 48.50
9032 36.1591 2112.00 2112.63 48.70
9033 36.1629 2103.20 2112.57 48.10
9034 36.1666 2084.80 2112.51 47.90
9035 36.1704 2163.90 2112.45 48.80
9036 36.1741 2095.80 2112.39 47.80
9037 36.1779 2172.70 2112.33 49.00
9038 36.1817 2118.30 2112.28 48.40
9039 36.1854 2078.80 2112.22 48.20
9040 36.1892 2084.70 2112.16 48.10
9041 36.1929 2110.30 2112.10 47.90
9042 36.1967 2047.00 2112.04 47.40
9043 36.2004 2169.50 2111.98 49.00
9044 36.2042 2015.90 2111.93 47.20
9045 36.2080 2095.20 2111.87 48.30
9046 36.2117 2138.80 2111.81 48.90
9047 36.2155 2077.40 2111.75 47.80
9048 36.2192 2134.30 2111.70 48.50
9049 36.2230 2201.20 2111.64 49.50
9050 36.2267 2128.50 2111.58 48.40
9051 36.2305 2091.90 2111.53 48.10
9052 36.2343 2053.00 2111.47 47.80
9053 36.2380 2074.50 2111.41 47.40
9054 36.2418 2117.40 2111.36 48.30
9055 36.2455 2065.10 2111.30 47.80
9056 36.2493 2154.60 2111.25 48.70
9057 36.2530 1981.10 2111.19 46.90
9058 36.2568 2052.00 2111.13 47.30
9059 36.2606 2050.60 2111.08 47.40
9060 36.2643 2130.70 2111.02 48.20
9061 36.2681 2216.70 2110.97 49.60
9062 36.2718 2111.80 2110.91 47.90
9063 36.2756 2057.40 2110.86 47.20
9064 36.2793 2140.80 2110.80 48.30
9065 36.2831 2052.60 2110.75 47.50
9066 36.2868 2081.10 2110.69 48.20
9067 36.2906 2112.70 2110.64 48.60
9068 36.2944 2061.00 2110.58 47.70
9069 36.2981 2140.20 2110.53 48.90
9070 36.3019 2092.40 2110.47 48.20
9071 36.3056 2144.00 2110.42 48.70
9072 36.3094 2088.50 2110.36 47.80
9073 36.3131 2069.40 2110.31 47.60
9074 36.3169 2164.80 2110.26 48.90
9075 36.3207 2137.30 2110.20 48.70
9076 36.3244 2074.00 2110.15 47.80
9077 36.3282 2095.70 2110.10 47.80
9078 36.3319 2125.70 2110.04 48.50
9079 36.3357 2093.50 2109.99 48.10
9080 36.3395 2122.60 2109.94 48.30
9081 36.3432 2131.20 2109.88 48.30
9082 36.3470 2069.80 2109.83 47.00
9083 36.3507 2115.50 2109.78 47.80
9084 36.3545 2094.80 2109.72 47.70
9085 36.3582 2093.30 2109.67 48.00
9086 36.3620 2105.00 2109.62 48.10
9087 36.3657 2155.50 2109.57 48.60
9088 36.3695 2023.40 2109.52 46.90
9089 36.3733 2137.10 2109.46 48.70
9090 36.3770 2053.90 2109.41 47.60
9091 36.3808 2001.60 2109.36 47.10
9092 36.3845 2112.10 2109.31 48.30
9093 36.3883 2131.20 2109.26 48.60
9094 36.3920 2084.50 2109.21 47.80
9095 36.3958 2070.00 2109.15 47.90
9096 36.3996 1992.10 2109.10 47.00
9097 36.4033 2180.20 2109.05 49.20
9098 36.4071 2041.90 2109.00 47.40
9099 36.4108 2105.50 2108.95 48.40
9100 36.4146 2011.10 2108.90 47.60
9101 36.4183 2076.50 2108.85 47.60
9102 36.4221 2060.10 2108.80 47.60
9103 36.4258 2137.80 2108.75 48.50
9104 36.4296 2115.70 2108.70 48.10
9105 36.4334 2138.60 2108.65 48.80
9106 36.4371 2044.70 2108.60 47.70
9107 36.4409 2095.60 2108.55 48.10
9108 36.4446 2047.40 2108.50 47.90
9109 36.4484 2081.90 2108.45 48.00
9110 36.4521 2014.40 2108.40 46.80
9111 36.4559 2031.00 2108.35 47.50
9112 36.4597 1988.80 2108.30 46.80
9113 36.4634 2026.50 2108.25 47.10
9114 36.4672 2148.20 2108.20 48.60
9115 36.4709 2090.80 2108.15 48.30
9116 36.4747 2015.00 2108.10 46.90
9117 36.4784 2040.70 2108.05 47.30
9118 36.4822 2018.20 2108.01 46.70
9119 36.4859 2048.60 2107.96 46.40
9120 36.4897 2019.60 2107.91 46.70
9121 36.4935 2076.70 2107.86 48.10
9122 36.4972 2070.50 2107.81 47.50
9123 36.5010 2132.00 2107.76 47.80
9124 36.5047 2078.20 2107.72 47.60
9125 36.5085 2097.80 2107.67 47.80
9126 36.5122 2107.00 2107.62 48.50
9127 36.5160 2086.60 2107.57 48.10
9128 36.5197 2038.50 2107.53 47.50
9129 36.5235 2072.10 2107.48 47.60
9130 36.5273 2031.80 2107.43 47.10
9131 36.5310 2089.20 2107.38 47.80
9132 36.5348 2046.30 2107.34 47.50
9133 36.5385 2042.70 2107.29 47.80
9134 36.5423 2094.40 2107.24 48.10
9135 36.5460 2202.80 2107.20 49.40
9136 36.5498 2036.00 2107.15 47.20
9137 36.5536 2058.00 2107.10 47.50
9138 36.5573 2017.70 2107.06 47.30
9139 36.5611 2122.40 2107.01 48.40
9140 36.5648 2043.60 2106.96 47.90
9141 36.5686 2160.00 2106.92 48.10
9142 36.5723 2077.50 2106.87 47.60
9143 36.5761 2025.60 2106.82 47.30
9144 36.5798 2078.20 2106.78 47.90
9145 36.5836 2123.90 2106.73 48.30
9146 36.5873 2078.80 2106.69 47.20
9147 36.5911 2153.20 2110.16 49.60
9148 36.5949 2079.00 2110.29 48.30
9149 36.5986 2115.30 2110.44 48.80
9150 36.6024 2171.80 2110.60 49.40
9151 36.6061 2177.60 2110.78 49.30
9152 36.6099 2058.90 2110.98 47.10
9153 36.6136 2045.10 2111.20 47.10
9154 36.6174 2100.20 2111.45 48.20
9155 36.6212 2081.60 2111.72 48.00
9156 36.6249 2091.70 2112.03 48.60
9157 36.6287 2049.50 2112.36 47.20
9158 36.6324 2065.40 2112.74 48.30
9159 36.6362 2184.30 2113.16 49.40
9160 36.6399 2077.20 2113.64 47.70
9161 36.6437 2174.10 2114.17 49.20
9162 36.6474 2075.40 2114.77 47.90
9163 36.6512 2142.20 2115.45 48.10
9164 36.6549 2022.80 2116.22 46.40
9165 36.6587 2083.30 2117.10 48.10
9166 36.6625 2043.20 2118.11 48.20
9167 36.6662 2192.50 2119.27 49.80
9168 36.6700 2142.90 2120.62 49.10
9169 36.6737 2151.10 2122.19 48.90
9170 36.6775 2177.30 2124.05 48.90
9171 36.6812 2110.50 2126.24 48.70
9172 36.6850 2079.20 2128.86 47.60
9173 36.6887 2165.10 2132.03 48.90
9174 36.6925 2157.60 2135.90 48.90
9175 36.6963 2220.60 2140.69 49.80
9176 36.7000 2186.00 2146.71 49.20
9177 36.7038 2220.60 2154.39 49.60
9178 36.7075 2000.00 2164.45 47.10
9179 36.7113 2203.90 2177.98 49.30
9180 36.7150 2125.70 2197.28 48.40
9181 36.7188 2329.30 2227.04 49.60
9182 36.7225 2226.80 2277.80 49.30
9183 36.7263 2236.90 2368.24 48.80
9184 36.7300 2501.00 2524.94 52.50
9185 36.7338 2828.60 2768.23 56.60
9186 36.7376 3072.20 3084.94 58.80
9187 36.7413 3404.20 3359.88 62.40
9188 36.7451 3370.20 3380.71 61.40
9189 36.7488 3447.60 3126.24 62.20
9190 36.7526 3042.90 2805.93 58.20
9191 36.7563 2629.20 2551.08 54.10
9192 36.7601 2404.90 2383.62 50.70
9193 36.7638 2214.90 2286.20 49.10
9194 36.7676 2163.10 2231.51 48.40
9195 36.7714 2171.70 2199.74 49.30
9196 36.7751 2137.50 2179.42 48.80
9197 36.7789 2222.50 2165.20 50.10
9198 36.7826 2121.10 2154.68 48.20
9199 36.7864 2114.60 2146.65 48.40
9200 36.7901 2095.90 2140.37 47.80
9201 36.7939 2151.90 2135.35 48.50
9202 36.7976 2085.70 2131.30 48.50
9203 36.8014 2157.40 2127.96 48.90
9204 36.8051 2145.50 2125.19 48.60
9205 36.8089 2135.60 2122.86 48.30
9206 36.8126 2148.50 2120.89 48.80
9207 36.8164 2247.80 2119.20 50.10
9208 36.8202 2139.60 2117.74 48.70
9209 36.8239 2179.70 2116.47 48.90
9210 36.8277 2046.40 2115.36 47.20
9211 36.8314 2112.80 2114.38 48.50
9212 36.8352 2180.20 2113.51 48.80
9213 36.8389 2167.50 2112.74 48.90
9214 36.8427 2103.80 2112.05 48.00
9215 36.8464 2166.30 2111.43 49.30
9216 36.8502 2126.90 2110.86 48.70
9217 36.8540 2060.50 2110.35 47.50
9218 36.8577 2022.10 2109.89 47.30
9219 36.8615 2113.60 2109.46 48.00
9220 36.8652 2034.30 2109.07 47.50
9221 36.8690 2047.30 2108.71 47.30
9222 36.8727 2125.40 2108.38 48.10
9223 36.8765 2080.20 2108.07 47.90
9224 36.8802 2090.60 2107.78 48.00
9225 36.8840 2078.30 2107.52 47.70
9226 36.8877 2010.60 2107.27 47.00
9227 36.8915 2079.10 2107.03 48.20
9228 36.8952 2081.30 2106.81 48.10
9229 36.8990 2052.40 2106.61 47.80
9230 36.9028 2032.10 2103.20 47.20
9231 36.9065 2073.60 2103.16 48.20
9232 36.9103 2113.40 2103.12 47.70
9233 36.9140 2042.60 2103.09 47.40
9234 36.9178 2031.00 2103.05 47.00
9235 36.9215 2121.70 2103.01 48.50
9236 36.9253 2100.80 2102.97 48.20
9237 36.9290 2054.20 2102.94 47.40
9238 36.9328 2099.90 2102.90 48.10
9239 36.9365 2110.10 2102.86 47.90
9240 36.9403 2117.30 2102.82 48.40
9241 36.9440 2059.10 2102.79 47.50
9242 36.9478 2126.00 2102.75 48.50
9243 36.9515 2046.80 2102.71 47.80
9244 36.9553 2126.80 2102.68 48.60
9245 36.9591 2074.30 2102.64 47.60
9246 36.9628 2129.00 2102.60 49.10
9247 36.9666 2122.70 2102.57 48.30
9248 36.9703 2087.90 2102.53 47.80
9249 36.9741 2109.90 2102.49 47.30
9250 36.9778 2045.50 2102.46 47.50
9251 36.9816 2080.10 2102.42 48.00
9252 36.9853 2154.60 2102.39 49.00
9253 36.9891 2123.00 2102.35 48.40
9254 36.9928 2073.00 2102.31 47.80
9255 36.9966 2110.90 2102.28 48.00
9256 36.9988 2117.50 2102.26 48.00
9257 37.0025 2097.90 2102.22 48.40
9258 37.0063 2050.40 2102.18 47.70
9259 37.0101 2105.60 2102.15 48.30
9260 37.0138 2082.00 2102.11 47.70
9261 37.0176 2023.90 2102.08 47.00
9262 37.0213 2047.60 2102.04 47.30
9263 37.0251 2131.30 2102.01 48.50
9264 37.0288 2165.40 2101.97 49.30
9265 37.0326 2155.30 2101.94 48.80
9266 37.0363 2107.90 2101.90 48.20
9267 37.0401 2110.40 2101.87 48.10
9268 37.0438 2108.80 2101.83 48.20
9269 37.0476 2126.50 2101.80 48.70
9270 37.0514 2152.30 2101.76 48.80
9271 37.0551 2095.50 2101.73 48.50
9272 37.0589 2195.90 2101.69 48.60
9273 37.0626 2087.30 2101.66 47.70
9274 37.0664 2048.60 2101.62 47.60
9275 37.0701 2060.20 2101.59 47.60
9276 37.0739 2073.20 2101.55 47.70
9277 37.0776 2102.10 2101.52 47.40
9278 37.0814 2114.00 2101.48 49.10
9279 37.0852 2036.40 2101.45 47.70
9280 37.0889 2172.30 2101.42 49.50
9281 37.0927 2015.40 2101.38 47.50
9282 37.0964 2031.20 2101.35 47.60
9283 37.1002 1987.70 2101.31 46.20
9284 37.1039 2253.60 2101.28 49.60
9285 37.1077 2107.20 2101.25 48.30
9286 37.1115 2153.80 2101.21 48.80
9287 37.1152 2188.70 2101.18 49.70
9288 37.1190 2124.40 2101.14 48.10
9289 37.1227 2145.10 2101.11 49.20
9290 37.1265 2179.20 2101.08 49.30
9291 37.1302 2024.50 2101.04 47.10
9292 37.1340 2098.70 2101.01 48.30
9293 37.1377 2132.40 2100.98 48.60
9294 37.1415 2099.20 2100.94 47.60
9295 37.1452 1983.10 2100.91 46.00
9296 37.1490 2137.70 2100.88 48.80
9297 37.1528 2072.00 2100.84 48.50
9298 37.1565 2121.10 2100.81 48.90
9299 37.1603 2081.70 2100.78 48.40
9300 37.1640 2050.40 2100.74 47.70
9301 37.1678 2115.70 2100.71 48.20
9302 37.1715 2094.20 2100.68 48.50
9303 37.1753 2131.50 2100.65 48.20
9304 37.1791 2166.10 2100.61 48.90
9305 37.1828 2049.30 2100.58 47.60
9306 37.1866 2062.40 2100.55 47.90
9307 37.1903 2093.90 2100.52 48.10
9308 37.1941 2104.40 2100.48 48.30
9309 37.1978 2133.90 2100.45 48.70
9310 37.2016 2113.20 2100.42 48.20
9311 37.2053 1960.90 2100.39 46.40
9312 37.2091 2083.40 2100.35 46.80
9313 37.2128 2020.50 2100.32 46.90
9314 37.2166 2098.70 2100.29 47.20
9315 37.2203 2056.40 2100.26 47.40
9316 37.2241 2161.60 2100.23 49.10
9317 37.2253 2022.90 2100.22 46.80
9318 37.2290 2088.40 2100.18 46.50
9319 37.2328 2055.30 2100.15 46.80
9320 37.2365 2129.00 2100.12 47.50
9321 37.2403 2029.20 2100.09 46.60
9322 37.2440 2117.80 2100.06 47.60
9323 37.2478 1983.80 2100.02 45.80
9324 37.2515 2141.00 2099.99 47.80
9325 37.2553 2102.60 2099.96 47.40
9326 37.2590 2124.50 2099.93 47.80
9327 37.2628 2040.50 2099.90 46.80
9328 37.2665 2083.90 2099.87 47.40
9329 37.2703 2006.00 2099.84 46.70
9330 37.2741 2152.10 2099.80 48.00
9331 37.2778 2074.30 2099.77 47.20
9332 37.2816 2077.20 2099.74 47.30
9333 37.2853 2039.20 2099.71 46.80
9334 37.2891 2062.70 2099.68 47.20
9335 37.2928 2061.80 2099.65 46.60
9336 37.2966 2095.50 2099.62 46.70
9337 37.3003 2074.00 2099.59 47.60
9338 37.3041 2095.60 2099.56 47.30
9339 37.3078 2013.70 2099.52 46.40
9340 37.3116 2045.70 2099.49 46.90
9341 37.3153 2037.10 2099.46 46.40
9342 37.3191 2088.40 2099.43 47.10
9343 37.3228 2034.60 2099.40 47.40
9344 37.3266 2019.20 2099.37 47.00
9345 37.3304 2069.10 2099.34 47.20
9346 37.3341 2149.00 2099.31 47.90
9347 37.3379 2092.40 2099.28 47.20
9348 37.3416 2035.20 2099.25 47.00
9349 37.3454 2051.60 2099.22 47.00
9350 37.3491 2048.40 2099.19 46.90
9351 37.3529 2096.60 2099.16 47.60
9352 37.3566 2118.80 2099.13 47.90
9353 37.3604 2125.50 2099.10 47.90
9354 37.3641 2040.80 2099.07 47.00
9355 37.3679 2008.90 2099.04 46.40
9356 37.3717 2099.00 2099.01 47.60
9357 37.3754 1992.30 2098.98 46.40
9358 37.3792 2078.50 2098.95 47.50
9359 37.3829 2184.50 2098.92 47.90
9360 37.3867 2120.00 2098.89 47.50
9361 37.3904 2051.80 2098.86 46.80
9362 37.3942 2087.60 2098.83 46.80
9363 37.3979 2117.70 2098.80 47.70
9364 37.4017 2092.00 2098.77 47.10
9365 37.4054 2011.40 2098.74 46.60
9366 37.4092 2078.00 2098.71 47.20
9367 37.4129 2135.00 2098.68 48.00
9368 37.4167 2062.80 2098.65 46.00
9369 37.4205 2017.90 2098.62 46.70
9370 37.4242 1986.70 2098.59 46.40
9371 37.4280 2027.60 2098.56 46.70
9372 37.4317 1987.90 2098.53 45.60
9373 37.4355 2032.70 2098.50 46.40
9374 37.4392 2083.60 2098.47 47.30
9375 37.4430 2019.50 2098.44 46.30
9376 37.4467 2170.50 2098.41 48.60
9377 37.4505 2151.60 2098.39 48.20
9378 37.4543 2103.70 2098.36 47.40
9379 37.4580 2062.10 2098.33 46.80
9380 37.4618 2098.90 2098.30 47.30
9381 37.4655 2094.00 2098.27 47.20
9382 37.4693 2079.30 2098.24 47.10
9383 37.4730 1978.30 2098.21 46.10
9384 37.4768 1994.00 2098.18 46.00
9385 37.4805 2038.20 2098.15 46.40
9386 37.4843 2122.80 2098.12 47.90
9387 37.4880 2179.10 2098.10 48.40
9388 37.4918 2050.30 2098.07 46.90
9389 37.4955 1986.80 2098.04 45.90
9390 37.4993 2103.60 2098.01 47.60
9391 37.5031 2021.20 2097.98 46.30
9392 37.5068 2069.10 2097.95 46.70
9393 37.5106 2019.30 2097.92 46.60
9394 37.5143 2086.60 2097.89 47.50
9395 37.5181 1999.50 2097.87 45.90
9396 37.5218 2121.30 2097.84 48.10
9397 37.5256 2051.40 2097.81 46.70
9398 37.5293 2142.00 2097.78 47.70
9399 37.5331 2017.70 2097.75 45.90
9400 37.5368 2076.30 2097.72 46.90
9401 37.5406 2052.90 2097.70 46.90
9402 37.5444 2075.00 2097.67 47.00
9403 37.5481 2028.60 2097.64 46.50
9404 37.5519 2077.90 2097.61 47.10
9405 37.5556 2048.00 2097.58 46.70
9406 37.5594 2142.40 2097.55 48.10
9407 37.5631 2026.00 2097.53 46.70
9408 37.5669 2088.10 2097.50 48.00
9409 37.5706 2078.10 2097.47 47.20
9410 37.5744 2100.90 2097.44 47.60
9411 37.5782 2000.60 2097.41 46.10
9412 37.5819 2064.70 2097.39 47.40
9413 37.5857 2023.70 2097.36 46.70
9414 37.5894 2047.80 2097.33 47.00
9415 37.5932 2112.00 2097.30 47.20
9416 37.5969 2101.40 2097.27 47.40
9417 37.6007 2031.90 2097.25 47.00
9418 37.6045 2043.20 2097.22 47.00
9419 37.6082 1937.90 2097.19 45.80
9420 37.6119 2035.00 2097.16 46.80
9421 37.6157 2032.90 2097.13 46.60
9422 37.6195 2100.70 2097.11 47.20
9423 37.6232 1994.60 2097.08 47.00
9424 37.6270 2063.70 2097.05 46.80
9425 37.6307 2077.10 2097.02 47.20
9426 37.6345 2053.90 2096.99 46.20
9427 37.6382 2093.10 2096.97 47.00
9428 37.6420 2004.50 2096.94 46.20
9429 37.6458 2012.20 2096.91 46.60
9430 37.6495 2146.20 2096.88 47.70
9431 37.6533 2089.20 2096.86 47.20
9432 37.6570 2089.30 2096.83 47.40
9433 37.6608 2111.50 2096.80 48.00
9434 37.6645 2097.80 2096.77 48.00
9435 37.6683 2043.30 2096.75 47.10
9436 37.6720 2105.70 2096.72 47.50
9437 37.6758 2028.00 2096.69 46.90
9438 37.6796 2114.40 2096.66 47.60
9439 37.6833 1999.30 2096.64 47.00
9440 37.6871 2041.90 2096.61 46.80
9441 37.6908 2047.80 2096.58 46.00
9442 37.6946 2047.00 2096.55 46.90
9443 37.6983 2103.30 2096.53 47.90
9444 37.7021 2110.50 2096.50 48.10
9445 37.7058 2019.70 2096.47 46.70
9446 37.7096 2175.80 2096.45 48.30
9447 37.7134 2102.80 2096.42 47.40
9448 37.7171 2125.60 2096.39 47.40
9449 37.7209 2041.60 2096.36 46.50
9450 37.7246 2126.80 2096.34 48.50
9451 37.7284 2014.10 2096.31 46.30
9452 37.7321 2084.60 2096.28 47.30
9453 37.7359 2031.20 2096.26 46.70
9454 37.7397 2115.80 2096.23 47.80
9455 37.7434 2022.30 2096.20 46.50
9456 37.7472 2049.90 2096.17 46.90
9457 37.7509 2093.20 2096.15 47.70
9458 37.7547 2018.40 2096.12 45.70
9459 37.7584 1990.10 2096.09 46.50
9460 37.7622 2030.10 2096.07 46.50
9461 37.7659 2085.60 2096.04 47.90
9462 37.7697 2134.10 2096.01 48.00
9463 37.7734 2073.30 2095.98 47.30
9464 37.7772 2068.00 2095.96 47.10
9465 37.7810 2039.50 2095.93 47.00
9466 37.7847 2135.60 2095.90 48.00
9467 37.7885 2080.60 2095.88 47.40
9468 37.7922 2122.50 2095.85 48.00
9469 37.7960 2051.40 2095.82 47.50
9470 37.7997 2125.00 2095.80 48.20
9471 37.8035 2125.10 2095.77 48.30
9472 37.8073 2057.80 2095.74 47.10
9473 37.8110 2081.20 2095.71 47.40
9474 37.8148 2117.60 2095.69 47.80
9475 37.8185 2076.50 2095.66 47.10
9476 37.8223 2004.30 2095.63 47.10
9477 37.8260 2043.60 2095.61 47.50
9478 37.8298 2041.00 2095.58 46.80
9479 37.8335 2002.10 2095.55 46.20
9480 37.8373 2039.30 2095.53 46.70
9481 37.8411 1996.30 2095.50 46.70
9482 37.8448 2040.80 2095.47 46.50
9483 37.8486 2074.10 2095.45 47.40
9484 37.8523 2058.60 2095.42 47.50
9485 37.8561 2092.10 2095.39 47.70
9486 37.8598 2196.80 2095.37 49.30
9487 37.8636 2108.30 2095.34 47.90
9488 37.8674 2054.60 2095.31 47.50
9489 37.8711 2044.40 2095.29 47.00
9490 37.8749 2122.20 2095.26 48.00
9491 37.8786 1994.40 2095.23 46.70
9492 37.8824 2181.90 2095.21 48.50
9493 37.8861 1990.10 2095.18 46.00
9494 37.8899 2120.40 2095.15 47.30
9495 37.8937 2012.80 2095.12 46.40
9496 37.8974 2171.00 2095.10 48.50
9497 37.9012 2052.00 2095.07 46.50
9498 37.9049 2157.40 2095.04 48.40
9499 37.9087 2004.50 2095.02 45.80
9500 37.9124 2123.10 2094.99 47.80
9501 37.9162 2075.30 2094.96 47.20
9502 37.9199 2068.60 2094.94 46.90
9503 37.9237 2182.60 2094.91 49.50
9504 37.9275 2140.10 2094.88 48.70
9505 37.9312 2031.30 2094.86 46.60
9506 37.9350 2117.20 2094.83 47.80
9507 37.9387 2112.20 2094.80 47.90
9508 37.9425 2144.90 2094.78 48.30
9509 37.9462 2081.40 2094.75 47.50
9510 37.9500 2049.90 2094.72 47.10
9511 37.9538 1999.50 2094.70 46.00
9512 37.9575 2050.70 2094.67 46.30
9513 37.9613 2066.10 2094.64 47.20
9514 37.9650 2092.60 2094.62 47.90
9515 37.9688 2021.80 2094.59 47.30
9516 37.9725 2124.10 2094.56 48.30
9517 37.9763 2122.30 2094.54 48.50
9518 37.9800 2094.60 2094.51 47.90
9519 37.9838 2012.70 2094.48 46.00
9520 37.9876 2100.40 2094.46 47.30
9521 37.9913 2083.60 2094.43 47.70
9522 37.9951 2072.40 2094.40 47.50
9523 37.9988 1989.60 2094.38 46.30
9524 38.0026 2115.10 2094.35 48.30
9525 38.0064 2142.50 2094.32 48.40
9526 38.0101 2211.60 2094.30 49.50
9527 38.0139 2057.80 2094.27 47.10
9528 38.0176 2029.00 2094.24 46.30
9529 38.0214 2087.20 2094.22 48.00
9530 38.0251 2108.70 2094.19 47.70
9531 38.0289 2075.70 2094.16 48.00
9532 38.0326 2072.60 2094.14 47.70
9533 38.0364 2019.60 2094.11 46.80
9534 38.0402 2127.20 2094.08 48.30
9535 38.0439 2071.30 2094.06 47.30
9536 38.0477 2096.60 2094.03 47.10
9537 38.0514 2043.10 2094.00 47.10
9538 38.0552 2041.00 2093.97 47.10
9539 38.0589 2030.20 2093.95 47.40
9540 38.0627 2053.10 2093.92 46.90
9541 38.0665 2039.90 2093.89 46.80
9542 38.0702 2073.60 2093.87 48.10
9543 38.0740 2152.20 2093.84 48.50
9544 38.0777 2115.60 2093.81 48.00
9545 38.0815 2168.80 2093.79 49.20
9546 38.0853 2143.90 2093.76 48.60
9547 38.0890 2144.00 2093.73 48.30
9548 38.0928 2168.30 2093.71 48.70
9549 38.0965 2085.50 2093.68 47.30
9550 38.1003 2207.50 2093.65 49.60
9551 38.1040 2141.40 2093.62 48.60
9552 38.1078 2094.80 2093.60 48.20
9553 38.1115 2108.70 2093.57 48.10
9554 38.1153 2064.80 2093.54 47.10
9555 38.1191 2081.50 2093.52 47.00
9556 38.1228 2162.20 2093.49 49.30
9557 38.1266 2105.30 2093.46 48.80
9558 38.1303 2165.50 2093.44 48.60
9559 38.1341 2048.90 2093.41 46.70
9560 38.1379 2089.10 2093.38 47.40
9561 38.1416 2070.00 2093.35 47.80
9562 38.1454 2084.80 2093.33 48.00
9563 38.1491 2158.30 2093.30 48.40
9564 38.1529 2109.30 2093.27 47.90
9565 38.1566 1962.20 2093.25 46.50
9566 38.1604 2128.50 2093.22 48.70
9567 38.1642 2111.20 2093.19 49.30
9568 38.1679 2097.30 2093.16 47.90
9569 38.1717 2049.80 2093.14 47.80
9570 38.1754 2136.40 2093.11 48.00
9571 38.1792 2099.80 2093.08 47.90
9572 38.1829 2093.70 2093.05 47.90
9573 38.1867 2185.60 2093.03 49.00
9574 38.1905 2132.60 2093.00 48.50
9575 38.1942 2069.20 2092.97 47.90
9576 38.1980 2134.10 2092.95 48.00
9577 38.2017 2054.60 2092.92 47.60
9578 38.2055 2055.20 2092.89 47.60
9579 38.2092 2103.60 2092.86 48.00
9580 38.2130 2134.50 2092.84 48.40
9581 38.2168 2051.30 2092.81 46.90
9582 38.2205 2073.90 2092.78 47.80
9583 38.2243 2040.90 2092.75 48.20
9584 38.2280 2115.50 2092.73 47.70
9585 38.2318 2050.40 2092.70 47.20
9586 38.2355 2074.30 2092.67 47.60
9587 38.2393 2040.10 2092.64 47.20
9588 38.2431 2109.90 2092.62 48.00
9589 38.2468 2098.70 2092.59 48.30
9590 38.2506 2055.10 2092.56 48.10
9591 38.2543 2051.70 2092.53 47.50
9592 38.2581 2043.70 2092.50 47.20
9593 38.2618 2031.60 2092.48 47.10
9594 38.2656 2092.40 2092.45 48.10
9595 38.2694 2021.70 2092.42 47.20
9596 38.2731 2093.20 2092.39 48.00
9597 38.2769 2123.00 2092.37 48.60
9598 38.2806 2060.40 2092.34 47.50
9599 38.2844 2087.80 2092.31 48.00
9600 38.2882 2177.30 2092.28 49.30
9601 38.2919 2126.70 2092.25 48.80
9602 38.2957 2049.90 2092.23 47.00
9603 38.2994 2086.20 2092.20 47.70
9604 38.3032 2122.90 2092.17 48.60
9605 38.3069 2071.80 2092.14 47.50
9606 38.3107 2104.30 2092.11 48.30
9607 38.3145 2046.20 2092.09 47.50
9608 38.3182 2139.70 2092.06 47.50
9609 38.3220 2012.50 2092.03 47.00
9610 38.3257 2089.60 2092.00 48.50
9611 38.3295 2034.80 2091.97 47.30
9612 38.3332 2128.00 2091.95 47.50
9613 38.3370 2079.40 2091.92 47.90
9614 38.3408 2079.30 2091.89 47.80
9615 38.3445 2138.10 2091.86 49.20
9616 38.3483 2148.80 2091.83 48.40
9617 38.3520 2121.40 2091.80 48.10
9618 38.3558 2134.50 2091.77 48.10
9619 38.3596 2117.30 2091.75 48.40
9620 38.3633 2029.80 2091.72 47.60
9621 38.3671 2186.70 2091.69 48.90
9622 38.3708 2163.90 2091.66 48.80
9623 38.3746 2124.90 2091.63 48.70
9624 38.3783 2117.70 2091.60 48.70
9625 38.3821 2220.90 2091.58 49.60
9626 38.3859 2135.20 2091.55 48.80
9627 38.3896 2064.90 2091.52 48.20
9628 38.3934 2058.70 2091.49 47.60
9629 38.3971 2113.70 2091.46 47.00
9630 38.4009 2177.50 2091.43 49.50
9631 38.4047 2110.40 2091.40 48.30
9632 38.4084 2110.00 2091.37 48.40
9633 38.4122 2155.90 2091.34 48.60
9634 38.4159 2123.60 2091.32 48.20
9635 38.4197 2107.10 2091.29 48.00
9636 38.4235 2126.00 2091.26 48.80
9637 38.4272 2063.50 2091.23 48.00
9638 38.4310 2235.50 2091.20 49.70
9639 38.4347 2073.00 2091.17 47.70
9640 38.4385 2157.20 2091.14 48.80
9641 38.4422 2184.90 2091.11 49.00
9642 38.4460 2221.30 2091.08 49.80
9643 38.4498 2163.10 2091.05 49.10
9644 38.4535 2211.30 2091.02 49.80
9645 38.4573 2052.70 2091.00 47.80
9646 38.4610 2173.40 2090.97 49.30
9647 38.4648 2057.40 2090.94 47.50
9648 38.4686 2175.50 2090.91 49.50
9649 38.4723 2089.40 2090.88 48.00
9650 38.4761 2129.30 2090.85 48.60
9651 38.4798 2091.00 2090.82 48.20
9652 38.4836 2171.90 2090.79 48.00
9653 38.4873 2145.10 2090.76 48.30
9654 38.4911 2185.40 2090.73 49.20
9655 38.4949 2161.50 2090.70 48.80
9656 38.4986 2210.50 2090.67 49.70
9657 38.5024 2316.20 2090.64 51.40
9658 38.5061 2228.60 2090.61 49.70
9659 38.5099 2221.00 2090.58 49.50
9660 38.5136 2189.50 2090.55 49.30
9661 38.5174 2170.60 2090.52 49.20
9662 38.5212 2246.70 2090.49 49.70
9663 38.5249 2196.20 2090.46 50.00
9664 38.5287 2161.40 2090.43 48.90
9665 38.5324 2203.80 2090.40 49.60
9666 38.5362 2200.90 2090.37 49.50
9667 38.5400 2245.70 2090.34 50.10
9668 38.5437 2260.00 2090.31 50.10
9669 38.5475 2210.80 2090.28 49.90
9670 38.5512 2236.90 2090.25 49.80
9671 38.5550 2234.70 2090.22 49.90
9672 38.5588 2348.00 2090.19 51.20
9673 38.5625 2253.80 2090.16 50.30
9674 38.5663 2229.70 2090.13 49.50
9675 38.5700 2308.50 2090.10 50.30
9676 38.5738 2373.30 2090.07 51.80
9677 38.5775 2176.00 2090.03 49.00
9678 38.5813 2409.20 2090.00 51.90
9679 38.5851 2284.90 2089.97 49.80
9680 38.5888 2345.10 2089.94 50.50
9681 38.5926 2319.00 2089.91 50.60
9682 38.5963 2341.60 2089.88 50.80
9683 38.6001 2310.30 2089.85 50.90
9684 38.6039 2386.40 2089.82 51.40
9685 38.6076 2357.90 2089.79 51.60
9686 38.6114 2381.50 2089.76 51.90
9687 38.6151 2401.00 2089.73 50.80
9688 38.6189 2418.90 2089.69 51.70
9689 38.6227 2444.00 2089.66 52.90
9690 38.6264 2349.00 2089.63 51.00
9691 38.6302 2398.90 2089.60 51.40
9692 38.6339 2564.10 2089.57 52.90
9693 38.6377 2517.10 2089.54 52.50
9694 38.6414 2511.40 2089.51 52.90
9695 38.6452 2641.90 2089.47 54.50
9696 38.6490 2566.80 2089.44 53.60
9697 38.6527 2604.90 2421.95 54.00
9698 38.6565 2487.40 2438.51 52.60
9699 38.6602 2521.40 2456.35 52.90
9700 38.6640 2684.60 2475.55 54.20
9701 38.6678 2661.40 2496.42 54.00
9702 38.6715 2685.10 2518.90 54.50
9703 38.6753 2745.50 2543.36 54.90
9704 38.6790 2695.50 2570.00 54.60
9705 38.6828 2705.00 2599.00 54.20
9706 38.6866 2861.80 2630.74 55.80
9707 38.6903 2851.80 2665.56 55.90
9708 38.6941 2954.40 2703.78 56.80
9709 38.6978 2951.90 2745.97 56.70
9710 38.7016 3150.30 2792.51 59.20
9711 38.7053 3107.70 2844.37 58.20
9712 38.7091 3092.20 2902.05 58.10
9713 38.7129 3174.50 2966.65 59.50
9714 38.7166 3301.00 3039.31 60.10
9715 38.7204 3423.80 3121.18 61.00
9716 38.7241 3517.60 3214.15 63.90
9717 38.7279 3652.30 3320.32 64.70
9718 38.7317 3792.90 3441.93 65.20
9719 38.7354 4029.40 3582.50 65.70
9720 38.7392 4218.10 3745.54 69.00
9721 38.7429 4377.00 3937.33 70.10
9722 38.7467 4645.70 4163.70 72.60
9723 38.7505 4900.00 4434.17 75.60
9724 38.7542 5164.40 4760.83 76.80
9725 38.7580 5447.30 5159.01 79.20
9726 38.7617 6027.50 5652.26 84.40
9727 38.7655 6430.40 6272.91 86.90
9728 38.7692 7411.40 7066.04 94.30
9729 38.7730 8155.50 8106.79 97.90
9730 38.7768 9605.40 9518.37 107.90
9731 38.7805 11201.00 11570.20 116.40
9732 38.7843 14209.30 14820.40 133.10
9733 38.7880 18379.00 20441.40 152.10
9734 38.7918 28151.50 30418.90 199.20
9735 38.7956 43778.60 47148.70 253.30
9736 38.7993 72325.20 72092.30 345.10
9737 38.8031 99845.50 102459.00 418.40
9738 38.8068 119440.00 125306.00 472.70
9739 38.8106 120674.00 121975.00 478.50
9740 38.8144 110324.00 95784.50 447.50
9741 38.8181 80759.50 65899.80 365.80
9742 38.8219 50318.80 42803.30 277.10
9743 38.8256 29950.10 27733.70 208.20
9744 38.8294 20325.70 18917.20 164.10
9745 38.8331 15339.80 13959.90 139.40
9746 38.8369 12356.00 11044.20 122.50
9747 38.8407 10169.60 9165.75 111.00
9748 38.8444 8946.40 7849.90 103.30
9749 38.8482 7902.60 6872.10 96.90
9750 38.8520 7174.70 6121.21 91.40
9751 38.8557 6566.60 5533.14 87.30
9752 38.8595 6031.30 5063.13 81.90
9753 38.8632 5653.60 4683.12 81.10
9754 38.8670 5249.60 4369.34 78.60
9755 38.8707 4909.50 4110.06 75.10
9756 38.8745 4704.30 3891.73 72.50
9757 38.8783 4382.80 3706.56 70.90
9758 38.8820 4194.40 3548.59 69.00
9759 38.8858 3960.20 3412.42 66.60
9760 38.8895 3919.10 3294.24 66.40
9761 38.8933 3732.80 3191.30 64.20
9762 38.8971 3620.20 3100.85 63.40
9763 38.9008 3393.80 3020.96 62.00
9764 38.9046 3389.10 2950.24 62.00
9765 38.9083 3185.70 2887.17 59.80
9766 38.9121 3089.90 2830.89 57.50
9767 38.9159 3054.00 2780.06 57.00
9768 38.9196 3052.20 2734.49 57.50
9769 38.9234 2988.80 2693.14 57.70
9770 38.9271 2817.70 2655.58 56.40
9771 38.9309 2674.60 2621.46 54.80
9772 38.9347 2930.30 2590.28 56.50
9773 38.9384 2705.70 2561.71 54.70
9774 38.9422 2695.70 2535.54 54.00
9775 38.9459 2685.90 2511.45 54.70
9776 38.9497 2600.60 2489.22 54.00
9777 38.9534 2574.00 2468.72 53.20
9778 38.9572 2584.40 2449.72 53.00
9779 38.9610 2465.50 2432.08 52.00
9780 38.9647 2613.70 2415.72 53.80
9781 38.9685 2504.40 2086.54 52.50
9782 38.9722 2475.40 2086.51 51.90
9783 38.9760 2472.60 2086.47 52.20
9784 38.9798 2477.30 2086.43 52.40
9785 38.9835 2347.00 2086.39 50.50
9786 38.9873 2518.70 2086.36 52.80
9787 38.9910 2428.80 2086.32 51.30
9788 38.9948 2420.80 2086.28 51.30
9789 38.9986 2283.30 2086.24 49.80
9790 39.0023 2409.80 2086.21 51.10
9791 39.0061 2317.80 2086.17 50.80
9792 39.0098 2339.40 2086.13 51.00
9793 39.0136 2263.70 2086.09 49.40
9794 39.0174 2347.30 2086.06 49.90
9795 39.0211 2296.30 2086.02 49.40
9796 39.0249 2336.80 2085.98 50.80
9797 39.0286 2318.10 2085.94 50.70
9798 39.0324 2299.40 2085.90 50.20
9799 39.0362 2272.90 2085.87 49.60
9800 39.0399 2326.50 2085.83 50.60
9801 39.0437 2175.00 2085.79 48.90
9802 39.0474 2258.80 2085.75 50.20
9803 39.0512 2217.10 2085.71 49.50
9804 39.0550 2233.30 2085.67 49.20
9805 39.0587 2169.30 2085.64 49.30
9806 39.0625 2289.70 2085.60 51.10
9807 39.0662 2164.40 2085.56 48.50
9808 39.0700 2214.50 2085.52 48.60
9809 39.0737 2194.00 2085.48 48.60
9810 39.0775 2239.70 2085.44 50.20
9811 39.0813 2231.20 2085.40 50.20
9812 39.0850 2270.70 2085.36 49.50
9813 39.0888 2206.10 2085.32 49.30
9814 39.0925 2202.50 2085.28 49.50
9815 39.0963 2126.80 2085.24 47.60
9816 39.1001 2175.70 2085.21 48.60
9817 39.1038 2223.40 2085.17 50.10
9818 39.1076 2159.80 2085.13 48.80
9819 39.1114 2133.80 2085.09 48.70
9820 39.1151 2169.30 2085.05 49.00
9821 39.1189 2125.80 2085.01 48.00
9822 39.1226 2135.50 2084.97 48.50
9823 39.1264 2073.10 2084.93 48.00
9824 39.1301 2190.60 2084.89 49.50
9825 39.1339 2119.90 2084.85 48.00
9826 39.1377 2155.20 2084.81 48.90
9827 39.1414 2112.30 2084.77 48.30
9828 39.1452 2143.00 2084.72 48.70
9829 39.1489 2068.50 2084.68 47.10
9830 39.1527 2109.30 2084.64 48.50
9831 39.1565 2024.70 2084.60 47.30
9832 39.1602 2153.40 2084.56 48.70
9833 39.1640 2073.20 2084.52 48.00
9834 39.1677 2145.70 2084.48 48.70
9835 39.1715 2063.70 2084.44 47.70
9836 39.1753 2098.90 2084.40 48.40
9837 39.1790 2121.70 2084.36 48.90
9838 39.1828 2180.30 2084.31 49.20
9839 39.1865 2166.80 2084.27 49.30
9840 39.1903 2231.70 2084.23 49.50
9841 39.1941 2084.30 2084.19 47.90
9842 39.1978 2125.50 2084.15 48.30
9843 39.2016 2053.00 2084.11 47.80
9844 39.2053 2171.40 2084.06 48.60
9845 39.2091 2079.50 2084.02 48.20
9846 39.2129 2136.60 2083.98 48.60
9847 39.2166 2069.40 2083.94 47.60
9848 39.2204 2125.10 2083.90 47.60
9849 39.2241 2046.30 2083.85 49.00
9850 39.2279 2131.00 2083.81 49.10
9851 39.2317 2059.80 2083.77 47.30
9852 39.2354 2153.90 2083.73 48.40
9853 39.2392 2016.10 2083.68 47.30
9854 39.2429 2158.00 2083.64 49.40
9855 39.2467 2059.10 2083.60 47.50
9856 39.2505 2145.00 2083.56 48.70
9857 39.2542 2052.90 2083.51 48.00
9858 39.2580 2095.20 2083.47 48.50
9859 39.2617 2158.80 2083.43 49.30
9860 39.2655 2064.70 2083.38 47.60
9861 39.2692 2071.00 2083.34 47.70
9862 39.2730 2157.20 2083.30 48.80
9863 39.2768 1996.30 2083.25 47.60
9864 39.2805 2050.00 2083.21 47.60
9865 39.2843 2087.40 2083.17 48.40
9866 39.2881 2117.20 2083.12 48.30
9867 39.2918 2085.60 2083.08 48.20
9868 39.2956 2196.00 2083.03 49.30
9869 39.2993 2008.40 2082.99 46.60
9870 39.3031 2089.30 2082.95 48.00
9871 39.3069 2104.00 2082.90 48.10
9872 39.3106 2119.20 2082.86 47.90
9873 39.3144 2035.70 2082.81 47.00
9874 39.3181 2083.80 2082.77 47.80
9875 39.3219 2074.30 2082.72 47.50
9876 39.3256 2054.30 2082.68 48.40
9877 39.3294 2074.80 2082.63 47.00
9878 39.3332 2080.70 2082.59 47.60
9879 39.3369 2036.20 2082.54 47.30
9880 39.3407 2153.90 2082.50 49.20
9881 39.3445 2011.70 2082.45 46.50
9882 39.3482 2124.80 2082.41 48.60
9883 39.3520 2087.80 2082.36 47.80
9884 39.3557 2099.10 2082.32 48.10
9885 39.3595 2015.50 2082.27 47.60
9886 39.3633 2114.80 2082.23 48.30
9887 39.3670 1997.70 2082.18 46.10
9888 39.3708 2164.90 2082.13 48.40
9889 39.3745 1995.70 2082.09 46.70
9890 39.3783 2097.60 2082.04 48.00
9891 39.3820 1995.80 2082.00 46.70
9892 39.3858 2134.60 2081.95 48.30
9893 39.3896 2146.00 2081.90 49.10
9894 39.3933 2130.10 2081.86 48.50
9895 39.3971 2091.90 2081.81 48.00
9896 39.4008 2150.00 2081.76 48.80
9897 39.4046 2076.60 2081.72 48.10
9898 39.4084 2119.20 2081.67 48.30
9899 39.4121 2053.00 2081.62 47.40
9900 39.4159 2021.10 2081.58 46.70
9901 39.4196 2006.30 2081.53 46.10
9902 39.4234 2039.40 2081.48 47.90
9903 39.4272 2100.50 2081.44 48.20
9904 39.4309 2151.10 2081.39 48.60
9905 39.4347 2064.80 2081.34 47.40
9906 39.4384 2055.00 2081.29 47.90
9907 39.4422 2047.40 2081.24 46.70
9908 39.4460 2135.20 2081.20 48.40
9909 39.4497 2019.40 2081.15 47.10
9910 39.4535 2082.60 2081.10 47.20
9911 39.4572 2013.30 2081.05 46.50
9912 39.4610 2029.60 2081.00 46.90
9913 39.4648 2112.00 2080.96 48.40
9914 39.4685 2081.30 2080.91 47.60
9915 39.4723 2018.00 2080.86 46.80
9916 39.4760 2069.70 2080.81 47.40
9917 39.4798 2072.30 2080.76 47.80
9918 39.4836 2053.10 2080.71 47.20
9919 39.4873 2023.60 2080.66 46.60
9920 39.4911 2041.00 2080.62 46.70
9921 39.4948 2063.50 2080.57 48.10
9922 39.4986 1928.40 2080.52 46.10
9923 39.5024 2033.80 2080.47 46.80
9924 39.5061 2066.00 2080.42 47.80
9925 39.5099 2110.20 2080.37 48.50
9926 39.5136 2001.30 2080.32 45.70
9927 39.5174 2060.40 2080.27 47.50
9928 39.5212 2087.30 2080.22 47.30
9929 39.5249 2016.00 2080.17 47.50
9930 39.5287 2101.70 2080.12 48.30
9931 39.5324 2047.90 2080.07 48.10
9932 39.5362 1981.60 2080.02 45.80
9933 39.5400 2037.10 2079.97 46.90
9934 39.5437 2035.90 2079.92 46.70
9935 39.5475 2115.10 2079.87 48.50
9936 39.5512 2083.10 2079.82 47.50
9937 39.5550 1969.80 2079.77 45.60
9938 39.5588 2091.70 2079.72 47.40
9939 39.5625 2012.20 2079.66 46.30
9940 39.5663 2018.00 2079.61 46.90
9941 39.5700 2131.50 2079.56 48.50
9942 39.5738 2025.20 2079.51 47.40
9943 39.5776 1947.60 2079.46 46.10
9944 39.5813 2137.10 2079.41 48.30
9945 39.5851 2036.00 2079.36 47.30
9946 39.5888 2040.70 2079.30 46.60
9947 39.5926 1967.10 2079.25 46.20
9948 39.5964 2005.80 2079.20 47.00
9949 39.6001 1998.50 2079.15 47.00
9950 39.6039 2081.10 2079.10 47.00
9951 39.6076 1990.80 2079.04 47.10
9952 39.6114 2076.20 2078.99 47.60
9953 39.6152 2056.20 2078.94 47.10
9954 39.6189 2065.00 2078.89 46.80
9955 39.6227 1984.50 2078.83 45.90
9956 39.6264 2088.40 2078.78 48.00
9957 39.6302 2050.60 2078.73 47.10
9958 39.6339 2107.40 2078.67 47.40
9959 39.6377 1955.50 2078.62 45.20
9960 39.6415 2156.40 2078.57 47.80
9961 39.6452 2045.30 2078.51 46.90
9962 39.6490 2051.50 2078.46 46.90
9963 39.6528 2018.90 2078.41 46.70
9964 39.6565 2083.00 2078.35 46.80
9965 39.6603 1970.00 2078.30 46.10
9966 39.6640 2077.40 2078.25 46.10
9967 39.6678 1915.60 2078.19 45.20
9968 39.6716 2133.10 2078.14 48.10
9969 39.6753 2040.40 2078.08 46.20
9970 39.6791 2108.90 2078.03 47.80
9971 39.6828 1940.60 2077.98 45.20
9972 39.6866 2064.50 2077.92 47.10
9973 39.6903 2142.80 2077.87 48.10
9974 39.6941 2093.50 2077.81 47.70
9975 39.6979 2066.60 2077.76 47.10
9976 39.7016 2010.60 2077.70 46.40
9977 39.7054 1999.40 2077.65 46.00
9978 39.7091 2104.90 2077.59 47.70
9979 39.7129 2093.40 2077.54 48.10
9980 39.7167 2061.80 2077.48 46.80
9981 39.7204 1932.20 2077.42 45.20
9982 39.7242 2084.70 2077.37 48.20
9983 39.7280 2071.20 2077.31 47.90
9984 39.7317 2090.60 2077.26 47.60
9985 39.7355 1972.80 2077.20 46.00
9986 39.7392 2030.80 2077.14 46.40
9987 39.7430 1958.80 2077.09 45.80
9988 39.7467 2053.20 2077.03 47.30
9989 39.7505 1931.60 2076.98 45.50
9990 39.7543 2101.20 2076.92 47.60
9991 39.7580 2105.30 2076.86 47.90
9992 39.7618 2130.90 2076.80 48.20
9993 39.7655 2013.00 2076.75 47.30
9994 39.7693 2056.90 2076.69 47.50
9995 39.7731 1981.20 2076.63 46.40
9996 39.7768 2043.00 2076.58 46.80
9997 39.7806 2046.80 2076.52 47.10
9998 39.7844 2104.30 2076.46 48.20
9999 39.7881 2011.40 2076.40 46.70
10000 39.7919 2085.90 2076.35 47.10
10001 39.7956 2047.50 2076.29 47.20
10002 39.7994 2146.10 2076.23 48.10
10003 39.8032 2049.10 2076.17 46.40
10004 39.8069 2038.30 2076.11 46.80
10005 39.8107 1976.90 2076.06 46.30
10006 39.8144 2062.90 2076.00 46.60
10007 39.8182 2058.50 2075.94 47.40
10008 39.8219 2052.00 2075.88 46.60
10009 39.8257 1992.30 2075.82 47.30
10010 39.8295 2150.90 2075.76 48.50
10011 39.8332 2016.60 2075.70 45.90
10012 39.8370 2041.20 2075.64 46.90
10013 39.8408 2069.00 2075.58 47.40
10014 39.8445 2053.40 2075.52 46.60
10015 39.8483 2072.30 2075.46 47.20
10016 39.8520 2075.50 2075.41 46.80
10017 39.8558 1993.70 2075.35 46.50
10018 39.8596 2062.40 2075.29 47.30
10019 39.8633 2067.30 2075.23 47.10
10020 39.8671 2035.40 2075.17 46.90
10021 39.8708 2015.30 2075.11 46.70
10022 39.8746 1964.10 2075.04 45.40
10023 39.8783 1971.50 2074.98 46.40
10024 39.8821 2089.00 2074.92 46.60
10025 39.8859 1957.40 2074.86 46.40
10026 39.8896 2098.00 2074.80 47.90
10027 39.8934 2008.20 2074.74 45.60
10028 39.8971 2009.60 2074.68 46.60
10029 39.9009 2040.10 2074.62 47.00
10030 39.9047 2154.00 2074.56 48.90
10031 39.9084 1988.20 2074.50 45.80
10032 39.9122 2105.40 2074.43 47.30
10033 39.9159 2021.60 2074.37 47.10
10034 39.9197 2043.20 2074.31 46.70
10035 39.9235 2065.00 2074.25 47.30
10036 39.9272 2090.20 2074.19 48.20
10037 39.9310 1926.80 2074.12 46.10
10038 39.9347 2133.50 2074.06 47.60
10039 39.9385 2013.00 2074.00 47.10
10040 39.9423 2197.00 2073.94 48.90
10041 39.9460 2045.60 2073.87 47.00
10042 39.9498 2062.30 2073.81 47.70
10043 39.9535 2093.10 2073.75 48.30
10044 39.9573 2079.80 2073.69 47.60
10045 39.9611 1988.50 2073.62 46.20
10046 39.9648 2126.80 2073.56 47.60
10047 39.9686 1980.30 2073.50 46.50
10048 39.9723 2060.90 2073.43 47.20
10049 39.9761 2051.00 2073.37 47.30
10050 39.9799 2049.30 2073.30 47.00
10051 39.9836 2057.20 2073.24 46.20
10052 39.9874 2028.90 2073.18 46.50
10053 39.9911 1947.00 2073.11 45.70
10054 39.9949 2009.50 2073.05 45.80
10055 39.9987 2071.60 2072.98 47.00
10056 40.0024 2032.90 2072.92 46.60
10057 40.0062 1982.20 2072.85 46.40
10058 40.0099 2018.70 2072.79 46.80
10059 40.0137 1932.80 2072.72 45.60
10060 40.0174 2097.30 2072.66 47.60
10061 40.0212 2035.80 2072.59 46.30
10062 40.0250 2019.20 2072.53 47.10
10063 40.0287 2068.60 2072.46 47.00
10064 40.0325 2020.40 2072.40 46.10
10065 40.0363 1987.90 2072.33 46.50
10066 40.0400 2054.50 2072.27 46.80
10067 40.0438 2045.30 2072.20 47.20
10068 40.0475 2027.00 2072.13 46.60
10069 40.0513 2008.80 2072.07 46.70
10070 40.0550 2029.80 2072.00 46.50
10071 40.0588 2066.80 2071.94 46.70
10072 40.0626 2131.80 2071.87 48.30
10073 40.0663 2047.80 2071.80 47.00
10074 40.0701 2003.80 2071.74 46.60
10075 40.0738 2059.70 2071.67 47.50
10076 40.0776 2130.50 2071.60 47.80
10077 40.0814 2034.80 2071.53 46.80
10078 40.0851 2069.80 2071.47 47.10
10079 40.0889 2073.10 2071.40 48.10
10080 40.0927 1958.30 2071.33 45.90
10081 40.0964 1985.80 2071.26 45.90
10082 40.1002 2086.80 2071.20 46.70
10083 40.1039 1997.30 2071.13 46.00
10084 40.1077 2100.20 2071.06 47.20
10085 40.1115 2058.50 2070.99 46.80
10086 40.1152 2072.70 2070.92 46.60
10087 40.1190 1952.80 2070.85 45.10
10088 40.1227 2002.70 2070.79 46.10
10089 40.1265 1980.60 2070.72 46.40
10090 40.1302 2067.60 2070.65 46.70
10091 40.1340 2050.10 2070.58 46.10
10092 40.1378 2047.30 2070.51 46.50
10093 40.1415 2037.60 2070.44 46.50
10094 40.1453 2064.10 2070.37 46.80
10095 40.1490 2024.40 2070.30 46.60
10096 40.1528 2093.80 2070.23 46.90
10097 40.1566 2047.80 2070.16 46.60
10098 40.1603 2071.30 2070.09 47.10
10099 40.1641 1991.20 2070.02 46.10
10100 40.1678 1997.70 2069.95 46.20
10101 40.1716 2066.50 2069.88 46.90
10102 40.1754 2057.80 2069.81 46.60
10103 40.1791 2021.60 2069.74 46.40
10104 40.1829 2051.80 2069.67 46.70
10105 40.1866 1982.60 2069.60 46.00
10106 40.1904 2048.00 2069.53 46.80
10107 40.1941 2009.00 2069.46 45.30
10108 40.1979 2009.00 2069.39 46.30
10109 40.2017 2149.50 2069.31 48.10
10110 40.2054 2038.60 2069.24 47.10
10111 40.2092 2041.20 2069.17 46.00
10112 40.2130 2092.70 2069.10 46.90
10113 40.2167 1974.30 2069.03 45.30
10114 40.2205 2053.80 2068.95 46.60
10115 40.2242 2014.20 2068.88 46.20
10116 40.2280 2120.80 2068.81 48.10
10117 40.2318 2017.20 2068.74 45.80
10118 40.2355 2037.60 2068.67 46.40
10119 40.2393 1970.10 2068.59 45.60
10120 40.2430 2027.60 2068.52 46.00
10121 40.2468 1928.50 2068.45 45.30
10122 40.2505 2046.20 2068.37 46.60
10123 40.2543 2052.20 2068.30 46.80
10124 40.2581 2061.20 2068.23 47.10
10125 40.2618 2046.30 2068.15 46.80
10126 40.2656 2075.50 2068.08 46.40
10127 40.2693 2126.50 2068.01 47.60
10128 40.2731 1992.30 2067.93 46.20
10129 40.2769 2032.90 2067.86 47.00
10130 40.2806 2014.20 2067.78 46.20
10131 40.2844 2036.90 2067.71 47.00
10132 40.2881 2016.00 2067.63 46.30
10133 40.2919 1982.00 2067.56 45.90
10134 40.2957 1975.00 2067.49 45.90
10135 40.2994 2041.10 2067.41 46.70
10136 40.3032 2004.00 2067.34 46.50
10137 40.3069 1986.80 2067.26 46.60
10138 40.3107 2134.70 2067.18 48.30
10139 40.3144 2001.40 2067.11 46.50
10140 40.3182 1987.00 2067.03 45.50
10141 40.3220 2014.20 2066.96 45.90
10142 40.3257 2061.90 2066.88 47.10
10143 40.3295 2080.50 2066.81 47.20
10144 40.3332 2027.20 2066.73 46.50
10145 40.3370 2019.90 2066.65 46.60
10146 40.3408 2084.30 2066.58 47.40
10147 40.3445 1950.30 2066.50 45.50
10148 40.3483 2071.00 2066.42 47.10
10149 40.3521 1921.00 2066.35 45.50
10150 40.3558 1920.20 2066.27 45.40
10151 40.3596 1923.20 2066.19 45.60
10152 40.3633 2070.00 2066.12 47.20
10153 40.3671 1929.90 2066.04 45.10
10154 40.3708 1979.40 2065.96 46.40
10155 40.3746 1948.60 2065.88 45.90
10156 40.3784 2125.40 2065.81 48.10
10157 40.3821 2026.80 2065.73 45.80
10158 40.3859 2094.00 2065.65 47.40
10159 40.3896 1990.10 2065.57 46.50
10160 40.3934 2030.30 2065.49 46.20
10161 40.3972 1934.50 2065.42 45.20
10162 40.4009 2043.90 2065.34 46.80
10163 40.4047 2057.80 2065.26 46.40
10164 40.4084 2044.20 2065.18 47.00
10165 40.4122 1969.70 2065.10 45.50
10166 40.4160 1976.70 2065.02 46.00
10167 40.4197 1900.20 2064.94 44.70
10168 40.4235 2028.80 2064.86 45.80
10169 40.4272 2003.80 2064.78 46.80
10170 40.4310 2052.00 2064.70 46.30
10171 40.4347 1967.20 2064.62 45.70
10172 40.4385 2054.00 2064.54 47.10
10173 40.4423 2014.30 2064.46 46.00
10174 40.4460 2013.70 2064.38 46.00
10175 40.4498 1996.10 2064.30 45.40
10176 40.4535 2016.20 2064.22 46.60
10177 40.4573 2044.30 2064.14 46.90
10178 40.4611 2045.80 2064.06 47.00
10179 40.4648 2025.30 2063.98 46.60
10180 40.4686 2074.80 2063.90 46.60
10181 40.4723 2032.20 2063.82 46.90
10182 40.4761 2047.50 2063.74 47.50
10183 40.4799 2064.80 2063.65 47.10
10184 40.4836 2014.70 2063.57 45.90
10185 40.4874 1919.80 2063.49 45.80
10186 40.4911 2120.10 2063.41 47.30
10187 40.4949 1952.10 2063.33 46.10
10188 40.4986 2059.10 2063.24 46.30
10189 40.5024 1992.40 2063.16 45.40
10190 40.5062 2084.70 2063.08 46.60
10191 40.5099 2028.70 2063.00 46.60
10192 40.5137 2023.90 2062.91 46.60
10193 40.5174 1938.00 2062.83 45.30
10194 40.5212 2066.40 2062.75 46.90
10195 40.5250 2011.20 2062.66 47.00
10196 40.5287 2129.20 2062.58 48.50
10197 40.5325 2002.20 2062.50 46.30
10198 40.5362 1970.50 2062.41 45.40
10199 40.5400 2061.00 2062.33 47.00
10200 40.5438 2044.60 2062.25 46.80
10201 40.5475 1921.90 2062.16 45.60
10202 40.5513 2095.20 2062.08 47.00
10203 40.5550 1999.30 2061.99 46.20
10204 40.5588 2049.90 2061.91 46.90
10205 40.5625 1986.80 2061.82 46.10
10206 40.5663 2028.90 2061.74 46.50
10207 40.5701 1981.60 2061.65 46.50
10208 40.5738 2030.20 2061.57 46.50
10209 40.5776 2050.70 2061.48 46.60
10210 40.5813 2100.40 2061.40 47.10
10211 40.5851 1966.00 2061.31 45.20
10212 40.5889 2105.00 2061.23 46.80
10213 40.5926 2009.90 2061.14 45.80
10214 40.5964 2057.70 2061.06 46.30
10215 40.6001 2079.50 2060.97 47.00
10216 40.6039 2043.10 2060.88 46.60
10217 40.6077 2052.60 2060.80 46.90
10218 40.6114 2002.60 2060.71 45.90
10219 40.6152 1910.90 2060.62 44.80
10220 40.6189 2042.80 2060.54 46.70
10221 40.6227 2074.90 2087.88 46.60
10222 40.6264 2121.60 2089.11 48.40
10223 40.6302 2002.50 2090.43 45.90
10224 40.6340 2166.60 2091.86 48.20
10225 40.6377 2033.00 2093.41 46.20
10226 40.6415 2101.40 2095.09 47.20
10227 40.6452 2042.50 2096.91 46.70
10228 40.6490 2048.10 2098.89 46.40
10229 40.6528 1951.50 2101.05 45.70
10230 40.6565 2115.40 2103.41 47.90
10231 40.6603 2025.30 2105.99 46.20
10232 40.6640 2044.90 2108.83 46.60
10233 40.6678 2062.40 2111.94 47.00
10234 40.6716 2035.70 2115.38 46.50
10235 40.6753 2033.80 2119.18 46.30
10236 40.6791 2128.10 2123.41 46.70
10237 40.6828 2072.70 2128.11 46.90
10238 40.6866 2131.20 2133.37 47.80
10239 40.6903 2121.10 2139.28 47.70
10240 40.6941 2193.40 2145.93 47.90
10241 40.6979 2175.70 2153.45 47.70
10242 40.7016 2112.10 2162.02 47.10
10243 40.7054 2127.10 2171.83 47.90
10244 40.7091 2180.50 2183.13 48.30
10245 40.7129 2126.50 2196.21 47.80
10246 40.7167 2208.00 2211.49 48.40
10247 40.7204 2239.70 2229.46 48.60
10248 40.7242 2153.80 2250.74 47.60
10249 40.7279 2182.10 2276.27 49.00
10250 40.7317 2277.40 2307.23 49.50
10251 40.7355 2297.60 2345.24 49.60
10252 40.7392 2317.40 2392.44 49.80
10253 40.7430 2358.20 2452.17 50.00
10254 40.7467 2515.70 2528.97 52.20
10255 40.7505 2507.40 2631.29 51.30
10256 40.7542 2696.30 2773.68 53.50
10257 40.7580 2766.50 2987.71 54.80
10258 40.7618 3136.30 3341.81 58.20
10259 40.7655 3634.20 3960.41 63.30
10260 40.7693 4661.90 5037.51 72.50
10261 40.7730 6212.50 6747.68 84.50
10262 40.7768 8702.60 9120.33 101.90
10263 40.7806 10816.80 11655.10 114.20
10264 40.7843 12085.20 12956.60 122.60
10265 40.7881 11806.60 11869.00 118.40
10266 40.7918 10528.00 9386.85 112.60
10267 40.7956 7721.00 6963.60 95.40
10268 40.7993 5385.70 5178.95 78.70
10269 40.8031 4081.00 4044.90 67.70
10270 40.8069 3330.60 3387.83 60.60
10271 40.8106 3062.00 3014.35 58.30
10272 40.8144 2893.70 2790.25 55.60
10273 40.8181 2725.80 2642.04 54.40
10274 40.8219 2549.10 2536.37 52.20
10275 40.8256 2452.00 2457.10 51.50
10276 40.8294 2547.90 2395.63 53.20
10277 40.8332 2395.50 2347.23 50.30
10278 40.8369 2358.80 2308.23 50.60
10279 40.8407 2262.70 2276.47 49.40
10280 40.8444 2288.30 2250.21 49.40
10281 40.8482 2254.40 2228.32 49.20
10282 40.8520 2241.00 2209.87 49.20
10283 40.8557 2183.80 2194.20 48.70
10284 40.8595 2168.50 2180.70 48.80
10285 40.8632 2147.10 2169.05 47.70
10286 40.8670 2221.50 2158.92 49.00
10287 40.8708 2051.80 2150.03 47.10
10288 40.8745 2192.50 2142.23 47.70
10289 40.8783 2090.70 2135.30 47.50
10290 40.8820 2092.00 2129.14 47.70
10291 40.8858 2079.80 2123.63 47.10
10292 40.8895 2048.50 2118.69 46.90
10293 40.8933 1999.60 2114.23 45.70
10294 40.8970 2101.00 2110.20 47.60
10295 40.9008 2081.20 2106.53 47.40
10296 40.9046 2052.30 2103.20 47.80
10297 40.9083 2055.70 2100.15 47.10
10298 40.9121 2067.30 2097.36 47.60
10299 40.9158 2081.10 2094.79 47.50
10300 40.9196 2066.40 2092.42 47.00
10301 40.9234 1998.00 2090.24 45.80
10302 40.9271 2105.90 2088.21 48.50
10303 40.9309 1994.00 2086.34 46.70
10304 40.9346 2103.50 2084.59 47.50
10305 40.9384 1907.70 2082.96 44.60
10306 40.9422 2025.30 2081.43 46.70
10307 40.9459 1990.60 2080.01 46.50
10308 40.9497 2010.30 2052.32 46.90
10309 40.9534 1997.70 2052.22 46.70
10310 40.9572 2092.90 2052.12 47.70
10311 40.9609 2142.70 2052.02 48.20
10312 40.9647 2074.10 2051.92 47.30
10313 40.9684 1969.90 2051.82 46.10
10314 40.9722 2044.40 2051.72 47.20
10315 40.9760 2021.50 2051.62 46.50
10316 40.9797 2003.10 2051.52 46.50
10317 40.9835 2018.40 2051.42 46.80
10318 40.9872 2051.00 2051.32 47.50
10319 40.9910 2029.10 2051.22 47.00
10320 40.9948 2057.80 2051.12 47.40
10321 40.9985 1987.00 2051.01 46.30
10322 41.0023 2068.00 2050.91 46.70
10323 41.0060 1984.30 2050.81 45.90
10324 41.0098 2048.20 2050.71 46.80
10325 41.0135 2057.50 2050.61 47.40
10326 41.0173 2012.80 2050.50 46.80
10327 41.0211 1991.90 2050.40 46.10
10328 41.0248 1964.70 2050.30 45.50
10329 41.0286 1957.00 2050.19 46.80
10330 41.0323 2035.50 2050.09 46.80
10331 41.0361 2013.00 2049.99 46.30
10332 41.0398 2033.80 2049.88 46.60
10333 41.0436 1899.50 2049.78 45.10
10334 41.0474 2124.70 2049.68 47.90
10335 41.0511 2004.90 2049.57 46.70
10336 41.0549 2112.00 2049.47 47.90
10337 41.0586 2022.00 2049.37 46.80
10338 41.0624 2104.40 2049.26 47.20
10339 41.0662 1988.60 2049.16 46.20
10340 41.0699 2031.60 2049.05 46.10
10341 41.0737 2080.30 2048.95 47.10
10342 41.0774 1967.40 2048.84 45.90
10343 41.0812 1986.20 2048.74 46.10
10344 41.0849 1974.70 2048.63 45.80
10345 41.0887 2062.80 2048.53 46.90
10346 41.0924 2061.70 2048.42 47.10
10347 41.0962 1938.60 2048.32 45.50
10348 41.1000 2015.00 2048.21 46.50
10349 41.1037 1972.70 2048.10 46.10
10350 41.1075 2054.70 2048.00 47.40
10351 41.1112 1958.40 2047.89 45.90
10352 41.1150 2013.70 2047.79 46.20
10353 41.1188 2030.10 2047.68 47.20
10354 41.1225 2048.20 2047.57 46.30
10355 41.1263 2029.40 2047.46 47.30
10356 41.1300 1944.40 2047.36 45.50
10357 41.1338 1998.90 2047.25 46.30
10358 41.1375 2011.00 2047.14 46.20
10359 41.1413 1930.40 2047.04 45.80
10360 41.1451 2089.10 2046.93 47.40
10361 41.1488 1994.80 2046.82 46.40
10362 41.1526 2019.90 2046.71 47.40
10363 41.1563 1940.50 2046.60 45.70
10364 41.1601 2011.10 2046.50 45.80
10365 41.1638 1898.10 2046.39 45.60
10366 41.1676 2122.30 2046.28 48.40
10367 41.1713 1970.60 2046.17 46.50
10368 41.1751 2067.40 2046.06 47.40
10369 41.1789 1966.30 2045.95 45.80
10370 41.1826 1984.50 2045.84 46.30
10371 41.1864 1948.30 2045.73 46.00
10372 41.1901 2043.40 2045.62 46.80
10373 41.1939 1926.10 2045.52 45.70
10374 41.1977 1977.50 2045.41 46.10
10375 41.2014 2002.80 2045.30 46.40
10376 41.2052 2064.80 2045.19 47.60
10377 41.2089 1981.00 2045.08 46.50
10378 41.2127 2093.10 2044.96 48.10
10379 41.2164 1948.40 2044.85 46.00
10380 41.2202 2095.90 2044.74 47.10
10381 41.2239 1872.90 2044.63 44.30
10382 41.2277 2092.50 2044.52 48.70
10383 41.2315 2004.10 2044.41 46.30
10384 41.2352 2074.60 2044.30 47.10
10385 41.2390 1952.80 2044.19 45.60
10386 41.2427 2089.20 2044.08 47.80
10387 41.2465 1928.90 2043.96 45.30
10388 41.2502 1950.90 2043.85 45.80
10389 41.2540 1981.20 2043.74 46.40
10390 41.2578 1985.90 2043.63 46.70
10391 41.2615 2025.40 2043.52 47.10
10392 41.2653 2042.30 2043.40 47.20
10393 41.2690 1873.90 2043.29 45.10
10394 41.2728 1979.60 2043.18 45.90
10395 41.2765 1908.70 2043.07 45.30
10396 41.2803 2017.10 2042.95 46.50
10397 41.2841 1974.80 2042.84 46.00
10398 41.2878 1998.80 2042.73 45.90
10399 41.2916 2021.40 2042.61 46.70
10400 41.2953 1989.00 2042.50 46.10
10401 41.2991 2011.30 2042.38 46.70
10402 41.3028 1933.40 2042.27 46.10
10403 41.3066 1913.50 2042.16 45.60
10404 41.3103 1992.70 2042.04 46.30
10405 41.3141 1966.50 2041.93 45.70
10406 41.3179 2088.00 2041.81 47.80
10407 41.3216 1891.60 2041.70 44.70
10408 41.3254 1988.10 2041.58 45.70
10409 41.3291 1949.10 2041.47 46.40
10410 41.3329 1990.60 2041.35 46.20
10411 41.3367 1891.40 2041.24 44.90
10412 41.3404 1939.20 2041.12 45.70
10413 41.3442 1939.40 2041.01 45.70
10414 41.3479 1992.60 2040.89 46.40
10415 41.3517 1991.00 2040.77 46.90
10416 41.3554 1948.60 2040.66 45.90
10417 41.3592 1958.10 2040.54 46.10
10418 41.3629 1979.70 2040.43 46.20
10419 41.3667 1932.10 2040.31 45.10
10420 41.3705 2025.40 2040.19 46.60
10421 41.3742 1933.10 2040.07 45.60
10422 41.3780 2105.70 2039.96 47.80
10423 41.3817 1991.80 2039.84 46.00
10424 41.3855 1987.70 2039.72 46.40
10425 41.3892 1999.70 2039.61 46.50
10426 41.3930 1921.10 2039.49 45.50
10427 41.3968 1944.00 2039.37 45.10
10428 41.4005 2055.20 2039.25 46.90
10429 41.4043 1972.00 2039.13 46.00
10430 41.4080 2020.40 2039.02 46.60
10431 41.4118 1970.20 2038.90 46.30
10432 41.4155 2011.60 2038.78 46.50
10433 41.4193 1936.40 2038.66 45.50
10434 41.4230 1938.30 2038.54 45.10
10435 41.4268 1961.90 2038.42 46.70
10436 41.4305 1933.20 2038.30 46.30
10437 41.4343 1923.40 2038.18 45.20
10438 41.4381 1989.70 2038.06 45.80
10439 41.4418 2004.60 2037.94 46.10
10440 41.4456 1965.40 2037.82 46.30
10441 41.4493 1945.00 2037.70 45.40
10442 41.4531 1927.80 2037.58 45.80
10443 41.4568 1964.40 2037.46 45.80
10444 41.4606 1989.30 2037.34 46.00
10445 41.4644 2005.40 2037.22 46.50
10446 41.4681 2024.10 2037.10 46.90
10447 41.4719 1986.00 2036.98 46.00
10448 41.4756 1965.70 2036.86 45.90
10449 41.4794 2027.30 2036.74 46.90
10450 41.4831 1895.90 2036.62 45.00
10451 41.4869 1935.80 2036.50 46.10
10452 41.4907 2055.90 2036.37 47.00
10453 41.4944 1928.90 2036.25 45.70
10454 41.4982 2017.60 2036.13 46.30
10455 41.5019 1953.70 2036.01 45.60
10456 41.5057 1927.60 2035.89 45.60
10457 41.5094 1897.80 2035.76 45.20
10458 41.5132 1969.30 2035.64 45.30
10459 41.5169 1915.50 2035.52 45.50
10460 41.5207 1932.80 2035.40 45.30
10461 41.5244 2001.20 2035.27 45.80
10462 41.5282 2040.70 2035.15 47.80
10463 41.5320 1977.10 2035.03 46.60
10464 41.5357 2007.40 2034.90 46.90
10465 41.5395 1953.40 2034.78 45.80
10466 41.5432 1938.60 2034.65 45.50
10467 41.5470 1986.00 2034.53 46.50
10468 41.5507 1988.80 2034.41 46.20
10469 41.5545 1967.50 2034.28 46.30
10470 41.5583 1967.80 2034.16 44.80
10471 41.5620 1945.20 2034.03 46.30
10472 41.5658 2016.40 2033.91 46.30
10473 41.5695 1961.30 2033.78 46.70
10474 41.5733 1951.50 2033.66 45.80
10475 41.5770 2038.50 2033.53 46.90
10476 41.5808 1875.30 2033.41 44.50
10477 41.5845 1931.50 2033.28 45.60
10478 41.5883 1992.10 2033.16 46.50
10479 41.5920 1972.30 2033.03 46.40
10480 41.5958 1982.90 2032.91 46.90
10481 41.5996 1953.70 2032.78 46.00
10482 41.6033 2012.10 2032.65 46.30
10483 41.6071 1890.60 2032.53 45.40
10484 41.6108 2036.20 2032.40 46.80
10485 41.6146 2044.20 2032.27 47.00
10486 41.6183 1955.30 2032.15 46.30
10487 41.6221 1961.50 2032.02 46.10
10488 41.6259 2007.20 2031.89 46.60
10489 41.6296 1874.50 2031.77 45.40
10490 41.6334 1998.90 2031.64 46.80
10491 41.6371 1961.50 2031.51 46.20
10492 41.6409 1994.40 2031.38 46.30
10493 41.6446 1967.50 2031.26 46.10
10494 41.6484 2038.90 2031.13 47.00
10495 41.6521 1933.80 2031.00 46.10
10496 41.6559 1992.90 2030.87 46.80
10497 41.6596 1957.80 2030.74 46.40
10498 41.6634 1985.50 2030.61 46.60
10499 41.6671 2023.40 2030.48 47.40
10500 41.6709 2001.70 2030.36 46.90
10501 41.6747 1961.90 2030.23 45.80
10502 41.6784 1952.00 2030.10 45.90
10503 41.6822 1884.30 2029.97 45.60
10504 41.6859 1935.20 2029.84 46.00
10505 41.6897 1918.00 2029.71 45.60
10506 41.6934 1998.70 2029.58 47.10
10507 41.6972 2003.50 2029.45 46.70
10508 41.7010 1926.80 2029.32 46.10
10509 41.7047 1957.00 2029.19 46.20
10510 41.7085 1939.00 2029.06 46.20
10511 41.7122 1966.10 2028.93 45.70
10512 41.7160 2020.50 2028.80 47.00
10513 41.7197 1979.90 2028.67 46.70
10514 41.7235 1997.90 2028.53 46.20
10515 41.7272 1951.70 2028.40 46.40
10516 41.7310 1975.70 2028.27 47.20
10517 41.7347 2135.30 2028.14 48.80
10518 41.7385 1947.40 2028.01 45.80
10519 41.7422 1914.90 2027.88 45.60
10520 41.7460 2011.70 2027.74 46.90
10521 41.7498 1931.70 2027.61 45.90
10522 41.7535 2039.40 2027.48 47.10
10523 41.7573 1917.40 2027.35 45.60
10524 41.7610 1952.10 2027.21 46.10
10525 41.7648 1953.40 2027.08 46.50
10526 41.7685 1981.40 2026.95 46.90
10527 41.7723 2009.30 2026.82 46.80
10528 41.7760 1912.10 2026.68 46.00
10529 41.7798 1988.20 2026.55 45.80
10530 41.7836 2133.70 2026.42 48.50
10531 41.7873 2129.70 2026.28 48.50
10532 41.7911 2117.20 2026.15 48.90
10533 41.7948 1936.80 2026.01 46.70
10534 41.7986 1986.40 2025.88 46.80
10535 41.8023 2005.60 2025.75 46.90
10536 41.8061 1975.50 2025.61 46.70
10537 41.8098 1982.50 2025.48 46.90
10538 41.8136 1987.80 2025.34 47.00
10539 41.8173 2017.90 2025.21 47.40
10540 41.8211 1997.10 2025.07 47.30
10541 41.8248 1998.90 2024.94 46.60
10542 41.8286 1992.00 2024.80 47.40
10543 41.8324 1952.90 2024.67 46.70
10544 41.8361 1998.20 2024.53 46.80
10545 41.8399 1961.40 2024.40 46.10
10546 41.8436 1946.50 2024.26 46.10
10547 41.8474 2017.30 2024.12 46.90
10548 41.8511 1968.50 2023.99 46.40
10549 41.8549 1964.50 2023.85 47.10
10550 41.8586 1969.90 2023.71 46.70
10551 41.8624 1999.50 2023.58 47.40
10552 41.8661 1940.00 2023.44 46.30
10553 41.8699 1943.50 2023.30 45.70
10554 41.8736 2001.20 2023.17 47.00
10555 41.8774 1992.60 2023.03 47.50
10556 41.8812 1991.70 2022.89 46.90
10557 41.8849 1902.70 2022.75 46.10
10558 41.8887 1985.90 2022.62 46.10
10559 41.8924 2046.60 2022.48 47.70
10560 41.8962 2005.50 2022.34 47.10
10561 41.8999 2013.00 2022.20 46.60
10562 41.9037 1953.60 2022.06 45.90
10563 41.9074 2009.70 2021.93 47.80
10564 41.9112 2010.60 2021.79 47.40
10565 41.9149 1880.40 2021.65 46.20
10566 41.9187 2033.30 2021.51 47.50
10567 41.9225 1865.40 2021.37 45.00
10568 41.9262 1959.20 2021.23 46.00
10569 41.9300 2010.90 2021.09 48.40
10570 41.9337 1978.10 2020.95 46.80
10571 41.9375 2020.80 2020.81 47.20
10572 41.9412 1973.20 2020.67 46.40
10573 41.9450 1948.60 2020.53 46.90
10574 41.9487 2008.00 2020.39 47.30
10575 41.9525 1985.70 2020.25 47.30
10576 41.9562 2058.10 2020.11 47.30
10577 41.9600 1897.60 2019.97 45.90
10578 41.9637 1975.30 2019.83 47.10
10579 41.9675 1819.80 2019.69 44.80
10580 41.9712 2004.30 2019.55 47.40
10581 41.9750 1974.70 2019.41 46.40
10582 41.9788 2031.00 2019.27 47.50
10583 41.9825 1974.70 2019.13 46.40
10584 41.9863 2035.30 2018.98 47.90
10585 41.9900 1971.70 2018.84 46.80
10586 41.9938 1973.30 2018.70 46.80
10587 41.9960 2012.70 2018.62 46.60
10588 41.9997 1971.30 2018.48 46.10
10589 42.0035 1911.60 2018.33 44.60
10590 42.0072 1940.00 2018.19 45.80
10591 42.0110 1970.40 2018.05 45.70
10592 42.0148 2005.00 2017.91 45.80
10593 42.0185 2049.90 2017.76 47.90
10594 42.0223 1965.10 2017.62 46.50
10595 42.0260 2035.30 2017.48 47.30
10596 42.0298 1983.70 2017.33 46.20
10597 42.0335 1973.60 2017.19 46.00
10598 42.0373 2040.30 2017.05 47.10
10599 42.0410 2002.50 2016.90 46.40
10600 42.0448 1946.70 2016.76 46.00
10601 42.0485 2082.80 2016.61 46.20
10602 42.0523 2036.40 2016.47 47.50
10603 42.0561 2019.30 2016.33 46.40
10604 42.0598 1931.00 2016.18 46.30
10605 42.0636 1945.60 2016.04 45.70
10606 42.0673 2055.20 2015.89 47.10
10607 42.0711 2007.90 2015.75 46.10
10608 42.0748 1939.30 2015.60 45.70
10609 42.0786 1990.10 2015.46 46.50
10610 42.0824 1945.50 2015.31 46.10
10611 42.0861 2028.10 2015.16 47.40
10612 42.0899 1953.70 2015.02 46.00
10613 42.0936 1954.00 2014.87 45.60
10614 42.0974 2025.70 2014.73 47.10
10615 42.1011 1985.40 2014.58 46.20
10616 42.1049 1874.00 2014.43 44.90
10617 42.1086 2099.70 2014.29 48.10
10618 42.1124 2043.20 2014.14 47.10
10619 42.1161 2030.70 2013.99 46.90
10620 42.1199 1980.60 2013.85 46.70
10621 42.1237 2039.70 2013.70 47.30
10622 42.1274 1952.60 2013.55 46.10
10623 42.1312 2075.40 2013.41 47.30
10624 42.1349 2035.10 2013.26 46.90
10625 42.1387 2060.50 2013.11 47.30
10626 42.1424 2024.70 2012.96 47.20
10627 42.1462 2028.90 2012.82 47.30
10628 42.1500 2028.70 2012.67 47.30
10629 42.1537 1993.40 2012.52 46.70
10630 42.1575 2048.50 2012.37 47.70
10631 42.1612 2043.60 2012.22 47.40
10632 42.1650 2023.00 2012.07 46.50
10633 42.1687 2016.80 2011.93 46.70
10634 42.1725 1987.80 2011.78 46.90
10635 42.1762 2012.70 2011.63 46.90
10636 42.1800 1938.70 2011.48 45.90
10637 42.1837 2058.20 2011.33 47.90
10638 42.1875 1955.10 2011.18 46.10
10639 42.1912 1966.90 2011.03 46.60
10640 42.1950 1944.10 2010.88 46.10
10641 42.1988 1977.90 2010.73 46.60
10642 42.2025 2024.00 2010.58 46.40
10643 42.2063 2030.40 2010.43 47.10
10644 42.2100 2042.80 2010.28 47.50
10645 42.2138 2032.80 2010.13 46.60
10646 42.2175 1912.70 2009.98 45.90
10647 42.2213 2015.60 2009.83 47.70
10648 42.2250 1904.50 2009.68 45.90
10649 42.2288 2112.50 2009.53 47.80
10650 42.2311 1927.40 2009.43 46.20
10651 42.2348 2056.20 2009.28 47.80
10652 42.2386 2052.80 2009.13 47.30
10653 42.2423 1969.30 2008.98 46.70
10654 42.2461 1989.30 2008.83 46.50
10655 42.2498 1937.30 2008.68 46.20
10656 42.2536 1914.00 2008.53 46.00
10657 42.2573 1938.90 2008.37 46.20
10658 42.2611 1981.90 2008.22 46.90
10659 42.2648 2002.80 2008.07 46.40
10660 42.2686 1958.50 2007.92 46.20
10661 42.2724 1989.40 2007.76 47.00
10662 42.2761 2040.80 2007.61 47.20
10663 42.2799 2090.60 2007.46 48.10
10664 42.2836 2047.30 2007.30 47.90
10665 42.2874 1978.90 2007.15 46.80
10666 42.2911 1887.00 2007.00 45.90
10667 42.2949 2058.20 2006.84 47.80
10668 42.2986 1988.10 2006.69 46.90
10669 42.3024 1970.10 2006.54 47.40
10670 42.3061 1987.30 2006.38 47.10
10671 42.3099 2025.00 2006.23 48.00
10672 42.3136 1903.00 2006.07 46.30
10673 42.3174 2063.30 2005.92 48.10
10674 42.3212 1974.90 2005.76 47.00
10675 42.3249 2049.40 2005.61 46.90
10676 42.3287 1921.30 2005.46 46.60
10677 42.3324 2004.30 2005.30 47.00
10678 42.3362 1966.00 2005.15 46.50
10679 42.3399 1998.10 2004.99 46.80
10680 42.3437 2018.90 2004.83 46.90
10681 42.3474 2030.20 2004.68 47.60
10682 42.3512 2029.70 2004.52 47.70
10683 42.3549 1987.90 2004.37 47.10
10684 42.3587 1931.30 2004.21 46.50
10685 42.3624 1968.90 2004.06 46.80
10686 42.3662 2016.20 2003.90 47.90
10687 42.3699 2039.80 2003.74 47.20
10688 42.3737 1988.20 2003.59 47.30
10689 42.3775 2081.90 2003.43 48.30
10690 42.3812 2008.80 2003.27 47.30
10691 42.3850 2053.60 2003.12 47.70
10692 42.3887 2060.50 2002.96 48.20
10693 42.3925 2057.20 2002.80 47.60
10694 42.3962 2022.10 2002.64 47.10
10695 42.4000 2028.00 2002.49 47.50
10696 42.4037 2040.20 2002.33 48.20
10697 42.4075 1978.60 2002.17 47.10
10698 42.4113 2051.10 2002.01 48.20
10699 42.4150 2006.50 2001.85 47.30
10700 42.4188 2063.90 2001.70 47.50
10701 42.4225 2066.10 2001.54 47.30
10702 42.4263 2030.80 2001.38 49.10
10703 42.4300 2028.40 2001.22 47.50
10704 42.4338 2018.30 2001.06 47.40
10705 42.4375 2085.60 2000.90 48.30
10706 42.4413 2041.90 2000.74 47.80
10707 42.4450 2017.10 2000.58 47.70
10708 42.4488 1938.90 2000.43 46.20
10709 42.4525 2104.80 2000.27 48.90
10710 42.4563 2076.20 2000.11 48.00
10711 42.4601 2080.70 1999.95 48.30
10712 42.4638 2041.50 1999.79 47.40
10713 42.4676 2071.10 1999.63 47.90
10714 42.4713 2071.10 1999.47 48.50
10715 42.4751 2183.20 1999.31 50.40
10716 42.4788 2051.60 1999.15 48.30
10717 42.4826 2126.90 1998.98 49.50
10718 42.4863 2078.30 1998.82 48.70
10719 42.4901 2118.50 1998.66 48.20
10720 42.4939 2182.00 1998.50 50.20
10721 42.4976 2107.20 1998.34 48.10
10722 42.5014 1990.70 1998.18 47.00
10723 42.5051 2117.00 1998.02 48.50
10724 42.5089 2128.40 1997.86 48.70
10725 42.5126 2192.60 1997.69 49.50
10726 42.5164 2211.50 1997.53 50.10
10727 42.5201 2195.20 2138.43 49.20
10728 42.5239 2117.80 2144.92 48.10
10729 42.5276 2169.80 2151.87 50.10
10730 42.5314 2145.80 2159.37 49.10
10731 42.5352 2200.10 2167.42 49.90
10732 42.5389 2286.00 2176.12 50.70
10733 42.5427 2116.80 2185.55 48.80
10734 42.5464 2166.80 2195.73 49.80
10735 42.5502 2274.30 2206.81 51.40
10736 42.5539 2261.50 2218.87 51.10
10737 42.5577 2373.50 2231.99 51.70
10738 42.5615 2299.30 2246.38 50.90
10739 42.5652 2372.00 2262.10 52.60
10740 42.5690 2360.90 2279.40 51.40
10741 42.5727 2402.90 2298.45 52.80
10742 42.5765 2428.50 2319.53 52.90
10743 42.5802 2524.60 2342.88 54.00
10744 42.5840 2559.40 2368.96 53.50
10745 42.5877 2523.70 2398.00 53.40
10746 42.5915 2514.90 2430.67 53.70
10747 42.5952 2687.60 2467.47 56.10
10748 42.5990 2656.10 2509.07 55.00
10749 42.6028 2725.90 2556.59 56.30
10750 42.6065 2695.50 2610.81 56.20
10751 42.6103 2878.80 2673.43 57.70
10752 42.6140 2928.20 2745.85 58.50
10753 42.6178 2928.30 2830.60 58.50
10754 42.6215 3127.60 2930.25 60.00
10755 42.6253 3245.60 3049.13 60.70
10756 42.6290 3332.20 3191.35 63.80
10757 42.6328 3646.00 3364.51 65.30
10758 42.6366 3662.00 3576.87 65.00
10759 42.6403 3907.70 3842.27 67.60
10760 42.6441 4205.60 4179.83 70.80
10761 42.6478 4751.50 4616.46 75.00
10762 42.6516 5127.10 5205.02 78.80
10763 42.6553 5987.30 6041.81 85.80
10764 42.6591 7104.50 7344.12 93.90
10765 42.6628 8962.70 9551.82 107.10
10766 42.6666 12189.60 13399.40 126.50
10767 42.6704 18539.40 19886.40 158.20
10768 42.6741 28594.10 29716.90 205.80
10769 42.6779 41357.90 42472.20 251.00
10770 42.6816 49928.10 54471.60 283.60
10771 42.6854 54817.90 58130.40 300.70
10772 42.6891 51010.00 50154.70 292.70
10773 42.6929 41342.70 37143.80 251.10
10774 42.6967 27673.50 25345.70 199.10
10775 42.7004 17020.50 16905.80 148.40
10776 42.7042 11129.10 11596.00 117.10
10777 42.7079 8485.30 8511.95 102.70
10778 42.7117 6669.60 6744.48 88.40
10779 42.7154 5829.00 5662.90 82.40
10780 42.7192 5060.30 4943.37 76.40
10781 42.7229 4455.40 4423.64 70.60
10782 42.7267 4103.10 4030.34 68.00
10783 42.7304 3984.90 3725.07 67.70
10784 42.7342 3710.70 3481.84 64.60
10785 42.7380 3540.00 3286.37 63.30
10786 42.7417 3412.20 3126.21 62.40
10787 42.7455 3172.20 2993.52 59.50
10788 42.7492 3104.90 2882.80 59.50
10789 42.7530 2937.90 2788.90 57.70
10790 42.7567 2846.20 2709.16 55.90
10791 42.7605 2814.60 2640.46 56.10
10792 42.7643 2786.00 2581.07 56.10
10793 42.7680 2589.90 2529.39 53.80
10794 42.7718 2632.70 2484.01 54.10
10795 42.7755 2495.40 2444.14 52.60
10796 42.7793 2450.80 2408.72 52.40
10797 42.7830 2463.60 2377.20 52.70
10798 42.7868 2391.60 2349.11 51.60
10799 42.7906 2372.80 2323.83 51.70
10800 42.7943 2294.70 2301.11 51.00
10801 42.7981 2371.00 2280.51 51.50
10802 42.8018 2372.90 2261.83 51.30
10803 42.8056 2301.30 2244.83 50.40
10804 42.8093 2276.70 2229.36 50.40
10805 42.8131 2286.10 2215.15 50.80
10806 42.8168 2204.70 2202.15 49.50
10807 42.8206 2220.00 2190.16 50.10
10808 42.8244 2165.80 2179.10 48.10
10809 42.8281 2152.00 2168.91 49.90
10810 42.8319 2204.80 2159.44 49.10
10811 42.8356 2166.80 2150.68 49.00
10812 42.8394 2116.40 2142.51 48.50
10813 42.8431 2225.10 2134.89 50.10
10814 42.8469 2140.50 2127.79 48.10
10815 42.8507 2169.50 1982.59 49.10
10816 42.8544 2114.40 1982.42 48.80
10817 42.8582 2166.40 1982.24 49.50
10818 42.8619 2141.60 1982.07 48.80
10819 42.8657 2126.30 1981.89 48.30
10820 42.8694 2086.10 1981.72 48.40
10821 42.8732 2073.30 1981.54 48.20
10822 42.8769 2040.80 1981.37 47.90
10823 42.8807 2110.40 1981.20 47.80
10824 42.8845 2037.50 1981.02 48.30
10825 42.8882 2123.90 1980.85 49.00
10826 42.8920 2044.30 1980.67 47.00
10827 42.8957 2080.80 1980.50 48.20
10828 42.8995 1968.80 1980.32 46.10
10829 42.9032 2022.80 1980.15 47.50
10830 42.9070 1952.80 1979.97 47.10
10831 42.9108 2081.20 1979.79 48.20
10832 42.9145 1984.80 1979.62 47.10
10833 42.9183 2047.80 1979.44 47.60
10834 42.9220 1936.70 1979.27 45.80
10835 42.9258 2039.20 1979.09 47.70
10836 42.9295 2014.90 1978.91 47.70
10837 42.9333 1975.80 1978.74 47.20
10838 42.9371 1944.60 1978.56 46.50
10839 42.9408 2051.90 1978.38 47.70
10840 42.9446 1998.40 1978.21 47.40
10841 42.9483 1981.10 1978.03 46.90
10842 42.9521 1967.80 1977.85 46.70
10843 42.9558 1987.10 1977.68 46.50
10844 42.9596 1996.80 1977.50 47.20
10845 42.9634 2004.70 1977.32 47.20
10846 42.9671 2000.00 1977.14 47.00
10847 42.9709 1984.50 1976.97 46.90
10848 42.9746 2031.20 1976.79 47.80
10849 42.9784 2020.30 1976.61 48.10
10850 42.9821 1968.30 1976.43 45.80
10851 42.9859 2028.20 1976.25 47.30
10852 42.9897 1959.30 1976.08 46.90
10853 42.9934 2074.70 1975.90 47.40
10854 42.9972 1933.50 1975.72 46.70
10855 43.0009 2063.70 1975.54 47.20
10856 43.0047 1963.20 1975.36 46.80
10857 43.0084 1986.80 1975.18 46.70
10858 43.0122 1934.00 1975.00 46.50
10859 43.0159 1868.50 1974.83 45.80
10860 43.0197 1892.90 1974.65 46.20
10861 43.0235 1985.00 1974.47 45.50
10862 43.0272 1932.90 1974.29 46.50
10863 43.0310 1981.60 1974.11 47.50
10864 43.0347 1902.80 1973.93 45.80
10865 43.0385 1953.40 1973.75 45.80
10866 43.0423 1936.90 1973.57 46.40
10867 43.0460 1989.60 1973.39 47.40
10868 43.0498 1908.40 1973.21 46.10
10869 43.0535 1900.90 1973.03 46.40
10870 43.0573 2065.70 1972.85 47.60
10871 43.0610 1972.70 1972.67 47.10
10872 43.0648 1923.00 1972.49 45.70
10873 43.0686 1983.40 1972.31 46.70
10874 43.0723 1905.10 1972.12 46.20
10875 43.0761 1946.40 1971.94 46.70
10876 43.0798 1832.00 1971.76 45.30
10877 43.0836 1985.70 1971.58 46.50
10878 43.0873 1964.90 1971.40 47.00
10879 43.0911 2015.90 1971.22 47.30
10880 43.0949 1997.60 1971.04 47.60
10881 43.0986 1989.50 1970.85 47.80
10882 43.1024 1994.10 1970.67 47.30
10883 43.1061 1973.80 1970.49 47.40
10884 43.1099 1915.20 1970.31 46.30
10885 43.1136 1972.50 1970.13 46.90
10886 43.1174 1969.10 1969.94 46.90
10887 43.1212 1907.90 1969.76 46.20
10888 43.1249 1961.80 1969.58 46.30
10889 43.1287 1981.20 1969.40 47.90
10890 43.1324 1936.40 1969.21 45.60
10891 43.1362 1934.90 1969.03 46.30
10892 43.1399 1885.40 1968.85 46.00
10893 43.1437 2014.90 1968.67 47.50
10894 43.1475 1949.40 1968.48 46.50
10895 43.1512 2007.70 1968.30 47.20
10896 43.1550 1843.10 1968.11 45.50
10897 43.1587 1996.40 1967.93 47.40
10898 43.1625 1920.00 1967.75 46.70
10899 43.1662 1954.80 1967.56 47.40
10900 43.1700 1906.40 1967.38 47.00
10901 43.1738 1923.60 1967.20 45.70
10902 43.1775 1950.30 1967.01 45.70
10903 43.1813 2053.50 1966.83 46.90
10904 43.1850 1882.30 1966.64 45.00
10905 43.1888 2044.30 1966.46 47.50
10906 43.1926 1948.60 1966.27 46.50
10907 43.1963 1971.70 1966.09 46.70
10908 43.2001 1969.20 1965.90 46.70
10909 43.2038 1955.00 1965.72 46.30
10910 43.2076 1936.40 1965.53 46.10
10911 43.2113 2006.30 1965.35 47.10
10912 43.2151 1925.00 1965.16 45.90
10913 43.2189 1928.40 1964.98 46.50
10914 43.2226 1845.60 1964.79 44.60
10915 43.2264 1995.60 1964.61 47.40
10916 43.2301 1885.90 1964.42 46.00
10917 43.2339 1858.30 1964.24 45.40
10918 43.2377 1976.60 1964.05 46.80
10919 43.2414 1958.30 1963.86 46.20
10920 43.2452 1967.80 1963.68 46.50
10921 43.2489 1941.00 1963.49 45.90
10922 43.2527 1861.50 1963.30 45.40
10923 43.2564 1999.30 1963.12 47.50
10924 43.2602 1945.00 1962.93 46.40
10925 43.2640 1908.70 1962.75 46.20
10926 43.2677 1890.90 1962.56 45.70
10927 43.2715 2022.50 1962.37 47.30
10928 43.2752 1918.10 1962.18 45.40
10929 43.2790 1910.80 1962.00 46.00
10930 43.2827 1827.20 1961.81 45.10
10931 43.2865 2016.40 1961.62 47.10
10932 43.2903 1866.60 1961.43 45.80
10933 43.2940 1874.10 1961.25 45.60
10934 43.2978 1910.50 1961.06 46.30
10935 43.3015 1956.00 1960.87 46.40
10936 43.3053 1920.70 1960.68 45.90
10937 43.3091 1940.90 1960.50 45.80
10938 43.3128 1933.70 1960.31 46.60
10939 43.3166 1998.40 1960.12 47.50
10940 43.3203 1914.40 1959.93 46.40
10941 43.3241 1945.90 1959.74 45.00
10942 43.3278 1865.30 1959.55 46.00
10943 43.3316 1977.50 1959.37 47.30
10944 43.3354 1933.10 1959.18 45.50
10945 43.3391 2021.80 1958.99 47.60
10946 43.3429 1962.10 1958.80 46.30
10947 43.3466 1943.00 1958.61 46.40
10948 43.3504 1922.40 1958.42 45.90
10949 43.3541 1951.00 1958.23 46.40
10950 43.3579 1928.00 1958.04 45.80
10951 43.3617 1937.20 1957.85 46.40
10952 43.3654 1861.30 1957.66 45.50
10953 43.3692 1920.00 1957.47 46.10
10954 43.3729 1874.00 1957.28 45.40
10955 43.3767 1980.10 1957.09 46.20
10956 43.3805 1814.70 1956.90 44.80
10957 43.3842 1939.70 1956.71 46.30
10958 43.3880 1871.10 1956.52 45.50
10959 43.3917 1935.70 1956.33 46.10
10960 43.3955 1940.10 1956.14 46.40
10961 43.3993 1894.60 1955.95 45.60
10962 43.4030 1928.10 1955.76 45.90
10963 43.4068 2015.60 1955.57 47.30
10964 43.4105 1900.50 1955.38 45.30
10965 43.4143 1949.10 1955.19 46.60
10966 43.4180 1859.00 1955.00 45.10
10967 43.4218 1913.30 1954.80 45.40
10968 43.4256 1887.60 1954.61 45.00
10969 43.4293 1902.40 1954.42 46.80
10970 43.4331 1957.70 1954.23 46.40
10971 43.4368 1952.70 1954.04 45.80
10972 43.4406 1924.40 1953.85 46.20
10973 43.4444 1948.50 1953.66 46.10
10974 43.4481 1911.40 1953.46 46.00
10975 43.4519 1930.90 1953.27 46.20
10976 43.4556 1871.30 1953.08 45.40
10977 43.4594 1952.60 1952.89 46.50
10978 43.4632 1859.60 1952.69 45.30
10979 43.4669 1985.20 1952.50 46.80
10980 43.4707 1885.50 1952.31 45.20
10981 43.4744 1861.40 1952.12 45.30
10982 43.4782 1880.10 1951.92 45.20
10983 43.4819 1954.30 1951.73 46.40
10984 43.4857 1876.70 1951.54 45.50
10985 43.4895 1899.90 1951.35 45.70
10986 43.4932 1866.80 1951.15 44.90
10987 43.4970 1974.30 1950.96 46.60
10988 43.5007 1844.10 1950.77 44.90
10989 43.5045 1868.20 1950.57 45.10
10990 43.5083 1900.50 1950.38 45.90
10991 43.5120 1937.30 1950.19 46.00
10992 43.5158 1897.90 1949.99 46.00
10993 43.5195 1880.30 1949.80 46.00
10994 43.5233 1868.20 1949.60 45.00
10995 43.5270 1972.60 1949.41 46.30
10996 43.5308 1880.20 1949.22 45.90
10997 43.5346 1920.60 1949.02 46.00
10998 43.5383 1879.10 1948.83 45.10
10999 43.5421 1907.60 1948.63 45.20
11000 43.5458 1912.60 1948.44 45.70
11001 43.5496 1984.10 1948.24 47.00
11002 43.5533 1910.00 1948.05 45.90
11003 43.5571 1884.20 1947.85 45.80
11004 43.5609 1882.80 1947.66 45.40
11005 43.5646 1944.10 1947.46 46.50
11006 43.5684 1841.20 1947.27 45.20
11007 43.5722 1888.70 1947.07 45.60
11008 43.5759 1818.40 1946.88 44.90
11009 43.5797 1898.90 1946.68 45.50
11010 43.5834 1860.70 1946.49 45.30
11011 43.5872 1886.50 1946.29 46.00
11012 43.5909 1962.80 1946.10 46.60
11013 43.5947 1916.80 1945.90 46.00
11014 43.5985 1884.20 1945.70 44.30
11015 43.6022 1888.60 1945.51 45.40
11016 43.6060 1851.90 1945.31 45.20
11017 43.6097 2003.90 1945.12 47.00
11018 43.6135 1867.90 1944.92 45.30
11019 43.6173 1861.20 1944.72 45.10
11020 43.6210 1897.00 1944.53 45.60
11021 43.6248 2058.10 1944.33 47.60
11022 43.6285 1831.30 1944.13 44.90
11023 43.6323 1935.20 1943.94 46.20
11024 43.6361 2010.30 1943.74 47.40
11025 43.6398 2020.10 1943.54 47.30
11026 43.6436 1911.60 1943.35 45.70
11027 43.6473 1918.60 1943.15 45.80
11028 43.6511 1982.20 1942.95 47.10
11029 43.6549 1907.60 1942.76 45.80
11030 43.6586 1926.80 1942.56 45.80
11031 43.6624 1938.10 1942.36 45.70
11032 43.6661 1884.50 1942.16 45.30
11033 43.6699 1990.70 1941.97 46.60
11034 43.6736 1878.80 1941.77 45.10
11035 43.6774 1890.60 1941.57 45.40
11036 43.6812 1888.70 1941.37 45.40
11037 43.6849 1956.30 1941.17 46.30
11038 43.6887 1885.10 1940.98 45.50
11039 43.6924 1873.50 1940.78 45.20
11040 43.6962 1905.20 1940.58 45.70
11041 43.7000 1886.40 1940.38 45.10
11042 43.7037 1892.00 1940.18 45.10
11043 43.7075 1904.30 1939.98 45.80
11044 43.7112 1798.80 1939.79 43.60
11045 43.7150 1895.60 1939.59 45.70
11046 43.7188 1921.50 1939.39 46.20
11047 43.7225 1880.00 1939.19 45.20
11048 43.7263 1750.60 1938.99 42.70
11049 43.7300 1869.90 1938.79 45.70
11050 43.7338 1886.20 1938.59 44.90
11051 43.7375 1954.00 1938.39 45.80
11052 43.7413 1866.00 1938.19 44.30
11053 43.7451 1944.40 1937.99 46.10
11054 43.7488 1862.80 1937.79 44.90
11055 43.7526 1853.30 1937.60 45.20
11056 43.7563 1880.30 1937.40 45.30
11057 43.7601 1922.10 1937.20 45.70
11058 43.7639 1900.70 1937.00 45.90
11059 43.7676 1957.70 1936.80 46.90
11060 43.7714 1837.70 1936.60 44.60
11061 43.7751 1924.30 1936.40 45.80
11062 43.7789 1882.60 1936.20 45.50
11063 43.7827 1923.00 1936.00 45.50
11064 43.7864 1900.50 1935.79 45.60
11065 43.7902 1878.50 1935.59 45.30
11066 43.7939 1825.10 1935.39 44.80
11067 43.7977 1835.60 1935.19 44.80
11068 43.8014 1925.80 1934.99 45.50
11069 43.8052 1904.70 1934.79 45.40
11070 43.8090 1864.00 1934.59 45.50
11071 43.8127 1871.20 1934.39 45.20
11072 43.8165 1907.20 1934.19 45.60
11073 43.8203 1810.30 1933.99 44.30
11074 43.8240 1885.70 1933.79 45.30
11075 43.8278 1881.30 1933.59 45.00
11076 43.8315 1916.10 1933.38 46.60
11077 43.8353 2005.20 1933.18 46.60
11078 43.8391 1957.30 1932.98 45.90
11079 43.8428 1826.30 1932.78 44.40
11080 43.8466 1795.10 1932.58 44.60
11081 43.8503 1931.80 1932.38 45.70
11082 43.8541 1850.70 1932.17 44.90
11083 43.8578 1862.10 1931.97 45.30
11084 43.8616 1892.70 1931.77 46.00
11085 43.8654 1869.80 1931.57 45.30
11086 43.8691 1872.90 1931.37 45.70
11087 43.8729 1887.50 1931.16 45.50
11088 43.8766 1899.90 1930.96 45.90
11089 43.8804 1950.70 1930.76 46.00
11090 43.8842 1884.30 1930.56 45.20
11091 43.8879 1898.90 1930.35 45.80
11092 43.8917 1869.20 1930.15 45.30
11093 43.8954 1896.10 1929.95 45.50
11094 43.8992 1932.20 1929.75 46.20
11095 43.9030 1845.20 1929.54 43.80
11096 43.9067 1761.90 1929.34 44.20
11097 43.9105 1915.50 1929.14 46.20
11098 43.9142 1902.30 1928.93 44.90
11099 43.9180 1950.80 1928.73 46.00
11100 43.9218 1815.30 1928.53 44.00
11101 43.9255 1908.30 1928.32 44.80
11102 43.9293 1802.50 1928.12 44.80
11103 43.9330 1908.60 1927.92 46.40
11104 43.9368 1813.80 1927.71 44.20
11105 43.9406 1901.70 1927.51 45.30
11106 43.9443 1909.50 1927.31 45.30
11107 43.9481 1897.80 1927.10 45.10
11108 43.9518 1894.60 1926.90 45.50
11109 43.9556 1941.20 1926.69 45.90
11110 43.9594 1911.50 1926.49 46.10
11111 43.9631 1948.10 1926.29 46.10
11112 43.9669 1896.00 1926.08 45.80
11113 43.9706 1869.20 1925.88 45.60
11114 43.9744 1876.40 1925.67 45.50
11115 43.9781 1822.40 1925.47 44.90
11116 43.9819 1948.50 1925.26 46.70
11117 43.9857 1982.90 1925.06 46.30
11118 43.9894 1910.80 1924.86 45.90
11119 43.9932 1861.30 1924.65 45.10
11120 43.9969 1814.30 1924.45 44.50
11121 44.0007 1893.00 1924.24 45.60
11122 44.0045 1856.90 1924.04 45.70
11123 44.0082 1858.80 1923.83 45.10
11124 44.0120 1848.30 1923.63 44.90
11125 44.0158 1828.50 1923.42 45.10
11126 44.0195 1891.00 1923.22 45.30
11127 44.0233 1890.90 1923.01 45.10
11128 44.0270 1861.30 1922.81 44.90
11129 44.0308 1912.60 1922.60 46.70
11130 44.0345 1855.50 1922.39 45.10
11131 44.0383 1834.30 1922.19 44.50
11132 44.0421 1818.90 1921.98 44.40
11133 44.0458 1888.10 1921.78 45.70
11134 44.0496 1842.60 1921.57 45.10
11135 44.0533 1774.90 1921.37 43.70
11136 44.0571 1850.10 1921.16 44.70
11137 44.0609 1884.30 1920.95 45.20
11138 44.0646 1827.40 1920.75 44.70
11139 44.0684 1840.50 1920.54 44.70
11140 44.0721 1836.70 1920.34 44.60
11141 44.0759 1871.40 1920.13 44.70
11142 44.0797 1820.00 1919.92 44.80
11143 44.0834 1812.90 1919.72 43.90
11144 44.0872 1768.20 1919.51 44.10
11145 44.0909 1836.80 1919.30 44.50
11146 44.0947 1804.20 1919.10 44.30
11147 44.0985 1864.50 1918.89 44.60
11148 44.1022 1810.00 1918.68 44.50
11149 44.1060 1941.80 1918.48 46.30
11150 44.1097 1892.80 1918.27 45.70
11151 44.1135 1857.60 1918.06 45.40
11152 44.1173 1881.70 1917.85 45.70
11153 44.1210 1857.10 1917.65 44.60
11154 44.1248 1815.10 1917.44 44.20
11155 44.1285 1789.00 1917.23 44.10
11156 44.1323 1769.90 1917.03 44.90
11157 44.1361 1855.60 1916.82 45.20
11158 44.1398 1823.70 1916.61 44.10
11159 44.1436 1903.00 1916.40 45.40
11160 44.1473 1834.90 1916.20 44.70
11161 44.1511 1863.30 1915.99 45.40
11162 44.1549 1753.00 1915.78 43.70
11163 44.1586 1879.60 1915.57 45.30
11164 44.1624 1844.90 1915.37 44.50
11165 44.1661 1853.70 1915.16 44.90
11166 44.1699 1731.20 1914.95 43.50
11167 44.1737 1921.60 1914.74 46.00
11168 44.1774 1882.60 1914.53 45.60
11169 44.1812 1937.60 1914.33 45.80
11170 44.1849 1890.20 1914.12 45.40
11171 44.1887 1839.80 1913.91 45.30
11172 44.1925 1780.40 1913.70 44.10
11173 44.1962 1819.00 1913.49 44.80
11174 44.2000 1893.90 1913.28 45.30
11175 44.2037 1833.30 1913.07 44.70
11176 44.2075 1894.70 1912.87 45.70
11177 44.2113 1905.20 1912.66 45.70
11178 44.2150 1835.30 1912.45 45.20
11179 44.2188 1870.30 1912.24 45.10
11180 44.2225 1831.30 1912.03 44.30
11181 44.2263 1876.10 1911.82 44.30
11182 44.2301 1778.30 1911.61 45.40
11183 44.2338 1862.50 1911.41 45.40
11184 44.2376 1938.70 1911.20 45.60
11185 44.2413 1841.00 1910.99 44.80
11186 44.2451 1805.30 1910.78 44.40
11187 44.2489 1920.60 1910.57 45.60
11188 44.2526 1845.90 1910.36 45.00
11189 44.2564 1902.00 1910.15 45.20
11190 44.2601 1846.30 1909.94 45.20
11191 44.2639 1856.10 1909.73 44.60
11192 44.2677 1872.30 1909.52 45.40
11193 44.2714 1818.90 1909.31 44.50
11194 44.2752 1942.30 1909.10 46.20
11195 44.2789 1858.50 1908.89 44.80
11196 44.2827 1796.50 1908.68 44.10
11197 44.2864 1783.30 1908.47 43.80
11198 44.2902 1828.00 1908.26 44.50
11199 44.2940 1916.60 1908.05 45.80
11200 44.2977 1760.20 1907.84 43.70
11201 44.3015 1899.90 1907.63 45.70
11202 44.3053 1902.60 1907.42 45.60
11203 44.3090 1898.90 1907.21 45.60
11204 44.3128 1840.20 1907.00 44.40
11205 44.3165 1924.60 1906.79 46.50
11206 44.3203 1913.70 1906.58 45.20
11207 44.3241 1877.40 1906.37 45.20
11208 44.3278 1866.00 1906.16 44.60
11209 44.3316 1910.50 1905.95 46.80
11210 44.3353 1918.40 1905.74 45.40
11211 44.3391 1886.60 1905.53 45.60
11212 44.3428 1830.70 1905.32 44.90
11213 44.3466 1860.90 1905.11 45.30
11214 44.3504 1936.00 1905.64 46.30
11215 44.3541 1831.80 1905.47 44.30
11216 44.3579 1882.60 1905.29 45.00
11217 44.3617 1930.70 1905.12 45.90
11218 44.3654 1900.20 1904.95 45.20
11219 44.3692 1932.90 1904.79 46.50
11220 44.3729 1866.20 1904.62 44.90
11221 44.3767 1925.20 1904.47 46.40
11222 44.3805 1796.30 1904.31 44.00
11223 44.3842 1862.00 1904.16 45.60
11224 44.3880 1832.80 1904.02 45.10
11225 44.3917 1819.90 1903.88 44.50
11226 44.3955 1948.60 1903.75 45.90
11227 44.3993 1878.10 1903.63 45.60
11228 44.4030 1875.40 1903.51 45.00
11229 44.4068 1901.50 1903.41 45.60
11230 44.4105 1861.70 1903.31 45.50
11231 44.4143 1869.10 1903.23 45.20
11232 44.4181 1824.20 1903.16 44.10
11233 44.4218 1844.20 1903.11 45.20
11234 44.4256 1844.40 1903.08 44.40
11235 44.4293 1856.80 1903.08 46.00
11236 44.4331 1803.80 1903.10 44.80
11237 44.4369 1941.40 1903.15 45.80
11238 44.4406 1847.80 1903.24 44.90
11239 44.4444 1780.10 1903.37 44.50
11240 44.4481 1820.60 1903.56 45.10
11241 44.4519 1895.00 1903.82 45.60
11242 44.4557 1806.20 1904.16 44.40
11243 44.4594 1866.90 1904.61 45.40
11244 44.4632 1803.60 1905.19 44.40
11245 44.4669 1865.90 1905.93 45.30
11246 44.4707 1775.70 1906.90 44.00
11247 44.4745 1899.80 1908.16 46.10
11248 44.4782 1741.10 1909.80 43.70
11249 44.4820 1945.60 1912.02 46.50
11250 44.4857 1822.10 1915.09 44.90
11251 44.4895 1843.70 1919.58 44.80
11252 44.4933 1975.10 1926.78 47.00
11253 44.4970 1949.70 1939.14 46.30
11254 44.5008 1919.10 1960.72 45.60
11255 44.5045 1953.10 1996.61 45.40
11256 44.5083 2001.20 2050.26 47.10
11257 44.5121 1965.10 2118.08 47.20
11258 44.5158 1988.90 2180.33 46.80
11259 44.5196 2081.60 2197.69 48.10
11260 44.5233 2114.70 2154.82 48.00
11261 44.5271 2015.50 2085.62 46.20
11262 44.5309 1910.90 2022.49 46.90
11263 44.5346 1931.80 1976.62 45.80
11264 44.5384 1809.70 1947.33 44.40
11265 44.5421 1813.10 1930.06 44.60
11266 44.5459 1820.10 1920.02 44.50
11267 44.5497 1835.00 1913.83 45.10
11268 44.5534 1854.70 1909.65 45.00
11269 44.5572 1812.10 1906.59 45.10
11270 44.5609 1846.20 1904.23 44.80
11271 44.5647 1886.70 1902.34 45.80
11272 44.5685 1837.70 1900.80 45.00
11273 44.5722 1928.90 1899.51 46.10
11274 44.5760 1871.40 1898.42 45.30
11275 44.5797 1831.80 1897.48 45.40
11276 44.5835 1791.40 1896.66 44.30
11277 44.5873 1935.10 1895.93 46.50
11278 44.5910 1851.40 1895.28 45.30
11279 44.5948 1975.70 1894.69 46.90
11280 44.5985 1866.60 1894.15 45.70
11281 44.6023 1910.80 1893.66 45.80
11282 44.6061 1819.60 1893.19 45.30
11283 44.6098 1911.50 1892.76 46.10
11284 44.6136 1854.20 1892.35 45.30
11285 44.6173 1837.20 1891.97 45.90
11286 44.6211 1875.30 1891.60 45.10
11287 44.6249 1829.60 1891.25 44.80
11288 44.6286 1747.30 1890.91 44.00
11289 44.6324 1915.70 1890.58 46.60
11290 44.6361 1873.40 1890.27 45.80
11291 44.6399 1831.30 1889.96 44.40
11292 44.6437 1788.20 1889.66 43.90
11293 44.6474 1885.10 1889.37 46.00
11294 44.6512 1906.10 1889.08 45.80
11295 44.6549 1922.00 1888.80 46.50
11296 44.6587 1829.90 1888.53 45.30
11297 44.6625 1859.70 1888.26 44.40
11298 44.6662 1848.60 1887.99 45.50
11299 44.6700 1933.40 1887.73 46.60
11300 44.6737 1824.00 1887.47 45.10
11301 44.6775 1823.20 1887.22 45.80
11302 44.6813 1818.60 1886.96 44.80
11303 44.6850 1893.70 1886.71 46.00
11304 44.6888 1816.70 1885.74 46.00
11305 44.6925 1894.70 1885.52 45.30
11306 44.6963 1781.50 1885.31 44.60
11307 44.7001 1890.60 1885.09 45.30
11308 44.7038 1823.00 1884.88 45.70
11309 44.7076 1871.00 1884.66 46.10
11310 44.7113 1907.70 1884.45 46.60
11311 44.7151 1893.70 1884.23 46.30
11312 44.7189 1867.80 1884.02 45.00
11313 44.7226 1905.80 1883.80 46.70
11314 44.7264 1858.10 1883.59 45.50
11315 44.7301 1888.20 1883.37 46.20
11316 44.7339 1823.90 1883.16 45.90
11317 44.7377 1869.90 1882.94 45.70
11318 44.7414 1783.90 1882.73 44.40
11319 44.7452 1863.30 1882.51 45.50
11320 44.7489 1854.00 1882.30 45.80
11321 44.7527 1871.70 1882.08 46.10
11322 44.7565 1813.40 1881.87 45.00
11323 44.7602 1860.10 1881.65 45.70
11324 44.7640 1789.20 1881.43 44.00
11325 44.7677 1832.10 1881.22 45.50
11326 44.7715 1720.90 1881.00 44.10
11327 44.7753 1856.70 1880.79 45.30
11328 44.7790 1806.50 1880.57 44.10
11329 44.7828 1828.00 1880.36 45.20
11330 44.7865 1839.30 1880.14 45.60
11331 44.7903 1920.10 1879.93 46.80
11332 44.7941 1767.60 1879.71 44.50
11333 44.7978 1888.80 1879.50 46.10
11334 44.8016 1880.40 1879.28 45.90
11335 44.8053 1819.50 1879.06 45.20
11336 44.8091 1812.30 1878.85 45.40
11337 44.8129 1872.00 1878.63 45.90
11338 44.8204 1852.60 1878.20 44.90
11339 44.8241 1887.80 1877.99 46.10
11340 44.8279 1881.10 1877.77 45.40
11341 44.8317 1838.60 1877.55 46.40
11342 44.8354 1791.90 1877.34 45.00
11343 44.8392 1783.60 1877.12 44.50
11344 44.8429 1916.10 1876.91 46.00
11345 44.8467 1830.50 1876.69 45.00
11346 44.8505 1897.20 1876.48 45.90
11347 44.8542 1808.10 1876.26 45.30
11348 44.8580 1894.80 1876.04 46.20
11349 44.8617 1852.30 1875.83 45.50
11350 44.8655 1816.60 1875.61 45.30
11351 44.8693 1826.80 1875.40 45.50
11352 44.8730 1903.20 1875.18 45.90
11353 44.8768 1727.10 1874.96 43.80
11354 44.8805 1819.60 1874.75 45.20
11355 44.8843 1821.60 1874.53 45.00
11356 44.8881 1887.90 1874.31 45.80
11357 44.8918 1830.80 1874.10 44.90
11358 44.8956 1761.90 1873.88 44.40
11359 44.8993 1742.60 1873.67 44.20
11360 44.9031 1901.50 1873.45 46.10
11361 44.9069 1775.20 1873.23 44.50
11362 44.9106 1882.00 1873.02 46.20
11363 44.9144 1798.80 1872.80 44.60
11364 44.9181 1870.00 1872.59 46.40
11365 44.9219 1860.20 1872.37 45.70
11366 44.9257 1876.00 1872.15 45.90
11367 44.9294 1770.40 1871.94 44.90
11368 44.9332 1931.20 1871.72 47.50
11369 44.9369 1848.40 1871.50 45.30
11370 44.9407 1791.30 1871.29 44.50
11371 44.9445 1877.20 1871.07 45.50
11372 44.9482 1865.00 1870.85 45.60
11373 44.9520 1813.00 1870.64 45.70
11374 44.9557 1872.40 1870.42 46.20
11375 44.9595 1859.60 1870.20 46.00
11376 44.9633 1789.70 1869.99 45.40
11377 44.9670 1900.00 1869.77 46.40
11378 44.9708 1941.40 1869.55 46.80
11379 44.9745 1867.10 1869.34 45.80
11380 44.9783 1942.50 1869.12 46.90
11381 44.9821 1795.90 1868.91 45.20
11382 44.9858 1839.80 1868.69 44.60
11383 44.9896 1839.40 1868.47 45.10
11384 44.9933 1864.70 1868.26 46.00
11385 44.9971 1806.00 1868.04 45.30
11386 45.0009 1802.90 1867.82 45.20
11387 45.0046 1769.00 1867.61 44.30
11388 45.0084 1815.00 1867.39 44.50
11389 45.0121 1798.30 1867.17 45.00
11390 45.0159 1795.00 1866.96 45.10
11391 45.0197 1835.80 1866.74 45.90
11392 45.0234 1816.40 1866.52 44.60
11393 45.0272 1747.10 1866.30 43.50
11394 45.0309 1913.50 1866.09 47.20
11395 45.0347 1843.60 1865.87 46.10
11396 45.0385 1882.50 1865.65 46.00
11397 45.0422 1753.50 1865.44 44.30
11398 45.0460 1806.50 1865.22 45.20
11399 45.0497 1752.30 1865.00 43.70
11400 45.0535 1776.70 1864.79 45.00
11401 45.0573 1713.40 1864.57 43.80
11402 45.0610 1826.70 1864.35 45.30
11403 45.0648 1782.20 1864.14 44.00
11404 45.0685 1791.10 1863.92 44.60
11405 45.0723 1841.80 1863.70 45.30
11406 45.0761 1782.50 1863.49 45.00
11407 45.0798 1784.70 1863.27 44.80
11408 45.0836 1888.60 1863.05 46.20
11409 45.0873 1718.90 1862.83 43.40
11410 45.0911 1861.60 1862.62 45.80
11411 45.0949 1772.20 1862.40 45.80
11412 45.0986 1778.90 1862.18 45.00
11413 45.1024 1810.10 1861.97 44.90
11414 45.1061 1789.60 1861.75 44.50
11415 45.1099 1710.40 1861.53 44.50
11416 45.1137 1804.90 1861.32 44.80
11417 45.1174 1743.00 1861.10 44.20
11418 45.1212 1830.50 1860.88 45.50
11419 45.1249 1825.20 1860.66 44.60
11420 45.1287 1877.10 1860.45 46.60
11421 45.1325 1817.40 1860.23 45.70
11422 45.1362 1857.90 1860.01 45.80
11423 45.1400 1788.60 1859.80 44.80
11424 45.1437 1874.60 1859.58 45.60
11425 45.1475 1799.20 1859.36 44.10
11426 45.1513 1817.00 1859.15 45.20
11427 45.1550 1880.70 1858.93 46.50
11428 45.1588 1920.50 1858.71 47.00
11429 45.1625 1881.00 1858.49 45.70
11430 45.1663 1776.50 1858.28 45.00
11431 45.1701 1808.10 1858.06 45.20
11432 45.1738 1782.50 1857.84 45.20
11433 45.1776 1775.10 1857.63 44.40
11434 45.1813 1913.30 1857.41 46.60
11435 45.1851 1717.80 1857.19 44.10
11436 45.1889 1889.30 1856.97 46.10
11437 45.1926 1784.50 1856.76 44.80
11438 45.1964 1846.10 1856.54 45.00
11439 45.2001 1761.70 1856.32 44.30
11440 45.2039 1831.50 1856.11 45.20
11441 45.2076 1837.40 1855.89 45.50
11442 45.2114 1825.50 1855.67 45.70
11443 45.2152 1751.70 1855.45 44.00
11444 45.2189 1867.80 1855.24 46.30
11445 45.2227 1819.00 1855.02 45.30
11446 45.2265 1802.40 1854.80 44.60
11447 45.2302 1820.60 1854.59 45.90
11448 45.2340 1849.60 1854.37 46.50
11449 45.2377 1811.20 1854.15 44.60
11450 45.2415 1727.70 1853.93 43.40
11451 45.2453 1784.20 1853.72 44.90
11452 45.2490 1718.40 1853.50 43.50
11453 45.2528 1825.50 1853.28 45.20
11454 45.2565 1825.70 1853.07 45.40
11455 45.2603 1761.80 1852.85 44.30
11456 45.2640 1795.10 1852.63 45.10
11457 45.2678 1745.20 1852.41 44.50
11458 45.2716 1794.20 1852.20 45.20
11459 45.2753 1736.60 1851.98 43.90
11460 45.2791 1877.50 1851.76 45.50
11461 45.2828 1755.30 1851.55 44.30
11462 45.2866 1833.30 1851.33 45.40
11463 45.2904 1752.20 1851.11 43.80
11464 45.2941 1852.60 1850.90 45.20
11465 45.2979 1778.40 1850.68 44.80
11466 45.3016 1835.10 1850.46 45.50
11467 45.3054 1849.50 1850.24 45.20
11468 45.3092 1784.80 1850.03 45.30
11469 45.3129 1737.80 1849.81 44.20
11470 45.3167 1850.20 1849.59 44.60
11471 45.3204 1835.30 1849.38 45.50
11472 45.3242 1853.50 1849.16 45.00
11473 45.3280 1795.10 1848.94 44.30
11474 45.3317 1847.50 1848.72 47.10
11475 45.3355 1818.30 1848.51 45.60
11476 45.3392 1808.90 1848.29 43.90
11477 45.3430 1756.20 1848.07 44.80
11478 45.3468 1896.90 1847.86 46.10
11479 45.3543 1840.60 1847.42 45.90
11480 45.3580 1760.80 1847.21 44.00
11481 45.3618 1872.10 1846.99 45.60
11482 45.3656 1740.00 1846.77 44.00
11483 45.3693 1819.20 1846.55 45.70
11484 45.3731 1799.40 1846.34 45.30
11485 45.3768 1813.80 1846.12 45.70
11486 45.3806 1749.20 1845.90 44.20
11487 45.3843 1813.50 1845.69 45.30
11488 45.3881 1830.90 1845.47 45.60
11489 45.3919 1793.80 1845.25 44.70
11490 45.3956 1787.00 1845.04 44.70
11491 45.3994 1795.10 1844.82 44.70
11492 45.4031 1803.30 1844.60 45.00
11493 45.4069 1799.50 1844.38 44.60
11494 45.4107 1757.90 1844.17 44.90
11495 45.4144 1802.20 1843.95 44.40
11496 45.4182 1850.30 1843.73 45.20
11497 45.4219 1810.90 1843.52 45.50
11498 45.4257 1735.30 1843.30 43.70
11499 45.4295 1831.10 1843.08 44.60
11500 45.4332 1765.40 1842.87 44.70
11501 45.4370 1822.20 1842.65 45.60
11502 45.4407 1809.00 1842.43 45.00
11503 45.4445 1829.80 1842.22 45.40
11504 45.4483 1815.20 1842.00 45.10
11505 45.4520 1850.60 1841.78 45.40
11506 45.4558 1787.50 1841.57 45.00
11507 45.4595 1815.30 1841.35 44.60
11508 45.4633 1772.40 1841.13 44.90
11509 45.4671 1796.60 1840.92 45.10
11510 45.4708 1858.70 1840.70 46.10
11511 45.4746 1795.00 1840.48 45.20
11512 45.4783 1782.00 1840.27 44.70
11513 45.4821 1828.30 1840.05 46.00
11514 45.4859 1769.90 1839.83 44.60
11515 45.4896 1911.20 1839.62 46.60
11516 45.4934 1776.40 1839.40 44.40
11517 45.4971 1836.40 1839.18 45.60
11518 45.5009 1787.00 1838.97 44.90
11519 45.5047 1859.60 1838.75 45.60
11520 45.5084 1762.10 1838.53 44.20
11521 45.5122 1862.50 1838.32 45.50
11522 45.5159 1793.90 1838.10 44.10
11523 45.5197 1911.80 1837.88 46.30
11524 45.5234 1725.30 1837.67 44.10
11525 45.5272 1806.30 1837.45 44.80
11526 45.5310 1707.70 1837.23 43.90
11527 45.5347 1861.90 1837.02 46.30
11528 45.5385 1803.30 1836.80 44.50
11529 45.5422 1797.00 1836.59 44.10
11530 45.5460 1819.00 1836.37 45.30
11531 45.5498 1786.90 1836.15 44.50
11532 45.5535 1740.00 1835.94 44.00
11533 45.5573 1819.50 1835.72 44.90
11534 45.5610 1826.50 1835.50 45.30
11535 45.5648 1801.10 1835.29 45.30
11536 45.5686 1789.60 1835.07 44.40
11537 45.5723 1771.10 1834.86 44.40
11538 45.5761 1766.50 1834.64 44.60
11539 45.5798 1918.90 1834.42 46.50
11540 45.5836 1724.50 1834.21 43.50
11541 45.5873 1817.50 1833.99 45.20
11542 45.5911 1811.40 1833.77 45.10
11543 45.5949 1821.30 1833.56 45.10
11544 45.5986 1823.90 1833.34 44.30
11545 45.6024 1851.70 1833.13 44.50
11546 45.6061 1763.40 1832.91 44.20
11547 45.6099 1835.30 1832.69 44.40
11548 45.6137 1864.70 1832.48 45.90
11549 45.6174 1886.30 1832.26 46.40
11550 45.6212 1677.60 1832.05 43.50
11551 45.6249 1872.40 1831.83 45.90
11552 45.6287 1721.00 1831.61 43.00
11553 45.6325 1880.40 1831.40 46.20
11554 45.6362 1831.80 1831.18 45.00
11555 45.6400 1932.50 1830.97 46.40
11556 45.6437 1765.50 1830.75 44.00
11557 45.6475 1769.30 1830.54 44.00
11558 45.6512 1766.60 1830.32 44.60
11559 45.6550 1803.40 1830.10 45.20
11560 45.6588 1772.70 1829.89 44.80
11561 45.6625 1818.10 1829.67 45.50
11562 45.6663 1784.30 1829.46 44.50
11563 45.6700 1809.30 1829.24 45.60
11564 45.6738 1773.50 1829.03 44.80
11565 45.6776 1816.10 1828.81 45.50
11566 45.6813 1835.30 1828.59 45.50
11567 45.6851 1839.40 1828.38 45.20
11568 45.6888 1848.80 1828.16 45.50
11569 45.6926 1866.70 1827.95 46.40
11570 45.6964 1883.80 1827.73 46.40
11571 45.7001 1913.90 1827.52 47.10
11572 45.7039 1800.40 1827.30 44.70
11573 45.7076 1849.70 1827.09 46.10
11574 45.7114 1822.90 1826.87 45.70
11575 45.7151 1791.00 1826.66 45.30
11576 45.7189 1797.70 1826.44 45.50
11577 45.7227 1849.10 1826.23 45.90
11578 45.7264 1742.50 1826.01 44.10
11579 45.7302 1754.70 1825.80 43.90
11580 45.7339 1923.20 1825.58 47.90
11581 45.7377 1841.80 1825.37 45.70
11582 45.7415 1787.10 1825.15 45.10
11583 45.7452 1836.00 1824.94 45.70
11584 45.7490 1752.60 1824.72 44.00
11585 45.7527 1859.40 1824.51 45.90
11586 45.7565 1835.10 1824.29 45.70
11587 45.7603 1793.90 1824.08 45.00
11588 45.7640 1678.60 1823.86 42.40
11589 45.7678 1858.80 1823.65 45.40
11590 45.7715 1799.50 1823.43 45.10
11591 45.7753 1880.90 1823.22 46.10
11592 45.7790 1744.50 1823.00 44.20
11593 45.7828 1866.60 1822.79 46.50
11594 45.7866 1777.00 1822.57 45.30
11595 45.7903 1921.50 1822.36 47.50
11596 45.7941 1732.80 1822.14 44.30
11597 45.7978 1895.60 1821.93 46.60
11598 45.8016 1831.10 1821.71 45.40
11599 45.8054 1856.50 1821.50 46.30
11600 45.8091 1793.00 1821.28 44.80
11601 45.8129 1946.40 1821.07 46.80
11602 45.8166 1867.20 1820.86 45.50
11603 45.8204 1841.20 1820.64 45.50
11604 45.8242 1925.20 1820.43 47.50
11605 45.8279 1872.90 1820.21 45.70
11606 45.8317 1798.40 1820.00 45.40
11607 45.8354 1927.80 1819.78 48.20
11608 45.8392 1892.90 1819.57 46.20
11609 45.8429 1911.50 1819.36 46.50
11610 45.8467 1806.70 1819.14 45.50
11611 45.8505 1862.70 1818.93 46.40
11612 45.8542 1833.30 1818.71 46.00
11613 45.8580 1878.80 1818.50 46.10
11614 45.8617 1889.50 1818.29 46.50
11615 45.8655 1860.40 1818.07 46.10
11616 45.8693 1880.60 1817.86 46.20
11617 45.8730 1890.30 1817.64 46.50
11618 45.8768 1859.40 1817.43 46.20
11619 45.8805 1950.90 1817.22 47.50
11620 45.8843 1919.90 1817.00 45.80
11621 45.8880 1886.90 1816.79 46.40
11622 45.8918 1815.40 1816.57 45.50
11623 45.8956 1926.60 1816.36 47.10
11624 45.8993 1843.20 1816.15 46.20
11625 45.9031 1971.20 1815.93 46.60
11626 45.9068 1937.50 1815.72 46.70
11627 45.9106 1888.00 1815.51 46.70
11628 45.9143 1871.20 1815.29 46.20
11629 45.9181 1868.70 1815.08 46.40
11630 45.9219 1934.90 1814.87 47.30
11631 45.9256 1994.50 1814.65 47.70
11632 45.9294 1829.70 1814.44 44.80
11633 45.9331 1928.60 1814.23 48.40
11634 45.9369 1881.30 1814.01 45.70
11635 45.9407 1944.00 1813.80 46.90
11636 45.9444 1835.30 1813.59 45.20
11637 45.9482 1946.30 1813.37 47.30
11638 45.9519 1894.20 1813.16 46.70
11639 45.9557 1956.80 1812.95 47.10
11640 45.9594 1858.90 1812.73 46.30
11641 45.9632 1867.10 1812.52 46.80
11642 45.9670 1880.40 1812.31 45.80
11643 45.9707 1826.10 1812.10 46.60
11644 45.9745 1901.60 1811.88 47.00
11645 45.9782 1841.40 1811.67 46.00
11646 45.9820 1875.40 1811.46 46.80
11647 45.9857 1938.20 1811.25 47.10
11648 45.9895 1866.60 1811.03 46.30
11649 45.9933 1976.70 1810.82 47.90
11650 45.9970 1911.60 1810.61 47.10
11651 46.0008 2066.40 1810.40 49.50
11652 46.0045 1918.00 1810.18 46.20
11653 46.0083 1998.70 1809.97 48.50
11654 46.0121 1921.70 1809.76 46.80
11655 46.0158 1977.50 1809.55 47.20
11656 46.0196 1964.40 1809.33 47.90
11657 46.0233 2051.00 1809.12 48.60
11658 46.0271 1902.10 1808.91 46.70
11659 46.0308 1954.30 1808.70 46.60
11660 46.0346 1968.40 1808.49 49.10
11661 46.0384 2047.60 1808.27 48.80
11662 46.0421 1952.60 1808.06 47.20
11663 46.0459 2039.60 1807.85 48.70
11664 46.0496 2044.50 1807.64 48.40
11665 46.0534 1963.90 1807.43 46.80
11666 46.0572 2021.70 1807.21 48.50
11667 46.0609 2063.10 1807.00 48.10
11668 46.0647 1981.30 1806.79 46.20
11669 46.0684 2054.50 1806.58 47.60
11670 46.0722 1998.40 1806.37 46.80
11671 46.0759 2082.00 1806.16 47.90
11672 46.0797 2029.10 1805.94 47.60
11673 46.0835 2121.60 1805.73 48.30
11674 46.0872 2083.70 1805.52 47.80
11675 46.0910 2089.50 1805.31 48.10
11676 46.0947 2181.60 1805.10 49.20
11677 46.0985 2131.60 1804.89 48.80
11678 46.1022 2142.10 1804.68 48.60
11679 46.1060 2256.10 1804.47 50.10
11680 46.1098 2198.30 1804.25 48.80
11681 46.1135 2229.70 1804.04 49.80
11682 46.1173 2257.90 1803.83 50.00
11683 46.1210 2311.30 1803.62 51.00
11684 46.1248 2300.10 2122.78 50.50
11685 46.1285 2294.20 2137.06 50.30
11686 46.1323 2237.00 2152.42 50.00
11687 46.1361 2397.30 2168.85 52.60
11688 46.1398 2414.60 2186.51 51.60
11689 46.1436 2399.30 2205.47 51.80
11690 46.1473 2420.70 2225.96 52.30
11691 46.1511 2584.80 2248.05 53.90
11692 46.1549 2510.20 2271.97 52.80
11693 46.1586 2578.40 2297.82 54.00
11694 46.1624 2490.30 2325.99 52.50
11695 46.1661 2577.40 2356.61 54.10
11696 46.1699 2591.90 2390.06 54.00
11697 46.1736 2789.00 2426.54 56.30
11698 46.1774 2864.40 2466.71 57.10
11699 46.1811 2962.20 2510.73 56.50
11700 46.1849 2953.90 2559.39 56.70
11701 46.1887 2993.30 2613.29 58.10
11702 46.1924 3009.30 2673.23 57.90
11703 46.1962 3209.00 2739.82 59.90
11704 46.1999 3186.60 2814.47 59.90
11705 46.2037 3421.20 2898.47 62.30
11706 46.2075 3480.60 2993.42 62.90
11707 46.2112 3590.10 3100.80 62.80
11708 46.2150 3676.70 3223.54 64.60
11709 46.2187 3843.60 3364.56 65.50
11710 46.2225 4039.00 3527.65 68.30
11711 46.2262 4265.50 3716.69 68.40
11712 46.2300 4516.40 3938.92 71.60
11713 46.2337 4986.70 4201.49 76.50
11714 46.2375 4998.90 4514.30 76.50
11715 46.2413 5427.20 4893.07 78.70
11716 46.2450 5923.50 5355.16 83.70
11717 46.2488 6668.50 5926.47 89.10
11718 46.2525 7148.80 6643.20 92.30
11719 46.2563 8100.50 7566.38 100.10
11720 46.2601 9064.40 8788.48 105.10
11721 46.2638 11131.40 10490.00 119.50
11722 46.2676 12985.80 13065.90 130.30
11723 46.2713 16860.00 17314.60 146.60
11724 46.2751 22747.50 24607.80 176.90
11725 46.2788 35020.60 36950.60 226.60
11726 46.2826 53964.50 56175.20 296.20
11727 46.2864 83611.40 82457.50 385.20
11728 46.2901 107036.00 111341.00 448.70
11729 46.2939 127381.00 130235.00 495.80
11730 46.2976 126111.00 124778.00 502.30
11731 46.3014 113559.00 99710.20 461.50
11732 46.3051 82149.70 70854.30 380.10
11733 46.3089 52974.20 47310.00 290.10
11734 46.3126 31658.00 31131.40 214.80
11735 46.3164 21837.50 21113.20 175.40
11736 46.3202 16009.30 15278.90 145.10
11737 46.3239 13155.20 11861.90 130.90
11738 46.3277 10737.60 9709.27 116.60
11739 46.3314 9294.80 8237.77 105.90
11740 46.3352 8101.00 7154.01 101.90
11741 46.3389 7477.90 6323.58 95.50
11742 46.3427 6594.10 5670.46 89.00
11743 46.3465 6097.50 5148.60 84.40
11744 46.3502 5599.30 4723.12 82.50
11745 46.3540 5371.10 4372.81 80.30
11746 46.3577 4897.60 4081.83 74.70
11747 46.3615 4649.60 3836.35 74.30
11748 46.3652 4446.10 3627.96 71.90
11749 46.3690 4399.70 3449.89 71.90
11750 46.3727 4072.10 3296.17 68.40
11751 46.3765 4031.10 3162.58 67.70
11752 46.3803 3646.90 3046.16 65.40
11753 46.3840 3701.80 2943.47 65.10
11754 46.3878 3363.50 2852.93 62.50
11755 46.3915 3365.90 2772.69 61.10
11756 46.3953 3301.70 2700.93 60.90
11757 46.3990 3083.80 2636.79 59.60
11758 46.4028 2988.00 2579.02 58.70
11759 46.4066 2837.40 2526.94 57.40
11760 46.4103 2857.50 2479.87 57.30
11761 46.4141 2826.80 2436.96 55.90
11762 46.4178 2653.80 2397.91 54.80
11763 46.4216 2608.60 2362.26 54.20
11764 46.4253 2599.40 2329.66 54.60
11765 46.4291 2504.70 2299.62 51.40
11766 46.4328 2515.00 2272.06 54.20
11767 46.4366 2537.50 2246.55 54.20
11768 46.4404 2468.30 2223.04 52.30
11769 46.4441 2415.40 2201.21 53.00
11770 46.4479 2393.10 2180.90 52.40
11771 46.4516 2384.60 2162.09 51.60
11772 46.4554 2311.10 2144.51 51.30
11773 46.4591 2436.60 2128.15 52.30
11774 46.4629 2259.30 2112.82 50.40
11775 46.4667 2294.90 2098.44 51.30
11776 46.4704 2309.70 1784.26 51.00
11777 46.4742 2321.50 1784.06 51.60
11778 46.4779 2146.20 1783.85 49.50
11779 46.4817 2255.20 1783.65 50.40
11780 46.4854 2163.60 1783.44 49.90
11781 46.4892 2160.20 1783.24 49.50
11782 46.4930 2157.40 1783.04 49.60
11783 46.4967 2206.20 1782.83 49.70
11784 46.5005 2059.50 1782.63 47.50
11785 46.5042 2089.00 1782.42 48.10
11786 46.5080 1978.00 1782.22 46.50
11787 46.5117 2124.20 1782.01 49.10
11788 46.5155 2121.90 1781.81 48.20
11789 46.5192 2103.80 1781.60 49.10
11790 46.5230 2015.00 1781.40 48.30
11791 46.5268 2009.00 1781.20 47.10
11792 46.5305 2017.00 1780.99 46.80
11793 46.5343 2047.80 1780.79 48.90
11794 46.5380 1989.60 1780.58 48.30
11795 46.5418 1971.30 1780.38 46.60
11796 46.5455 1962.80 1780.18 46.10
11797 46.5493 2007.50 1779.97 46.90
11798 46.5531 1953.00 1779.77 46.10
11799 46.5568 2034.80 1779.57 47.00
11800 46.5606 1954.20 1779.36 46.10
11801 46.5643 1901.10 1779.16 45.40
11802 46.5681 1872.50 1778.96 45.00
11803 46.5718 1926.60 1778.75 45.80
11804 46.5756 1843.90 1778.55 44.90
11805 46.5793 1925.10 1778.35 45.20
11806 46.5831 1875.10 1778.14 45.20
11807 46.5868 1895.20 1777.94 45.40
11808 46.5906 1940.30 1777.74 46.00
11809 46.5944 1925.90 1777.54 45.80
11810 46.5981 1915.30 1777.33 45.90
11811 46.6019 1857.50 1777.13 45.00
11812 46.6056 1866.20 1776.93 44.80
11813 46.6094 1950.70 1776.73 46.00
11814 46.6131 1907.20 1776.52 46.10
11815 46.6169 1839.30 1776.32 45.10
11816 46.6207 1860.60 1776.12 45.10
11817 46.6244 1813.10 1775.92 43.80
11818 46.6282 1801.40 1775.71 43.90
11819 46.6319 1836.00 1775.51 44.90
11820 46.6357 1866.30 1775.31 45.90
11821 46.6394 1779.50 1775.11 44.20
11822 46.6432 1747.30 1774.91 43.20
11823 46.6469 1860.70 1774.71 44.80
11824 46.6507 1795.60 1774.50 43.70
11825 46.6544 1827.80 1774.30 44.60
11826 46.6582 1854.10 1774.10 45.00
11827 46.6620 1854.00 1773.90 45.10
11828 46.6657 1791.80 1773.70 44.20
11829 46.6695 1867.00 1773.50 45.30
11830 46.6732 1772.60 1773.30 44.00
11831 46.6770 1796.90 1773.10 44.20
11832 46.6807 1813.20 1772.89 44.90
11833 46.6845 1801.80 1772.69 44.00
11834 46.6882 1780.80 1772.49 43.30
11835 46.6920 1838.90 1772.29 44.60
11836 46.6958 1808.70 1772.09 44.60
11837 46.6995 1844.80 1771.89 45.00
11838 46.7033 1745.80 1771.69 43.40
11839 46.7070 1875.60 1771.49 45.40
11840 46.7108 1802.00 1771.29 43.60
11841 46.7145 1850.20 1771.09 45.20
11842 46.7183 1773.90 1770.89 44.00
11843 46.7220 1857.80 1770.69 45.00
11844 46.7258 1766.10 1770.49 44.10
11845 46.7295 1828.10 1770.29 44.20
11846 46.7333 1816.10 1770.09 44.00
11847 46.7371 1745.80 1769.89 44.30
11848 46.7408 1751.30 1769.69 43.60
11849 46.7446 1767.90 1769.49 43.70
11850 46.7483 1786.60 1769.29 44.20
11851 46.7521 1829.70 1769.09 44.60
11852 46.7558 1652.80 1768.89 42.80
11853 46.7596 1782.00 1768.69 44.30
11854 46.7633 1705.20 1768.50 43.30
11855 46.7671 1818.60 1768.30 44.50
11856 46.7709 1770.20 1768.10 43.40
11857 46.7746 1763.60 1767.90 43.90
11858 46.7784 1805.80 1767.70 45.00
11859 46.7821 1802.80 1767.50 44.80
11860 46.7859 1813.20 1767.30 44.60
11861 46.7896 1866.70 1767.10 45.00
11862 46.7934 1716.90 1766.91 43.50
11863 46.7971 1768.50 1766.71 43.40
11864 46.8009 1759.60 1766.51 43.40
11865 46.8046 1764.50 1766.31 44.00
11866 46.8084 1830.10 1766.11 45.00
11867 46.8121 1861.50 1765.92 45.60
11868 46.8159 1737.40 1765.72 43.80
11869 46.8197 1809.80 1765.52 44.70
11870 46.8234 1775.70 1765.32 44.20
11871 46.8272 1770.50 1765.12 43.70
11872 46.8309 1696.40 1764.93 42.20
11873 46.8347 1798.10 1764.73 44.20
11874 46.8384 1734.20 1764.53 42.80
11875 46.8422 1829.50 1764.34 44.90
11876 46.8459 1699.20 1764.14 42.90
11877 46.8497 1744.60 1763.94 43.60
11878 46.8535 1792.30 1763.74 44.70
11879 46.8572 1763.30 1763.55 45.00
11880 46.8610 1695.30 1763.35 43.20
11881 46.8647 1678.40 1763.15 42.40
11882 46.8685 1698.10 1762.96 43.30
11883 46.8722 1723.10 1762.76 43.30
11884 46.8760 1728.50 1762.56 43.00
11885 46.8797 1791.10 1762.37 44.80
11886 46.8835 1782.90 1762.17 44.30
11887 46.8872 1710.80 1761.98 43.50
11888 46.8910 1711.40 1761.78 43.40
11889 46.8947 1771.20 1761.58 44.20
11890 46.8985 1814.40 1761.39 44.90
11891 46.9023 1698.50 1761.19 43.40
11892 46.9060 1702.90 1761.00 43.20
11893 46.9098 1776.10 1760.80 43.70
11894 46.9135 1663.90 1760.61 43.10
11895 46.9173 1772.10 1760.41 44.10
11896 46.9210 1746.90 1760.21 43.90
11897 46.9248 1722.70 1760.02 43.40
11898 46.9285 1715.50 1759.82 43.00
11899 46.9323 1676.30 1759.63 42.60
11900 46.9360 1728.50 1759.43 44.00
11901 46.9398 1665.00 1759.24 43.00
11902 46.9436 1691.30 1759.04 42.50
11903 46.9473 1699.00 1758.85 43.10
11904 46.9511 1734.30 1758.66 43.10
11905 46.9548 1807.30 1758.46 44.60
11906 46.9586 1752.40 1758.27 43.60
11907 46.9623 1776.50 1758.07 44.50
11908 46.9661 1633.00 1757.88 41.90
11909 46.9698 1731.80 1757.68 43.70
11910 46.9736 1640.60 1757.49 42.50
11911 46.9773 1701.00 1757.30 43.10
11912 46.9811 1723.60 1757.10 43.50
11913 46.9848 1739.60 1756.91 44.20
11914 46.9886 1664.10 1756.71 42.70
11915 46.9924 1794.60 1756.52 44.50
11916 46.9961 1650.80 1756.33 42.40
11917 46.9999 1723.80 1756.13 42.90
11918 47.0020 1770.30 1756.02 44.70
11919 47.0058 1710.80 1755.83 43.10
11920 47.0095 1765.30 1755.64 44.80
11921 47.0133 1643.70 1755.44 43.40
11922 47.0171 1767.70 1755.25 44.00
11923 47.0208 1639.60 1755.06 42.00
11924 47.0246 1749.10 1754.86 45.00
11925 47.0283 1725.30 1754.67 44.90
11926 47.0321 1721.30 1754.48 43.40
11927 47.0358 1690.30 1754.29 42.60
11928 47.0396 1833.70 1754.09 44.70
11929 47.0434 1685.90 1753.90 42.70
11930 47.0471 1713.60 1753.71 43.00
11931 47.0509 1698.80 1753.52 42.80
11932 47.0546 1765.10 1753.33 43.70
11933 47.0584 1719.00 1753.13 43.00
11934 47.0621 1637.80 1752.94 42.10
11935 47.0659 1735.20 1752.75 43.50
11936 47.0696 1716.90 1752.56 42.60
11937 47.0734 1635.30 1752.37 42.10
11938 47.0771 1750.80 1752.18 43.60
11939 47.0809 1706.60 1751.98 43.00
11940 47.0847 1757.50 1751.79 43.70
11941 47.0884 1702.20 1751.60 43.20
11942 47.0922 1732.70 1751.41 43.40
11943 47.0959 1556.30 1751.22 40.80
11944 47.0997 1707.50 1751.03 42.90
11945 47.1034 1758.10 1750.84 44.20
11946 47.1072 1815.10 1750.65 44.70
11947 47.1110 1684.00 1750.46 42.90
11948 47.1147 1722.50 1750.27 42.60
11949 47.1185 1691.10 1750.08 42.50
11950 47.1222 1742.00 1749.89 43.70
11951 47.1260 1659.70 1749.70 43.20
11952 47.1297 1713.40 1749.51 43.30
11953 47.1335 1714.10 1749.32 42.80
11954 47.1372 1670.90 1749.13 42.40
11955 47.1410 1692.70 1748.94 42.40
11956 47.1447 1794.10 1748.75 44.20
11957 47.1485 1768.40 1748.56 43.90
11958 47.1523 1718.40 1748.37 43.30
11959 47.1560 1626.00 1748.18 42.00
11960 47.1598 1718.90 1747.99 43.40
11961 47.1635 1661.80 1747.80 42.60
11962 47.1673 1720.70 1747.61 43.20
11963 47.1710 1725.20 1747.42 43.70
11964 47.1748 1674.40 1747.23 42.30
11965 47.1786 1657.90 1747.04 41.70
11966 47.1823 1746.10 1746.86 43.40
11967 47.1861 1660.40 1746.67 42.60
11968 47.1898 1743.00 1746.48 43.70
11969 47.1936 1730.00 1746.29 43.20
11970 47.1973 1773.40 1746.10 44.10
11971 47.2011 1674.30 1745.91 41.90
11972 47.2048 1729.30 1745.73 43.70
11973 47.2086 1613.40 1745.54 41.90
11974 47.2123 1762.40 1745.35 43.80
11975 47.2161 1629.20 1745.16 42.30
11976 47.2198 1694.90 1744.98 42.50
11977 47.2236 1671.50 1744.79 42.10
11978 47.2262 1712.30 1744.66 42.00
11979 47.2300 1780.90 1744.47 42.70
11980 47.2337 1760.20 1744.28 43.60
11981 47.2375 1749.10 1744.10 42.90
11982 47.2412 1668.40 1743.91 41.90
11983 47.2450 1711.60 1743.72 42.20
11984 47.2487 1748.70 1743.54 43.00
11985 47.2525 1781.50 1743.35 43.30
11986 47.2562 1749.50 1743.16 43.20
11987 47.2600 1731.20 1742.98 43.10
11988 47.2638 1711.80 1742.79 42.50
11989 47.2675 1767.10 1742.60 43.40
11990 47.2713 1682.00 1742.42 42.50
11991 47.2750 1661.20 1742.23 42.20
11992 47.2788 1765.50 1742.05 43.40
11993 47.2825 1752.50 1741.86 43.10
11994 47.2863 1734.80 1741.68 42.90
11995 47.2900 1763.20 1741.49 43.40
11996 47.2938 1707.00 1741.30 42.30
11997 47.2976 1653.00 1741.12 41.60
11998 47.3013 1609.20 1740.93 41.10
11999 47.3050 1706.60 1740.75 42.70
12000 47.3088 1684.60 1740.56 42.10
12001 47.3126 1732.90 1740.38 43.00
12002 47.3163 1747.70 1740.19 43.10
12003 47.3201 1723.90 1740.01 42.70
12004 47.3238 1741.10 1739.83 43.30
12005 47.3276 1696.80 1739.64 42.40
12006 47.3313 1668.40 1739.46 42.00
12007 47.3351 1645.70 1739.27 42.30
12008 47.3388 1664.30 1739.09 42.00
12009 47.3426 1752.60 1738.90 43.30
12010 47.3464 1792.80 1738.72 43.60
12011 47.3501 1744.00 1738.54 42.90
12012 47.3539 1743.20 1738.35 43.20
12013 47.3576 1720.50 1738.17 42.60
12014 47.3614 1765.60 1737.99 43.50
12015 47.3651 1713.90 1737.80 42.70
12016 47.3689 1623.80 1737.62 41.20
12017 47.3726 1733.50 1737.44 43.00
12018 47.3764 1672.70 1737.25 42.50
12019 47.3801 1725.90 1737.07 43.20
12020 47.3839 1628.30 1736.89 41.80
12021 47.3876 1716.10 1736.70 43.20
12022 47.3914 1637.50 1736.52 41.20
12023 47.3951 1772.30 1736.34 43.90
12024 47.3989 1706.10 1736.16 42.80
12025 47.4027 1756.70 1735.97 43.40
12026 47.4064 1623.90 1735.79 41.50
12027 47.4102 1744.40 1735.61 43.40
12028 47.4139 1632.60 1735.43 41.90
12029 47.4177 1621.80 1735.25 42.00
12030 47.4214 1691.20 1735.07 42.60
12031 47.4252 1726.10 1734.88 42.90
12032 47.4289 1684.40 1734.70 42.20
12033 47.4327 1717.30 1734.52 43.10
12034 47.4365 1707.30 1734.34 43.20
12035 47.4402 1740.70 1734.16 43.00
12036 47.4440 1652.00 1733.98 42.10
12037 47.4477 1745.00 1733.80 42.90
12038 47.4515 1672.60 1733.62 42.40
12039 47.4552 1663.20 1733.43 42.10
12040 47.4590 1680.30 1733.25 42.60
12041 47.4627 1746.60 1733.07 43.20
12042 47.4665 1681.10 1732.89 42.30
12043 47.4702 1749.90 1732.71 43.30
12044 47.4740 1687.10 1732.53 42.60
12045 47.4777 1795.40 1732.35 44.10
12046 47.4815 1774.30 1732.17 44.00
12047 47.4853 1758.70 1731.99 43.40
12048 47.4890 1691.90 1731.81 43.00
12049 47.4928 1668.50 1731.63 41.90
12050 47.4965 1658.90 1731.45 42.30
12051 47.5003 1688.90 1731.28 42.30
12052 47.5040 1727.30 1731.10 43.10
12053 47.5078 1666.50 1730.92 42.00
12054 47.5116 1757.00 1730.74 43.20
12055 47.5153 1671.10 1730.56 41.90
12056 47.5191 1714.00 1730.38 43.00
12057 47.5228 1770.90 1730.20 44.10
12058 47.5266 1665.80 1730.02 42.20
12059 47.5303 1648.10 1729.84 41.50
12060 47.5341 1639.00 1729.67 42.30
12061 47.5378 1746.00 1729.49 43.20
12062 47.5416 1635.50 1729.31 42.10
12063 47.5453 1705.10 1729.13 42.70
12064 47.5491 1716.50 1728.95 42.80
12065 47.5528 1820.50 1728.78 44.30
12066 47.5566 1612.90 1728.60 41.30
12067 47.5604 1734.70 1728.42 43.10
12068 47.5641 1633.60 1728.24 41.90
12069 47.5679 1748.00 1728.07 43.50
12070 47.5716 1697.60 1727.89 42.40
12071 47.5754 1720.80 1727.71 43.00
12072 47.5791 1728.80 1727.54 43.20
12073 47.5829 1728.10 1727.36 43.00
12074 47.5867 1662.80 1727.18 42.30
12075 47.5904 1770.50 1727.01 43.80
12076 47.5942 1718.60 1726.83 42.90
12077 47.5979 1700.60 1726.65 42.80
12078 47.6017 1678.10 1726.48 41.50
12079 47.6054 1702.00 1726.30 42.90
12080 47.6092 1707.60 1726.12 42.60
12081 47.6129 1706.10 1725.95 43.20
12082 47.6167 1658.30 1725.77 41.80
12083 47.6204 1722.10 1725.60 42.90
12084 47.6242 1633.50 1725.42 42.10
12085 47.6280 1688.50 1725.25 42.40
12086 47.6317 1626.60 1725.07 41.60
12087 47.6355 1770.10 1724.90 44.60
12088 47.6392 1701.50 1724.72 43.20
12089 47.6430 1749.90 1724.55 43.20
12090 47.6467 1668.80 1724.37 42.30
12091 47.6505 1790.50 1724.20 43.90
12092 47.6543 1670.70 1724.02 42.50
12093 47.6580 1690.60 1723.85 42.80
12094 47.6618 1692.30 1723.67 42.90
12095 47.6655 1634.20 1723.50 42.10
12096 47.6693 1709.50 1723.32 43.20
12097 47.6730 1719.50 1723.15 43.60
12098 47.6768 1656.20 1722.98 42.60
12099 47.6805 1623.20 1722.80 41.90
12100 47.6843 1744.50 1722.63 43.70
12101 47.6880 1687.70 1722.46 42.50
12102 47.6918 1647.80 1722.28 41.80
12103 47.6956 1708.10 1722.11 42.60
12104 47.6993 1640.70 1721.94 41.80
12105 47.7031 1707.10 1721.76 42.40
12106 47.7068 1684.20 1721.59 42.30
12107 47.7106 1755.70 1721.42 43.10
12108 47.7143 1723.60 1721.25 42.90
12109 47.7181 1666.80 1721.07 41.70
12110 47.7219 1611.10 1720.90 41.40
12111 47.7256 1720.90 1720.73 42.90
12112 47.7294 1650.30 1720.56 41.30
12113 47.7331 1787.00 1720.38 43.60
12114 47.7369 1686.80 1720.21 42.90
12115 47.7406 1705.30 1720.04 42.80
12116 47.7444 1589.30 1719.87 41.20
12117 47.7481 1727.10 1719.70 42.80
12118 47.7519 1695.30 1719.53 42.60
12119 47.7556 1716.30 1719.35 43.00
12120 47.7594 1573.20 1719.18 40.80
12121 47.7632 1724.30 1719.01 42.70
12122 47.7669 1655.20 1718.84 42.30
12123 47.7707 1715.10 1718.67 42.60
12124 47.7744 1736.80 1718.50 42.90
12125 47.7782 1724.70 1718.33 42.90
12126 47.7820 1660.50 1718.16 42.40
12127 47.7857 1750.40 1717.99 43.60
12128 47.7895 1711.40 1717.82 42.70
12129 47.7932 1717.60 1717.65 42.90
12130 47.7970 1638.30 1717.48 42.00
12131 47.8007 1785.20 1717.31 43.80
12132 47.8045 1749.20 1717.14 43.20
12133 47.8082 1690.70 1716.97 42.30
12134 47.8120 1698.20 1716.80 42.80
12135 47.8158 1699.40 1716.63 43.10
12136 47.8195 1648.40 1716.46 42.00
12137 47.8233 1704.90 1716.29 43.00
12138 47.8270 1697.80 1716.12 42.90
12139 47.8308 1649.50 1715.95 41.60
12140 47.8345 1656.70 1715.79 42.40
12141 47.8383 1642.50 1715.62 42.20
12142 47.8420 1603.10 1715.45 41.10
12143 47.8458 1665.50 1715.28 42.20
12144 47.8496 1627.60 1715.11 42.00
12145 47.8533 1724.70 1714.94 43.40
12146 47.8571 1708.70 1714.78 42.90
12147 47.8608 1670.20 1714.61 42.00
12148 47.8646 1695.50 1714.44 42.60
12149 47.8683 1803.80 1714.27 44.30
12150 47.8721 1662.90 1714.11 42.40
12151 47.8759 1689.70 1713.94 42.40
12152 47.8796 1680.70 1713.77 42.10
12153 47.8834 1685.30 1713.60 42.60
12154 47.8871 1634.40 1713.44 41.50
12155 47.8909 1706.70 1713.27 42.60
12156 47.8946 1668.10 1713.10 42.40
12157 47.8984 1705.90 1712.94 42.60
12158 47.9021 1683.50 1712.77 42.60
12159 47.9059 1773.40 1712.60 43.30
12160 47.9097 1672.90 1712.44 41.90
12161 47.9134 1694.00 1712.27 42.80
12162 47.9172 1660.90 1712.11 41.90
12163 47.9209 1687.40 1711.94 42.60
12164 47.9247 1689.40 1711.78 42.30
12165 47.9285 1735.20 1711.61 43.00
12166 47.9322 1690.80 1711.44 42.20
12167 47.9360 1676.50 1711.28 42.90
12168 47.9397 1714.10 1711.11 42.70
12169 47.9435 1651.60 1710.95 41.70
12170 47.9472 1679.40 1710.78 42.60
12171 47.9510 1740.40 1710.62 42.90
12172 47.9548 1637.40 1710.45 42.10
12173 47.9585 1631.90 1710.29 41.60
12174 47.9623 1676.50 1710.13 42.50
12175 47.9660 1787.30 1709.96 43.80
12176 47.9698 1625.20 1709.80 41.70
12177 47.9735 1638.50 1709.63 41.70
12178 47.9773 1634.90 1709.47 41.40
12179 47.9810 1692.10 1709.31 42.60
12180 47.9848 1741.10 1709.14 43.20
12181 47.9886 1605.30 1708.98 41.20
12182 47.9923 1642.00 1708.82 41.70
12183 47.9961 1728.10 1708.65 42.60
12184 47.9998 1698.80 1708.49 42.70
12185 48.0036 1739.90 1708.33 42.70
12186 48.0073 1760.40 1708.16 43.20
12187 48.0111 1722.90 1708.00 42.80
12188 48.0149 1720.90 1707.84 42.80
12189 48.0186 1721.30 1707.68 42.70
12190 48.0224 1602.30 1707.51 41.50
12191 48.0261 1620.70 1707.35 41.30
12192 48.0299 1590.00 1707.19 40.60
12193 48.0336 1743.10 1707.03 42.80
12194 48.0374 1677.20 1706.87 42.40
12195 48.0412 1672.00 1706.70 42.10
12196 48.0449 1665.90 1706.54 42.10
12197 48.0487 1735.80 1706.38 43.00
12198 48.0524 1646.60 1706.22 42.10
12199 48.0562 1738.30 1706.06 43.20
12200 48.0599 1768.20 1705.90 43.70
12201 48.0637 1724.90 1705.74 42.90
12202 48.0675 1699.20 1705.58 43.10
12203 48.0712 1663.40 1705.41 42.00
12204 48.0750 1639.10 1705.25 42.10
12205 48.0787 1724.30 1705.09 43.10
12206 48.0825 1704.60 1704.93 43.10
12207 48.0862 1686.50 1704.77 42.90
12208 48.0900 1612.30 1704.61 41.80
12209 48.0938 1702.70 1704.45 42.80
12210 48.0975 1669.10 1704.29 41.70
12211 48.1013 1685.20 1704.14 42.90
12212 48.1050 1676.40 1703.98 42.40
12213 48.1088 1692.80 1703.82 42.50
12214 48.1125 1652.40 1703.66 42.00
12215 48.1163 1709.30 1703.50 42.70
12216 48.1201 1667.20 1703.34 42.10
12217 48.1238 1716.50 1703.18 42.40
12218 48.1276 1646.00 1703.02 42.00
12219 48.1313 1730.10 1702.86 42.10
12220 48.1351 1605.50 1702.70 42.10
12221 48.1389 1664.00 1702.55 42.70
12222 48.1426 1623.90 1702.39 41.00
12223 48.1464 1681.70 1702.23 42.20
12224 48.1501 1607.40 1702.07 41.30
12225 48.1539 1709.10 1701.91 42.60
12226 48.1576 1646.30 1701.76 42.00
12227 48.1614 1679.20 1701.60 42.30
12228 48.1651 1710.40 1701.44 43.00
12229 48.1689 1698.40 1701.29 42.90
12230 48.1727 1602.40 1701.13 41.30
12231 48.1764 1708.00 1700.97 43.00
12232 48.1802 1695.60 1700.82 42.70
12233 48.1839 1724.60 1700.66 42.90
12234 48.1877 1646.00 1700.50 42.10
12235 48.1915 1707.40 1700.35 42.60
12236 48.1952 1618.30 1700.19 41.50
12237 48.1990 1666.00 1700.03 42.40
12238 48.2027 1675.90 1699.88 42.70
12239 48.2065 1703.60 1699.72 42.70
12240 48.2102 1721.50 1699.57 43.00
12241 48.2140 1696.60 1699.41 43.10
12242 48.2178 1670.40 1699.25 42.50
12243 48.2215 1669.00 1699.10 42.40
12244 48.2253 1627.10 1698.94 41.70
12245 48.2290 1722.90 1698.79 42.90
12246 48.2328 1654.10 1698.63 42.20
12247 48.2365 1689.30 1698.48 42.80
12248 48.2403 1588.70 1698.32 41.50
12249 48.2441 1688.50 1698.17 43.00
12250 48.2478 1645.40 1698.02 42.00
12251 48.2516 1690.90 1697.86 42.80
12252 48.2553 1666.70 1697.71 42.00
12253 48.2591 1703.10 1697.55 42.80
12254 48.2629 1648.50 1697.40 42.40
12255 48.2666 1703.50 1697.25 42.60
12256 48.2704 1629.80 1697.09 41.90
12257 48.2741 1701.40 1696.94 43.30
12258 48.2779 1582.00 1696.79 41.60
12259 48.2816 1717.40 1696.63 43.20
12260 48.2854 1605.70 1696.48 41.70
12261 48.2892 1676.10 1696.33 42.90
12262 48.2929 1731.10 1696.17 43.40
12263 48.2967 1664.20 1696.02 42.50
12264 48.3004 1705.40 1695.87 42.90
12265 48.3042 1681.90 1695.72 42.90
12266 48.3079 1647.00 1695.56 42.70
12267 48.3117 1684.60 1695.41 42.30
12268 48.3155 1627.70 1695.26 42.50
12269 48.3192 1681.00 1695.11 42.70
12270 48.3230 1657.20 1694.96 42.50
12271 48.3267 1789.90 1694.81 44.40
12272 48.3305 1647.80 1694.65 42.00
12273 48.3343 1733.30 1694.50 43.00
12274 48.3380 1660.20 1694.35 43.10
12275 48.3418 1653.40 1694.20 42.40
12276 48.3455 1685.20 1694.05 42.20
12277 48.3493 1698.30 1693.90 43.10
12278 48.3531 1665.30 1693.75 42.70
12279 48.3568 1660.50 1693.60 42.40
12280 48.3606 1620.10 1693.45 42.30
12281 48.3643 1699.70 1693.30 43.50
12282 48.3681 1655.20 1693.15 42.50
12283 48.3718 1663.70 1693.00 42.80
12284 48.3756 1637.30 1692.85 42.40
12285 48.3793 1718.60 1692.70 43.30
12286 48.3831 1671.70 1692.55 42.40
12287 48.3869 1724.10 1692.40 42.80
12288 48.3906 1634.70 1692.25 42.20
12289 48.3944 1663.60 1692.10 42.40
12290 48.3981 1642.80 1691.95 42.40
12291 48.4019 1677.90 1691.81 42.40
12292 48.4057 1670.60 1691.66 42.50
12293 48.4094 1676.00 1691.51 42.80
12294 48.4132 1683.80 1691.36 43.00
12295 48.4169 1708.00 1691.21 43.20
12296 48.4207 1597.90 1691.06 42.00
12297 48.4244 1695.00 1690.92 42.80
12298 48.4282 1588.40 1690.77 41.50
12299 48.4320 1637.00 1690.62 41.60
12300 48.4357 1665.00 1690.47 43.30
12301 48.4395 1691.90 1690.33 42.90
12302 48.4432 1656.70 1690.18 42.10
12303 48.4470 1675.80 1690.03 42.80
12304 48.4508 1632.90 1689.88 42.60
12305 48.4545 1616.40 1689.74 42.10
12306 48.4583 1644.30 1689.59 42.40
12307 48.4620 1703.60 1689.44 43.40
12308 48.4658 1722.70 1689.30 43.10
12309 48.4696 1679.50 1689.15 43.20
12310 48.4733 1672.00 1689.01 42.70
12311 48.4771 1706.60 1688.86 43.10
12312 48.4808 1624.90 1688.71 41.90
12313 48.4846 1656.70 1688.57 42.70
12314 48.4883 1656.70 1688.42 42.70
12315 48.4921 1652.80 1688.28 42.10
12316 48.4959 1588.20 1688.13 41.50
12317 48.4996 1676.30 1687.99 42.90
12318 48.5034 1701.70 1687.84 43.50
12319 48.5071 1678.60 1687.70 43.00
12320 48.5109 1763.40 1687.55 44.30
12321 48.5147 1645.90 1687.41 42.60
12322 48.5184 1671.10 1687.26 43.20
12323 48.5222 1706.60 1687.12 43.10
12324 48.5259 1614.30 1686.97 42.00
12325 48.5297 1651.80 1686.83 42.10
12326 48.5335 1650.50 1686.69 43.00
12327 48.5372 1716.50 1686.54 44.10
12328 48.5410 1659.40 1686.40 42.80
12329 48.5447 1579.70 1686.26 41.60
12330 48.5485 1664.20 1686.11 43.10
12331 48.5522 1758.80 1685.97 43.50
12332 48.5560 1681.50 1685.83 42.70
12333 48.5598 1639.70 1685.68 42.20
12334 48.5635 1577.30 1685.54 41.80
12335 48.5673 1654.10 1685.40 42.20
12336 48.5710 1593.80 1685.26 41.80
12337 48.5748 1675.70 1685.11 42.60
12338 48.5785 1645.00 1684.97 43.10
12339 48.5823 1710.80 1684.83 43.30
12340 48.5861 1634.70 1684.69 42.20
12341 48.5898 1676.20 1684.55 42.80
12342 48.5936 1648.30 1684.40 42.50
12343 48.5974 1646.00 1684.26 41.60
12344 48.6011 1671.60 1684.12 43.60
12345 48.6049 1620.10 1683.98 42.40
12346 48.6086 1717.10 1683.84 43.80
12347 48.6124 1683.90 1683.70 43.00
12348 48.6161 1623.80 1683.56 42.40
12349 48.6199 1725.70 1683.42 43.50
12350 48.6237 1551.20 1683.28 41.30
12351 48.6274 1609.90 1683.14 42.70
12352 48.6312 1607.10 1683.00 41.10
12353 48.6349 1724.40 1682.86 43.90
12354 48.6387 1636.00 1682.72 42.80
12355 48.6425 1730.50 1682.58 43.70
12356 48.6462 1618.70 1682.44 42.60
12357 48.6500 1702.70 1682.30 42.30
12358 48.6537 1581.10 1682.16 41.10
12359 48.6575 1665.00 1682.02 41.80
12360 48.6613 1655.80 1681.88 42.10
12361 48.6650 1698.70 1681.74 42.60
12362 48.6688 1589.00 1681.60 40.90
12363 48.6725 1703.00 1681.46 42.80
12364 48.6763 1624.60 1681.32 41.10
12365 48.6800 1683.40 1681.19 42.30
12366 48.6838 1673.40 1681.05 41.90
12367 48.6876 1702.10 1680.91 42.40
12368 48.6913 1632.20 1680.77 41.70
12369 48.6951 1666.00 1680.63 41.80
12370 48.6988 1712.80 1680.50 42.70
12371 48.7026 1714.80 1680.36 42.40
12372 48.7064 1608.90 1680.22 41.30
12373 48.7101 1660.80 1680.08 41.80
12374 48.7139 1548.90 1679.95 40.90
12375 48.7176 1697.40 1679.81 43.10
12376 48.7214 1671.50 1679.67 42.30
12377 48.7252 1616.30 1679.54 41.20
12378 48.7289 1661.30 1679.40 42.10
12379 48.7327 1609.60 1679.26 41.00
12380 48.7364 1657.20 1679.13 42.50
12381 48.7402 1695.90 1678.99 42.40
12382 48.7439 1656.50 1678.86 41.50
12383 48.7477 1561.50 1678.72 40.40
12384 48.7515 1605.90 1678.58 41.30
12385 48.7552 1618.70 1678.45 41.40
12386 48.7590 1621.00 1678.31 41.70
12387 48.7627 1619.20 1678.18 41.60
12388 48.7665 1574.30 1678.04 40.90
12389 48.7703 1647.50 1677.91 42.10
12390 48.7740 1597.30 1677.77 41.30
12391 48.7778 1638.30 1677.64 41.90
12392 48.7815 1596.90 1677.50 41.10
12393 48.7853 1629.20 1677.37 41.40
12394 48.7891 1611.60 1677.23 41.40
12395 48.7928 1686.50 1677.10 42.60
12396 48.7966 1650.10 1676.97 42.30
12397 48.8003 1664.20 1676.83 42.20
12398 48.8041 1660.70 1676.70 41.50
12399 48.8078 1647.00 1676.57 41.70
12400 48.8116 1663.40 1676.43 42.20
12401 48.8154 1669.70 1676.30 42.50
12402 48.8191 1601.80 1676.17 40.90
12403 48.8229 1746.70 1676.03 43.60
12404 48.8266 1670.90 1675.90 42.20
12405 48.8304 1664.40 1675.77 41.60
12406 48.8342 1612.60 1675.64 41.30
12407 48.8379 1683.40 1675.50 43.00
12408 48.8417 1621.80 1675.37 41.20
12409 48.8455 1658.10 1675.24 41.90
12410 48.8492 1659.80 1675.11 41.90
12411 48.8530 1674.30 1674.97 42.20
12412 48.8567 1622.60 1674.84 42.00
12413 48.8605 1687.20 1674.71 42.60
12414 48.8642 1593.90 1674.58 41.40
12415 48.8680 1581.30 1674.45 40.80
12416 48.8718 1627.60 1674.32 42.30
12417 48.8755 1641.90 1674.19 41.90
12418 48.8793 1650.70 1674.06 41.90
12419 48.8830 1663.80 1673.93 42.50
12420 48.8868 1631.20 1673.80 41.80
12421 48.8906 1607.80 1673.66 41.40
12422 48.8943 1643.80 1673.53 41.70
12423 48.8981 1678.20 1673.40 42.10
12424 48.9018 1702.80 1673.27 43.20
12425 48.9056 1629.10 1673.14 42.00
12426 48.9094 1708.50 1673.02 42.80
12427 48.9131 1629.80 1672.89 42.00
12428 48.9169 1570.90 1672.76 41.10
12429 48.9206 1654.90 1672.63 42.10
12430 48.9244 1647.50 1672.50 42.10
12431 48.9282 1696.00 1672.37 42.50
12432 48.9319 1643.40 1672.24 41.20
12433 48.9357 1667.40 1672.11 43.50
12434 48.9394 1652.50 1671.98 42.60
12435 48.9432 1661.80 1671.85 42.70
12436 48.9469 1657.80 1671.73 42.50
12437 48.9507 1640.50 1671.60 42.10
12438 48.9545 1638.00 1671.47 42.40
12439 48.9582 1724.80 1671.34 43.40
12440 48.9620 1676.80 1671.22 42.40
12441 48.9658 1641.80 1671.09 42.70
12442 48.9695 1664.10 1670.96 42.60
12443 48.9733 1719.70 1670.83 43.20
12444 48.9770 1610.30 1670.71 41.60
12445 48.9808 1600.50 1670.58 41.70
12446 48.9846 1607.00 1670.45 41.90
12447 48.9883 1684.60 1670.33 42.50
12448 48.9921 1563.00 1670.20 41.10
12449 48.9958 1656.00 1670.07 42.30
12450 48.9996 1579.50 1669.95 41.30
12451 49.0033 1576.60 1669.82 41.20
12452 49.0071 1609.90 1669.70 41.00
12453 49.0109 1666.20 1669.57 42.60
12454 49.0146 1600.50 1669.44 41.80
12455 49.0184 1752.70 1669.32 43.50
12456 49.0221 1640.30 1669.19 42.30
12457 49.0259 1648.90 1669.07 42.20
12458 49.0297 1672.70 1668.94 42.40
12459 49.0334 1688.70 1668.82 42.30
12460 49.0372 1620.00 1668.69 42.60
12461 49.0409 1686.40 1668.57 42.90
12462 49.0447 1625.00 1668.44 42.30
12463 49.0485 1765.20 1668.32 43.90
12464 49.0522 1607.30 1668.20 41.90
12465 49.0560 1672.70 1668.07 42.90
12466 49.0597 1662.90 1667.95 42.50
12467 49.0635 1704.90 1667.82 42.90
12468 49.0673 1689.30 1667.70 43.20
12469 49.0710 1647.90 1667.58 42.40
12470 49.0748 1587.30 1667.45 41.20
12471 49.0785 1683.30 1667.33 43.00
12472 49.0823 1659.10 1667.21 42.70
12473 49.0861 1698.40 1667.08 43.20
12474 49.0898 1632.50 1666.96 42.10
12475 49.0936 1667.20 1666.84 42.80
12476 49.0973 1651.70 1666.72 42.60
12477 49.1011 1740.80 1666.60 43.20
12478 49.1049 1705.50 1666.47 43.40
12479 49.1086 1694.90 1666.35 43.00
12480 49.1124 1672.30 1666.23 42.70
12481 49.1161 1653.50 1666.11 42.70
12482 49.1199 1657.30 1665.99 42.50
12483 49.1236 1677.60 1665.86 42.90
12484 49.1274 1651.20 1665.74 42.80
12485 49.1312 1605.40 1665.62 42.20
12486 49.1349 1659.50 1665.50 42.90
12487 49.1387 1722.30 1665.38 43.20
12488 49.1424 1620.10 1665.26 42.00
12489 49.1462 1597.50 1665.14 41.60
12490 49.1500 1659.60 1665.02 42.40
12491 49.1537 1656.80 1664.90 42.40
12492 49.1575 1656.90 1664.78 42.70
12493 49.1613 1652.40 1664.66 42.40
12494 49.1650 1624.60 1664.54 41.60
12495 49.1688 1746.30 1664.42 44.10
12496 49.1725 1701.40 1664.30 43.10
12497 49.1763 1624.60 1664.18 42.20
12498 49.1800 1580.90 1664.06 41.40
12499 49.1838 1744.70 1663.94 43.80
12500 49.1876 1676.30 1663.82 43.00
12501 49.1913 1664.80 1663.70 42.80
12502 49.1951 1607.10 1663.59 41.90
12503 49.1988 1719.50 1663.47 44.10
12504 49.2026 1627.60 1663.35 42.20
12505 49.2064 1643.00 1663.23 42.80
12506 49.2101 1667.10 1663.11 42.90
12507 49.2139 1668.00 1662.99 42.90
12508 49.2176 1689.70 1662.88 43.30
12509 49.2214 1669.70 1662.76 42.90
12510 49.2252 1662.50 1662.64 42.10
12511 49.2289 1742.50 1662.52 43.40
12512 49.2327 1648.10 1662.41 42.20
12513 49.2365 1715.60 1662.29 44.00
12514 49.2402 1675.30 1662.17 42.60
12515 49.2440 1686.40 1662.06 42.60
12516 49.2477 1585.00 1661.94 41.90
12517 49.2515 1735.90 1661.82 43.60
12518 49.2552 1588.90 1661.71 41.20
12519 49.2590 1679.00 1661.59 43.20
12520 49.2628 1726.50 1661.47 43.90
12521 49.2665 1713.90 1661.36 43.90
12522 49.2703 1681.90 1661.24 43.10
12523 49.2740 1755.30 1661.13 44.10
12524 49.2778 1652.60 1661.01 42.50
12525 49.2816 1681.70 1660.90 42.80
12526 49.2853 1680.30 1660.78 43.40
12527 49.2891 1685.30 1660.67 43.00
12528 49.2928 1654.40 1660.55 43.10
12529 49.2966 1769.00 1660.44 44.50
12530 49.3004 1675.80 1660.32 42.60
12531 49.3041 1720.60 1660.21 43.30
12532 49.3079 1680.40 1660.09 42.90
12533 49.3116 1637.30 1659.98 42.70
12534 49.3154 1657.20 1659.87 42.70
12535 49.3192 1687.30 1659.75 43.00
12536 49.3229 1704.20 1659.64 43.30
12537 49.3267 1692.90 1659.52 42.80
12538 49.3304 1652.90 1659.41 42.10
12539 49.3342 1700.70 1659.30 43.40
12540 49.3380 1704.90 1659.18 44.10
12541 49.3417 1713.00 1659.07 43.10
12542 49.3455 1655.00 1658.96 42.50
12543 49.3492 1788.20 1658.85 44.30
12544 49.3530 1669.50 1658.73 43.00
12545 49.3568 1713.40 1658.62 43.40
12546 49.3605 1690.70 1658.51 42.90
12547 49.3643 1720.50 1658.40 42.70
12548 49.3680 1631.20 1658.28 42.60
12549 49.3718 1713.90 1658.17 43.20
12550 49.3756 1709.30 1658.06 43.30
12551 49.3793 1725.00 1657.95 43.40
12552 49.3831 1631.40 1657.84 42.60
12553 49.3868 1709.10 1657.73 43.60
12554 49.3906 1660.60 1657.62 42.20
12555 49.3944 1766.40 1657.50 44.20
12556 49.3981 1651.10 1657.39 42.80
12557 49.4019 1756.10 1657.28 44.10
12558 49.4056 1661.50 1657.17 43.30
12559 49.4094 1679.00 1657.06 43.00
12560 49.4132 1625.10 1656.95 41.90
12561 49.4169 1739.60 1656.84 44.10
12562 49.4207 1755.10 1656.73 44.00
12563 49.4244 1785.20 1656.62 44.70
12564 49.4282 1718.70 1656.51 43.20
12565 49.4320 1729.60 1656.40 43.20
12566 49.4357 1722.90 1656.29 44.50
12567 49.4395 1797.80 1656.18 44.80
12568 49.4432 1717.50 1656.07 43.60
12569 49.4470 1756.40 1655.97 44.10
12570 49.4508 1724.50 1655.86 43.80
12571 49.4545 1689.10 1655.75 43.40
12572 49.4583 1720.70 1655.64 44.40
12573 49.4620 1789.80 1655.53 44.50
12574 49.4658 1698.80 1655.42 43.00
12575 49.4696 1692.50 1655.31 43.50
12576 49.4733 1731.10 1655.21 43.90
12577 49.4771 1776.10 1655.10 44.00
12578 49.4808 1727.40 1654.99 43.80
12579 49.4846 1780.60 1654.88 45.00
12580 49.4884 1703.50 1654.78 43.10
12581 49.4921 1781.10 1654.67 44.50
12582 49.4959 1663.10 1654.56 42.50
12583 49.4996 1766.60 1654.46 44.20
12584 49.5034 1765.90 1654.35 44.30
12585 49.5072 1725.50 1654.24 43.60
12586 49.5109 1702.80 1654.14 42.70
12587 49.5147 1773.90 1654.03 44.60
12588 49.5184 1698.80 1653.92 43.00
12589 49.5222 1782.40 1707.42 44.30
12590 49.5260 1732.60 1709.66 43.90
12591 49.5297 1728.40 1712.04 43.30
12592 49.5335 1742.20 1714.60 43.50
12593 49.5372 1778.30 1717.35 44.70
12594 49.5410 1684.60 1720.30 43.10
12595 49.5448 1788.30 1723.47 44.80
12596 49.5485 1729.40 1726.89 43.40
12597 49.5523 1902.70 1730.58 46.10
12598 49.5560 1797.40 1734.57 44.70
12599 49.5598 1856.40 1738.89 45.20
12600 49.5636 1722.10 1743.58 43.80
12601 49.5673 1830.60 1748.68 45.00
12602 49.5711 1772.40 1754.25 44.20
12603 49.5748 1853.40 1760.32 44.90
12604 49.5786 1809.00 1766.98 44.90
12605 49.5824 1917.70 1774.29 46.00
12606 49.5861 1880.10 1782.33 45.70
12607 49.5899 1924.60 1791.22 46.40
12608 49.5936 1862.60 1801.07 45.50
12609 49.5974 1953.00 1812.03 46.70
12610 49.6012 1978.00 1824.24 46.70
12611 49.6049 1973.30 1837.94 46.70
12612 49.6087 1910.50 1853.35 46.30
12613 49.6124 1943.80 1870.74 45.50
12614 49.6162 1991.00 1890.54 46.70
12615 49.6200 2075.40 1913.13 47.10
12616 49.6237 2084.00 1939.06 47.60
12617 49.6275 2101.60 1969.09 47.60
12618 49.6312 2112.90 2004.03 47.90
12619 49.6350 2266.60 2044.99 49.30
12620 49.6388 2228.30 2093.56 50.00
12621 49.6425 2334.80 2151.53 50.10
12622 49.6463 2428.10 2221.47 50.80
12623 49.6500 2469.50 2307.08 51.80
12624 49.6538 2435.70 2413.06 51.50
12625 49.6576 2858.00 2546.44 55.50
12626 49.6613 2787.10 2718.87 55.10
12627 49.6651 3072.30 2950.02 58.50
12628 49.6688 3346.10 3279.93 61.00
12629 49.6726 3808.00 3793.03 65.20
12630 49.6764 4608.70 4647.70 71.90
12631 49.6801 5978.80 6100.42 82.50
12632 49.6839 8030.20 8476.80 97.90
12633 49.6876 11844.40 12014.90 120.40
12634 49.6914 15978.40 16599.40 142.20
12635 49.6952 20395.60 21349.00 164.00
12636 49.6989 22168.00 24023.40 170.60
12637 49.7027 22605.10 22669.70 175.70
12638 49.7064 18988.90 18339.90 157.40
12639 49.7102 14682.20 13526.90 135.20
12640 49.7140 9782.40 9585.96 107.90
12641 49.7177 6728.10 6811.75 88.80
12642 49.7215 5015.70 5071.67 75.50
12643 49.7252 4314.80 4043.16 70.00
12644 49.7290 3599.00 3431.43 63.40
12645 49.7328 3258.20 3049.72 60.10
12646 49.7365 2995.80 2790.03 57.30
12647 49.7403 2871.30 2599.71 57.20
12648 49.7440 2691.30 2454.00 54.30
12649 49.7478 2598.20 2339.23 53.20
12650 49.7516 2384.50 2246.89 51.30
12651 49.7553 2357.90 2171.69 50.40
12652 49.7591 2324.60 2109.69 50.40
12653 49.7628 2264.20 2057.84 49.80
12654 49.7666 2238.10 2014.19 49.80
12655 49.7704 2147.10 1977.10 48.00
12656 49.7741 2130.70 1945.25 48.10
12657 49.7779 2131.50 1917.83 47.90
12658 49.7816 2072.80 1893.88 47.80
12659 49.7854 2063.10 1872.95 47.20
12660 49.7892 2091.60 1854.59 47.90
12661 49.7929 1971.50 1838.29 46.10
12662 49.7967 1887.20 1823.81 45.40
12663 49.8004 1906.80 1810.93 45.20
12664 49.8042 1946.60 1799.33 46.00
12665 49.8080 1893.30 1788.90 45.30
12666 49.8117 1854.60 1779.51 44.30
12667 49.8155 1766.20 1770.96 43.80
12668 49.8192 1795.20 1763.20 44.30
12669 49.8230 1895.90 1756.14 45.40
12670 49.8268 1854.90 1749.66 44.50
12671 49.8305 1852.50 1743.74 44.40
12672 49.8343 1697.90 1738.27 42.00
12673 49.8380 1865.00 1733.23 45.40
12674 49.8418 1774.50 1728.60 43.90
12675 49.8456 1778.50 1724.29 43.70
12676 49.8493 1776.80 1720.29 44.00
12677 49.8531 1806.20 1716.59 44.50
12678 49.8568 1795.60 1713.13 44.00
12679 49.8606 1793.50 1709.90 44.00
12680 49.8643 1775.90 1706.89 43.70
12681 49.8681 1775.10 1704.07 43.20
12682 49.8719 1719.90 1701.43 42.00
12683 49.8756 1753.80 1698.94 43.40
12684 49.8794 1666.10 1644.39 42.40
12685 49.8831 1818.00 1644.30 44.20
12686 49.8869 1732.50 1644.20 43.40
12687 49.8907 1775.40 1644.11 43.50
12688 49.8944 1696.30 1644.02 42.50
12689 49.8982 1737.20 1643.93 43.20
12690 49.9020 1706.30 1643.84 42.50
12691 49.9057 1734.20 1643.74 43.30
12692 49.9095 1675.10 1643.65 42.70
12693 49.9132 1615.60 1643.56 41.60
12694 49.9170 1738.40 1643.47 43.30
12695 49.9207 1671.60 1643.38 42.50
12696 49.9245 1722.00 1643.29 43.30
12697 49.9283 1666.00 1643.20 42.90
12698 49.9320 1689.20 1643.11 42.20
12699 49.9358 1693.20 1643.02 42.70
12700 49.9395 1724.70 1642.93 43.70
12701 49.9433 1700.60 1642.84 42.80
12702 49.9471 1696.10 1642.75 42.70
12703 49.9508 1706.70 1642.66 42.30
12704 49.9546 1594.60 1642.57 41.00
12705 49.9584 1682.70 1642.48 42.60
12706 49.9621 1621.30 1642.39 41.60
12707 49.9659 1687.50 1642.30 42.60
12708 49.9696 1690.10 1642.21 42.40
12709 49.9734 1720.30 1642.12 43.00
12710 49.9771 1642.40 1642.03 42.50
12711 49.9809 1662.40 1641.94 42.60
12712 49.9847 1621.20 1641.85 42.30
12713 49.9884 1639.70 1641.76 42.40
12714 49.9922 1662.90 1641.68 42.60
12715 49.9959 1739.40 1641.59 43.20
12716 49.9997 1633.20 1641.50 42.40
12717 50.0035 1668.40 1641.41 42.40
12718 50.0072 1562.90 1641.32 41.60
12719 50.0110 1716.80 1641.24 43.00
12720 50.0148 1576.70 1641.15 41.20
12721 50.0185 1672.30 1641.06 42.60
12722 50.0223 1680.70 1640.97 42.30
12723 50.0260 1635.50 1640.89 41.90
12724 50.0298 1601.10 1640.80 40.50
12725 50.0336 1666.60 1640.71 41.80
12726 50.0373 1681.00 1640.63 43.50
12727 50.0411 1643.00 1640.54 42.30
12728 50.0448 1656.60 1640.45 42.70
12729 50.0486 1598.00 1640.37 41.80
12730 50.0523 1688.20 1640.28 42.80
12731 50.0561 1669.80 1640.19 42.70
12732 50.0599 1626.90 1640.11 42.00
12733 50.0636 1698.30 1640.02 42.90
12734 50.0674 1621.20 1639.94 42.10
12735 50.0711 1668.40 1639.85 42.80
12736 50.0749 1634.40 1639.77 42.30
12737 50.0787 1650.60 1639.68 42.50
12738 50.0824 1628.40 1639.60 42.40
12739 50.0862 1671.30 1639.51 43.10
12740 50.0899 1652.00 1639.43 42.40
12741 50.0937 1692.60 1639.34 42.80
12742 50.0975 1585.60 1639.26 41.60
12743 50.1012 1624.20 1639.17 42.10
12744 50.1050 1599.70 1639.09 41.30
12745 50.1087 1683.00 1639.00 42.50
12746 50.1125 1633.30 1638.92 42.10
12747 50.1163 1657.10 1638.84 42.60
12748 50.1200 1632.20 1638.75 41.60
12749 50.1238 1754.40 1638.67 43.70
12750 50.1275 1640.90 1638.58 41.20
12751 50.1313 1629.90 1638.50 41.60
12752 50.1351 1679.70 1638.42 42.10
12753 50.1388 1651.40 1638.33 42.70
12754 50.1426 1575.70 1638.25 41.40
12755 50.1463 1665.20 1638.17 41.90
12756 50.1501 1592.60 1638.09 41.20
12757 50.1539 1642.10 1638.00 42.50
12758 50.1576 1563.60 1637.92 40.80
12759 50.1614 1673.70 1637.84 42.70
12760 50.1651 1652.70 1637.76 42.50
12761 50.1689 1630.50 1637.67 42.20
12762 50.1727 1632.30 1637.59 42.20
12763 50.1764 1636.70 1637.51 41.80
12764 50.1802 1633.60 1637.43 42.30
12765 50.1839 1630.20 1637.35 41.90
12766 50.1877 1609.90 1637.27 41.60
12767 50.1914 1651.00 1637.19 42.10
12768 50.1952 1613.70 1637.10 42.00
12769 50.1990 1607.90 1637.02 41.90
12770 50.2027 1573.30 1636.94 41.20
12771 50.2065 1665.60 1636.86 42.50
12772 50.2103 1718.20 1636.78 43.10
12773 50.2140 1580.70 1636.70 41.40
12774 50.2178 1678.20 1636.62 43.00
12775 50.2215 1659.30 1636.54 42.10
12776 50.2253 1625.30 1636.46 42.20
12777 50.2290 1647.50 1636.38 42.30
12778 50.2328 1600.80 1636.30 41.40
12779 50.2366 1617.20 1636.22 41.80
12780 50.2403 1617.90 1636.14 42.50
12781 50.2441 1706.20 1636.06 42.90
12782 50.2478 1653.00 1635.98 42.00
12783 50.2516 1569.00 1635.90 40.70
12784 50.2554 1594.80 1635.83 41.90
12785 50.2591 1640.40 1635.75 42.30
12786 50.2629 1633.70 1635.67 42.20
12787 50.2666 1639.80 1635.59 41.80
12788 50.2704 1591.50 1635.51 41.50
12789 50.2742 1629.90 1635.43 41.60
12790 50.2779 1614.90 1635.36 41.40
12791 50.2817 1629.80 1635.28 42.20
12792 50.2854 1606.30 1635.20 41.80
12793 50.2892 1617.80 1635.12 42.00
12794 50.2930 1556.30 1635.04 40.90
12795 50.2967 1694.40 1634.97 42.60
12796 50.3005 1558.70 1634.89 41.10
12797 50.3042 1597.70 1634.81 41.50
12798 50.3080 1574.90 1634.73 41.40
12799 50.3118 1683.30 1634.66 42.90
12800 50.3155 1614.00 1634.58 41.90
12801 50.3193 1624.40 1634.50 42.00
12802 50.3230 1593.20 1634.43 41.40
12803 50.3268 1599.00 1634.35 41.10
12804 50.3306 1602.10 1634.28 41.70
12805 50.3343 1632.90 1634.20 41.60
12806 50.3381 1582.70 1634.12 42.00
12807 50.3418 1622.30 1634.05 42.30
12808 50.3456 1571.60 1633.97 41.10
12809 50.3493 1652.10 1633.90 42.60
12810 50.3531 1541.70 1633.82 40.80
12811 50.3569 1673.30 1633.75 42.90
12812 50.3606 1561.70 1633.67 41.80
12813 50.3644 1625.30 1633.59 42.20
12814 50.3681 1554.70 1633.52 41.30
12815 50.3719 1627.70 1633.44 42.20
12816 50.3757 1574.20 1633.37 41.50
12817 50.3794 1599.60 1633.30 42.00
12818 50.3832 1640.40 1633.22 41.80
12819 50.3869 1601.20 1633.15 41.80
12820 50.3907 1649.80 1633.07 43.00
12821 50.3945 1662.40 1633.00 42.60
12822 50.3982 1576.50 1632.92 41.40
12823 50.4020 1670.00 1632.85 42.90
12824 50.4057 1608.60 1632.78 42.20
12825 50.4095 1595.20 1632.70 41.70
12826 50.4133 1593.20 1632.63 41.60
12827 50.4170 1649.00 1632.56 42.50
12828 50.4208 1577.80 1632.48 41.70
12829 50.4245 1644.40 1632.41 42.60
12830 50.4283 1576.50 1632.34 40.90
12831 50.4321 1676.10 1632.27 42.90
12832 50.4358 1566.10 1632.19 41.50
12833 50.4396 1583.00 1632.12 41.80
12834 50.4433 1560.10 1632.05 41.30
12835 50.4471 1584.80 1631.98 41.70
12836 50.4509 1523.80 1631.90 40.60
12837 50.4546 1695.60 1631.83 43.10
12838 50.4584 1569.70 1631.76 41.40
12839 50.4621 1601.90 1631.69 42.20
12840 50.4659 1574.30 1631.62 41.10
12841 50.4697 1736.80 1631.55 43.90
12842 50.4734 1650.60 1631.47 42.10
12843 50.4772 1696.30 1631.40 43.20
12844 50.4809 1585.80 1631.33 41.70
12845 50.4847 1542.50 1631.26 41.40
12846 50.4884 1631.00 1631.19 42.40
12847 50.4922 1654.40 1631.12 42.40
12848 50.4960 1626.10 1631.05 42.00
12849 50.4997 1592.90 1630.98 41.10
12850 50.5035 1566.20 1630.91 41.30
12851 50.5072 1534.40 1630.84 40.90
12852 50.5110 1596.10 1630.77 41.70
12853 50.5148 1613.40 1630.70 41.60
12854 50.5185 1559.20 1630.63 41.70
12855 50.5223 1650.10 1630.56 42.80
12856 50.5260 1578.20 1630.49 42.10
12857 50.5298 1671.00 1630.42 43.00
12858 50.5336 1621.50 1630.35 41.60
12859 50.5373 1581.10 1630.28 41.70
12860 50.5411 1526.80 1630.21 41.50
12861 50.5448 1613.30 1630.14 42.00
12862 50.5486 1625.70 1630.07 42.30
12863 50.5523 1600.80 1630.01 42.10
12864 50.5561 1590.50 1629.94 41.90
12865 50.5599 1592.40 1629.87 41.60
12866 50.5636 1541.60 1629.80 41.30
12867 50.5674 1618.10 1629.73 42.20
12868 50.5711 1570.80 1629.66 41.70
12869 50.5749 1643.40 1629.60 42.30
12870 50.5787 1644.10 1629.53 42.00
12871 50.5824 1701.00 1629.46 43.40
12872 50.5862 1667.20 1629.39 42.20
12873 50.5899 1576.90 1629.33 41.70
12874 50.5937 1523.10 1629.26 40.50
12875 50.5975 1599.70 1629.19 42.00
12876 50.6012 1599.60 1629.12 41.90
12877 50.6050 1546.90 1629.06 40.80
12878 50.6087 1592.10 1628.99 41.50
12879 50.6125 1593.50 1628.92 41.60
12880 50.6162 1562.50 1628.86 41.40
12881 50.6200 1622.20 1628.79 42.20
12882 50.6238 1597.30 1628.72 41.30
12883 50.6275 1606.80 1628.66 41.70
12884 50.6313 1615.00 1628.59 41.80
12885 50.6350 1590.70 1628.53 40.90
12886 50.6388 1632.40 1628.46 42.50
12887 50.6426 1690.60 1628.40 43.20
12888 50.6463 1546.10 1628.33 41.30
12889 50.6501 1638.60 1628.26 41.90
12890 50.6538 1614.40 1628.20 41.50
12891 50.6576 1614.40 1628.13 41.90
12892 50.6614 1601.80 1628.07 42.00
12893 50.6651 1671.90 1628.00 42.90
12894 50.6689 1563.10 1627.94 41.20
12895 50.6726 1666.20 1627.87 42.30
12896 50.6764 1613.20 1627.81 42.10
12897 50.6801 1640.80 1627.75 42.20
12898 50.6839 1605.70 1627.68 41.90
12899 50.6877 1627.10 1627.62 42.00
12900 50.6914 1572.30 1627.55 41.30
12901 50.6952 1650.20 1627.49 42.30
12902 50.6989 1589.90 1627.42 41.50
12903 50.7027 1639.30 1627.36 42.20
12904 50.7065 1579.10 1627.30 41.40
12905 50.7102 1683.90 1627.23 42.60
12906 50.7140 1615.10 1627.17 42.00
12907 50.7177 1653.30 1627.11 42.70
12908 50.7215 1612.50 1627.04 42.10
12909 50.7253 1597.60 1626.98 42.00
12910 50.7290 1596.70 1626.92 41.60
12911 50.7328 1607.00 1626.86 41.60
12912 50.7365 1516.90 1626.79 40.20
12913 50.7403 1699.20 1626.73 43.90
12914 50.7440 1586.50 1626.67 41.50
12915 50.7478 1665.90 1626.61 42.60
12916 50.7516 1576.30 1626.54 41.60
12917 50.7553 1617.20 1626.48 42.10
12918 50.7591 1605.10 1626.42 42.20
12919 50.7628 1593.60 1626.36 41.70
12920 50.7666 1593.60 1626.30 42.20
12921 50.7704 1632.80 1626.24 42.30
12922 50.7741 1580.30 1626.17 41.30
12923 50.7779 1615.40 1626.11 42.10
12924 50.7816 1586.60 1626.05 42.00
12925 50.7854 1645.30 1625.99 43.10
12926 50.7891 1590.60 1625.93 41.50
12927 50.7929 1653.20 1625.87 42.90
12928 50.7967 1577.00 1625.81 41.00
12929 50.8004 1576.80 1625.75 41.60
12930 50.8042 1610.20 1625.69 42.20
12931 50.8079 1644.10 1625.63 42.50
12932 50.8117 1649.80 1625.57 42.40
12933 50.8154 1578.10 1625.51 41.20
12934 50.8192 1520.30 1625.45 40.70
12935 50.8230 1622.30 1625.39 41.90
12936 50.8267 1652.10 1625.33 42.90
12937 50.8305 1616.20 1625.27 41.60
12938 50.8342 1553.90 1625.21 40.70
12939 50.8380 1701.10 1625.15 43.30
12940 50.8418 1670.30 1625.09 43.60
12941 50.8455 1571.30 1625.03 41.20
12942 50.8493 1624.80 1624.97 42.30
12943 50.8530 1635.40 1624.91 42.10
12944 50.8568 1533.60 1624.85 41.00
12945 50.8605 1651.20 1624.79 42.50
12946 50.8643 1656.50 1624.74 43.00
12947 50.8681 1603.70 1624.68 41.20
12948 50.8718 1618.60 1624.62 42.50
12949 50.8756 1622.70 1624.56 42.60
12950 50.8793 1607.30 1624.50 41.90
12951 50.8831 1649.30 1624.45 42.70
12952 50.8869 1656.70 1624.39 42.30
12953 50.8906 1707.90 1624.33 43.30
12954 50.8944 1566.00 1624.27 41.60
12955 50.8981 1503.80 1624.21 40.20
12956 50.9019 1620.60 1624.16 42.30
12957 50.9057 1750.10 1624.10 44.10
12958 50.9094 1646.20 1624.04 42.60
12959 50.9132 1610.20 1623.99 42.30
12960 50.9169 1571.40 1623.93 41.70
12961 50.9207 1638.70 1623.87 42.30
12962 50.9244 1613.50 1623.82 42.00
12963 50.9282 1619.10 1623.76 42.00
12964 50.9319 1579.00 1623.70 41.00
12965 50.9357 1581.80 1623.65 41.80
12966 50.9395 1621.70 1623.59 43.10
12967 50.9432 1561.10 1623.53 41.10
12968 50.9470 1530.10 1623.48 41.10
12969 50.9507 1674.80 1623.42 42.80
12970 50.9545 1579.10 1623.37 42.10
12971 50.9583 1688.30 1623.31 42.70
12972 50.9620 1634.30 1623.26 42.20
12973 50.9658 1633.60 1623.20 42.60
12974 50.9695 1606.20 1623.14 42.10
12975 50.9733 1679.20 1623.09 42.70
12976 50.9771 1590.20 1623.03 41.90
12977 50.9808 1610.50 1622.98 42.10
12978 50.9846 1648.80 1622.92 42.70
12979 50.9883 1563.30 1622.87 41.70
12980 50.9921 1537.50 1622.81 41.30
12981 50.9958 1543.10 1622.76 41.00
12982 50.9996 1600.10 1622.71 42.20
12983 51.0033 1641.70 1622.65 42.80
12984 51.0071 1561.50 1622.60 41.50
12985 51.0109 1594.80 1622.54 41.90
12986 51.0146 1592.60 1622.49 41.60
12987 51.0184 1618.10 1622.44 42.60
12988 51.0221 1663.30 1622.38 42.40
12989 51.0259 1591.20 1622.33 41.90
12990 51.0297 1588.10 1622.28 41.60
12991 51.0334 1603.20 1622.22 41.90
12992 51.0372 1604.30 1622.17 41.50
12993 51.0409 1700.40 1622.12 43.80
12994 51.0447 1594.50 1622.06 42.20
12995 51.0485 1653.00 1622.01 42.60
12996 51.0522 1549.20 1621.96 41.60
12997 51.0560 1699.70 1621.90 43.20
12998 51.0597 1619.60 1621.85 42.10
12999 51.0635 1598.90 1621.80 41.80
13000 51.0672 1637.10 1621.75 42.40
13001 51.0710 1661.50 1621.69 43.10
13002 51.0747 1661.60 1621.64 42.90
13003 51.0785 1613.00 1621.59 41.80
13004 51.0823 1596.70 1621.54 41.70
13005 51.0860 1601.40 1621.49 41.90
13006 51.0898 1573.70 1621.43 41.40
13007 51.0935 1600.40 1621.38 41.50
13008 51.0973 1550.20 1621.33 41.40
13009 51.1011 1620.10 1621.28 42.30
13010 51.1048 1567.20 1621.23 41.20
13011 51.1086 1675.70 1621.18 42.70
13012 51.1123 1604.00 1621.13 41.80
13013 51.1161 1654.20 1621.08 42.60
13014 51.1198 1608.20 1621.02 41.70
13015 51.1236 1673.90 1620.97 43.20
13016 51.1273 1571.60 1620.92 41.40
13017 51.1311 1633.60 1620.87 42.10
13018 51.1349 1576.60 1620.82 40.90
13019 51.1386 1525.80 1620.77 41.60
13020 51.1424 1576.20 1620.72 41.40
13021 51.1461 1625.40 1620.67 41.30
13022 51.1499 1626.70 1620.62 41.90
13023 51.1536 1624.90 1620.57 42.00
13024 51.1574 1652.80 1621.10 42.60
13025 51.1612 1608.00 1621.07 42.10
13026 51.1649 1563.10 1621.05 41.40
13027 51.1687 1660.80 1621.03 42.90
13028 51.1724 1701.10 1621.01 43.10
13029 51.1762 1627.20 1620.99 42.10
13030 51.1800 1551.20 1620.98 41.40
13031 51.1837 1620.00 1620.96 41.90
13032 51.1875 1583.40 1620.95 41.60
13033 51.1912 1538.00 1620.95 40.90
13034 51.1950 1642.50 1620.95 42.30
13035 51.1987 1666.90 1620.95 43.10
13036 51.2025 1659.10 1620.95 42.70
13037 51.2062 1639.00 1620.96 42.00
13038 51.2100 1643.60 1620.98 42.20
13039 51.2138 1650.10 1621.00 42.30
13040 51.2175 1658.20 1621.02 42.80
13041 51.2213 1652.30 1621.06 42.30
13042 51.2250 1604.70 1621.10 41.80
13043 51.2288 1652.40 1621.16 42.70
13044 51.2326 1680.30 1621.22 42.60
13045 51.2363 1668.50 1621.30 42.10
13046 51.2401 1573.90 1621.39 42.00
13047 51.2438 1656.60 1621.49 42.90
13048 51.2476 1585.40 1621.62 41.60
13049 51.2513 1653.30 1621.77 42.20
13050 51.2551 1585.70 1621.94 41.50
13051 51.2589 1632.80 1622.15 42.00
13052 51.2626 1596.70 1622.40 42.00
13053 51.2664 1667.90 1622.69 42.70
13054 51.2701 1636.60 1623.03 41.60
13055 51.2739 1590.00 1623.45 41.50
13056 51.2776 1647.70 1623.94 42.50
13057 51.2814 1683.40 1624.55 43.00
13058 51.2851 1580.40 1625.28 41.60
13059 51.2889 1648.00 1626.20 42.50
13060 51.2927 1608.40 1627.34 41.60
13061 51.2964 1643.20 1628.79 42.60
13062 51.3002 1554.70 1630.67 41.40
13063 51.3039 1630.00 1633.23 42.20
13064 51.3077 1599.10 1636.95 41.70
13065 51.3115 1604.60 1642.79 41.80
13066 51.3152 1660.00 1652.54 42.40
13067 51.3190 1739.10 1669.03 44.00
13068 51.3227 1630.30 1695.63 43.00
13069 51.3265 1832.70 1734.46 44.70
13070 51.3302 1776.10 1784.17 44.10
13071 51.3340 1961.20 1834.29 46.60
13072 51.3377 1818.30 1862.00 44.70
13073 51.3415 1977.90 1847.18 47.70
13074 51.3453 1845.60 1801.17 45.30
13075 51.3490 1798.60 1749.60 44.60
13076 51.3528 1610.00 1706.54 41.90
13077 51.3565 1674.30 1676.02 42.70
13078 51.3603 1623.20 1656.54 41.90
13079 51.3640 1717.40 1644.82 43.70
13080 51.3678 1720.40 1637.87 43.60
13081 51.3716 1568.90 1633.50 41.10
13082 51.3753 1543.80 1630.54 41.10
13083 51.3791 1637.10 1628.38 42.30
13084 51.3828 1646.20 1626.72 42.60
13085 51.3866 1658.30 1625.39 42.40
13086 51.3903 1571.60 1624.33 41.00
13087 51.3941 1666.80 1623.45 42.90
13088 51.3979 1575.10 1622.72 41.60
13089 51.4016 1578.30 1622.10 41.90
13090 51.4054 1634.90 1621.57 42.40
13091 51.4091 1521.50 1621.11 41.30
13092 51.4129 1563.70 1620.72 41.30
13093 51.4166 1611.60 1620.37 42.40
13094 51.4204 1608.40 1620.06 41.30
13095 51.4241 1602.70 1619.78 41.70
13096 51.4279 1559.30 1619.54 41.80
13097 51.4316 1559.20 1619.32 41.30
13098 51.4354 1565.70 1619.11 40.60
13099 51.4392 1622.70 1618.93 42.80
13100 51.4429 1643.60 1618.76 42.20
13101 51.4467 1637.40 1618.60 42.20
13102 51.4504 1631.20 1618.45 42.10
13103 51.4542 1609.60 1618.32 41.10
13104 51.4579 1622.00 1618.19 41.90
13105 51.4617 1589.40 1618.07 41.60
13106 51.4655 1533.50 1617.96 40.80
13107 51.4692 1627.90 1617.85 42.20
13108 51.4730 1623.00 1617.75 41.60
13109 51.4767 1600.50 1617.66 41.60
13110 51.4805 1605.50 1617.56 42.30
13111 51.4842 1630.40 1617.48 42.20
13112 51.4880 1534.60 1617.39 41.00
13113 51.4917 1676.60 1617.31 42.70
13114 51.4955 1589.60 1617.23 42.10
13115 51.4993 1621.10 1617.16 41.50
13116 51.5030 1528.40 1617.08 41.40
13117 51.5068 1638.10 1617.01 42.40
13118 51.5105 1568.30 1616.94 41.40
13119 51.5143 1663.00 1616.88 42.50
13120 51.5180 1609.50 1616.81 41.30
13121 51.5218 1559.60 1616.19 41.50
13122 51.5256 1592.70 1616.15 41.70
13123 51.5293 1538.30 1616.11 41.30
13124 51.5331 1545.80 1616.07 41.10
13125 51.5368 1563.20 1616.03 40.90
13126 51.5406 1552.70 1615.99 40.60
13127 51.5443 1554.30 1615.95 41.00
13128 51.5481 1636.30 1615.91 41.90
13129 51.5518 1647.20 1615.87 41.30
13130 51.5556 1627.40 1615.83 41.60
13131 51.5593 1561.50 1615.79 40.90
13132 51.5631 1599.30 1615.75 41.40
13133 51.5669 1618.80 1615.72 41.80
13134 51.5706 1668.30 1615.68 42.40
13135 51.5744 1616.40 1615.64 41.70
13136 51.5781 1593.70 1615.60 41.30
13137 51.5819 1603.80 1615.56 41.30
13138 51.5856 1636.40 1615.52 41.40
13139 51.5894 1549.60 1615.49 40.50
13140 51.5932 1659.00 1615.45 42.20
13141 51.5969 1646.30 1615.41 41.30
13142 51.6007 1602.70 1615.37 41.40
13143 51.6044 1575.90 1615.33 41.20
13144 51.6082 1563.00 1615.30 40.80
13145 51.6119 1575.50 1615.26 41.00
13146 51.6157 1516.40 1615.22 40.20
13147 51.6194 1645.00 1615.18 42.40
13148 51.6232 1563.60 1615.15 40.60
13149 51.6269 1619.40 1615.11 41.70
13150 51.6307 1563.20 1615.07 40.60
13151 51.6345 1652.20 1615.03 41.80
13152 51.6382 1659.30 1615.00 42.20
13153 51.6420 1675.70 1614.96 42.90
13154 51.6457 1608.70 1614.92 41.70
13155 51.6495 1652.80 1614.89 41.60
13156 51.6532 1605.30 1614.85 40.40
13157 51.6570 1683.60 1614.81 42.90
13158 51.6608 1555.40 1614.78 40.60
13159 51.6645 1610.40 1614.74 41.60
13160 51.6683 1561.40 1614.70 40.50
13161 51.6720 1617.60 1614.67 41.60
13162 51.6758 1639.00 1614.63 41.80
13163 51.6795 1651.60 1614.59 40.90
13164 51.6833 1559.90 1614.56 40.80
13165 51.6870 1618.70 1614.52 41.40
13166 51.6908 1602.50 1614.49 40.90
13167 51.6945 1611.60 1614.45 41.50
13168 51.6983 1568.70 1614.42 40.50
13169 51.7020 1650.70 1614.38 42.30
13170 51.7058 1539.50 1614.34 40.40
13171 51.7096 1595.00 1614.31 41.10
13172 51.7133 1625.70 1614.27 41.70
13173 51.7171 1652.00 1614.24 41.70
13174 51.7208 1612.00 1614.20 41.60
13175 51.7246 1624.40 1614.17 40.70
13176 51.7283 1519.30 1614.13 39.90
13177 51.7321 1596.10 1614.10 40.50
13178 51.7359 1510.10 1614.06 40.00
13179 51.7396 1639.00 1614.03 41.20
13180 51.7434 1650.00 1613.99 42.30
13181 51.7471 1707.80 1613.96 43.10
13182 51.7509 1563.20 1613.93 40.70
13183 51.7546 1655.90 1613.89 41.60
13184 51.7584 1571.70 1613.86 40.80
13185 51.7621 1689.00 1613.82 42.40
13186 51.7659 1625.60 1613.79 41.60
13187 51.7696 1564.10 1613.76 40.80
13188 51.7734 1622.30 1613.72 41.40
13189 51.7771 1576.00 1613.69 40.80
13190 51.7809 1588.20 1613.65 41.40
13191 51.7847 1592.90 1613.62 41.40
13192 51.7884 1567.50 1613.59 40.70
13193 51.7922 1607.80 1613.55 41.50
13194 51.7959 1642.20 1613.52 42.00
13195 51.7997 1550.80 1613.49 40.90
13196 51.8034 1517.90 1613.45 39.80
13197 51.8072 1590.10 1613.42 41.20
13198 51.8109 1587.50 1613.39 41.20
13199 51.8147 1614.70 1613.35 41.60
13200 51.8185 1636.40 1613.32 41.20
13201 51.8222 1615.70 1613.29 41.60
13202 51.8260 1543.70 1613.26 39.90
13203 51.8297 1626.40 1613.22 41.70
13204 51.8335 1618.70 1613.19 42.00
13205 51.8372 1688.20 1613.16 41.80
13206 51.8410 1584.70 1613.13 41.30
13207 51.8447 1544.90 1613.09 40.40
13208 51.8485 1631.10 1613.06 41.50
13209 51.8522 1610.10 1613.03 41.00
13210 51.8560 1605.10 1613.00 40.70
13211 51.8597 1647.30 1612.96 41.30
13212 51.8635 1588.10 1612.93 40.70
13213 51.8672 1586.40 1612.90 41.20
13214 51.8710 1641.90 1612.87 41.40
13215 51.8748 1625.20 1612.84 41.30
13216 51.8785 1614.80 1612.81 41.20
13217 51.8823 1638.30 1612.77 42.00
13218 51.8860 1598.70 1612.74 41.80
13219 51.8898 1574.60 1612.71 40.70
13220 51.8935 1626.90 1612.68 41.00
13221 51.8973 1625.40 1612.65 41.90
13222 51.9010 1595.00 1612.62 40.60
13223 51.9048 1584.90 1612.59 40.90
13224 51.9086 1602.00 1612.56 41.40
13225 51.9123 1564.90 1612.52 41.10
13226 51.9161 1580.90 1612.49 40.80
13227 51.9198 1589.40 1612.46 41.30
13228 51.9236 1532.70 1612.43 40.30
13229 51.9273 1606.00 1612.40 40.50
13230 51.9311 1625.40 1612.37 41.60
13231 51.9348 1649.50 1612.34 41.30
13232 51.9386 1522.10 1612.31 40.20
13233 51.9423 1600.00 1612.28 41.40
13234 51.9461 1587.40 1612.25 40.70
13235 51.9498 1577.80 1612.22 40.90
13236 51.9536 1569.90 1612.19 40.70
13237 51.9574 1626.80 1612.16 41.40
13238 51.9611 1570.60 1612.13 40.50
13239 51.9649 1580.70 1612.10 41.40
13240 51.9686 1559.40 1612.07 41.00
13241 51.9724 1688.40 1612.04 41.60
13242 51.9761 1592.10 1612.01 41.20
13243 51.9799 1647.40 1611.98 42.00
13244 51.9836 1612.00 1611.95 40.80
13245 51.9874 1616.10 1611.92 40.80
13246 51.9911 1527.80 1611.89 40.00
13247 51.9949 1633.40 1611.87 41.60
13248 51.9971 1627.00 1611.85 42.30
13249 52.0008 1553.30 1611.82 41.20
13250 52.0046 1548.70 1611.79 40.90
13251 52.0083 1512.50 1611.76 40.00
13252 52.0121 1601.20 1611.73 42.10
13253 52.0159 1531.70 1611.70 40.80
13254 52.0196 1602.60 1611.67 42.20
13255 52.0234 1545.80 1611.65 41.10
13256 52.0271 1554.40 1611.62 40.70
13257 52.0309 1575.20 1611.59 40.90
13258 52.0346 1631.70 1611.56 42.00
13259 52.0384 1633.30 1611.53 41.80
13260 52.0421 1558.00 1611.50 40.10
13261 52.0459 1579.70 1611.48 40.90
13262 52.0497 1543.80 1611.45 40.70
13263 52.0534 1620.90 1611.42 41.70
13264 52.0572 1627.70 1611.39 41.90
13265 52.0609 1534.20 1611.36 40.60
13266 52.0647 1651.80 1611.34 42.20
13267 52.0684 1540.70 1611.31 40.60
13268 52.0722 1643.80 1611.28 41.80
13269 52.0759 1582.70 1611.25 40.70
13270 52.0797 1675.80 1611.23 42.20
13271 52.0835 1640.30 1611.20 42.00
13272 52.0872 1586.50 1611.17 40.50
13273 52.0910 1590.00 1611.14 41.20
13274 52.0947 1576.90 1611.12 41.20
13275 52.0985 1512.10 1611.09 40.10
13276 52.1022 1644.90 1611.06 41.90
13277 52.1060 1595.60 1611.04 41.30
13278 52.1097 1637.00 1611.01 42.20
13279 52.1135 1547.10 1610.98 40.40
13280 52.1172 1598.70 1610.95 41.40
13281 52.1210 1539.10 1610.93 40.20
13282 52.1248 1663.80 1610.90 42.00
13283 52.1285 1615.10 1610.87 41.60
13284 52.1323 1690.70 1610.85 43.10
13285 52.1360 1610.70 1610.82 41.80
13286 52.1398 1630.70 1610.80 41.30
13287 52.1435 1587.60 1610.77 40.20
13288 52.1473 1660.60 1610.74 42.60
13289 52.1511 1553.50 1610.72 40.60
13290 52.1548 1647.80 1610.69 42.10
13291 52.1586 1592.20 1610.66 40.90
13292 52.1623 1623.50 1610.64 41.70
13293 52.1661 1571.50 1610.61 40.90
13294 52.1698 1599.70 1610.59 40.20
13295 52.1736 1599.00 1610.56 41.30
13296 52.1773 1665.40 1610.54 42.10
13297 52.1811 1581.40 1610.51 40.70
13298 52.1848 1579.30 1610.48 41.00
13299 52.1886 1610.90 1610.46 41.10
13300 52.1924 1621.80 1610.43 42.00
13301 52.1961 1613.60 1610.41 41.40
13302 52.1999 1668.00 1610.38 42.10
13303 52.2036 1602.20 1610.36 41.40
13304 52.2074 1565.10 1610.33 40.60
13305 52.2111 1650.50 1610.31 42.20
13306 52.2149 1668.20 1610.28 41.20
13307 52.2186 1544.30 1610.26 40.20
13308 52.2224 1643.20 1610.23 41.10
13309 52.2258 1620.50 1610.21 42.20
13310 52.2296 1600.20 1610.18 42.00
13311 52.2334 1611.50 1610.16 41.70
13312 52.2371 1607.10 1610.14 42.20
13313 52.2409 1575.80 1610.11 41.80
13314 52.2446 1615.80 1610.09 42.00
13315 52.2484 1574.30 1610.06 41.30
13316 52.2521 1622.00 1610.04 42.90
13317 52.2559 1586.00 1610.01 41.80
13318 52.2596 1601.20 1609.99 41.00
13319 52.2634 1614.30 1609.96 42.30
13320 52.2671 1628.30 1609.94 42.60
13321 52.2709 1629.00 1609.92 42.70
13322 52.2747 1688.60 1609.89 43.10
13323 52.2784 1523.10 1609.87 41.40
13324 52.2822 1611.10 1609.85 42.20
13325 52.2859 1591.80 1609.82 41.70
13326 52.2897 1571.70 1609.80 41.70
13327 52.2934 1541.40 1609.77 41.20
13328 52.2972 1629.70 1609.75 41.90
13329 52.3009 1525.00 1609.73 41.00
13330 52.3047 1618.00 1609.70 42.30
13331 52.3084 1623.40 1609.68 42.20
13332 52.3122 1575.70 1609.66 41.40
13333 52.3159 1627.00 1609.63 42.30
13334 52.3197 1625.50 1609.61 42.60
13335 52.3234 1615.80 1609.59 42.30
13336 52.3272 1616.70 1609.56 42.70
13337 52.3310 1570.20 1609.54 41.50
13338 52.3347 1604.50 1609.52 41.80
13339 52.3385 1532.90 1609.49 41.10
13340 52.3422 1588.00 1609.47 42.40
13341 52.3460 1612.00 1609.45 42.20
13342 52.3497 1621.90 1609.43 41.20
13343 52.3535 1591.30 1609.40 41.90
13344 52.3572 1652.30 1609.38 42.50
13345 52.3610 1575.50 1609.36 41.60
13346 52.3647 1629.10 1609.34 42.30
13347 52.3685 1537.50 1609.31 41.30
13348 52.3723 1602.60 1609.29 41.90
13349 52.3760 1599.90 1609.27 41.90
13350 52.3798 1563.80 1609.25 41.90
13351 52.3835 1642.60 1609.22 42.80
13352 52.3873 1613.90 1609.20 42.30
13353 52.3910 1601.30 1609.18 42.00
13354 52.3948 1604.30 1609.16 42.10
13355 52.3985 1544.50 1609.14 41.60
13356 52.4023 1606.80 1609.11 42.30
13357 52.4061 1622.00 1609.09 42.10
13358 52.4098 1649.60 1609.07 42.40
13359 52.4136 1632.90 1609.05 42.70
13360 52.4173 1629.20 1609.03 42.40
13361 52.4211 1564.00 1609.01 41.30
13362 52.4248 1544.10 1608.98 40.80
13363 52.4286 1569.40 1608.96 41.60
13364 52.4323 1650.70 1608.94 42.90
13365 52.4361 1624.70 1608.92 41.80
13366 52.4398 1614.10 1608.90 42.60
13367 52.4436 1635.10 1608.88 42.50
13368 52.4473 1561.70 1608.86 41.40
13369 52.4511 1587.30 1608.84 42.00
13370 52.4549 1623.30 1608.81 42.40
13371 52.4586 1607.10 1608.79 42.00
13372 52.4624 1682.30 1608.77 43.30
13373 52.4661 1664.60 1608.75 42.80
13374 52.4699 1670.80 1608.73 43.30
13375 52.4736 1583.10 1608.71 41.80
13376 52.4774 1650.20 1608.69 43.00
13377 52.4811 1520.60 1608.67 40.60
13378 52.4849 1601.20 1608.65 42.30
13379 52.4887 1617.50 1608.63 42.00
13380 52.4924 1642.50 1608.61 42.70
13381 52.4962 1609.60 1608.59 42.20
13382 52.4999 1658.00 1608.57 42.90
13383 52.5037 1598.40 1608.55 42.10
13384 52.5074 1702.30 1608.53 42.90
13385 52.5112 1642.60 1608.51 42.60
13386 52.5149 1678.30 1608.48 43.00
13387 52.5187 1525.10 1608.46 41.50
13388 52.5224 1645.60 1608.44 42.70
13389 52.5262 1636.80 1608.42 43.10
13390 52.5300 1596.90 1608.40 42.10
13391 52.5337 1631.90 1608.38 42.30
13392 52.5375 1683.60 1608.36 43.30
13393 52.5412 1594.70 1608.35 42.10
13394 52.5450 1674.90 1608.33 43.10
13395 52.5487 1634.10 1608.31 42.60
13396 52.5525 1651.90 1608.29 42.90
13397 52.5562 1708.80 1608.27 43.70
13398 52.5600 1623.10 1608.25 42.30
13399 52.5638 1622.50 1608.23 42.50
13400 52.5675 1670.60 1608.21 43.10
13401 52.5713 1655.30 1608.19 43.40
13402 52.5750 1736.00 1608.17 44.20
13403 52.5788 1637.30 1608.15 42.90
13404 52.5825 1663.30 1608.13 43.10
13405 52.5863 1662.50 1608.11 43.00
13406 52.5900 1598.50 1608.09 42.20
13407 52.5938 1544.00 1608.07 41.40
13408 52.5975 1714.50 1608.05 44.30
13409 52.6013 1658.80 1608.03 42.90
13410 52.6051 1655.70 1608.02 42.90
13411 52.6088 1547.50 1608.00 41.20
13412 52.6126 1675.00 1607.98 42.70
13413 52.6163 1651.70 1607.96 43.20
13414 52.6201 1821.80 1607.94 45.20
13415 52.6238 1665.90 1607.92 42.70
13416 52.6276 1676.10 1607.90 43.20
13417 52.6314 1635.10 1607.88 42.20
13418 52.6351 1719.20 1607.87 43.30
13419 52.6426 1739.10 1607.83 44.10
13420 52.6464 1697.90 1607.81 43.30
13421 52.6501 1657.40 1607.79 42.40
13422 52.6539 1663.10 1607.77 43.20
13423 52.6576 1735.40 1607.76 44.10
13424 52.6614 1737.60 1607.74 44.40
13425 52.6651 1812.10 1607.72 45.00
13426 52.6689 1686.30 1607.70 43.90
13427 52.6727 1650.40 1607.68 42.70
13428 52.6764 1654.40 1607.67 43.20
13429 52.6802 1794.80 1607.65 45.20
13430 52.6839 1704.80 1607.63 43.80
13431 52.6877 1701.70 1607.61 42.40
13432 52.6914 1701.60 1607.59 42.10
13433 52.6952 1743.50 1607.58 42.70
13434 52.6990 1660.50 1607.56 41.70
13435 52.7027 1785.10 1607.54 42.70
13436 52.7102 1807.80 1607.51 42.50
13437 52.7177 1794.20 1607.47 43.90
13438 52.7215 1728.80 1607.45 42.40
13439 52.7253 1784.00 1607.44 43.40
13440 52.7290 1756.30 1607.42 42.90
13441 52.7328 1815.90 1607.40 43.80
13442 52.7365 1838.10 1607.38 43.40
13443 52.7403 1872.90 1607.37 44.90
13444 52.7440 1845.80 1607.35 44.30
13445 52.7478 1850.10 1607.33 43.80
13446 52.7515 1796.10 1607.31 43.10
13447 52.7553 1856.50 1738.46 43.70
13448 52.7591 1876.10 1743.92 44.30
13449 52.7628 1823.30 1749.71 43.90
13450 52.7666 1883.40 1755.89 44.60
13451 52.7703 1924.20 1762.47 45.10
13452 52.7741 1890.90 1769.51 45.00
13453 52.7778 1897.40 1777.06 44.80
13454 52.7816 1882.10 1785.11 44.90
13455 52.7854 1878.20 1793.78 44.80
13456 52.7891 1895.30 1803.07 44.80
13457 52.7929 1916.70 1813.11 44.80
13458 52.7966 1964.90 1823.93 45.90
13459 52.8004 2023.40 1835.60 46.60
13460 52.8041 2026.80 1848.27 46.70
13461 52.8079 2073.90 1861.99 46.90
13462 52.8116 2105.50 1876.96 47.60
13463 52.8154 2108.00 1893.28 47.50
13464 52.8192 2096.70 1911.13 47.80
13465 52.8229 2170.10 1930.64 48.20
13466 52.8267 2120.40 1952.14 47.50
13467 52.8304 2219.30 1975.86 48.80
13468 52.8342 2168.50 2002.03 47.80
13469 52.8379 2316.90 2031.16 49.30
13470 52.8417 2352.10 2063.53 51.10
13471 52.8455 2304.00 2099.87 50.10
13472 52.8492 2464.90 2140.63 51.50
13473 52.8530 2522.30 2186.55 51.60
13474 52.8567 2525.90 2238.77 52.10
13475 52.8605 2661.10 2298.38 53.50
13476 52.8642 2813.50 2366.52 55.20
13477 52.8680 2793.20 2445.31 55.30
13478 52.8717 2863.40 2536.99 55.50
13479 52.8755 2957.00 2644.07 56.80
13480 52.8793 3104.90 2771.04 58.20
13481 52.8830 3411.00 2922.17 60.90
13482 52.8868 3532.80 3103.90 62.40
13483 52.8905 3861.90 3326.00 65.40
13484 52.8943 4019.20 3600.81 66.80
13485 52.8980 4462.90 3945.17 70.70
13486 52.9018 4849.40 4390.38 73.70
13487 52.9056 5554.10 4990.81 79.00
13488 52.9093 6309.40 5852.65 84.60
13489 52.9131 7733.60 7202.01 93.60
13490 52.9168 9562.40 9436.32 107.10
13491 52.9206 13144.90 13183.50 126.50
13492 52.9243 18634.20 19160.80 154.50
13493 52.9281 28719.40 27932.80 198.70
13494 52.9319 39582.50 39154.50 239.90
13495 52.9356 50412.60 50819.20 272.50
13496 52.9394 55172.10 58016.80 295.60
13497 52.9431 56510.30 55893.30 297.60
13498 52.9469 47516.40 46073.30 266.50
13499 52.9506 36180.20 34159.70 226.10
13500 52.9544 23142.50 23854.30 171.80
13501 52.9581 15632.30 16315.10 140.60
13502 52.9619 10691.70 11356.90 113.60
13503 52.9657 8665.90 8341.30 101.30
13504 52.9694 7056.60 6548.33 90.90
13505 52.9732 5998.30 5445.49 82.00
13506 52.9769 5058.10 4711.29 75.90
13507 52.9807 4799.50 4187.16 73.60
13508 52.9845 4233.10 3788.77 69.30
13509 52.9882 4067.10 3476.56 67.50
13510 52.9920 3660.20 3225.86 63.30
13511 52.9957 3502.00 3022.49 62.40
13512 52.9995 3288.30 2854.30 60.60
13513 53.0032 3148.20 2714.20 59.00
13514 53.0070 3001.30 2596.02 57.10
13515 53.0107 3042.00 2495.96 57.90
13516 53.0145 2826.50 2410.01 55.70
13517 53.0183 2752.00 2335.92 54.90
13518 53.0220 2653.90 2271.66 53.20
13519 53.0258 2637.70 2215.28 53.40
13520 53.0295 2553.10 2165.78 51.70
13521 53.0333 2445.80 2122.16 51.40
13522 53.0370 2312.30 2083.35 49.40
13523 53.0408 2418.50 2048.69 52.00
13524 53.0446 2321.90 2017.67 50.10
13525 53.0483 2249.90 1989.87 49.20
13526 53.0521 2141.90 1964.71 47.90
13527 53.0558 2219.40 1941.94 48.60
13528 53.0596 2173.70 1921.26 47.90
13529 53.0634 2067.70 1902.47 46.40
13530 53.0671 1982.50 1885.27 46.30
13531 53.0709 2035.80 1869.51 46.90
13532 53.0746 2009.80 1855.04 46.30
13533 53.0784 1994.40 1841.77 46.00
13534 53.0821 1940.60 1829.48 45.60
13535 53.0859 2002.10 1818.14 46.30
13536 53.0897 1960.50 1807.64 45.90
13537 53.0934 1929.20 1797.91 45.50
13538 53.0972 1816.10 1788.84 44.00
13539 53.1009 1926.30 1780.41 45.20
13540 53.1047 1835.70 1772.53 44.10
13541 53.1084 1864.00 1765.20 44.60
13542 53.1122 1761.80 1758.31 43.40
13543 53.1160 1890.30 1751.87 45.20
13544 53.1197 1788.30 1745.82 43.90
13545 53.1235 1839.80 1740.16 43.80
13546 53.1272 1805.40 1605.80 43.90
13547 53.1310 1791.10 1605.78 43.90
13548 53.1348 1770.90 1605.77 42.90
13549 53.1385 1772.80 1605.76 43.10
13550 53.1423 1752.50 1605.74 43.90
13551 53.1460 1760.70 1605.73 43.10
13552 53.1498 1749.50 1605.72 42.80
13553 53.1535 1749.30 1605.70 43.10
13554 53.1573 1765.00 1605.69 43.40
13555 53.1610 1776.90 1605.68 43.90
13556 53.1648 1687.60 1605.66 42.80
13557 53.1686 1679.80 1605.65 42.70
13558 53.1723 1718.20 1605.64 43.40
13559 53.1761 1674.80 1605.62 42.80
13560 53.1798 1702.30 1605.61 43.50
13561 53.1836 1763.00 1605.60 44.10
13562 53.1874 1694.10 1605.59 43.00
13563 53.1911 1721.70 1605.57 43.40
13564 53.1949 1693.60 1605.56 43.30
13565 53.1986 1722.90 1605.55 43.20
13566 53.2024 1692.20 1605.53 43.00
13567 53.2061 1673.90 1605.52 42.70
13568 53.2099 1678.90 1605.51 42.00
13569 53.2137 1716.00 1605.49 43.10
13570 53.2174 1640.20 1605.48 42.80
13571 53.2212 1690.90 1605.47 43.10
13572 53.2249 1655.80 1605.46 42.70
13573 53.2287 1713.90 1605.44 43.20
13574 53.2324 1641.00 1605.43 42.30
13575 53.2362 1692.80 1605.42 42.50
13576 53.2400 1639.60 1605.40 42.90
13577 53.2437 1612.10 1605.39 42.30
13578 53.2475 1644.80 1605.38 42.40
13579 53.2512 1706.60 1605.37 42.70
13580 53.2550 1583.60 1605.35 41.40
13581 53.2588 1684.60 1605.34 42.80
13582 53.2625 1613.40 1605.33 41.80
13583 53.2663 1688.00 1605.32 42.60
13584 53.2700 1629.00 1605.30 42.20
13585 53.2738 1679.90 1605.29 43.10
13586 53.2775 1527.70 1605.28 39.90
13587 53.2813 1691.70 1605.27 42.80
13588 53.2851 1647.60 1605.25 41.90
13589 53.2888 1657.50 1605.24 42.50
13590 53.2926 1677.40 1605.23 42.80
13591 53.2963 1653.20 1605.22 42.20
13592 53.3001 1545.20 1605.20 41.10
13593 53.3038 1632.50 1605.19 41.80
13594 53.3076 1589.90 1605.18 40.90
13595 53.3114 1615.20 1605.17 42.00
13596 53.3151 1533.00 1605.15 40.90
13597 53.3189 1707.40 1605.14 43.00
13598 53.3226 1572.10 1605.13 40.40
13599 53.3264 1676.40 1605.12 42.90
13600 53.3302 1601.70 1605.11 41.80
13601 53.3339 1574.30 1605.09 40.90
13602 53.3377 1588.70 1605.08 40.90
13603 53.3414 1682.80 1605.07 43.90
13604 53.3452 1576.50 1605.06 41.40
13605 53.3489 1657.90 1605.04 42.20
13606 53.3527 1559.10 1605.03 40.20
13607 53.3565 1690.20 1605.02 42.00
13608 53.3602 1587.10 1605.01 41.40
13609 53.3640 1582.00 1605.00 40.90
13610 53.3677 1648.00 1604.98 42.50
13611 53.3715 1665.80 1604.97 41.90
13612 53.3753 1601.00 1604.96 40.90
13613 53.3790 1632.70 1604.95 42.00
13614 53.3828 1621.20 1604.94 41.80
13615 53.3865 1640.50 1604.92 41.80
13616 53.3903 1605.00 1604.91 41.50
13617 53.3941 1653.10 1604.90 42.20
13618 53.3978 1657.30 1604.89 42.40
13619 53.4016 1545.60 1604.88 41.00
13620 53.4053 1598.80 1604.87 41.20
13621 53.4091 1523.10 1604.85 40.70
13622 53.4128 1521.90 1604.84 40.60
13623 53.4166 1683.70 1604.83 42.80
13624 53.4204 1666.70 1604.82 42.70
13625 53.4241 1601.00 1604.81 41.70
13626 53.4279 1568.30 1604.79 41.20
13627 53.4316 1599.20 1604.78 40.90
13628 53.4354 1536.10 1604.77 40.10
13629 53.4392 1614.40 1604.76 42.00
13630 53.4429 1645.40 1604.75 42.60
13631 53.4467 1719.40 1604.74 41.90
13632 53.4504 1481.90 1604.72 39.50
13633 53.4542 1655.10 1604.71 42.10
13634 53.4579 1551.00 1604.70 40.60
13635 53.4617 1583.70 1604.69 41.40
13636 53.4655 1656.50 1604.68 42.00
13637 53.4692 1689.50 1604.67 43.00
13638 53.4730 1562.40 1604.65 40.80
13639 53.4767 1626.80 1604.64 41.60
13640 53.4805 1607.70 1604.63 41.70
13641 53.4842 1603.80 1604.62 41.50
13642 53.4880 1597.20 1604.61 41.50
13643 53.4918 1625.80 1604.60 41.90
13644 53.4955 1553.30 1604.59 40.60
13645 53.4993 1594.50 1604.57 41.00
13646 53.5031 1536.10 1604.56 39.70
13647 53.5068 1608.70 1604.55 41.60
13648 53.5106 1531.70 1604.54 40.40
13649 53.5143 1719.60 1604.53 42.90
13650 53.5181 1587.80 1604.52 41.10
13651 53.5218 1588.10 1604.51 40.80
13652 53.5256 1545.60 1604.49 40.40
13653 53.5294 1645.20 1604.48 41.10
13654 53.5331 1591.30 1604.47 41.30
13655 53.5369 1561.50 1604.46 40.10
13656 53.5406 1494.70 1604.45 40.60
13657 53.5444 1553.70 1604.44 41.10
13658 53.5481 1551.50 1604.43 40.80
13659 53.5519 1538.30 1604.41 40.50
13660 53.5557 1634.90 1604.40 42.20
13661 53.5594 1629.40 1604.39 41.40
13662 53.5632 1495.10 1604.38 39.60
13663 53.5670 1530.90 1604.37 40.60
13664 53.5707 1579.70 1604.36 41.10
13665 53.5745 1576.00 1604.35 41.50
13666 53.5782 1541.80 1604.34 40.60
13667 53.5820 1637.20 1604.32 41.70
13668 53.5857 1541.10 1604.31 40.70
13669 53.5895 1612.90 1604.30 41.90
13670 53.5933 1567.40 1604.29 41.30
13671 53.5970 1645.50 1604.28 42.30
13672 53.6008 1573.20 1604.27 41.10
13673 53.6045 1589.70 1604.26 40.80
13674 53.6083 1528.20 1604.25 40.60
13675 53.6120 1608.00 1604.24 41.80
13676 53.6158 1594.80 1604.22 41.70
13677 53.6196 1633.40 1604.21 41.80
13678 53.6233 1562.00 1604.20 41.00
13679 53.6271 1646.70 1604.19 41.10
13680 53.6309 1526.30 1604.18 40.50
13681 53.6346 1613.70 1604.17 42.20
13682 53.6384 1548.60 1604.16 40.30
13683 53.6421 1569.50 1604.15 42.00
13684 53.6459 1575.10 1604.14 42.00
13685 53.6496 1620.70 1604.12 41.40
13686 53.6534 1528.00 1604.11 39.80
13687 53.6572 1659.80 1604.10 41.90
13688 53.6609 1562.10 1604.09 40.50
13689 53.6647 1662.80 1604.08 41.70
13690 53.6684 1516.00 1604.07 39.80
13691 53.6722 1592.60 1604.06 41.30
13692 53.6760 1571.90 1604.05 40.70
13693 53.6797 1556.50 1604.04 40.70
13694 53.6835 1563.80 1604.03 40.40
13695 53.6872 1550.30 1604.01 40.50
13696 53.6910 1600.50 1604.00 40.90
13697 53.6948 1570.50 1603.99 40.70
13698 53.6985 1538.20 1603.98 40.10
13699 53.7023 1569.10 1603.97 40.40
13700 53.7060 1531.40 1603.96 40.20
13701 53.7098 1615.10 1603.95 41.50
13702 53.7136 1549.70 1603.94 40.60
13703 53.7173 1595.90 1603.93 41.00
13704 53.7211 1518.40 1603.92 40.30
13705 53.7248 1620.80 1603.90 41.30
13706 53.7286 1549.50 1603.89 40.60
13707 53.7323 1622.30 1603.88 41.80
13708 53.7361 1530.10 1603.87 39.80
13709 53.7399 1548.80 1603.86 40.40
13710 53.7436 1548.80 1603.85 41.20
13711 53.7474 1558.10 1603.84 40.30
13712 53.7511 1558.90 1603.83 40.60
13713 53.7549 1593.90 1603.82 40.80
13714 53.7587 1544.70 1603.81 40.20
13715 53.7624 1593.40 1603.80 41.00
13716 53.7662 1599.00 1603.78 41.30
13717 53.7699 1603.00 1603.77 41.10
13718 53.7737 1541.70 1603.76 40.60
13719 53.7775 1580.80 1603.75 41.20
13720 53.7812 1572.30 1603.74 40.10
13721 53.7850 1573.60 1603.73 40.50
13722 53.7887 1564.30 1603.72 40.80
13723 53.7925 1586.80 1603.71 41.20
13724 53.7962 1540.60 1603.70 40.50
13725 53.8000 1572.90 1603.69 41.10
13726 53.8038 1548.90 1603.68 40.70
13727 53.8075 1613.90 1603.66 41.50
13728 53.8113 1458.90 1603.65 39.20
13729 53.8150 1632.80 1603.64 41.60
13730 53.8188 1557.60 1603.63 40.60
13731 53.8226 1603.10 1603.62 41.20
13732 53.8263 1545.40 1603.61 40.80
13733 53.8301 1599.30 1603.60 40.80
13734 53.8339 1510.40 1603.59 40.00
13735 53.8376 1615.80 1603.58 41.10
13736 53.8414 1490.40 1603.57 39.90
13737 53.8451 1589.90 1603.56 41.20
13738 53.8489 1582.70 1603.55 40.90
13739 53.8526 1610.40 1603.53 40.80
13740 53.8564 1553.10 1603.52 40.60
13741 53.8602 1553.60 1603.51 40.60
13742 53.8639 1581.20 1603.50 41.00
13743 53.8677 1551.20 1603.49 40.10
13744 53.8714 1595.50 1603.48 41.40
13745 53.8752 1564.90 1603.47 40.90
13746 53.8790 1542.10 1603.46 40.60
13747 53.8827 1575.70 1603.45 41.00
13748 53.8865 1502.60 1603.44 39.90
13749 53.8902 1578.90 1603.43 40.70
13750 53.8940 1568.80 1603.41 41.00
13751 53.8978 1619.50 1603.40 41.70
13752 53.9015 1496.50 1603.39 40.30
13753 53.9053 1576.50 1603.38 40.90
13754 53.9090 1519.40 1603.37 40.20
13755 53.9128 1568.60 1603.36 40.70
13756 53.9165 1468.90 1603.35 39.70
13757 53.9203 1524.60 1603.34 40.50
13758 53.9241 1569.30 1603.33 40.60
13759 53.9278 1537.10 1603.32 40.40
13760 53.9316 1556.30 1603.31 40.90
13761 53.9353 1612.70 1603.29 41.30
13762 53.9391 1608.70 1603.28 40.90
13763 53.9429 1560.40 1603.27 41.70
13764 53.9466 1606.50 1603.26 41.80
13765 53.9504 1624.00 1603.25 41.50
13766 53.9542 1567.80 1603.24 40.90
13767 53.9579 1597.30 1603.23 41.30
13768 53.9617 1536.70 1603.22 40.50
13769 53.9654 1614.30 1603.21 41.80
13770 53.9692 1587.70 1603.20 41.10
13771 53.9729 1565.30 1603.19 40.80
13772 53.9767 1526.50 1603.17 40.10
13773 53.9805 1619.20 1603.16 42.10
13774 53.9842 1508.90 1603.15 40.50
13775 53.9880 1604.50 1603.14 41.40
13776 53.9917 1613.30 1603.13 42.00
13777 53.9955 1583.70 1603.12 41.10
13778 53.9993 1540.20 1603.11 40.50
13779 54.0030 1575.00 1603.10 41.20
13780 54.0068 1551.70 1603.09 40.60
13781 54.0105 1582.00 1603.08 41.10
13782 54.0143 1573.90 1603.06 41.00
13783 54.0181 1555.90 1603.05 40.60
13784 54.0218 1630.00 1603.04 41.90
13785 54.0256 1571.70 1603.03 40.40
13786 54.0293 1527.80 1603.02 40.70
13787 54.0331 1603.00 1603.01 41.60
13788 54.0369 1614.10 1603.00 41.50
13789 54.0406 1605.90 1602.99 41.50
13790 54.0444 1636.90 1602.98 42.70
13791 54.0481 1657.10 1602.97 42.00
13792 54.0519 1601.20 1602.95 41.20
13793 54.0557 1616.00 1602.94 41.70
13794 54.0594 1504.60 1602.93 40.40
13795 54.0632 1549.20 1602.92 40.50
13796 54.0669 1535.50 1602.91 40.60
13797 54.0707 1620.30 1602.90 42.00
13798 54.0745 1493.90 1602.89 39.80
13799 54.0782 1639.80 1602.88 42.10
13800 54.0820 1575.60 1602.87 41.40
13801 54.0857 1620.00 1602.85 41.90
13802 54.0895 1605.40 1602.84 41.70
13803 54.0933 1551.50 1602.83 40.40
13804 54.0970 1547.10 1602.82 40.50
13805 54.1008 1569.30 1602.81 40.60
13806 54.1045 1526.00 1602.80 40.40
13807 54.1083 1531.80 1602.79 40.50
13808 54.1121 1576.70 1602.78 41.20
13809 54.1158 1588.80 1602.77 40.90
13810 54.1196 1518.50 1602.75 40.40
13811 54.1233 1587.40 1602.74 41.40
13812 54.1271 1532.90 1602.73 40.70
13813 54.1309 1550.40 1602.72 41.10
13814 54.1346 1558.30 1602.71 40.60
13815 54.1384 1591.10 1602.70 40.80
13816 54.1421 1541.80 1602.69 40.80
13817 54.1459 1614.90 1602.68 41.90
13818 54.1497 1514.80 1602.66 40.40
13819 54.1534 1578.20 1602.65 40.30
13820 54.1572 1545.60 1602.64 40.50
13821 54.1609 1577.70 1602.63 41.30
13822 54.1647 1587.80 1602.62 40.80
13823 54.1685 1593.20 1602.61 41.10
13824 54.1722 1496.30 1602.60 39.70
13825 54.1760 1625.50 1602.58 41.40
13826 54.1797 1559.90 1602.57 40.90
13827 54.1835 1637.60 1602.56 41.70
13828 54.1873 1536.20 1602.55 40.60
13829 54.1910 1539.60 1602.54 40.40
13830 54.1948 1587.10 1602.53 40.50
13831 54.1985 1531.40 1602.52 40.20
13832 54.2023 1490.70 1602.50 39.60
13833 54.2061 1596.60 1602.49 41.40
13834 54.2098 1578.10 1602.48 40.70
13835 54.2136 1617.10 1602.47 41.40
13836 54.2173 1564.40 1602.46 40.60
13837 54.2211 1535.60 1602.45 40.50
13838 54.2248 1566.30 1602.44 41.20
13839 54.2286 1580.60 1602.42 40.90
13840 54.2324 1579.30 1602.41 40.90
13841 54.2361 1558.70 1602.40 40.10
13842 54.2399 1528.90 1602.39 40.10
13843 54.2436 1612.90 1602.38 41.90
13844 54.2474 1568.60 1602.37 40.60
13845 54.2512 1558.30 1602.35 40.30
13846 54.2549 1507.10 1602.34 39.90
13847 54.2587 1528.90 1602.33 40.30
13848 54.2625 1626.50 1602.32 41.40
13849 54.2662 1608.50 1602.31 41.60
13850 54.2700 1629.80 1602.30 41.80
13851 54.2737 1612.50 1602.28 41.30
13852 54.2775 1501.00 1602.27 40.10
13853 54.2812 1564.00 1602.26 40.70
13854 54.2850 1519.70 1602.25 40.50
13855 54.2888 1542.10 1602.24 40.50
13856 54.2925 1593.60 1602.23 41.40
13857 54.2963 1549.10 1602.21 40.70
13858 54.3000 1515.10 1602.20 39.90
13859 54.3038 1567.20 1602.19 40.70
13860 54.3076 1597.70 1602.18 41.10
13861 54.3113 1568.90 1602.17 41.10
13862 54.3151 1497.40 1602.15 39.70
13863 54.3189 1605.10 1602.14 40.70
13864 54.3226 1602.50 1608.72 41.40
13865 54.3264 1585.70 1608.98 41.00
13866 54.3301 1524.90 1609.25 40.70
13867 54.3339 1508.10 1609.55 39.90
13868 54.3377 1560.10 1609.87 40.70
13869 54.3414 1615.20 1610.20 41.60
13870 54.3452 1620.00 1610.57 42.10
13871 54.3489 1616.90 1610.96 41.70
13872 54.3527 1572.90 1611.38 40.90
13873 54.3564 1623.80 1611.83 41.80
13874 54.3602 1581.90 1612.31 41.30
13875 54.3640 1628.00 1612.83 41.60
13876 54.3677 1591.00 1613.40 41.50
13877 54.3715 1557.70 1614.02 40.70
13878 54.3753 1604.30 1614.68 41.20
13879 54.3790 1586.30 1615.41 41.00
13880 54.3828 1512.90 1616.20 40.20
13881 54.3865 1583.20 1617.07 41.40
13882 54.3903 1568.80 1618.02 40.90
13883 54.3941 1644.50 1619.06 41.90
13884 54.3978 1612.00 1620.21 41.50
13885 54.4016 1637.00 1621.48 41.60
13886 54.4053 1624.90 1622.90 41.40
13887 54.4091 1570.90 1624.47 41.00
13888 54.4128 1594.20 1626.23 41.40
13889 54.4166 1556.90 1628.20 40.60
13890 54.4204 1608.00 1630.42 41.00
13891 54.4241 1610.80 1632.94 41.80
13892 54.4279 1561.60 1635.81 41.00
13893 54.4316 1617.40 1639.09 41.70
13894 54.4354 1570.70 1642.87 40.40
13895 54.4392 1656.30 1647.25 41.90
13896 54.4429 1651.00 1652.38 42.80
13897 54.4467 1617.20 1658.40 41.80
13898 54.4505 1630.70 1665.56 42.00
13899 54.4542 1672.10 1674.17 42.80
13900 54.4580 1535.10 1684.57 39.90
13901 54.4617 1643.40 1697.39 42.00
13902 54.4655 1739.50 1713.42 43.50
13903 54.4692 1721.40 1733.81 42.60
13904 54.4730 1619.40 1760.97 41.20
13905 54.4768 1798.30 1799.31 44.20
13906 54.4805 1870.50 1857.43 45.40
13907 54.4843 1865.20 1952.50 45.00
13908 54.4881 2048.40 2111.55 47.10
13909 54.4918 2245.30 2367.93 49.50
13910 54.4956 2649.20 2753.80 53.40
13911 54.4993 3320.90 3271.41 61.50
13912 54.5031 3737.20 3853.96 64.80
13913 54.5069 3927.00 4322.25 66.70
13914 54.5106 4007.70 4406.65 67.10
13915 54.5144 3936.80 4047.02 67.00
13916 54.5181 3366.50 3473.99 61.10
13917 54.5219 2730.20 2921.49 55.40
13918 54.5257 2302.60 2487.48 50.10
13919 54.5294 2016.00 2188.26 46.90
13920 54.5332 1891.00 1999.12 45.10
13921 54.5369 1833.00 1885.26 43.90
13922 54.5407 1771.40 1816.55 44.20
13923 54.5445 1750.00 1772.58 43.30
13924 54.5482 1678.30 1742.16 42.20
13925 54.5520 1641.70 1719.70 41.40
13926 54.5557 1599.00 1702.29 41.40
13927 54.5595 1683.60 1688.44 42.70
13928 54.5633 1589.30 1677.23 41.70
13929 54.5670 1617.50 1668.02 41.50
13930 54.5708 1654.60 1660.36 42.10
13931 54.5745 1596.30 1653.95 41.70
13932 54.5783 1565.00 1648.50 40.80
13933 54.5821 1597.40 1643.85 41.80
13934 54.5858 1590.00 1639.85 40.60
13935 54.5896 1679.60 1636.37 42.90
13936 54.5933 1602.60 1633.34 41.50
13937 54.5971 1598.70 1630.68 41.40
13938 54.6009 1588.30 1628.33 41.20
13939 54.6046 1522.40 1626.25 40.70
13940 54.6084 1563.90 1624.40 41.50
13941 54.6121 1595.80 1622.74 41.50
13942 54.6159 1570.40 1621.24 41.10
13943 54.6197 1648.90 1619.90 42.30
13944 54.6234 1547.80 1618.68 40.90
13945 54.6272 1562.70 1617.57 41.20
13946 54.6309 1583.30 1616.57 41.50
13947 54.6347 1596.60 1615.65 42.10
13948 54.6385 1588.20 1614.80 41.30
13949 54.6422 1546.90 1614.03 40.90
13950 54.6460 1571.90 1613.32 42.40
13951 54.6497 1594.90 1612.66 42.20
13952 54.6535 1543.20 1612.05 40.90
13953 54.6573 1580.20 1611.48 41.60
13954 54.6610 1524.00 1610.96 40.50
13955 54.6648 1619.70 1610.47 42.00
13956 54.6685 1555.50 1610.02 40.70
13957 54.6723 1615.50 1609.59 41.70
13958 54.6761 1548.20 1609.19 41.20
13959 54.6798 1564.60 1608.82 40.90
13960 54.6836 1486.70 1608.47 40.00
13961 54.6873 1511.60 1608.14 40.70
13962 54.6911 1577.80 1607.83 41.40
13963 54.6949 1537.10 1607.54 40.90
13964 54.6986 1526.40 1600.84 40.30
13965 54.7024 1529.40 1600.82 40.80
13966 54.7061 1447.00 1600.81 39.90
13967 54.7099 1570.70 1600.80 41.20
13968 54.7137 1546.40 1600.78 41.40
13969 54.7174 1558.00 1600.77 41.20
13970 54.7212 1561.00 1600.75 41.40
13971 54.7249 1552.60 1600.74 40.10
13972 54.7287 1588.20 1600.72 41.50
13973 54.7325 1534.50 1600.71 41.20
13974 54.7362 1631.80 1600.70 41.90
13975 54.7400 1573.40 1600.68 40.90
13976 54.7437 1569.00 1600.67 42.00
13977 54.7475 1687.90 1600.65 42.00
13978 54.7513 1544.00 1600.64 41.10
13979 54.7550 1573.90 1600.62 41.50
13980 54.7588 1526.60 1600.61 40.80
13981 54.7625 1576.60 1600.59 41.40
13982 54.7663 1541.50 1600.58 40.40
13983 54.7701 1535.60 1600.57 40.50
13984 54.7738 1577.60 1600.55 41.30
13985 54.7776 1497.80 1600.54 39.20
13986 54.7813 1547.10 1600.52 40.80
13987 54.7851 1530.00 1600.51 40.40
13988 54.7889 1528.40 1600.49 40.50
13989 54.7926 1561.70 1600.48 41.20
13990 54.7964 1527.90 1600.46 40.90
13991 54.8001 1532.10 1600.45 40.20
13992 54.8039 1623.70 1600.43 42.60
13993 54.8077 1508.70 1600.42 40.70
13994 54.8114 1535.90 1600.40 40.60
13995 54.8152 1574.20 1600.39 40.70
13996 54.8189 1542.80 1600.37 39.80
13997 54.8227 1602.90 1600.36 42.00
13998 54.8265 1511.10 1600.34 40.50
13999 54.8302 1510.40 1600.33 41.00
14000 54.8340 1487.70 1600.31 39.80
14001 54.8377 1525.90 1600.30 40.40
14002 54.8415 1505.00 1600.28 40.20
14003 54.8453 1567.90 1600.27 42.40
14004 54.8490 1539.80 1600.25 41.00
14005 54.8528 1598.30 1600.24 41.60
14006 54.8565 1582.10 1600.22 41.80
14007 54.8603 1590.80 1600.21 41.80
14008 54.8641 1550.40 1600.19 41.00
14009 54.8678 1572.00 1600.18 40.80
14010 54.8716 1555.60 1600.16 41.60
14011 54.8753 1549.00 1600.14 40.90
14012 54.8791 1596.00 1600.13 42.00
14013 54.8829 1539.50 1600.11 40.90
14014 54.8866 1547.40 1600.10 40.50
14015 54.8904 1600.20 1600.08 41.90
14016 54.8941 1574.50 1600.07 41.50
14017 54.8979 1527.40 1600.05 41.00
14018 54.9017 1504.20 1600.03 40.50
14019 54.9054 1614.70 1600.02 42.30
14020 54.9092 1485.50 1600.00 40.30
14021 54.9129 1501.90 1599.99 40.40
14022 54.9167 1560.70 1599.97 40.80
14023 54.9205 1591.00 1599.96 41.30
14024 54.9242 1577.80 1599.94 41.70
14025 54.9280 1601.40 1599.92 41.30
14026 54.9317 1589.50 1599.91 41.50
14027 54.9355 1585.50 1599.89 41.40
14028 54.9393 1525.80 1599.88 39.60
14029 54.9430 1605.30 1599.86 42.30
14030 54.9468 1596.20 1599.84 42.20
14031 54.9505 1562.50 1599.83 40.50
14032 54.9543 1482.20 1599.81 39.90
14033 54.9581 1576.30 1599.80 41.30
14034 54.9618 1446.80 1599.78 39.50
14035 54.9656 1512.30 1599.76 40.20
14036 54.9693 1524.80 1599.75 41.20
14037 54.9731 1567.60 1599.73 41.40
14038 54.9769 1533.80 1599.71 41.30
14039 54.9806 1468.00 1599.70 40.40
14040 54.9844 1543.70 1599.68 41.20
14041 54.9881 1558.10 1599.66 40.80
14042 54.9919 1487.90 1599.65 40.40
14043 54.9957 1557.90 1599.63 41.50
14044 54.9994 1495.00 1599.62 39.80
14045 55.0032 1556.50 1599.60 41.20
14046 55.0069 1546.50 1599.58 40.70
14047 55.0107 1531.20 1599.57 40.40
14048 55.0145 1497.50 1599.55 40.50
14049 55.0182 1519.70 1599.53 40.70
14050 55.0220 1584.00 1599.52 41.50
14051 55.0257 1576.90 1599.50 41.40
14052 55.0295 1546.00 1599.48 40.50
14053 55.0333 1593.60 1599.46 41.80
14054 55.0370 1490.00 1599.45 40.10
14055 55.0408 1605.80 1599.43 40.80
14056 55.0445 1558.10 1599.41 41.70
14057 55.0483 1499.00 1599.40 40.10
14058 55.0521 1507.80 1599.38 40.30
14059 55.0558 1517.50 1599.36 40.40
14060 55.0596 1551.50 1599.35 41.10
14061 55.0633 1591.20 1599.33 41.40
14062 55.0671 1477.90 1599.31 40.00
14063 55.0709 1498.10 1599.29 40.30
14064 55.0746 1546.10 1599.28 41.40
14065 55.0784 1564.40 1599.26 41.30
14066 55.0821 1534.40 1599.24 41.20
14067 55.0859 1608.20 1599.22 41.80
14068 55.0897 1472.10 1599.21 40.60
14069 55.0934 1577.70 1599.19 41.80
14070 55.0972 1532.90 1599.17 40.90
14071 55.1009 1630.50 1599.15 42.30
14072 55.1047 1496.30 1599.14 40.50
14073 55.1085 1546.70 1599.12 40.50
14074 55.1122 1466.70 1599.10 40.20
14075 55.1160 1642.10 1599.08 42.20
14076 55.1197 1562.00 1599.07 41.40
14077 55.1235 1555.00 1599.05 41.20
14078 55.1273 1527.90 1599.03 40.80
14079 55.1310 1519.00 1599.01 40.60
14080 55.1348 1566.90 1599.00 41.80
14081 55.1385 1616.70 1598.98 41.90
14082 55.1423 1535.60 1598.96 41.70
14083 55.1461 1532.80 1598.94 41.30
14084 55.1498 1575.20 1598.92 41.40
14085 55.1536 1579.30 1598.91 41.80
14086 55.1573 1512.30 1598.89 40.50
14087 55.1611 1592.70 1598.87 42.00
14088 55.1648 1562.20 1598.85 41.20
14089 55.1686 1582.20 1598.83 41.70
14090 55.1724 1572.10 1598.81 41.70
14091 55.1761 1562.80 1598.80 40.70
14092 55.1799 1509.30 1598.78 40.70
14093 55.1837 1615.60 1598.76 42.20
14094 55.1874 1600.00 1598.74 42.00
14095 55.1912 1522.30 1598.72 40.60
14096 55.1949 1511.80 1598.70 40.50
14097 55.1987 1556.00 1598.69 40.30
14098 55.2024 1570.00 1598.67 41.60
14099 55.2062 1526.40 1598.65 40.60
14100 55.2100 1531.50 1598.63 40.80
14101 55.2137 1583.20 1598.61 41.90
14102 55.2175 1492.80 1598.59 40.50
14103 55.2212 1639.80 1598.57 42.60
14104 55.2250 1578.10 1598.56 41.50
14105 55.2288 1571.10 1598.54 41.30
14106 55.2325 1544.60 1598.52 41.40
14107 55.2363 1521.90 1598.50 40.90
14108 55.2401 1513.70 1598.48 40.50
14109 55.2438 1575.60 1598.46 42.30
14110 55.2476 1440.50 1598.44 39.80
14111 55.2513 1513.70 1598.42 40.30
14112 55.2551 1527.50 1598.40 40.40
14113 55.2589 1626.10 1598.38 42.30
14114 55.2626 1558.20 1598.37 40.80
14115 55.2664 1635.70 1598.35 42.80
14116 55.2701 1473.00 1598.33 40.30
14117 55.2739 1567.10 1598.31 41.50
14118 55.2776 1501.20 1598.29 40.80
14119 55.2814 1510.90 1598.27 40.10
14120 55.2852 1487.50 1598.25 40.70
14121 55.2889 1602.80 1598.23 41.90
14122 55.2927 1488.70 1598.21 40.50
14123 55.2964 1533.50 1598.19 41.00
14124 55.3002 1490.10 1598.17 40.40
14125 55.3040 1538.10 1598.15 40.80
14126 55.3077 1498.10 1598.13 40.10
14127 55.3115 1552.50 1598.11 41.60
14128 55.3152 1535.80 1598.09 40.90
14129 55.3190 1563.60 1598.07 40.60
14130 55.3228 1547.10 1598.05 41.60
14131 55.3265 1511.90 1598.03 40.40
14132 55.3303 1476.90 1598.01 40.20
14133 55.3340 1609.50 1597.99 42.00
14134 55.3378 1494.90 1597.97 40.50
14135 55.3416 1540.80 1597.95 40.90
14136 55.3453 1591.60 1597.93 42.80
14137 55.3491 1519.80 1597.91 40.30
14138 55.3528 1558.00 1597.89 41.20
14139 55.3566 1522.70 1597.87 40.60
14140 55.3604 1496.90 1597.85 40.50
14141 55.3641 1583.00 1597.83 41.40
14142 55.3679 1555.00 1597.81 41.00
14143 55.3716 1511.00 1597.79 40.20
14144 55.3754 1500.80 1597.77 40.00
14145 55.3792 1527.80 1597.75 40.70
14146 55.3829 1557.10 1597.73 40.70
14147 55.3867 1556.00 1597.71 41.20
14148 55.3904 1511.70 1597.69 40.50
14149 55.3942 1560.20 1597.67 40.90
14150 55.3979 1611.10 1597.65 41.80
14151 55.4017 1537.00 1597.63 40.40
14152 55.4055 1530.70 1597.61 41.00
14153 55.4092 1551.10 1597.59 41.00
14154 55.4130 1547.10 1597.57 41.00
14155 55.4167 1597.30 1597.54 41.80
14156 55.4205 1541.80 1597.52 41.00
14157 55.4243 1545.90 1597.50 40.50
14158 55.4280 1528.60 1597.48 41.30
14159 55.4318 1555.00 1597.46 41.50
14160 55.4355 1472.30 1597.44 40.20
14161 55.4393 1508.00 1597.42 39.40
14162 55.4431 1535.00 1597.40 42.00
14163 55.4468 1486.00 1597.38 40.10
14164 55.4506 1573.80 1597.36 40.60
14165 55.4543 1607.00 1597.33 41.80
14166 55.4581 1541.50 1597.31 41.20
14167 55.4619 1627.70 1597.29 41.50
14168 55.4656 1617.00 1597.27 42.30
14169 55.4694 1548.30 1597.25 41.10
14170 55.4731 1545.40 1597.23 41.60
14171 55.4769 1540.70 1597.21 41.00
14172 55.4807 1609.60 1597.18 42.40
14173 55.4844 1553.00 1597.16 41.80
14174 55.4882 1529.70 1597.14 40.80
14175 55.4919 1601.70 1597.12 41.00
14176 55.4957 1550.90 1597.10 41.20
14177 55.4995 1548.00 1597.08 41.70
14178 55.5032 1502.50 1597.05 41.30
14179 55.5070 1520.70 1597.03 40.30
14180 55.5107 1507.30 1597.01 41.30
14181 55.5145 1526.20 1596.99 40.80
14182 55.5182 1594.60 1596.97 41.70
14183 55.5220 1507.70 1596.94 40.50
14184 55.5258 1622.60 1596.92 42.00
14185 55.5295 1468.50 1596.90 40.30
14186 55.5333 1591.60 1596.88 40.90
14187 55.5370 1572.70 1596.85 41.50
14188 55.5408 1573.70 1596.83 41.30
14189 55.5446 1626.50 1596.81 43.30
14190 55.5483 1540.80 1596.79 40.70
14191 55.5521 1661.90 1596.77 42.40
14192 55.5558 1596.60 1596.74 41.60
14193 55.5596 1631.60 1596.72 42.60
14194 55.5634 1619.00 1596.70 42.00
14195 55.5671 1631.10 1596.68 43.00
14196 55.5709 1598.60 1596.65 42.60
14197 55.5746 1565.40 1596.63 40.60
14198 55.5784 1607.70 1596.61 40.90
14199 55.5821 1645.60 1596.58 41.50
14200 55.5859 1534.20 1596.56 39.80
14201 55.5897 1607.30 1596.54 41.10
14202 55.5934 1555.90 1596.52 40.50
14203 55.5972 1603.20 1596.49 40.90
14204 55.6009 1581.00 1596.47 40.70
14205 55.6047 1595.50 1596.45 41.20
14206 55.6085 1595.40 1596.42 41.10
14207 55.6122 1623.60 1596.40 41.20
14208 55.6160 1569.40 1596.38 40.40
14209 55.6197 1610.10 1596.35 40.80
14210 55.6235 1553.90 1596.33 40.50
14211 55.6273 1586.50 1596.31 40.80
14212 55.6310 1517.70 1596.28 39.90
14213 55.6348 1656.80 1596.26 41.90
14214 55.6385 1515.60 1596.24 39.80
14215 55.6423 1595.00 1596.21 40.50
14216 55.6460 1612.00 1596.19 41.80
14217 55.6498 1625.00 1596.17 41.60
14218 55.6536 1604.10 1596.14 41.00
14219 55.6573 1608.40 1596.12 40.80
14220 55.6611 1603.00 1596.10 40.80
14221 55.6648 1615.00 1596.07 41.60
14222 55.6686 1624.10 1596.05 41.40
14223 55.6724 1596.30 1596.02 41.00
14224 55.6761 1629.70 1596.00 41.00
14225 55.6799 1589.50 1595.98 41.00
14226 55.6836 1548.00 1595.95 40.30
14227 55.6874 1577.80 1595.93 40.90
14228 55.6912 1574.00 1595.90 41.10
14229 55.6949 1685.90 1595.88 41.60
14230 55.6987 1656.50 1595.86 41.80
14231 55.7024 1602.20 1595.83 40.90
14232 55.7062 1636.50 1595.81 41.80
14233 55.7099 1643.30 1595.78 41.80
14234 55.7137 1632.30 1595.76 41.60
14235 55.7175 1714.20 1595.73 42.80
14236 55.7212 1558.80 1595.71 40.40
14237 55.7250 1587.60 1595.68 41.20
14238 55.7287 1577.20 1595.66 40.30
14239 55.7325 1609.30 1595.64 41.40
14240 55.7363 1622.60 1595.61 41.50
14241 55.7400 1627.50 1595.59 41.20
14242 55.7438 1668.10 1595.56 42.10
14243 55.7475 1647.00 1595.54 42.40
14244 55.7513 1608.20 1595.51 41.00
14245 55.7551 1688.10 1595.49 42.40
14246 55.7588 1620.90 1595.46 40.90
14247 55.7626 1708.90 1595.44 42.00
14248 55.7663 1604.00 1595.41 41.20
14249 55.7701 1631.60 1595.39 41.50
14250 55.7738 1620.10 1595.36 41.10
14251 55.7776 1683.20 1595.34 42.20
14252 55.7814 1737.40 1595.31 42.80
14253 55.7851 1653.80 1595.29 42.20
14254 55.7889 1591.70 1595.26 40.90
14255 55.7926 1647.40 1595.24 41.70
14256 55.7964 1656.00 1595.21 41.90
14257 55.8002 1634.40 1595.18 41.70
14258 55.8039 1723.60 1595.16 42.90
14259 55.8077 1728.50 1595.13 42.60
14260 55.8114 1680.20 1595.11 41.90
14261 55.8152 1762.60 1595.08 43.20
14262 55.8190 1779.50 1595.06 43.60
14263 55.8227 1803.80 1595.03 43.60
14264 55.8265 1723.50 1595.01 42.60
14265 55.8302 1767.00 1594.98 42.70
14266 55.8340 1654.80 1594.95 42.30
14267 55.8377 1734.60 1594.93 42.80
14268 55.8415 1790.30 1594.90 43.50
14269 55.8453 1784.60 1594.88 44.20
14270 55.8490 1703.70 1594.85 42.80
14271 55.8528 1802.40 1594.82 43.60
14272 55.8565 1745.40 1715.62 42.90
14273 55.8603 1772.70 1720.46 43.30
14274 55.8641 1812.00 1725.59 44.20
14275 55.8678 1813.10 1731.05 44.30
14276 55.8716 1777.00 1736.84 43.30
14277 55.8753 1905.70 1743.04 45.20
14278 55.8791 1873.90 1749.65 44.40
14279 55.8828 1891.80 1756.71 45.20
14280 55.8866 1840.50 1764.28 44.50
14281 55.8904 1949.20 1772.36 45.80
14282 55.8941 1856.70 1781.08 44.60
14283 55.8979 1922.40 1790.41 45.20
14284 55.9016 1865.10 1800.50 45.10
14285 55.9054 2008.90 1811.39 46.30
14286 55.9091 1954.40 1823.15 45.60
14287 55.9129 1981.00 1835.87 46.00
14288 55.9167 2018.20 1849.74 46.40
14289 55.9204 2030.30 1864.82 46.80
14290 55.9242 2035.40 1881.27 46.60
14291 55.9279 2048.80 1899.29 46.70
14292 55.9317 2161.80 1919.00 48.60
14293 55.9355 2093.30 1940.73 47.50
14294 55.9392 2183.10 1964.70 47.90
14295 55.9430 2216.40 1991.28 49.10
14296 55.9467 2211.60 2020.80 50.30
14297 55.9505 2358.00 2053.69 50.80
14298 55.9542 2342.30 2090.45 50.70
14299 55.9580 2423.90 2131.95 51.00
14300 55.9618 2340.10 2178.79 50.20
14301 55.9655 2548.10 2231.94 52.80
14302 55.9693 2591.80 2292.75 53.10
14303 55.9730 2697.60 2362.34 54.30
14304 55.9768 2781.20 2443.01 55.00
14305 55.9805 2954.30 2536.85 57.40
14306 55.9843 3071.30 2647.17 58.20
14307 55.9881 3252.00 2777.25 59.90
14308 55.9918 3423.80 2933.09 61.90
14309 55.9956 3576.00 3121.10 63.60
14310 55.9993 3791.10 3351.38 65.00
14311 56.0031 4114.20 3637.02 68.10
14312 56.0069 4342.70 3998.16 70.10
14313 56.0106 4925.00 4472.82 75.00
14314 56.0144 5638.80 5132.31 81.00
14315 56.0181 6696.50 6116.86 88.90
14316 56.0219 7774.10 7690.29 95.60
14317 56.0256 10400.90 10303.20 112.60
14318 56.0294 14168.30 14565.40 132.30
14319 56.0332 20936.20 21061.20 165.80
14320 56.0369 29505.50 30008.20 203.70
14321 56.0407 40281.80 40713.60 243.10
14322 56.0444 47313.70 50564.80 272.80
14323 56.0482 52862.10 54968.60 290.50
14324 56.0519 49132.50 50911.00 274.20
14325 56.0557 41779.80 41153.60 250.70
14326 56.0595 29360.50 30452.70 203.70
14327 56.0632 19830.60 21397.30 160.80
14328 56.0670 13078.70 14795.80 128.10
14329 56.0707 9857.80 10451.30 109.20
14330 56.0745 7539.60 7783.40 94.80
14331 56.0783 6388.60 6170.16 86.50
14332 56.0820 5373.30 5166.60 79.10
14333 56.0858 4805.90 4497.11 74.70
14334 56.0895 4481.20 4016.90 70.70
14335 56.0933 4080.00 3650.58 67.50
14336 56.0970 3786.40 3362.08 65.50
14337 56.1008 3546.90 3129.83 63.10
14338 56.1045 3272.80 2940.43 60.80
14339 56.1083 3204.50 2783.21 59.60
14340 56.1121 3042.50 2651.69 58.30
14341 56.1158 3053.20 2540.60 57.70
14342 56.1196 2745.50 2446.20 54.40
14343 56.1233 2789.80 2364.92 55.50
14344 56.1271 2681.40 2294.56 54.50
14345 56.1309 2607.90 2233.44 53.40
14346 56.1346 2493.60 2180.01 52.10
14347 56.1384 2565.00 2132.83 53.00
14348 56.1421 2468.00 2091.04 50.70
14349 56.1459 2396.90 2053.96 50.90
14350 56.1496 2429.40 2020.90 52.00
14351 56.1534 2396.20 1991.17 50.70
14352 56.1572 2269.50 1964.39 49.80
14353 56.1609 2248.00 1940.25 49.90
14354 56.1647 2165.30 1918.41 48.80
14355 56.1684 2210.80 1898.50 48.90
14356 56.1722 2136.40 1880.34 48.10
14357 56.1759 2039.70 1863.77 47.40
14358 56.1797 2000.00 1848.60 46.40
14359 56.1835 2079.30 1834.63 47.80
14360 56.1872 1956.10 1821.75 46.00
14361 56.1910 2006.10 1809.88 47.10
14362 56.1947 1942.30 1798.93 46.10
14363 56.1985 1823.60 1788.74 44.50
14364 56.2023 1844.30 1779.28 44.90
14365 56.2060 1857.90 1770.51 45.10
14366 56.2098 1843.60 1762.33 45.10
14367 56.2135 1834.90 1754.68 44.70
14368 56.2173 1786.00 1747.55 43.70
14369 56.2210 1740.80 1740.85 43.40
14370 56.2248 1772.30 1734.59 43.80
14371 56.2285 1782.10 1728.69 44.00
14372 56.2323 1790.90 1723.17 44.30
14373 56.2361 1796.50 1717.96 44.50
14374 56.2398 1718.80 1713.05 43.10
14375 56.2436 1730.90 1591.84 43.00
14376 56.2473 1733.70 1591.81 44.00
14377 56.2511 1809.50 1591.78 44.30
14378 56.2548 1657.50 1591.74 42.30
14379 56.2586 1803.60 1591.71 44.20
14380 56.2624 1685.10 1591.68 43.10
14381 56.2661 1691.70 1591.65 42.90
14382 56.2699 1725.20 1591.62 43.60
14383 56.2736 1683.40 1591.59 42.00
14384 56.2774 1727.50 1591.56 43.50
14385 56.2811 1684.70 1591.52 43.10
14386 56.2849 1748.50 1591.49 43.70
14387 56.2887 1711.90 1591.46 43.50
14388 56.2924 1615.00 1591.43 42.00
14389 56.2962 1732.00 1591.40 43.60
14390 56.2999 1630.40 1591.36 42.10
14391 56.3037 1650.50 1591.33 42.30
14392 56.3074 1583.90 1591.30 42.00
14393 56.3112 1686.20 1591.27 42.50
14394 56.3150 1622.90 1591.24 42.40
14395 56.3187 1606.50 1591.20 41.70
14396 56.3225 1659.40 1591.17 42.30
14397 56.3262 1692.50 1591.14 43.30
14398 56.3300 1664.50 1591.11 42.90
14399 56.3337 1650.50 1591.07 42.70
14400 56.3375 1619.20 1591.04 42.10
14401 56.3413 1616.90 1591.01 41.50
14402 56.3450 1608.10 1590.98 41.90
14403 56.3488 1640.60 1590.94 42.70
14404 56.3525 1649.80 1590.91 42.20
14405 56.3563 1681.50 1590.88 42.70
14406 56.3600 1515.20 1590.84 40.50
14407 56.3638 1612.40 1590.81 42.00
14408 56.3675 1623.20 1590.78 42.60
14409 56.3713 1596.40 1590.75 42.30
14410 56.3751 1618.30 1590.71 41.60
14411 56.3788 1647.30 1590.68 42.90
14412 56.3826 1642.00 1590.65 42.20
14413 56.3863 1591.10 1590.61 41.80
14414 56.3901 1551.50 1590.58 40.70
14415 56.3938 1626.60 1590.55 42.20
14416 56.3976 1614.90 1590.51 41.60
14417 56.4014 1623.20 1590.48 41.80
14418 56.4051 1504.90 1590.45 40.40
14419 56.4089 1595.50 1590.41 41.70
14420 56.4126 1615.80 1590.38 42.50
14421 56.4164 1664.70 1590.35 42.30
14422 56.4201 1543.00 1590.31 40.70
14423 56.4239 1590.30 1590.28 41.40
14424 56.4277 1565.20 1590.25 41.30
14425 56.4314 1610.50 1590.21 42.40
14426 56.4352 1609.60 1590.18 42.70
14427 56.4389 1579.70 1590.14 41.00
14428 56.4427 1604.90 1590.11 41.60
14429 56.4464 1588.00 1590.08 42.70
14430 56.4502 1550.40 1590.04 41.70
14431 56.4539 1562.20 1590.01 41.10
14432 56.4577 1515.40 1589.97 40.50
14433 56.4615 1627.50 1589.94 42.00
14434 56.4652 1602.50 1589.91 42.10
14435 56.4690 1560.70 1589.87 41.50
14436 56.4727 1520.60 1589.84 40.80
14437 56.4765 1686.30 1589.80 43.10
14438 56.4802 1524.60 1589.77 40.50
14439 56.4840 1709.10 1589.73 43.10
14440 56.4878 1572.70 1589.70 41.50
14441 56.4915 1506.00 1589.66 40.90
14442 56.4953 1531.70 1589.63 40.90
14443 56.4990 1592.10 1589.59 41.90
14444 56.5028 1480.20 1589.56 40.00
14445 56.5065 1529.40 1589.53 40.60
14446 56.5103 1539.80 1589.49 41.10
14447 56.5140 1603.60 1589.46 41.50
14448 56.5178 1510.90 1589.42 40.60
14449 56.5215 1522.80 1589.39 40.50
14450 56.5253 1533.40 1589.35 40.60
14451 56.5291 1513.60 1589.32 40.90
14452 56.5328 1499.30 1589.28 40.70
14453 56.5366 1630.90 1589.25 42.20
14454 56.5403 1587.70 1589.21 40.90
14455 56.5441 1538.40 1589.17 41.20
14456 56.5478 1575.10 1589.14 41.80
14457 56.5516 1586.20 1589.10 41.10
14458 56.5554 1551.80 1589.07 40.80
14459 56.5591 1557.30 1589.03 40.90
14460 56.5629 1509.10 1589.00 40.40
14461 56.5666 1549.50 1588.96 40.80
14462 56.5704 1545.50 1588.93 40.80
14463 56.5741 1558.30 1588.89 41.10
14464 56.5779 1464.10 1588.85 39.70
14465 56.5816 1598.90 1588.82 42.00
14466 56.5854 1522.60 1588.78 40.60
14467 56.5892 1616.70 1588.75 41.80
14468 56.5929 1569.60 1588.71 41.00
14469 56.5967 1638.40 1588.68 41.80
14470 56.6004 1542.80 1588.64 40.90
14471 56.6042 1567.50 1588.60 40.90
14472 56.6079 1558.70 1588.57 40.80
14473 56.6117 1485.10 1588.53 39.70
14474 56.6154 1473.60 1588.49 39.70
14475 56.6192 1564.40 1588.46 41.00
14476 56.6230 1500.40 1588.42 39.90
14477 56.6267 1573.20 1588.39 41.40
14478 56.6305 1537.40 1588.35 40.80
14479 56.6342 1532.90 1588.31 40.60
14480 56.6380 1495.10 1588.28 40.10
14481 56.6417 1572.90 1588.24 39.90
14482 56.6455 1537.30 1588.20 40.80
14483 56.6493 1545.10 1588.17 41.30
14484 56.6530 1466.70 1588.13 39.40
14485 56.6567 1584.70 1588.09 41.10
14486 56.6605 1490.00 1588.06 40.10
14487 56.6643 1517.10 1588.02 40.10
14488 56.6680 1581.10 1587.98 41.30
14489 56.6718 1546.40 1587.94 40.80
14490 56.6755 1618.90 1587.91 41.90
14491 56.6793 1525.10 1587.87 40.70
14492 56.6830 1509.60 1587.83 40.10
14493 56.6868 1510.70 1587.80 39.90
14494 56.6906 1545.20 1587.76 40.90
14495 56.6943 1485.90 1587.72 40.10
14496 56.6981 1566.10 1587.68 41.30
14497 56.7018 1497.10 1587.65 40.20
14498 56.7056 1527.70 1587.61 40.30
14499 56.7093 1521.20 1587.57 39.60
14500 56.7131 1632.90 1587.53 41.80
14501 56.7168 1566.20 1587.50 41.30
14502 56.7206 1516.50 1587.46 40.40
14503 56.7243 1590.10 1587.42 41.80
14504 56.7281 1537.90 1587.38 41.30
14505 56.7319 1558.50 1587.35 41.50
14506 56.7356 1523.70 1587.31 40.80
14507 56.7394 1528.10 1587.27 40.30
14508 56.7431 1597.00 1587.23 41.10
14509 56.7469 1525.40 1587.19 41.20
14510 56.7506 1456.60 1587.16 39.20
14511 56.7544 1575.10 1587.12 40.80
14512 56.7581 1514.70 1587.08 40.20
14513 56.7619 1536.40 1587.04 40.80
14514 56.7657 1478.50 1587.00 40.00
14515 56.7694 1563.90 1586.96 41.30
14516 56.7732 1528.60 1586.93 40.50
14517 56.7769 1566.00 1586.89 41.10
14518 56.7807 1528.40 1586.85 40.90
14519 56.7844 1543.70 1586.81 40.80
14520 56.7882 1573.90 1586.77 41.80
14521 56.7919 1606.90 1586.73 40.80
14522 56.7957 1562.70 1586.69 41.20
14523 56.7994 1553.20 1586.66 40.70
14524 56.8032 1515.80 1586.62 40.50
14525 56.8069 1559.90 1586.58 40.60
14526 56.8107 1557.60 1586.54 41.00
14527 56.8145 1543.70 1586.50 40.80
14528 56.8182 1590.70 1586.46 41.20
14529 56.8220 1492.50 1586.42 39.90
14530 56.8257 1478.80 1586.38 40.10
14531 56.8295 1518.40 1586.34 40.20
14532 56.8332 1517.50 1586.31 39.80
14533 56.8370 1537.70 1586.27 40.70
14534 56.8407 1463.90 1586.23 39.10
14535 56.8445 1527.20 1586.19 40.10
14536 56.8483 1512.00 1586.15 40.70
14537 56.8520 1503.00 1586.11 40.40
14538 56.8558 1405.70 1586.07 38.30
14539 56.8595 1568.90 1586.03 40.70
14540 56.8633 1559.10 1585.99 40.50
14541 56.8670 1515.50 1585.95 40.40
14542 56.8708 1508.20 1585.91 39.90
14543 56.8745 1575.40 1585.87 41.40
14544 56.8783 1527.70 1585.83 40.70
14545 56.8820 1513.80 1585.79 40.20
14546 56.8858 1535.80 1585.75 40.80
14547 56.8895 1501.80 1585.71 40.20
14548 56.8933 1584.20 1585.67 41.40
14549 56.8971 1550.10 1585.63 41.40
14550 56.9008 1574.80 1585.59 41.10
14551 56.9046 1463.40 1585.55 40.10
14552 56.9083 1557.40 1585.51 40.80
14553 56.9121 1524.20 1585.47 41.10
14554 56.9158 1542.70 1585.43 40.80
14555 56.9196 1594.80 1585.39 41.70
14556 56.9233 1520.90 1585.35 40.90
14557 56.9271 1597.40 1585.31 40.70
14558 56.9308 1437.70 1585.27 39.60
14559 56.9346 1486.10 1585.23 40.10
14560 56.9384 1473.80 1585.19 40.10
14561 56.9421 1535.60 1585.15 40.20
14562 56.9459 1489.10 1585.11 40.40
14563 56.9496 1544.70 1585.07 40.70
14564 56.9534 1478.00 1585.03 39.90
14565 56.9571 1625.00 1584.99 42.10
14566 56.9609 1558.40 1584.95 41.20
14567 56.9646 1569.60 1584.90 41.00
14568 56.9684 1473.10 1584.86 40.20
14569 56.9721 1538.40 1584.82 40.90
14570 56.9759 1478.30 1584.78 39.90
14571 56.9796 1519.50 1584.74 40.40
14572 56.9834 1482.80 1584.70 39.90
14573 56.9871 1482.80 1584.66 39.80
14574 56.9909 1598.90 1584.62 41.90
14575 56.9947 1616.10 1584.58 41.90
14576 56.9968 1589.70 1584.55 41.40
14577 57.0006 1443.00 1584.51 39.70
14578 57.0043 1526.60 1584.47 40.50
14579 57.0081 1487.90 1584.43 40.30
14580 57.0119 1537.60 1584.39 40.70
14581 57.0156 1620.40 1584.34 41.80
14582 57.0194 1552.10 1584.30 41.40
14583 57.0231 1462.70 1584.26 40.20
14584 57.0269 1575.00 1584.22 41.40
14585 57.0306 1540.30 1584.18 40.30
14586 57.0344 1569.70 1584.14 41.60
14587 57.0382 1522.20 1584.09 41.10
14588 57.0419 1551.00 1584.05 40.60
14589 57.0457 1517.30 1584.01 40.40
14590 57.0494 1509.10 1583.97 40.20
14591 57.0532 1479.30 1583.93 40.00
14592 57.0569 1552.40 1583.88 40.80
14593 57.0607 1505.00 1583.84 40.20
14594 57.0644 1574.20 1583.80 41.30
14595 57.0682 1498.90 1583.76 40.20
14596 57.0719 1598.90 1583.72 42.00
14597 57.0757 1544.40 1583.67 40.90
14598 57.0795 1516.70 1583.63 40.40
14599 57.0832 1545.90 1583.59 40.70
14600 57.0870 1587.60 1583.55 41.20
14601 57.0907 1461.20 1583.50 39.70
14602 57.0945 1583.20 1583.46 41.10
14603 57.0982 1567.50 1583.42 40.90
14604 57.1020 1598.50 1583.38 41.30
14605 57.1058 1470.60 1583.33 39.70
14606 57.1095 1563.40 1583.29 41.00
14607 57.1133 1549.00 1583.25 40.50
14608 57.1170 1496.10 1583.20 40.40
14609 57.1208 1538.30 1583.16 40.80
14610 57.1245 1481.70 1583.12 39.80
14611 57.1283 1475.40 1583.08 39.80
14612 57.1320 1525.50 1583.03 39.30
14613 57.1358 1456.70 1582.99 39.70
14614 57.1395 1568.50 1582.95 41.70
14615 57.1433 1465.70 1582.90 39.40
14616 57.1471 1541.80 1582.86 40.50
14617 57.1508 1483.10 1582.82 40.00
14618 57.1546 1550.30 1582.77 40.60
14619 57.1583 1494.20 1582.73 40.10
14620 57.1621 1510.00 1582.69 40.30
14621 57.1658 1432.00 1582.64 39.30
14622 57.1696 1459.20 1582.60 39.80
14623 57.1733 1490.10 1582.56 39.80
14624 57.1771 1560.10 1582.51 40.60
14625 57.1809 1484.60 1582.47 40.10
14626 57.1846 1540.50 1582.42 40.80
14627 57.1884 1486.40 1582.38 40.10
14628 57.1921 1529.90 1582.34 40.70
14629 57.1959 1540.40 1582.29 40.50
14630 57.1996 1528.80 1582.25 39.70
14631 57.2034 1453.70 1582.21 39.30
14632 57.2071 1581.20 1582.16 41.50
14633 57.2109 1494.70 1582.12 40.10
14634 57.2146 1542.90 1582.07 41.10
14635 57.2184 1527.70 1582.03 41.20
14636 57.2222 1602.00 1581.99 42.10
14637 57.2249 1500.90 1581.95 39.00
14638 57.2287 1613.10 1581.91 40.20
14639 57.2324 1531.80 1581.86 39.30
14640 57.2362 1579.50 1581.82 40.30
14641 57.2399 1536.90 1581.78 39.00
14642 57.2437 1503.80 1581.73 38.70
14643 57.2474 1561.40 1581.69 40.40
14644 57.2512 1534.80 1581.64 39.20
14645 57.2549 1527.60 1581.60 38.90
14646 57.2587 1551.30 1581.55 39.10
14647 57.2625 1523.30 1581.51 39.20
14648 57.2662 1605.50 1581.46 40.00
14649 57.2700 1562.50 1581.42 39.90
14650 57.2737 1512.00 1581.37 39.00
14651 57.2775 1598.40 1581.33 40.00
14652 57.2812 1612.40 1581.28 40.40
14653 57.2850 1552.20 1581.24 39.10
14654 57.2887 1543.00 1581.19 39.60
14655 57.2925 1582.30 1581.15 40.20
14656 57.2962 1593.30 1581.10 39.50
14657 57.3000 1514.50 1581.06 39.00
14658 57.3037 1618.70 1581.01 40.40
14659 57.3075 1528.20 1580.97 39.30
14660 57.3112 1557.70 1580.92 39.60
14661 57.3150 1487.40 1580.88 38.40
14662 57.3187 1621.00 1580.83 40.00
14663 57.3225 1517.90 1580.79 39.60
14664 57.3263 1500.30 1580.74 38.10
14665 57.3300 1482.60 1580.70 38.50
14666 57.3338 1545.50 1580.65 39.30
14667 57.3375 1448.00 1580.61 37.90
14668 57.3413 1586.30 1580.56 39.40
14669 57.3450 1498.80 1580.52 39.70
14670 57.3488 1522.50 1580.47 39.20
14671 57.3525 1454.40 1580.42 37.90
14672 57.3563 1597.60 1580.38 39.90
14673 57.3600 1510.80 1580.33 38.50
14674 57.3638 1581.30 1580.29 40.10
14675 57.3675 1511.50 1580.55 39.10
14676 57.3713 1506.00 1580.51 39.30
14677 57.3751 1568.80 1580.48 39.80
14678 57.3788 1667.70 1580.45 40.80
14679 57.3826 1509.20 1580.42 39.20
14680 57.3863 1553.90 1580.39 39.50
14681 57.3901 1526.20 1580.36 38.80
14682 57.3938 1580.90 1580.33 39.90
14683 57.3976 1490.70 1580.30 38.60
14684 57.4013 1537.80 1580.27 39.50
14685 57.4051 1558.50 1580.25 39.30
14686 57.4088 1556.60 1580.23 39.40
14687 57.4126 1523.80 1580.21 39.00
14688 57.4164 1555.50 1580.19 39.40
14689 57.4201 1465.00 1580.17 38.10
14690 57.4239 1560.60 1580.16 39.40
14691 57.4276 1509.40 1580.14 39.10
14692 57.4314 1504.30 1580.13 38.80
14693 57.4351 1579.10 1580.13 40.20
14694 57.4389 1530.10 1580.13 39.20
14695 57.4426 1511.20 1580.13 38.60
14696 57.4464 1617.30 1580.14 40.90
14697 57.4501 1544.00 1580.15 39.00
14698 57.4539 1567.90 1580.17 39.60
14699 57.4576 1504.30 1580.20 38.60
14700 57.4614 1539.50 1580.23 39.40
14701 57.4651 1486.30 1580.28 38.40
14702 57.4689 1559.40 1580.33 39.90
14703 57.4727 1495.80 1580.40 39.00
14704 57.4764 1573.10 1580.49 40.00
14705 57.4802 1510.60 1580.59 38.50
14706 57.4839 1537.40 1580.72 39.00
14707 57.4877 1560.00 1580.87 39.30
14708 57.4914 1505.50 1581.05 39.10
14709 57.4952 1562.40 1581.28 39.60
14710 57.4989 1552.40 1581.55 39.20
14711 57.5027 1511.80 1581.88 38.70
14712 57.5065 1541.10 1582.30 39.40
14713 57.5102 1501.80 1582.81 38.60
14714 57.5140 1561.50 1583.46 39.70
14715 57.5177 1525.40 1584.29 39.10
14716 57.5215 1584.60 1585.39 40.20
14717 57.5252 1548.20 1586.92 39.10
14718 57.5290 1594.60 1589.23 39.70
14719 57.5327 1568.70 1592.91 39.60
14720 57.5365 1616.50 1599.00 40.30
14721 57.5402 1611.20 1608.94 39.20
14722 57.5440 1630.90 1624.09 41.10
14723 57.5477 1720.60 1645.19 41.50
14724 57.5515 1743.80 1670.83 41.70
14725 57.5553 1736.30 1695.88 41.10
14726 57.5590 1702.60 1709.77 41.20
14727 57.5628 1735.00 1703.77 42.00
14728 57.5665 1743.50 1681.96 41.70
14729 57.5703 1685.00 1655.56 41.20
14730 57.5740 1570.90 1632.02 39.80
14731 57.5778 1565.00 1614.22 39.40
14732 57.5815 1634.50 1602.14 40.00
14733 57.5853 1535.00 1594.48 39.30
14734 57.5891 1613.40 1589.83 40.60
14735 57.5928 1546.40 1586.94 39.60
14736 57.5966 1560.30 1585.03 39.90
14737 57.6003 1485.80 1583.68 38.00
14738 57.6041 1500.40 1582.65 38.70
14739 57.6078 1526.80 1581.84 39.50
14740 57.6116 1515.20 1581.17 38.90
14741 57.6153 1496.70 1580.63 38.50
14742 57.6191 1555.20 1580.16 39.10
14743 57.6228 1489.10 1579.77 39.10
14744 57.6303 1478.30 1579.13 38.30
14745 57.6341 1489.60 1578.87 38.80
14746 57.6379 1466.00 1578.64 38.60
14747 57.6416 1502.50 1578.43 38.20
14748 57.6454 1569.20 1578.24 40.10
14749 57.6491 1610.60 1578.07 40.40
14750 57.6529 1514.30 1577.91 39.30
14751 57.6566 1553.40 1577.77 39.30
14752 57.6604 1528.00 1577.63 38.60
14753 57.6642 1585.70 1577.50 39.70
14754 57.6679 1447.90 1577.39 38.40
14755 57.6717 1531.80 1577.27 39.30
14756 57.6754 1555.90 1577.17 39.60
14757 57.6792 1522.50 1577.07 39.40
14758 57.6829 1537.00 1576.97 40.00
14759 57.6867 1535.80 1576.88 40.70
14760 57.6904 1566.30 1576.79 40.70
14761 57.6942 1521.90 1576.70 40.30
14762 57.6979 1518.30 1576.62 40.40
14763 57.7017 1548.80 1576.54 40.70
14764 57.7055 1537.20 1576.46 40.60
14765 57.7092 1631.50 1576.39 42.10
14766 57.7130 1526.30 1576.31 40.60
14767 57.7167 1513.50 1576.24 39.90
14768 57.7205 1450.60 1576.17 39.40
14769 57.7242 1640.80 1576.10 41.90
14770 57.7280 1488.10 1576.03 39.70
14771 57.7317 1590.50 1575.96 41.30
14772 57.7355 1449.40 1575.90 39.40
14773 57.7393 1600.90 1575.83 41.30
14774 57.7430 1503.30 1575.77 39.90
14775 57.7468 1525.90 1575.70 40.70
14776 57.7505 1529.40 1575.64 40.60
14777 57.7543 1553.10 1575.58 40.30
14778 57.7580 1558.70 1575.23 41.20
14779 57.7618 1525.90 1575.18 40.30
14780 57.7655 1549.60 1575.13 40.50
14781 57.7693 1557.00 1575.08 40.80
14782 57.7731 1497.30 1575.03 39.80
14783 57.7768 1530.70 1574.98 40.50
14784 57.7806 1465.70 1574.93 39.70
14785 57.7843 1461.80 1574.88 39.60
14786 57.7881 1489.30 1574.82 40.00
14787 57.7918 1510.60 1574.77 40.50
14788 57.7956 1547.90 1574.72 40.60
14789 57.7993 1516.80 1574.67 40.40
14790 57.8031 1550.20 1574.62 40.80
14791 57.8069 1553.30 1574.57 40.30
14792 57.8106 1537.90 1574.52 40.50
14793 57.8144 1547.70 1574.47 40.80
14794 57.8181 1549.30 1574.42 40.70
14795 57.8219 1514.00 1574.37 40.00
14796 57.8256 1503.90 1574.32 40.10
14797 57.8294 1561.50 1574.27 41.10
14798 57.8331 1455.60 1574.21 39.70
14799 57.8369 1557.80 1574.16 40.70
14800 57.8407 1517.00 1574.11 39.40
14801 57.8444 1553.50 1574.06 41.00
14802 57.8482 1494.20 1574.01 40.90
14803 57.8519 1507.20 1573.96 39.90
14804 57.8557 1482.30 1573.91 39.80
14805 57.8594 1554.30 1573.86 40.70
14806 57.8632 1495.20 1573.80 39.90
14807 57.8670 1562.60 1573.75 41.00
14808 57.8707 1501.40 1573.70 40.30
14809 57.8745 1572.70 1573.65 41.00
14810 57.8782 1485.70 1573.60 40.00
14811 57.8820 1509.50 1573.55 40.40
14812 57.8857 1424.10 1573.49 39.10
14813 57.8895 1573.00 1573.44 41.40
14814 57.8932 1559.80 1573.39 41.00
14815 57.8970 1496.30 1573.34 40.00
14816 57.9008 1540.80 1573.29 41.00
14817 57.9045 1530.10 1573.24 41.00
14818 57.9083 1499.20 1573.18 40.10
14819 57.9120 1518.30 1573.13 40.40
14820 57.9158 1491.80 1573.08 40.00
14821 57.9195 1501.70 1573.03 40.10
14822 57.9233 1443.20 1572.98 39.50
14823 57.9271 1569.80 1572.92 41.30
14824 57.9308 1568.90 1572.87 41.50
14825 57.9346 1544.60 1572.82 41.20
14826 57.9383 1536.10 1572.77 40.50
14827 57.9421 1550.30 1572.72 40.30
14828 57.9458 1498.50 1572.66 41.00
14829 57.9496 1548.30 1572.61 40.90
14830 57.9533 1560.30 1572.56 40.80
14831 57.9571 1545.50 1572.51 40.70
14832 57.9608 1551.70 1572.45 41.50
14833 57.9646 1560.40 1572.40 41.00
14834 57.9684 1522.90 1572.35 41.10
14835 57.9721 1543.40 1572.30 40.70
14836 57.9759 1523.40 1572.24 41.00
14837 57.9796 1566.00 1572.19 41.30
14838 57.9834 1526.90 1572.14 40.80
14839 57.9871 1522.90 1572.09 40.60
14840 57.9909 1493.40 1572.03 39.80
14841 57.9947 1570.50 1571.98 41.40
14842 57.9984 1521.50 1571.93 40.10
14843 58.0022 1518.90 1571.88 40.50
14844 58.0059 1512.10 1571.82 40.80
14845 58.0097 1497.50 1571.77 39.90
14846 58.0135 1490.90 1571.72 40.80
14847 58.0172 1526.00 1571.66 40.30
14848 58.0210 1485.50 1571.61 39.70
14849 58.0247 1630.80 1571.56 42.40
14850 58.0285 1514.10 1571.51 40.30
14851 58.0322 1520.60 1571.45 40.90
14852 58.0360 1530.20 1571.40 40.90
14853 58.0397 1599.70 1571.35 41.70
14854 58.0435 1488.50 1571.29 40.10
14855 58.0473 1619.40 1571.24 43.30
14856 58.0510 1536.40 1571.19 41.30
14857 58.0548 1573.70 1571.13 41.20
14858 58.0585 1471.30 1571.08 39.80
14859 58.0623 1587.10 1571.03 41.60
14860 58.0660 1500.60 1570.97 40.40
14861 58.0698 1597.10 1570.92 41.90
14862 58.0736 1484.80 1570.87 40.40
14863 58.0773 1498.80 1570.81 40.60
14864 58.0811 1531.00 1570.76 41.20
14865 58.0848 1529.70 1570.71 41.00
14866 58.0886 1524.40 1570.65 41.30
14867 58.0923 1533.50 1570.60 41.10
14868 58.0961 1466.60 1570.55 39.50
14869 58.0998 1574.40 1570.49 41.30
14870 58.1036 1519.80 1570.44 41.10
14871 58.1074 1515.20 1570.38 40.70
14872 58.1111 1545.80 1570.33 40.70
14873 58.1149 1516.40 1570.28 40.30
14874 58.1186 1554.20 1570.22 40.70
14875 58.1224 1540.40 1570.17 40.50
14876 58.1261 1533.40 1570.12 40.90
14877 58.1299 1519.40 1570.06 40.90
14878 58.1337 1523.00 1570.01 40.80
14879 58.1374 1450.80 1569.95 39.80
14880 58.1412 1495.70 1569.90 39.70
14881 58.1449 1552.40 1569.85 40.90
14882 58.1487 1478.60 1569.79 40.30
14883 58.1525 1521.40 1569.74 40.60
14884 58.1562 1501.50 1569.68 40.20
14885 58.1600 1533.80 1569.63 40.60
14886 58.1637 1493.10 1569.57 40.60
14887 58.1675 1522.60 1569.52 40.10
14888 58.1712 1535.00 1569.47 40.00
14889 58.1750 1602.80 1569.41 41.20
14890 58.1787 1513.40 1569.36 40.20
14891 58.1825 1501.10 1569.30 39.80
14892 58.1863 1504.00 1569.25 40.10
14893 58.1900 1560.30 1569.19 40.90
14894 58.1938 1466.90 1569.14 39.60
14895 58.1975 1520.80 1569.09 39.80
14896 58.2013 1485.60 1569.03 39.60
14897 58.2051 1522.50 1568.98 40.10
14898 58.2088 1541.60 1568.92 40.70
14899 58.2126 1608.70 1568.87 41.60
14900 58.2163 1470.30 1568.81 39.60
14901 58.2201 1550.10 1568.76 40.20
14902 58.2238 1526.80 1568.70 39.60
14903 58.2276 1592.20 1568.65 41.00
14904 58.2313 1485.90 1568.59 39.60
14905 58.2351 1644.80 1568.54 42.10
14906 58.2389 1545.00 1568.48 40.20
14907 58.2426 1590.40 1568.43 40.60
14908 58.2464 1496.10 1568.37 40.00
14909 58.2501 1614.10 1568.32 41.60
14910 58.2539 1495.80 1568.26 39.50
14911 58.2576 1645.80 1568.21 41.30
14912 58.2614 1509.50 1568.15 40.00
14913 58.2652 1562.50 1568.10 40.50
14914 58.2689 1528.90 1568.04 40.60
14915 58.2727 1549.20 1567.99 40.70
14916 58.2764 1504.20 1567.93 39.70
14917 58.2802 1503.80 1567.88 40.30
14918 58.2840 1490.50 1567.82 40.20
14919 58.2877 1544.40 1567.77 40.40
14920 58.2915 1480.70 1567.71 39.50
14921 58.2952 1604.00 1567.66 41.40
14922 58.2990 1497.70 1567.60 39.90
14923 58.3027 1464.80 1567.55 39.30
14924 58.3065 1558.80 1567.49 40.70
14925 58.3102 1524.40 1567.44 39.80
14926 58.3140 1550.90 1567.38 40.90
14927 58.3178 1490.90 1567.33 39.50
14928 58.3215 1477.30 1567.27 39.30
14929 58.3253 1583.20 1567.21 40.90
14930 58.3290 1461.20 1567.16 39.50
14931 58.3328 1562.70 1567.10 40.80
14932 58.3366 1474.00 1567.05 40.00
14933 58.3403 1600.90 1566.99 41.40
14934 58.3441 1471.00 1566.94 38.60
14935 58.3478 1565.30 1566.88 41.50
14936 58.3516 1557.20 1566.82 40.90
14937 58.3553 1599.70 1566.77 40.90
14938 58.3591 1524.40 1566.71 40.00
14939 58.3629 1607.20 1566.66 41.50
14940 58.3666 1510.60 1566.60 40.20
14941 58.3704 1614.80 1566.55 41.80
14942 58.3741 1598.20 1566.49 41.20
14943 58.3779 1554.10 1566.43 40.90
14944 58.3816 1543.50 1566.38 40.60
14945 58.3854 1593.80 1566.32 41.70
14946 58.3892 1520.30 1566.27 40.60
14947 58.3929 1564.80 1566.21 41.30
14948 58.3967 1530.20 1566.15 40.30
14949 58.4004 1561.60 1566.10 41.10
14950 58.4042 1510.60 1566.04 40.00
14951 58.4080 1546.90 1565.99 40.80
14952 58.4117 1546.90 1565.93 41.20
14953 58.4155 1508.70 1565.87 40.20
14954 58.4192 1497.50 1565.82 40.30
14955 58.4230 1496.00 1565.76 39.70
14956 58.4267 1441.10 1565.70 39.40
14957 58.4305 1482.90 1565.65 39.70
14958 58.4343 1494.80 1565.59 39.90
14959 58.4380 1455.30 1565.54 39.80
14960 58.4418 1555.30 1565.48 40.20
14961 58.4455 1543.70 1565.42 40.90
14962 58.4493 1597.50 1565.37 42.40
14963 58.4530 1541.30 1565.31 40.70
14964 58.4568 1544.00 1565.25 40.20
14965 58.4606 1564.80 1565.20 41.40
14966 58.4643 1433.20 1565.14 39.30
14967 58.4681 1506.60 1565.08 40.40
14968 58.4718 1481.00 1565.03 39.80
14969 58.4756 1501.70 1564.97 40.30
14970 58.4794 1560.60 1564.91 41.10
14971 58.4831 1529.50 1564.86 40.50
14972 58.4869 1487.60 1564.80 39.60
14973 58.4906 1523.10 1564.74 40.50
14974 58.4944 1580.90 1564.69 41.60
14975 58.4981 1535.10 1564.63 40.80
14976 58.5019 1512.60 1564.57 40.30
14977 58.5057 1610.70 1564.52 42.40
14978 58.5094 1472.90 1564.46 39.80
14979 58.5132 1537.70 1564.40 41.30
14980 58.5169 1540.00 1564.35 40.90
14981 58.5207 1565.10 1564.29 40.70
14982 58.5244 1560.60 1564.23 40.30
14983 58.5282 1572.70 1564.18 41.40
14984 58.5320 1484.70 1564.12 40.00
14985 58.5357 1584.30 1564.06 41.30
14986 58.5395 1535.60 1564.00 40.90
14987 58.5432 1497.50 1563.95 39.50
14988 58.5470 1568.50 1563.89 41.90
14989 58.5508 1498.50 1563.83 40.20
14990 58.5545 1520.00 1563.78 40.50
14991 58.5583 1574.80 1563.72 40.80
14992 58.5620 1557.50 1563.66 40.70
14993 58.5658 1585.50 1563.60 41.60
14994 58.5695 1541.80 1563.55 40.60
14995 58.5733 1606.50 1563.49 41.20
14996 58.5771 1563.30 1563.43 40.70
14997 58.5808 1586.90 1563.38 42.10
14998 58.5846 1528.50 1563.32 40.80
14999 58.5883 1573.70 1563.26 40.60
15000 58.5921 1555.70 1563.20 41.10
15001 58.5959 1597.90 1563.15 41.70
15002 58.5996 1616.30 1563.09 42.30
15003 58.6034 1596.30 1563.03 41.50
15004 58.6071 1476.90 1562.97 40.00
15005 58.6109 1528.90 1562.92 40.20
15006 58.6147 1508.40 1562.86 40.40
15007 58.6184 1581.60 1562.80 41.60
15008 58.6222 1515.70 1562.74 40.60
15009 58.6259 1540.10 1562.69 40.80
15010 58.6297 1604.80 1562.63 42.20
15011 58.6334 1535.30 1562.57 40.90
15012 58.6372 1534.90 1562.51 41.20
15013 58.6410 1503.20 1562.45 40.00
15014 58.6447 1523.40 1562.40 40.20
15015 58.6485 1643.80 1562.34 44.00
15016 58.6522 1557.20 1562.28 41.10
15017 58.6560 1540.70 1562.22 41.10
15018 58.6598 1560.20 1562.17 40.10
15019 58.6635 1566.20 1562.11 41.20
15020 58.6673 1539.30 1562.05 40.30
15021 58.6710 1563.20 1561.99 41.10
15022 58.6748 1541.80 1561.93 40.90
15023 58.6785 1569.10 1561.88 41.50
15024 58.6823 1534.00 1561.82 41.20
15025 58.6861 1574.40 1561.76 40.30
15026 58.6898 1511.40 1561.70 40.70
15027 58.6936 1605.10 1561.65 42.00
15028 58.6973 1509.30 1561.59 41.00
15029 58.7011 1595.50 1561.53 42.10
15030 58.7048 1485.80 1561.47 39.90
15031 58.7086 1500.80 1561.41 40.30
15032 58.7124 1558.90 1561.35 41.10
15033 58.7161 1562.10 1561.30 41.70
15034 58.7199 1548.40 1561.24 40.80
15035 58.7236 1518.30 1561.18 40.70
15036 58.7274 1450.20 1561.12 39.40
15037 58.7312 1617.70 1561.06 42.20
15038 58.7349 1567.80 1561.01 41.40
15039 58.7387 1621.60 1560.95 42.40
15040 58.7424 1618.20 1560.89 41.10
15041 58.7462 1623.00 1560.83 42.00
15042 58.7500 1458.10 1560.77 40.10
15043 58.7537 1573.30 1560.71 41.50
15044 58.7575 1542.70 1560.66 40.80
15045 58.7612 1519.20 1560.60 40.40
15046 58.7650 1548.10 1560.54 40.40
15047 58.7687 1595.50 1560.48 41.50
15048 58.7725 1616.60 1560.42 42.00
15049 58.7763 1587.00 1560.36 41.10
15050 58.7800 1528.30 1560.31 40.80
15051 58.7838 1684.50 1560.25 42.60
15052 58.7875 1575.70 1560.19 41.40
15053 58.7913 1628.50 1560.13 42.00
15054 58.7951 1504.70 1560.07 40.50
15055 58.7988 1645.50 1560.01 42.20
15056 58.8026 1558.20 1559.95 41.50
15057 58.8063 1587.50 1559.90 41.00
15058 58.8101 1570.10 1559.84 41.40
15059 58.8139 1636.10 1559.78 42.30
15060 58.8176 1583.40 1559.72 41.70
15061 58.8214 1622.00 1559.66 42.30
15062 58.8251 1627.30 1559.60 41.00
15063 58.8289 1672.40 1559.54 42.70
15064 58.8326 1640.90 1559.49 42.00
15065 58.8364 1641.80 1559.43 42.50
15066 58.8402 1646.40 1559.37 41.90
15067 58.8439 1601.10 1559.31 41.20
15068 58.8477 1545.60 1612.13 41.20
15069 58.8514 1641.60 1614.13 42.10
15070 58.8552 1643.80 1616.24 42.30
15071 58.8590 1614.90 1618.49 41.90
15072 58.8627 1682.30 1620.87 42.40
15073 58.8665 1722.30 1623.41 43.00
15074 58.8702 1645.60 1626.12 42.30
15075 58.8740 1586.50 1629.00 41.50
15076 58.8778 1655.10 1632.09 42.50
15077 58.8815 1698.80 1635.40 42.40
15078 58.8853 1731.30 1638.94 43.60
15079 58.8890 1751.10 1642.74 43.50
15080 58.8928 1720.60 1646.81 43.00
15081 58.8965 1699.30 1651.21 43.20
15082 58.9003 1662.40 1655.94 42.50
15083 58.9041 1777.60 1661.07 43.60
15084 58.9078 1656.40 1666.62 42.20
15085 58.9116 1726.00 1672.63 43.40
15086 58.9153 1727.80 1679.17 43.30
15087 58.9191 1723.90 1686.29 43.30
15088 58.9229 1718.30 1694.07 42.60
15089 58.9266 1854.60 1702.60 45.20
15090 58.9304 1711.20 1711.93 42.50
15091 58.9341 1826.60 1722.26 44.40
15092 58.9379 1774.30 1733.60 43.90
15093 58.9417 1848.80 1746.22 44.30
15094 58.9454 1913.50 1760.23 45.80
15095 58.9492 1947.10 1775.87 47.20
15096 58.9529 1857.60 1793.42 44.90
15097 58.9567 1985.00 1813.19 46.10
15098 58.9604 1879.70 1835.49 45.10
15099 58.9642 2064.50 1860.90 47.50
15100 58.9680 2037.20 1889.82 47.30
15101 58.9717 2123.60 1923.12 48.50
15102 58.9755 2135.40 1961.65 48.00
15103 58.9792 2149.90 2006.64 48.40
15104 58.9830 2152.80 2059.49 48.50
15105 58.9868 2283.20 2121.98 49.90
15106 58.9905 2325.30 2196.87 51.20
15107 58.9943 2509.30 2287.26 52.80
15108 58.9980 2486.60 2397.97 52.00
15109 59.0018 2784.60 2536.19 55.30
15110 59.0056 2832.40 2712.38 55.80
15111 59.0093 3142.50 2948.47 58.80
15112 59.0131 3501.80 3283.78 62.60
15113 59.0168 4050.40 3798.19 67.80
15114 59.0206 4702.50 4628.95 73.60
15115 59.0243 5956.80 5987.95 83.10
15116 59.0281 7934.20 8135.95 98.10
15117 59.0319 11621.90 11281.40 119.50
15118 59.0356 15344.00 15417.30 140.50
15119 59.0394 20102.90 20103.80 164.40
15120 59.0431 22850.20 24062.90 172.60
15121 59.0469 24324.60 25387.20 183.40
15122 59.0507 22195.50 23204.00 174.80
15123 59.0544 18136.40 18868.40 154.70
15124 59.0582 12938.80 14242.10 127.10
15125 59.0619 8841.70 10349.20 102.80
15126 59.0657 6168.50 7478.83 85.60
15127 59.0695 4904.80 5565.68 75.00
15128 59.0732 4064.40 4369.12 68.50
15129 59.0770 3578.70 3637.92 64.50
15130 59.0807 3121.40 3181.16 59.40
15131 59.0845 2942.20 2877.69 57.10
15132 59.0882 2707.40 2660.66 55.10
15133 59.0920 2506.20 2495.32 52.70
15134 59.0958 2415.10 2365.25 52.20
15135 59.0995 2477.70 2260.30 52.10
15136 59.1033 2244.20 2174.12 49.80
15137 59.1071 2183.30 2102.64 49.20
15138 59.1108 2168.50 2042.80 48.70
15139 59.1146 2222.80 1992.06 49.80
15140 59.1183 2075.20 1948.83 48.00
15141 59.1221 2070.30 1911.65 47.40
15142 59.1259 2027.70 1879.38 48.10
15143 59.1296 2020.80 1851.35 46.60
15144 59.1334 1919.30 1826.64 45.80
15145 59.1371 1960.20 1804.98 45.50
15146 59.1409 1843.80 1785.71 44.30
15147 59.1446 1888.20 1768.58 44.40
15148 59.1484 1824.60 1753.28 45.80
15149 59.1522 1853.70 1739.51 44.70
15150 59.1559 1840.30 1727.11 44.20
15151 59.1597 1792.60 1715.92 43.20
15152 59.1634 1728.20 1705.75 42.30
15153 59.1672 1781.10 1696.51 43.20
15154 59.1710 1770.00 1688.08 43.20
15155 59.1747 1736.20 1680.35 43.50
15156 59.1785 1741.70 1673.29 43.20
15157 59.1822 1725.70 1666.75 42.70
15158 59.1860 1731.10 1660.76 43.30
15159 59.1898 1691.60 1655.21 42.40
15160 59.1935 1647.60 1650.07 42.30
15161 59.1973 1653.70 1645.31 42.30
15162 59.2010 1613.20 1640.87 41.90
15163 59.2048 1647.70 1636.75 42.10
15164 59.2085 1564.30 1632.90 40.50
15165 59.2123 1687.50 1629.30 42.90
15166 59.2161 1621.40 1625.94 41.70
15167 59.2198 1685.20 1622.79 42.30
15168 59.2236 1552.80 1619.82 41.20
15169 59.2273 1569.00 1617.05 40.90
15170 59.2311 1548.40 1614.42 40.20
15171 59.2349 1665.20 1611.96 42.50
15172 59.2386 1599.10 1609.63 41.20
15173 59.2424 1679.20 1607.43 42.70
15174 59.2461 1551.00 1552.94 40.10
15175 59.2499 1659.30 1552.88 42.70
15176 59.2537 1537.40 1552.82 40.40
15177 59.2574 1621.10 1552.76 42.10
15178 59.2612 1589.30 1552.70 41.70
15179 59.2649 1646.00 1552.64 42.10
15180 59.2687 1506.80 1552.58 39.90
15181 59.2725 1636.20 1552.52 42.20
15182 59.2762 1611.70 1552.46 41.40
15183 59.2800 1605.50 1552.40 41.20
15184 59.2837 1603.60 1552.34 41.40
15185 59.2875 1596.20 1552.28 41.50
15186 59.2913 1562.80 1552.22 40.90
15187 59.2950 1586.70 1552.16 41.30
15188 59.2988 1586.30 1552.10 41.30
15189 59.3025 1637.50 1552.03 42.30
15190 59.3063 1544.30 1551.97 40.90
15191 59.3101 1512.10 1551.91 40.40
15192 59.3138 1582.20 1551.85 41.60
15193 59.3176 1517.10 1551.79 40.10
15194 59.3213 1504.10 1551.73 40.10
15195 59.3251 1542.90 1551.67 40.60
15196 59.3288 1583.50 1551.61 41.40
15197 59.3326 1604.10 1551.55 41.40
15198 59.3364 1522.00 1551.49 40.70
15199 59.3401 1524.70 1551.43 40.10
15200 59.3439 1592.90 1551.37 40.60
15201 59.3476 1614.00 1551.31 42.70
15202 59.3514 1536.50 1551.25 41.50
15203 59.3552 1513.40 1551.19 39.80
15204 59.3589 1585.70 1551.13 41.50
15205 59.3627 1572.40 1551.07 41.60
15206 59.3664 1511.20 1551.01 40.10
15207 59.3702 1567.10 1550.95 41.40
15208 59.3740 1487.90 1550.89 40.00
15209 59.3777 1546.50 1550.83 40.40
15210 59.3815 1474.00 1550.77 39.40
15211 59.3852 1562.10 1550.71 40.80
15212 59.3890 1475.80 1550.65 40.00
15213 59.3928 1548.80 1550.59 41.20
15214 59.3965 1507.70 1550.53 40.00
15215 59.4003 1570.90 1550.47 41.00
15216 59.4040 1593.30 1550.40 41.80
15217 59.4078 1626.70 1550.34 42.00
15218 59.4116 1561.00 1550.28 40.90
15219 59.4153 1542.90 1550.22 40.60
15220 59.4191 1568.00 1550.16 40.80
15221 59.4228 1573.80 1550.10 41.00
15222 59.4266 1558.90 1550.04 41.10
15223 59.4304 1602.80 1549.98 41.90
15224 59.4341 1581.10 1549.92 42.20
15225 59.4379 1461.30 1549.86 39.80
15226 59.4416 1434.70 1549.80 39.00
15227 59.4454 1585.60 1549.74 40.50
15228 59.4492 1582.10 1549.68 42.20
15229 59.4529 1538.60 1549.62 40.90
15230 59.4567 1537.50 1549.56 40.50
15231 59.4604 1497.00 1549.50 39.40
15232 59.4642 1450.40 1549.44 39.30
15233 59.4679 1520.40 1549.38 40.40
15234 59.4717 1590.40 1549.32 41.40
15235 59.4755 1621.10 1549.26 42.10
15236 59.4792 1501.40 1549.19 40.20
15237 59.4830 1555.20 1549.13 41.20
15238 59.4867 1576.30 1549.07 41.50
15239 59.4905 1568.70 1549.01 41.40
15240 59.4943 1545.20 1548.95 40.70
15241 59.4980 1538.60 1548.89 40.80
15242 59.5018 1567.20 1548.83 41.80
15243 59.5055 1581.60 1548.77 41.60
15244 59.5093 1552.90 1548.71 41.20
15245 59.5131 1564.00 1548.65 41.30
15246 59.5168 1559.00 1548.59 41.40
15247 59.5206 1460.90 1548.53 39.40
15248 59.5243 1552.30 1548.47 40.70
15249 59.5281 1526.10 1548.41 40.60
15250 59.5319 1551.90 1548.35 41.20
15251 59.5356 1532.60 1548.29 40.70
15252 59.5394 1475.10 1548.23 39.70
15253 59.5431 1524.60 1548.17 39.70
15254 59.5469 1538.30 1548.10 41.20
15255 59.5507 1524.60 1548.04 41.20
15256 59.5544 1565.10 1547.98 40.80
15257 59.5582 1560.10 1547.92 40.90
15258 59.5619 1482.30 1547.86 40.10
15259 59.5657 1525.90 1547.80 40.60
15260 59.5695 1473.50 1547.74 40.30
15261 59.5732 1475.70 1547.68 39.90
15262 59.5770 1501.50 1547.62 40.10
15263 59.5807 1560.60 1547.56 40.70
15264 59.5845 1488.70 1547.50 40.00
15265 59.5882 1631.90 1547.44 42.00
15266 59.5920 1553.80 1547.38 41.30
15267 59.5958 1558.80 1547.32 41.00
15268 59.5995 1542.80 1547.26 41.10
15269 59.6033 1494.00 1547.20 40.20
15270 59.6071 1483.40 1547.14 40.10
15271 59.6108 1573.90 1547.07 41.90
15272 59.6146 1492.80 1547.01 40.80
15273 59.6183 1554.30 1546.95 41.70
15274 59.6221 1518.80 1546.89 40.30
15275 59.6258 1587.60 1546.83 41.70
15276 59.6296 1554.90 1546.77 40.80
15277 59.6334 1490.60 1546.71 40.00
15278 59.6371 1511.40 1546.65 40.50
15279 59.6409 1542.10 1546.59 41.00
15280 59.6446 1560.30 1546.53 40.50
15281 59.6484 1476.60 1546.47 40.70
15282 59.6522 1519.20 1546.41 40.80
15283 59.6559 1577.30 1546.35 41.10
15284 59.6597 1519.90 1546.29 40.80
15285 59.6634 1614.60 1546.23 42.10
15286 59.6672 1518.70 1546.17 40.80
15287 59.6710 1611.50 1546.10 42.00
15288 59.6747 1508.60 1546.04 40.90
15289 59.6785 1528.10 1545.98 40.60
15290 59.6822 1605.90 1545.92 41.90
15291 59.6860 1528.90 1545.86 40.70
15292 59.6898 1485.70 1545.80 40.30
15293 59.6935 1566.20 1545.74 40.30
15294 59.6973 1586.80 1545.68 41.40
15295 59.7010 1470.10 1545.62 39.80
15296 59.7048 1498.30 1545.56 40.60
15297 59.7085 1520.50 1545.50 40.70
15298 59.7123 1456.70 1545.44 40.20
15299 59.7161 1533.50 1545.38 41.00
15300 59.7198 1492.60 1545.32 40.40
15301 59.7236 1536.20 1545.26 40.80
15302 59.7273 1538.90 1545.20 41.60
15303 59.7311 1440.90 1545.14 39.50
15304 59.7349 1475.50 1545.07 40.30
15305 59.7386 1556.40 1545.01 41.10
15306 59.7424 1465.90 1544.95 40.00
15307 59.7462 1592.50 1544.89 40.80
15308 59.7499 1508.90 1544.83 41.10
15309 59.7537 1606.70 1544.77 41.80
15310 59.7574 1510.00 1544.71 40.50
15311 59.7612 1475.90 1544.65 40.20
15312 59.7649 1542.20 1544.59 40.80
15313 59.7687 1464.40 1544.53 40.10
15314 59.7725 1425.80 1544.47 39.10
15315 59.7762 1597.70 1544.41 41.50
15316 59.7800 1553.30 1544.35 41.30
15317 59.7837 1524.50 1544.29 41.00
15318 59.7875 1539.20 1544.23 41.20
15319 59.7913 1617.50 1544.17 42.10
15320 59.7950 1550.70 1544.11 41.30
15321 59.7988 1577.10 1544.05 41.80
15322 59.8025 1464.50 1543.98 40.10
15323 59.8063 1565.90 1543.92 41.50
15324 59.8101 1482.90 1543.86 40.10
15325 59.8138 1515.80 1543.80 41.10
15326 59.8176 1502.70 1543.74 40.10
15327 59.8213 1487.20 1543.68 40.50
15328 59.8251 1478.70 1543.62 39.80
15329 59.8288 1506.40 1543.56 41.10
15330 59.8326 1595.80 1543.50 42.10
15331 59.8364 1501.10 1543.44 40.60
15332 59.8401 1552.80 1543.38 41.50
15333 59.8439 1585.60 1543.32 40.70
15334 59.8476 1529.60 1543.26 41.00
15335 59.8514 1565.10 1543.20 42.30
15336 59.8552 1506.60 1543.14 40.20
15337 59.8589 1489.80 1543.08 40.10
15338 59.8627 1532.00 1543.02 40.50
15339 59.8665 1562.80 1542.96 40.90
15340 59.8702 1542.10 1542.90 41.10
15341 59.8740 1476.80 1542.84 40.00
15342 59.8777 1471.70 1542.78 40.30
15343 59.8815 1548.20 1542.71 41.00
15344 59.8853 1486.80 1542.65 40.60
15345 59.8890 1516.30 1542.59 41.20
15346 59.8928 1499.00 1542.53 40.50
15347 59.8965 1535.30 1542.47 40.80
15348 59.9003 1568.00 1542.41 41.50
15349 59.9040 1598.90 1542.35 42.30
15350 59.9078 1492.30 1542.29 40.10
15351 59.9116 1531.50 1542.23 41.00
15352 59.9153 1453.00 1542.17 39.50
15353 59.9191 1564.40 1542.11 40.90
15354 59.9228 1442.30 1542.05 39.70
15355 59.9266 1586.70 1541.99 41.50
15356 59.9304 1540.00 1541.93 40.90
15357 59.9341 1563.30 1541.87 40.90
15358 59.9379 1582.80 1541.81 41.50
15359 59.9416 1536.20 1541.75 41.10
15360 59.9454 1402.80 1541.69 38.80
15361 59.9492 1585.20 1541.63 42.90
15362 59.9529 1481.20 1541.57 40.70
15363 59.9567 1514.10 1541.51 40.60
15364 59.9604 1495.00 1541.45 40.40
15365 59.9642 1536.60 1541.39 40.70
15366 59.9679 1556.60 1541.33 41.50
15367 59.9717 1579.10 1541.27 41.40
15368 59.9755 1578.80 1541.21 41.40
15369 59.9792 1587.30 1541.15 41.30
15370 59.9830 1534.80 1541.09 40.80
15371 59.9868 1564.80 1541.02 41.30
15372 59.9905 1540.30 1540.96 41.10
15373 59.9943 1563.10 1540.90 41.40
15374 59.9980 1499.70 1540.84 40.80
15375 60.0018 1536.10 1540.78 41.00
15376 60.0055 1455.00 1540.72 39.80
15377 60.0093 1533.50 1540.66 40.30
15378 60.0131 1548.60 1540.60 40.40
15379 60.0168 1517.40 1540.54 40.60
15380 60.0206 1564.10 1540.48 41.40
15381 60.0243 1537.70 1540.42 41.10
15382 60.0281 1522.40 1540.36 41.70
15383 60.0319 1521.30 1540.30 41.10
15384 60.0356 1434.10 1540.24 39.50
15385 60.0394 1560.20 1540.18 41.30
15386 60.0431 1551.50 1540.12 41.60
15387 60.0469 1459.50 1540.06 39.60
15388 60.0507 1475.60 1540.00 41.60
15389 60.0544 1527.90 1539.94 40.60
15390 60.0582 1505.10 1539.88 40.50
15391 60.0619 1505.00 1539.82 40.30
15392 60.0657 1534.50 1539.76 40.20
15393 60.0695 1513.30 1539.70 41.10
15394 60.0732 1503.20 1539.64 40.70
15395 60.0770 1521.90 1539.58 41.30
15396 60.0807 1515.00 1539.52 40.90
15397 60.0845 1585.60 1539.46 41.60
15398 60.0882 1468.10 1539.40 40.50
15399 60.0920 1551.00 1539.34 41.70
15400 60.0958 1496.10 1539.28 40.70
15401 60.0995 1597.40 1539.22 42.20
15402 60.1033 1454.30 1539.16 40.10
15403 60.1070 1581.00 1539.10 41.40
15404 60.1108 1484.90 1539.04 40.70
15405 60.1146 1544.20 1538.98 41.20
15406 60.1183 1467.90 1538.92 40.10
15407 60.1221 1569.70 1538.86 41.80
15408 60.1258 1489.00 1538.80 40.50
15409 60.1296 1512.90 1538.74 40.60
15410 60.1334 1506.30 1538.68 40.40
15411 60.1371 1512.50 1538.62 40.60
15412 60.1409 1540.70 1538.56 41.20
15413 60.1446 1561.40 1538.50 41.50
15414 60.1484 1565.60 1538.44 42.00
15415 60.1521 1561.90 1538.38 42.20
15416 60.1559 1504.00 1538.32 40.20
15417 60.1597 1490.40 1538.26 39.50
15418 60.1634 1545.10 1538.20 41.00
15419 60.1672 1529.10 1538.14 41.00
15420 60.1710 1488.20 1538.08 40.30
15421 60.1747 1503.50 1538.02 40.20
15422 60.1785 1497.20 1537.96 40.80
15423 60.1822 1580.10 1537.90 41.90
15424 60.1860 1499.00 1537.84 40.70
15425 60.1897 1593.90 1537.78 41.90
15426 60.1935 1513.00 1537.72 40.70
15427 60.1973 1529.00 1537.66 40.90
15428 60.2010 1505.80 1537.60 41.10
15429 60.2048 1564.80 1537.54 41.30
15430 60.2085 1479.90 1537.48 39.90
15431 60.2123 1574.30 1537.42 41.70
15432 60.2161 1530.70 1537.36 41.10
15433 60.2198 1498.20 1537.31 40.90
15434 60.2236 1533.20 1537.25 40.60
15435 60.2273 1515.20 1537.19 40.90
15436 60.2311 1486.70 1537.13 41.00
15437 60.2349 1603.20 1537.07 41.00
15438 60.2386 1475.30 1537.01 39.90
15439 60.2424 1510.90 1536.95 40.40
15440 60.2461 1493.70 1536.89 40.20
15441 60.2499 1529.50 1536.83 40.90
15442 60.2537 1559.90 1536.77 41.50
15443 60.2574 1547.30 1536.71 41.20
15444 60.2612 1556.70 1536.65 40.90
15445 60.2649 1487.40 1536.59 40.60
15446 60.2687 1440.20 1536.53 39.30
15447 60.2724 1608.50 1536.47 42.10
15448 60.2762 1589.20 1536.41 42.10
15449 60.2800 1574.10 1536.35 41.50
15450 60.2837 1517.90 1536.29 40.90
15451 60.2875 1560.80 1536.23 41.30
15452 60.2912 1513.80 1536.17 40.70
15453 60.2950 1517.50 1536.11 40.90
15454 60.2988 1507.10 1536.05 40.30
15455 60.3025 1475.70 1536.00 40.60
15456 60.3063 1484.80 1535.94 40.30
15457 60.3100 1502.40 1535.88 41.10
15458 60.3138 1487.60 1535.82 40.00
15459 60.3176 1522.30 1535.76 40.70
15460 60.3213 1473.20 1535.70 40.00
15461 60.3251 1547.70 1535.64 41.50
15462 60.3288 1491.70 1535.58 40.10
15463 60.3326 1537.60 1535.52 41.50
15464 60.3363 1515.30 1535.46 40.80
15465 60.3401 1552.30 1535.40 41.70
15466 60.3439 1406.30 1535.34 39.30
15467 60.3476 1581.10 1535.28 40.10
15468 60.3514 1542.70 1535.22 41.90
15469 60.3551 1524.10 1535.16 40.60
15470 60.3589 1523.50 1535.11 40.70
15471 60.3627 1572.50 1535.05 40.80
15472 60.3664 1548.90 1534.99 41.10
15473 60.3702 1607.20 1534.93 41.80
15474 60.3739 1507.60 1534.87 41.00
15475 60.3777 1547.40 1534.81 41.00
15476 60.3815 1537.80 1534.75 41.10
15477 60.3852 1496.80 1534.69 40.50
15478 60.3890 1536.40 1534.63 41.00
15479 60.3927 1600.30 1534.57 41.80
15480 60.3965 1508.60 1534.51 40.70
15481 60.4002 1536.80 1534.46 41.60
15482 60.4040 1462.80 1534.40 40.10
15483 60.4078 1484.50 1534.34 40.50
15484 60.4115 1501.90 1534.28 40.70
15485 60.4153 1522.00 1534.22 40.40
15486 60.4190 1510.60 1534.16 40.30
15487 60.4228 1566.20 1534.10 41.50
15488 60.4266 1452.10 1534.04 39.60
15489 60.4303 1557.60 1533.98 41.50
15490 60.4341 1448.30 1533.92 39.90
15491 60.4378 1516.70 1533.87 40.30
15492 60.4416 1516.50 1533.81 40.70
15493 60.4454 1528.90 1533.75 40.90
15494 60.4491 1502.10 1533.69 40.50
15495 60.4529 1569.10 1533.63 41.40
15496 60.4566 1503.80 1533.57 41.00
15497 60.4604 1499.70 1533.51 40.70
15498 60.4641 1497.00 1533.45 40.80
15499 60.4679 1515.00 1533.39 40.50
15500 60.4717 1457.50 1533.34 40.50
15501 60.4754 1558.70 1533.28 41.60
15502 60.4792 1561.20 1533.22 42.00
15503 60.4829 1506.30 1533.16 40.80
15504 60.4867 1491.00 1533.10 40.90
15505 60.4905 1482.40 1533.04 40.90
15506 60.4942 1510.80 1532.98 40.40
15507 60.4980 1547.40 1532.93 41.70
15508 60.5017 1445.60 1532.87 39.70
15509 60.5055 1562.10 1532.81 41.90
15510 60.5092 1464.90 1532.75 40.30
15511 60.5130 1537.50 1532.69 41.10
15512 60.5168 1474.00 1532.63 39.20
15513 60.5205 1492.70 1532.57 40.60
15514 60.5243 1526.90 1532.52 40.90
15515 60.5280 1550.50 1532.46 41.50
15516 60.5318 1471.80 1532.40 39.40
15517 60.5355 1532.80 1532.34 41.50
15518 60.5393 1492.70 1532.28 40.50
15519 60.5431 1536.50 1532.22 41.00
15520 60.5468 1447.30 1532.16 38.70
15521 60.5506 1569.80 1532.11 42.90
15522 60.5543 1477.20 1532.05 40.60
15523 60.5581 1519.40 1531.99 40.20
15524 60.5619 1451.20 1531.93 39.50
15525 60.5656 1535.00 1531.87 40.70
15526 60.5694 1604.70 1531.81 42.50
15527 60.5731 1500.80 1531.76 40.40
15528 60.5769 1529.20 1531.70 40.60
15529 60.5807 1510.90 1531.64 40.50
15530 60.5844 1547.70 1531.58 41.20
15531 60.5882 1588.80 1531.52 41.70
15532 60.5919 1517.10 1531.46 40.50
15533 60.5957 1537.60 1531.41 40.00
15534 60.5994 1590.90 1531.35 41.70
15535 60.6032 1535.90 1531.29 40.70
15536 60.6070 1487.40 1531.23 40.00
15537 60.6107 1529.30 1531.17 40.50
15538 60.6145 1439.40 1531.12 38.90
15539 60.6182 1555.20 1531.06 40.70
15540 60.6220 1489.00 1531.00 40.10
15541 60.6258 1556.90 1530.94 41.40
15542 60.6295 1486.10 1530.88 39.80
15543 60.6333 1597.30 1530.82 40.70
15544 60.6370 1554.30 1530.77 41.30
15545 60.6408 1540.20 1530.71 40.60
15546 60.6446 1511.00 1530.65 40.30
15547 60.6483 1519.00 1530.59 39.70
15548 60.6521 1509.80 1530.53 41.50
15549 60.6558 1478.50 1530.48 40.20
15550 60.6596 1542.80 1530.42 40.80
15551 60.6633 1487.50 1530.36 40.00
15552 60.6671 1482.80 1530.30 40.10
15553 60.6708 1581.40 1530.25 41.30
15554 60.6746 1429.80 1530.19 39.00
15555 60.6784 1578.60 1530.13 41.30
15556 60.6821 1560.80 1530.07 41.20
15557 60.6859 1564.00 1530.01 41.00
15558 60.6896 1604.30 1529.96 41.90
15559 60.6934 1535.70 1529.90 41.60
15560 60.6972 1516.00 1529.84 40.30
15561 60.7009 1559.10 1529.78 41.20
15562 60.7047 1535.90 1529.73 40.60
15563 60.7084 1527.90 1529.67 40.70
15564 60.7122 1489.70 1529.61 40.30
15565 60.7160 1449.00 1529.55 39.30
15566 60.7197 1515.50 1529.49 40.60
15567 60.7235 1547.10 1529.44 40.80
15568 60.7272 1513.30 1529.38 40.30
15569 60.7310 1561.60 1529.32 41.30
15570 60.7347 1481.40 1529.26 40.10
15571 60.7385 1579.10 1529.21 41.50
15572 60.7423 1457.20 1529.15 39.40
15573 60.7460 1495.20 1529.09 39.40
15574 60.7498 1510.40 1529.03 40.90
15575 60.7535 1540.70 1528.98 41.50
15576 60.7573 1499.30 1528.92 40.30
15577 60.7610 1538.00 1528.86 40.60
15578 60.7648 1520.60 1528.80 40.50
15579 60.7686 1519.40 1528.75 40.60
15580 60.7723 1471.50 1528.69 39.90
15581 60.7761 1502.20 1528.63 40.20
15582 60.7798 1432.80 1528.58 39.60
15583 60.7836 1577.50 1528.52 40.70
15584 60.7873 1484.60 1528.46 40.00
15585 60.7911 1452.40 1528.40 39.60
15586 60.7949 1506.10 1528.35 40.20
15587 60.7986 1459.50 1528.29 39.70
15588 60.8024 1487.90 1528.23 39.50
15589 60.8061 1480.20 1528.17 40.00
15590 60.8099 1491.70 1528.12 40.30
15591 60.8137 1576.40 1528.06 40.60
15592 60.8174 1520.50 1528.00 39.50
15593 60.8212 1508.70 1527.95 40.20
15594 60.8249 1481.50 1527.89 40.50
15595 60.8287 1545.90 1527.83 41.40
15596 60.8324 1483.70 1527.78 40.30
15597 60.8362 1496.60 1527.72 40.00
15598 60.8400 1461.90 1527.66 39.70
15599 60.8437 1580.50 1527.60 41.10
15600 60.8475 1495.70 1527.55 39.60
15601 60.8512 1582.40 1527.49 42.00
15602 60.8550 1559.40 1527.43 41.20
15603 60.8587 1503.50 1527.38 40.30
15604 60.8625 1551.80 1527.32 40.50
15605 60.8663 1596.50 1527.26 41.20
15606 60.8700 1491.60 1527.21 40.00
15607 60.8738 1518.40 1527.15 40.80
15608 60.8775 1557.90 1527.09 41.00
15609 60.8813 1524.60 1527.04 40.30
15610 60.8851 1536.40 1526.98 41.00
15611 60.8888 1573.80 1526.92 41.20
15612 60.8926 1515.20 1526.87 40.50
15613 60.8963 1439.60 1526.81 40.10
15614 60.9001 1444.50 1526.75 39.60
15615 60.9038 1555.40 1526.70 41.40
15616 60.9076 1545.80 1526.64 41.10
15617 60.9114 1523.00 1526.58 40.50
15618 60.9151 1556.50 1526.53 40.70
15619 60.9189 1536.70 1526.47 40.20
15620 60.9226 1454.10 1526.41 39.60
15621 60.9264 1516.70 1526.36 40.70
15622 60.9301 1486.10 1526.30 40.50
15623 60.9339 1499.90 1526.24 40.70
15624 60.9377 1484.20 1526.19 40.10
15625 60.9414 1459.40 1526.13 39.80
15626 60.9452 1500.30 1526.07 40.20
15627 60.9489 1500.20 1526.02 39.90
15628 60.9527 1556.50 1525.96 41.30
15629 60.9564 1455.30 1525.91 39.90
15630 60.9602 1522.60 1525.85 40.10
15631 60.9640 1474.60 1525.79 39.80
15632 60.9677 1517.00 1525.74 40.80
15633 60.9715 1580.00 1525.68 41.50
15634 60.9752 1408.60 1525.62 39.50
15635 60.9790 1526.60 1525.57 40.70
15636 60.9827 1545.50 1525.51 41.10
15637 60.9865 1563.40 1525.46 41.00
15638 60.9903 1447.40 1525.40 39.90
15639 60.9940 1464.90 1525.34 40.10
15640 60.9978 1568.60 1525.29 41.20
15641 61.0015 1586.90 1525.23 41.50
15642 61.0053 1555.40 1525.18 41.00
15643 61.0090 1579.30 1525.12 41.80
15644 61.0128 1470.80 1525.06 39.80
15645 61.0166 1580.60 1525.01 41.30
15646 61.0203 1536.90 1524.95 40.90
15647 61.0241 1549.50 1524.90 41.10
15648 61.0278 1505.40 1524.84 40.10
15649 61.0316 1574.10 1524.78 41.50
15650 61.0354 1579.80 1524.73 41.40
15651 61.0391 1544.60 1524.67 40.80
15652 61.0429 1457.60 1524.62 39.90
15653 61.0466 1466.40 1524.56 39.40
15654 61.0504 1503.90 1524.50 41.20
15655 61.0541 1513.40 1524.45 40.40
15656 61.0579 1439.00 1524.39 39.10
15657 61.0616 1583.20 1524.34 40.50
15658 61.0654 1545.20 1524.28 40.80
15659 61.0692 1546.60 1524.23 40.50
15660 61.0729 1499.20 1524.17 40.70
15661 61.0767 1522.50 1524.11 40.80
15662 61.0804 1515.00 1524.06 39.70
15663 61.0842 1570.60 1524.00 41.00
15664 61.0879 1502.60 1523.95 39.10
15665 61.0917 1594.80 1523.89 41.50
15666 61.0955 1513.70 1523.84 40.50
15667 61.0992 1536.40 1523.78 40.40
15668 61.1030 1448.50 1523.73 39.60
15669 61.1067 1628.00 1523.67 41.90
15670 61.1105 1488.10 1523.62 40.10
15671 61.1142 1560.00 1523.56 41.10
15672 61.1180 1536.00 1523.50 40.30
15673 61.1218 1540.40 1523.45 40.80
15674 61.1255 1570.30 1523.39 40.60
15675 61.1293 1548.50 1523.34 41.20
15676 61.1330 1535.50 1523.28 40.50
15677 61.1368 1587.40 1523.23 41.20
15678 61.1405 1481.90 1523.17 40.30
15679 61.1443 1565.00 1523.12 41.00
15680 61.1481 1484.80 1523.06 39.40
15681 61.1518 1562.40 1523.01 42.20
15682 61.1556 1548.50 1522.95 41.00
15683 61.1593 1518.70 1522.90 40.20
15684 61.1631 1529.20 1522.84 40.30
15685 61.1668 1516.60 1522.79 40.90
15686 61.1706 1576.30 1522.73 41.30
15687 61.1744 1486.00 1522.68 39.80
15688 61.1781 1588.00 1522.62 41.30
15689 61.1819 1539.80 1522.57 40.60
15690 61.1856 1550.20 1522.51 41.60
15691 61.1894 1516.80 1522.46 40.20
15692 61.1931 1466.70 1522.40 40.10
15693 61.1969 1533.50 1522.35 40.60
15694 61.2006 1491.40 1522.29 39.70
15695 61.2044 1519.90 1522.24 40.40
15696 61.2082 1539.50 1522.18 40.70
15697 61.2119 1517.70 1522.13 40.20
15698 61.2157 1568.00 1522.07 40.90
15699 61.2194 1501.70 1522.02 40.10
15700 61.2232 1477.50 1521.96 40.00
15701 61.2269 1606.50 1521.91 40.90
15702 61.2307 1519.20 1521.86 40.60
15703 61.2345 1521.60 1521.80 40.80
15704 61.2382 1459.00 1521.75 39.80
15705 61.2420 1507.00 1521.69 40.30
15706 61.2457 1546.30 1521.64 40.00
15707 61.2495 1511.10 1521.58 40.00
15708 61.2532 1532.30 1521.53 41.40
15709 61.2570 1567.00 1521.47 41.00
15710 61.2607 1525.50 1521.42 40.80
15711 61.2645 1584.50 1521.36 41.50
15712 61.2683 1529.40 1521.31 40.30
15713 61.2720 1539.90 1521.26 40.50
15714 61.2758 1572.10 1521.20 41.30
15715 61.2795 1563.90 1521.15 41.20
15716 61.2833 1484.20 1521.09 40.00
15717 61.2870 1623.20 1521.04 42.20
15718 61.2908 1520.70 1520.98 40.60
15719 61.2946 1498.00 1520.93 39.80
15720 61.2983 1472.90 1520.88 40.20
15721 61.3021 1488.60 1520.82 40.30
15722 61.3058 1548.20 1520.77 40.90
15723 61.3096 1601.50 1520.71 42.00
15724 61.3133 1471.50 1520.66 39.60
15725 61.3171 1491.30 1520.61 39.80
15726 61.3209 1543.90 1520.55 40.60
15727 61.3246 1622.40 1520.50 42.20
15728 61.3284 1538.80 1520.44 40.80
15729 61.3321 1537.80 1520.39 40.90
15730 61.3359 1517.10 1520.34 40.80
15731 61.3396 1552.70 1520.28 40.90
15732 61.3434 1556.00 1520.23 41.10
15733 61.3471 1552.60 1520.17 40.00
15734 61.3509 1569.90 1520.12 42.00
15735 61.3547 1591.70 1520.07 41.80
15736 61.3584 1553.70 1520.01 41.00
15737 61.3622 1573.50 1519.96 41.40
15738 61.3659 1556.50 1519.90 40.60
15739 61.3697 1589.90 1519.85 41.60
15740 61.3734 1632.60 1519.80 42.10
15741 61.3772 1481.30 1519.74 39.90
15742 61.3810 1557.80 1519.69 40.70
15743 61.3847 1531.50 1519.64 40.90
15744 61.3885 1479.70 1519.58 39.90
15745 61.3922 1544.00 1519.53 40.50
15746 61.3960 1505.40 1519.48 40.00
15747 61.3997 1583.70 1519.42 41.70
15748 61.4035 1502.40 1519.37 40.50
15749 61.4072 1556.40 1519.32 40.70
15750 61.4110 1495.50 1519.26 39.70
15751 61.4147 1606.20 1519.21 41.80
15752 61.4185 1502.20 1519.15 40.30
15753 61.4223 1502.70 1519.10 39.90
15754 61.4260 1522.90 1519.05 40.60
15755 61.4298 1500.60 1518.99 40.30
15756 61.4335 1511.50 1518.94 40.70
15757 61.4373 1603.60 1518.89 41.70
15758 61.4410 1518.80 1518.83 40.30
15759 61.4448 1568.30 1518.78 41.30
15760 61.4486 1509.90 1518.73 39.40
15761 61.4523 1624.10 1518.68 42.60
15762 61.4561 1541.90 1518.62 41.00
15763 61.4598 1503.00 1518.57 39.80
15764 61.4636 1491.30 1518.52 39.90
15765 61.4673 1557.70 1518.46 41.00
15766 61.4711 1499.80 1518.41 40.20
15767 61.4748 1663.30 1518.36 42.70
15768 61.4786 1488.00 1518.30 40.10
15769 61.4823 1571.50 1518.25 41.40
15770 61.4861 1522.50 1518.20 40.80
15771 61.4899 1543.50 1518.15 41.00
15772 61.4936 1506.50 1518.09 40.60
15773 61.4974 1564.20 1518.04 41.20
15774 61.5011 1458.40 1517.99 39.70
15775 61.5049 1566.00 1517.93 41.20
15776 61.5086 1582.80 1517.88 41.60
15777 61.5124 1579.00 1517.83 41.10
15778 61.5162 1554.60 1517.78 41.30
15779 61.5199 1488.70 1517.72 40.00
15780 61.5237 1543.90 1517.67 40.80
15781 61.5274 1537.30 1517.62 40.50
15782 61.5312 1533.00 1517.56 41.00
15783 61.5349 1606.90 1517.51 42.10
15784 61.5387 1539.60 1517.46 41.10
15785 61.5424 1594.10 1517.41 41.90
15786 61.5462 1534.60 1517.35 40.30
15787 61.5499 1579.80 1517.30 41.60
15788 61.5537 1493.40 1517.25 40.40
15789 61.5574 1554.10 1517.20 40.50
15790 61.5612 1560.30 1517.14 40.30
15791 61.5650 1551.40 1517.09 40.50
15792 61.5687 1565.20 1517.04 41.30
15793 61.5725 1571.90 1516.99 41.00
15794 61.5762 1599.30 1516.93 41.60
15795 61.5800 1643.60 1516.88 41.20
15796 61.5837 1528.20 1516.83 40.50
15797 61.5875 1601.30 1516.78 41.70
15798 61.5913 1563.40 1516.73 41.70
15799 61.5950 1511.10 1516.67 40.20
15800 61.5988 1627.90 1516.62 42.50
15801 61.6025 1573.30 1516.57 40.60
15802 61.6063 1531.50 1516.52 40.20
15803 61.6100 1517.20 1516.46 40.70
15804 61.6138 1493.90 1516.41 40.40
15805 61.6175 1561.90 1516.36 41.10
15806 61.6213 1674.60 1516.31 43.00
15807 61.6250 1608.10 1516.26 41.60
15808 61.6288 1570.70 1516.20 41.10
15809 61.6325 1623.30 1516.15 42.10
15810 61.6363 1480.40 1516.10 40.50
15811 61.6401 1627.80 1516.05 42.20
15812 61.6438 1561.00 1516.00 40.90
15813 61.6476 1618.90 1515.95 41.40
15814 61.6513 1586.00 1515.89 41.90
15815 61.6551 1586.10 1515.84 41.10
15816 61.6588 1566.30 1515.79 41.30
15817 61.6626 1554.30 1515.74 40.00
15818 61.6663 1611.00 1515.69 41.90
15819 61.6701 1590.40 1515.63 41.30
15820 61.6739 1559.70 1515.58 41.00
15821 61.6776 1552.00 1515.53 40.90
15822 61.6814 1562.10 1515.48 41.70
15823 61.6851 1658.50 1515.43 42.40
15824 61.6889 1567.60 1515.38 41.00
15825 61.6926 1632.10 1515.32 42.10
15826 61.6964 1645.00 1515.27 41.90
15827 61.7001 1603.80 1515.22 42.10
15828 61.7039 1646.10 1515.17 42.10
15829 61.7076 1665.50 1515.12 43.00
15830 61.7114 1618.60 1515.07 41.50
15831 61.7151 1617.80 1515.02 42.40
15832 61.7189 1600.70 1514.96 41.40
15833 61.7227 1602.70 1514.91 41.60
15834 61.7264 1627.50 1514.86 41.40
15835 61.7302 1665.60 1514.81 42.80
15836 61.7339 1558.30 1514.76 41.20
15837 61.7377 1625.30 1514.71 42.20
15838 61.7414 1560.90 1514.66 41.40
15839 61.7452 1654.80 1514.61 42.30
15840 61.7489 1632.60 1589.76 41.30
15841 61.7527 1684.80 1592.54 43.60
15842 61.7565 1722.70 1595.48 43.40
15843 61.7602 1713.00 1598.59 43.50
15844 61.7640 1616.90 1601.91 41.90
15845 61.7677 1736.30 1605.42 43.30
15846 61.7715 1751.80 1609.16 43.50
15847 61.7752 1795.10 1613.13 44.30
15848 61.7790 1697.70 1617.37 43.70
15849 61.7827 1805.20 1621.89 44.30
15850 61.7865 1772.10 1626.72 43.70
15851 61.7902 1810.10 1631.89 44.90
15852 61.7940 1691.50 1637.42 43.20
15853 61.7977 1795.50 1643.36 44.30
15854 61.8015 1813.80 1649.77 44.50
15855 61.8052 1770.40 1656.65 43.90
15856 61.8090 1777.80 1664.08 44.40
15857 61.8128 1799.50 1672.10 44.10
15858 61.8165 1858.00 1680.79 45.00
15859 61.8203 1849.10 1690.25 44.60
15860 61.8240 1800.60 1700.51 44.30
15861 61.8278 1787.50 1711.73 44.80
15862 61.8315 1937.50 1723.96 46.60
15863 61.8353 1907.80 1737.38 45.70
15864 61.8390 1872.90 1752.10 45.90
15865 61.8428 2009.80 1768.33 47.10
15866 61.8465 1928.50 1786.34 45.60
15867 61.8503 2055.00 1806.26 47.40
15868 61.8540 2041.40 1828.43 47.90
15869 61.8578 2054.30 1853.26 48.00
15870 61.8616 2073.50 1881.08 47.50
15871 61.8653 2225.10 1912.44 48.70
15872 61.8691 2149.00 1948.04 48.80
15873 61.8728 2296.30 1988.59 50.30
15874 61.8766 2280.20 2035.04 50.30
15875 61.8803 2305.10 2088.47 50.50
15876 61.8841 2517.30 2150.46 52.80
15877 61.8878 2526.50 2223.18 53.10
15878 61.8916 2550.60 2308.57 53.60
15879 61.8953 2708.00 2410.07 54.60
15880 61.8991 2864.80 2531.96 57.00
15881 61.9029 3258.70 2680.69 60.60
15882 61.9066 3209.80 2863.75 60.90
15883 61.9104 3571.90 3095.27 64.00
15884 61.9141 3852.00 3400.13 66.50
15885 61.9179 4290.90 3823.83 70.40
15886 61.9216 4766.70 4457.64 75.80
15887 61.9254 5795.20 5459.16 82.90
15888 61.9291 7145.30 7079.33 93.90
15889 61.9329 9548.30 9652.66 110.00
15890 61.9366 13469.40 13470.60 131.80
15891 61.9404 18878.10 18667.60 158.40
15892 61.9441 24835.10 24938.80 185.30
15893 61.9479 30653.70 31196.60 206.40
15894 61.9516 33517.90 35188.30 222.90
15895 61.9554 33521.90 34746.00 222.30
15896 61.9591 29280.30 30136.60 204.50
15897 61.9629 22480.50 23760.80 172.90
15898 61.9667 15716.40 17610.80 143.90
15899 61.9704 10820.30 12662.20 116.20
15900 61.9742 7731.60 9092.95 95.30
15901 61.9779 6151.50 6726.35 86.30
15902 61.9817 5085.10 5238.30 77.60
15903 61.9854 4523.10 4319.91 71.60
15904 61.9892 3954.90 3734.55 67.70
15905 61.9929 3625.40 3337.33 63.70
15906 61.9952 3478.60 3153.48 62.60
15907 61.9989 3174.70 2907.82 60.00
15908 62.0027 2947.70 2715.64 57.10
15909 62.0065 2793.50 2560.40 56.10
15910 62.0102 2679.50 2433.29 54.50
15911 62.0140 2558.30 2327.32 53.20
15912 62.0177 2556.70 2238.54 52.80
15913 62.0215 2434.10 2163.46 52.20
15914 62.0252 2424.50 2099.08 52.20
15915 62.0290 2335.50 2043.88 51.10
15916 62.0327 2319.40 1995.85 51.00
15917 62.0365 2184.30 1954.12 48.50
15918 62.0402 2240.90 1917.44 50.00
15919 62.0440 2141.50 1885.15 48.80
15920 62.0478 2155.00 1856.47 48.10
15921 62.0515 2010.10 1830.98 46.10
15922 62.0553 2034.20 1808.11 46.60
15923 62.0590 2061.90 1787.65 47.70
15924 62.0628 2020.10 1769.18 46.80
15925 62.0665 1938.00 1752.51 46.00
15926 62.0703 1936.10 1737.33 44.80
15927 62.0740 1840.40 1723.57 44.60
15928 62.0778 1794.10 1710.96 44.20
15929 62.0816 1868.30 1699.47 45.70
15930 62.0853 1898.30 1688.91 45.30
15931 62.0891 1798.40 1679.22 44.70
15932 62.0928 1717.60 1670.25 42.50
15933 62.0966 1877.30 1661.99 44.80
15934 62.1003 1835.70 1654.34 44.90
15935 62.1041 1615.20 1647.25 42.00
15936 62.1078 1700.60 1640.65 42.90
15937 62.1116 1718.10 1634.52 43.60
15938 62.1153 1750.30 1628.80 43.50
15939 62.1191 1679.30 1623.45 42.60
15940 62.1229 1668.30 1618.44 42.70
15941 62.1266 1668.00 1613.76 43.10
15942 62.1304 1665.00 1609.37 42.70
15943 62.1341 1688.70 1605.24 42.60
15944 62.1379 1654.80 1601.36 41.90
15945 62.1416 1667.30 1597.69 43.00
15946 62.1454 1669.10 1594.24 42.20
15947 62.1491 1666.10 1590.99 42.60
15948 62.1529 1687.40 1587.91 41.70
15949 62.1567 1580.00 1584.99 41.50
15950 62.1604 1736.60 1509.10 43.20
15951 62.1642 1690.40 1509.05 42.80
15952 62.1679 1712.10 1509.00 43.00
15953 62.1717 1663.20 1508.95 43.10
15954 62.1754 1556.30 1508.91 41.00
15955 62.1792 1650.10 1508.86 42.10
15956 62.1829 1606.30 1508.81 41.70
15957 62.1867 1586.20 1508.76 41.10
15958 62.1904 1616.00 1508.71 42.20
15959 62.1942 1573.00 1508.67 41.20
15960 62.1979 1627.90 1508.62 42.50
15961 62.2017 1631.30 1508.57 41.60
15962 62.2055 1569.00 1508.52 41.70
15963 62.2092 1546.70 1508.47 40.70
15964 62.2130 1577.00 1508.42 41.20
15965 62.2167 1632.30 1508.38 41.50
15966 62.2205 1596.10 1508.33 41.90
15967 62.2240 1560.80 1508.28 41.00
15968 62.2278 1550.00 1508.23 41.20
15969 62.2315 1532.40 1508.19 41.60
15970 62.2353 1581.40 1508.14 41.40
15971 62.2390 1516.00 1508.09 41.00
15972 62.2428 1650.50 1508.04 42.80
15973 62.2465 1573.90 1508.00 41.50
15974 62.2503 1544.80 1507.95 41.60
15975 62.2540 1583.70 1507.90 42.30
15976 62.2578 1559.10 1507.85 41.30
15977 62.2615 1577.60 1507.80 42.00
15978 62.2653 1563.00 1507.76 42.20
15979 62.2691 1557.00 1507.71 40.30
15980 62.2728 1549.10 1507.66 41.20
15981 62.2766 1507.90 1507.61 41.10
15982 62.2803 1505.00 1507.57 40.60
15983 62.2841 1616.00 1507.52 41.70
15984 62.2878 1598.40 1507.47 41.60
15985 62.2916 1538.70 1507.42 40.90
15986 62.2953 1499.00 1507.38 40.70
15987 62.2991 1605.20 1507.33 42.80
15988 62.3028 1568.40 1507.28 41.40
15989 62.3066 1572.80 1507.23 42.00
15990 62.3103 1585.20 1507.18 42.20
15991 62.3141 1477.50 1507.14 40.30
15992 62.3178 1575.40 1507.09 42.00
15993 62.3216 1547.20 1507.04 41.40
15994 62.3253 1518.80 1507.00 40.80
15995 62.3291 1542.50 1506.95 40.80
15996 62.3329 1586.00 1506.90 41.60
15997 62.3366 1526.40 1506.85 41.40
15998 62.3404 1539.10 1506.81 41.80
15999 62.3441 1536.10 1506.76 40.90
16000 62.3479 1520.30 1506.71 40.60
16001 62.3516 1594.30 1506.66 43.10
16002 62.3554 1584.70 1506.62 42.00
16003 62.3591 1497.80 1506.57 40.80
16004 62.3629 1517.10 1506.52 40.80
16005 62.3666 1552.40 1506.48 41.10
16006 62.3704 1553.20 1506.43 41.50
16007 62.3741 1517.50 1506.38 41.00
16008 62.3779 1578.80 1506.33 41.40
16009 62.3816 1497.60 1506.29 40.40
16010 62.3854 1517.30 1506.24 41.00
16011 62.3891 1455.50 1506.19 40.00
16012 62.3929 1572.90 1506.15 41.60
16013 62.3967 1498.90 1506.10 40.40
16014 62.4004 1493.10 1506.05 40.40
16015 62.4042 1519.50 1506.01 40.90
16016 62.4079 1487.50 1505.96 40.60
16017 62.4117 1589.80 1505.91 42.00
16018 62.4154 1531.80 1505.86 40.40
16019 62.4192 1526.90 1505.82 41.00
16020 62.4229 1553.00 1505.77 41.40
16021 62.4267 1460.00 1505.72 39.90
16022 62.4304 1531.70 1505.68 41.20
16023 62.4342 1500.20 1505.63 40.30
16024 62.4379 1541.80 1505.58 41.80
16025 62.4417 1492.60 1505.54 40.20
16026 62.4454 1538.30 1505.49 41.10
16027 62.4492 1553.30 1505.44 40.90
16028 62.4530 1544.40 1505.40 41.60
16029 62.4567 1531.90 1505.35 40.90
16030 62.4605 1479.70 1505.30 40.30
16031 62.4642 1564.60 1505.26 40.90
16032 62.4680 1542.30 1505.21 41.10
16033 62.4717 1511.70 1505.16 40.60
16034 62.4755 1495.20 1505.12 39.90
16035 62.4792 1523.50 1505.07 41.10
16036 62.4830 1531.80 1505.02 41.50
16037 62.4867 1501.60 1504.98 40.30
16038 62.4905 1537.40 1504.93 41.20
16039 62.4943 1489.50 1504.89 40.40
16040 62.4980 1513.20 1504.84 40.90
16041 62.5018 1577.50 1504.79 41.90
16042 62.5055 1541.50 1504.75 41.00
16043 62.5093 1480.70 1504.70 40.80
16044 62.5130 1601.80 1504.65 41.90
16045 62.5168 1552.00 1504.61 41.60
16046 62.5205 1470.70 1504.56 40.30
16047 62.5243 1462.80 1504.51 40.50
16048 62.5280 1455.80 1504.47 39.70
16049 62.5318 1496.60 1504.42 40.90
16050 62.5355 1494.10 1504.38 40.80
16051 62.5393 1447.80 1504.33 39.70
16052 62.5431 1486.90 1504.28 40.00
16053 62.5468 1492.00 1504.24 40.20
16054 62.5506 1514.90 1504.19 40.90
16055 62.5543 1496.40 1504.15 41.10
16056 62.5581 1519.90 1504.10 40.70
16057 62.5618 1442.60 1504.05 39.40
16058 62.5656 1513.90 1504.01 40.90
16059 62.5693 1408.70 1503.96 39.00
16060 62.5731 1545.20 1503.92 41.10
16061 62.5768 1529.80 1503.87 41.00
16062 62.5806 1488.90 1503.82 40.30
16063 62.5844 1506.00 1503.78 40.90
16064 62.5881 1474.90 1503.73 39.80
16065 62.5919 1528.10 1503.69 41.20
16066 62.5956 1506.40 1503.64 40.60
16067 62.5994 1481.30 1503.59 40.60
16068 62.6031 1604.00 1503.55 41.40
16069 62.6069 1462.90 1503.50 39.70
16070 62.6106 1443.00 1503.46 39.70
16071 62.6144 1528.50 1503.41 40.90
16072 62.6181 1467.00 1503.36 40.30
16073 62.6219 1533.90 1503.32 41.20
16074 62.6256 1465.10 1503.27 39.40
16075 62.6294 1485.40 1503.23 40.10
16076 62.6332 1596.60 1503.18 41.60
16077 62.6369 1550.60 1503.14 41.30
16078 62.6407 1501.90 1503.09 40.40
16079 62.6444 1499.50 1503.04 39.80
16080 62.6482 1531.20 1503.00 40.40
16081 62.6519 1503.10 1502.95 40.50
16082 62.6557 1556.90 1502.91 41.80
16083 62.6594 1487.30 1502.86 40.30
16084 62.6632 1481.30 1502.82 39.50
16085 62.6670 1486.50 1502.77 40.20
16086 62.6707 1514.00 1502.73 40.30
16087 62.6745 1465.00 1502.68 39.90
16088 62.6782 1434.90 1502.64 40.00
16089 62.6820 1476.40 1502.59 40.40
16090 62.6857 1511.80 1502.54 41.00
16091 62.6895 1475.70 1502.50 40.50
16092 62.6932 1490.00 1502.45 40.40
16093 62.6970 1547.40 1502.41 41.10
16094 62.7007 1494.70 1502.36 40.40
16095 62.7045 1543.90 1502.32 41.00
16096 62.7083 1545.30 1502.27 41.30
16097 62.7120 1520.70 1502.23 40.80
16098 62.7158 1475.80 1502.18 39.90
16099 62.7195 1453.60 1502.14 40.00
16100 62.7233 1506.40 1502.09 41.10
16101 62.7270 1519.60 1502.05 40.50
16102 62.7308 1506.00 1502.00 40.70
16103 62.7345 1467.00 1501.96 40.10
16104 62.7383 1526.40 1501.91 41.30
16105 62.7421 1464.60 1501.87 39.60
16106 62.7458 1449.60 1501.82 39.60
16107 62.7496 1455.30 1501.78 39.40
16108 62.7533 1484.50 1501.73 40.90
16109 62.7571 1518.80 1501.68 40.30
16110 62.7608 1489.30 1501.64 40.40
16111 62.7646 1437.30 1501.59 39.70
16112 62.7683 1465.50 1501.55 40.10
16113 62.7721 1490.70 1501.50 40.20
16114 62.7758 1496.60 1501.46 40.80
16115 62.7796 1438.70 1501.41 39.70
16116 62.7834 1497.00 1501.37 40.40
16117 62.7871 1501.80 1501.32 40.80
16118 62.7909 1502.10 1501.28 41.00
16119 62.7946 1470.50 1501.24 40.60
16120 62.7984 1507.40 1501.19 41.00
16121 62.8021 1511.50 1501.15 41.20
16122 62.8059 1478.10 1501.10 40.80
16123 62.8097 1474.30 1501.06 40.30
16124 62.8134 1408.50 1501.01 39.30
16125 62.8172 1415.30 1500.97 39.60
16126 62.8209 1511.10 1500.92 41.10
16127 62.8247 1510.80 1500.88 40.80
16128 62.8284 1516.60 1500.83 40.70
16129 62.8322 1481.60 1500.79 40.50
16130 62.8359 1477.40 1500.74 40.50
16131 62.8397 1475.10 1500.70 40.40
16132 62.8434 1536.80 1500.65 40.90
16133 62.8472 1510.10 1500.61 40.80
16134 62.8510 1493.10 1500.56 40.30
16135 62.8547 1465.60 1500.52 40.60
16136 62.8585 1530.00 1500.47 40.40
16137 62.8622 1528.50 1500.43 40.60
16138 62.8660 1529.20 1500.39 41.30
16139 62.8697 1466.00 1500.34 40.10
16140 62.8735 1554.60 1500.30 41.70
16141 62.8772 1500.50 1500.25 40.70
16142 62.8810 1513.90 1500.21 41.00
16143 62.8848 1516.20 1500.16 41.20
16144 62.8885 1493.70 1500.12 40.80
16145 62.8923 1475.60 1500.07 40.90
16146 62.8960 1484.40 1500.03 40.80
16147 62.8998 1599.80 1499.98 42.50
16148 62.9035 1550.70 1499.94 41.70
16149 62.9073 1494.80 1499.90 40.90
16150 62.9110 1459.90 1499.85 40.60
16151 62.9148 1513.40 1499.81 40.20
16152 62.9186 1419.00 1499.76 39.60
16153 62.9223 1541.90 1499.72 41.20
16154 62.9261 1534.70 1499.67 41.40
16155 62.9298 1492.60 1499.63 40.90
16156 62.9336 1492.30 1499.59 41.00
16157 62.9373 1458.70 1499.54 40.60
16158 62.9411 1544.30 1499.50 41.60
16159 62.9449 1423.00 1499.45 39.90
16160 62.9486 1494.70 1499.41 40.60
16161 62.9524 1537.10 1499.36 42.20
16162 62.9561 1532.60 1499.32 41.40
16163 62.9599 1433.70 1499.28 40.10
16164 62.9636 1502.10 1499.23 40.90
16165 62.9674 1473.80 1499.19 40.40
16166 62.9711 1520.30 1499.14 41.00
16167 62.9749 1457.30 1499.10 40.40
16168 62.9786 1552.60 1499.05 42.00
16169 62.9824 1523.00 1499.01 40.50
16170 62.9862 1511.00 1498.97 41.60
16171 62.9899 1473.10 1498.92 40.20
16172 62.9937 1419.70 1498.88 40.00
16173 62.9974 1548.40 1498.83 41.90
16174 63.0012 1572.00 1498.79 41.80
16175 63.0049 1422.70 1498.75 39.20
16176 63.0087 1463.50 1498.70 40.10
16177 63.0125 1509.10 1498.66 40.50
16178 63.0162 1532.40 1498.61 41.50
16179 63.0200 1504.90 1498.57 40.80
16180 63.0237 1483.10 1498.53 40.40
16181 63.0275 1464.10 1498.48 39.80
16182 63.0312 1461.20 1498.44 40.40
16183 63.0350 1490.90 1498.39 40.90
16184 63.0387 1522.20 1498.35 41.60
16185 63.0425 1492.80 1498.31 41.20
16186 63.0463 1494.20 1498.26 40.50
16187 63.0500 1486.40 1498.22 40.70
16188 63.0538 1513.50 1498.17 42.50
16189 63.0575 1527.90 1498.13 41.50
16190 63.0613 1509.10 1498.09 41.30
16191 63.0650 1505.00 1498.04 40.60
16192 63.0688 1444.30 1498.00 40.30
16193 63.0726 1453.00 1497.96 40.80
16194 63.0763 1510.70 1497.91 41.30
16195 63.0801 1502.70 1497.87 39.90
16196 63.0838 1472.80 1497.82 40.80
16197 63.0876 1493.60 1497.78 40.70
16198 63.0913 1545.60 1497.74 41.90
16199 63.0951 1495.40 1497.69 41.10
16200 63.0989 1468.80 1497.65 40.90
16201 63.1026 1518.30 1497.61 40.40
16202 63.1064 1516.80 1497.56 41.30
16203 63.1101 1484.50 1497.52 40.60
16204 63.1139 1437.60 1497.47 40.60
16205 63.1176 1466.10 1497.43 40.20
16206 63.1214 1470.10 1497.39 40.10
16207 63.1251 1431.80 1497.34 40.20
16208 63.1289 1538.10 1497.30 41.80
16209 63.1327 1582.40 1497.26 42.60
16210 63.1364 1468.40 1497.21 40.80
16211 63.1402 1524.10 1497.17 41.10
16212 63.1439 1510.90 1497.13 41.30
16213 63.1477 1461.70 1497.08 39.80
16214 63.1514 1547.70 1497.04 42.00
16215 63.1552 1465.20 1496.99 41.20
16216 63.1590 1510.20 1496.95 41.50
16217 63.1627 1487.00 1496.91 40.50
16218 63.1665 1475.70 1496.86 40.10
16219 63.1702 1499.00 1496.95 40.00
16220 63.1740 1456.50 1496.91 39.70
16221 63.1777 1472.90 1496.87 40.00
16222 63.1815 1449.20 1496.83 39.30
16223 63.1852 1403.90 1496.79 39.10
16224 63.1890 1461.20 1496.75 39.50
16225 63.1928 1421.90 1496.72 39.20
16226 63.1965 1481.20 1496.68 39.80
16227 63.2003 1517.60 1496.64 40.30
16228 63.2040 1464.50 1496.61 39.50
16229 63.2078 1485.50 1496.57 40.30
16230 63.2116 1509.50 1496.54 39.80
16231 63.2153 1464.70 1496.50 39.80
16232 63.2191 1462.20 1496.47 39.70
16233 63.2228 1505.90 1496.44 40.20
16234 63.2266 1517.50 1496.40 40.30
16235 63.2303 1497.50 1496.37 39.30
16236 63.2341 1416.60 1496.34 39.10
16237 63.2379 1495.40 1496.31 40.20
16238 63.2416 1474.10 1496.29 40.20
16239 63.2454 1499.00 1496.26 40.30
16240 63.2491 1514.40 1496.23 39.70
16241 63.2529 1489.00 1496.21 40.30
16242 63.2566 1468.50 1496.19 39.80
16243 63.2604 1442.80 1496.17 39.40
16244 63.2641 1413.40 1496.15 38.80
16245 63.2679 1512.20 1496.14 40.10
16246 63.2717 1489.30 1496.13 40.10
16247 63.2754 1577.00 1496.12 41.40
16248 63.2792 1493.40 1496.11 40.30
16249 63.2829 1457.50 1496.11 39.60
16250 63.2867 1517.10 1496.12 40.20
16251 63.2905 1510.20 1496.13 40.50
16252 63.2942 1505.00 1496.15 40.30
16253 63.2980 1452.30 1496.18 39.70
16254 63.3017 1474.30 1496.22 40.10
16255 63.3055 1523.00 1496.28 40.60
16256 63.3092 1421.20 1496.34 39.00
16257 63.3130 1522.90 1496.43 41.00
16258 63.3167 1507.00 1496.54 40.50
16259 63.3205 1508.60 1496.68 40.50
16260 63.3243 1438.10 1496.86 39.40
16261 63.3280 1456.60 1497.09 39.70
16262 63.3318 1565.20 1497.38 41.40
16263 63.3355 1407.50 1497.77 38.70
16264 63.3393 1448.70 1498.32 39.50
16265 63.3431 1449.10 1499.12 39.40
16266 63.3468 1513.90 1500.37 39.60
16267 63.3506 1465.20 1502.39 39.20
16268 63.3543 1511.30 1505.66 41.60
16269 63.3581 1476.10 1510.71 39.80
16270 63.3618 1480.30 1517.92 39.80
16271 63.3656 1494.80 1527.25 40.00
16272 63.3694 1493.00 1537.79 39.90
16273 63.3731 1541.70 1547.01 40.90
16274 63.3769 1602.60 1551.06 41.70
16275 63.3806 1512.80 1547.52 40.70
16276 63.3844 1558.60 1538.47 41.20
16277 63.3881 1567.50 1527.85 41.00
16278 63.3919 1542.80 1518.27 40.60
16279 63.3956 1482.60 1510.78 39.80
16280 63.3994 1517.50 1505.48 40.50
16281 63.4032 1440.30 1502.01 39.50
16282 63.4069 1529.70 1499.81 40.50
16283 63.4107 1438.60 1498.43 39.80
16284 63.4144 1412.50 1497.51 38.90
16285 63.4182 1453.30 1496.87 39.70
16286 63.4220 1464.20 1496.38 39.90
16287 63.4257 1483.60 1496.00 39.70
16288 63.4295 1489.40 1495.68 39.30
16289 63.4332 1453.80 1495.41 39.90
16290 63.4370 1452.10 1495.18 38.60
16291 63.4407 1435.20 1494.98 39.70
16292 63.4445 1496.60 1494.80 40.40
16293 63.4482 1447.10 1494.65 39.30
16294 63.4520 1424.90 1494.51 38.50
16295 63.4558 1494.20 1494.38 40.90
16296 63.4595 1471.50 1494.27 39.90
16297 63.4633 1467.50 1494.16 39.40
16298 63.4670 1405.10 1494.06 38.40
16299 63.4708 1473.00 1493.97 39.80
16300 63.4746 1484.90 1493.88 40.30
16301 63.4783 1490.90 1493.80 40.50
16302 63.4821 1539.00 1493.72 41.30
16303 63.4858 1509.20 1493.64 40.90
16304 63.4896 1490.40 1493.57 40.50
16305 63.4934 1459.20 1493.50 39.80
16306 63.4971 1496.40 1493.44 40.80
16307 63.5009 1464.40 1493.37 40.00
16308 63.5046 1447.60 1493.31 40.00
16309 63.5084 1497.80 1493.25 40.20
16310 63.5121 1425.00 1493.19 39.30
16311 63.5159 1479.30 1493.13 39.60
16312 63.5196 1476.50 1493.07 40.00
16313 63.5234 1452.80 1493.02 40.10
16314 63.5272 1416.70 1492.96 39.20
16315 63.5309 1490.60 1492.91 40.30
16316 63.5347 1469.30 1492.85 40.00
16317 63.5384 1506.30 1492.80 40.20
16318 63.5422 1511.00 1492.75 40.20
16319 63.5460 1474.70 1492.70 40.40
16320 63.5497 1558.40 1492.65 40.60
16321 63.5535 1428.80 1492.60 40.20
16322 63.5572 1568.50 1492.55 41.60
16323 63.5610 1521.40 1492.50 40.80
16324 63.5647 1433.60 1492.45 39.40
16325 63.5685 1434.60 1492.40 38.90
16326 63.5723 1481.70 1492.35 40.40
16327 63.5760 1443.80 1492.30 39.60
16328 63.5798 1448.70 1492.26 39.10
16329 63.5835 1426.50 1492.21 39.40
16330 63.5873 1466.80 1492.04 39.60
16331 63.5910 1522.70 1492.00 40.90
16332 63.5948 1456.50 1491.95 40.30
16333 63.5986 1487.30 1491.91 40.60
16334 63.6023 1532.20 1491.87 41.00
16335 63.6061 1440.20 1491.83 39.30
16336 63.6098 1452.90 1491.78 39.90
16337 63.6136 1493.60 1491.74 40.50
16338 63.6174 1475.30 1491.70 40.40
16339 63.6211 1483.30 1491.65 40.50
16340 63.6249 1469.70 1491.61 40.30
16341 63.6286 1499.00 1491.57 40.00
16342 63.6324 1489.80 1491.53 40.60
16343 63.6361 1462.20 1491.48 39.90
16344 63.6399 1462.80 1491.44 40.40
16345 63.6437 1492.80 1491.40 41.20
16346 63.6474 1504.30 1491.36 40.10
16347 63.6512 1489.20 1491.31 39.50
16348 63.6549 1510.60 1491.27 41.10
16349 63.6587 1436.60 1491.23 39.10
16350 63.6624 1496.70 1491.18 39.70
16351 63.6662 1491.00 1491.14 39.50
16352 63.6700 1487.70 1491.10 39.50
16353 63.6737 1521.70 1491.06 40.10
16354 63.6775 1474.40 1491.01 39.70
16355 63.6812 1468.40 1490.97 40.10
16356 63.6850 1500.60 1490.93 39.90
16357 63.6888 1515.70 1490.88 40.50
16358 63.6925 1540.30 1490.84 40.70
16359 63.6963 1497.30 1490.80 39.90
16360 63.7000 1447.30 1490.76 39.40
16361 63.7038 1467.50 1490.71 38.60
16362 63.7076 1491.40 1490.67 40.00
16363 63.7113 1474.60 1490.63 39.80
16364 63.7151 1483.10 1490.59 39.10
16365 63.7188 1438.70 1490.54 38.80
16366 63.7226 1517.50 1490.50 40.20
16367 63.7263 1440.40 1490.46 39.20
16368 63.7301 1546.10 1490.41 40.30
16369 63.7338 1551.50 1490.37 41.00
16370 63.7376 1456.70 1490.33 39.90
16371 63.7414 1469.60 1490.29 39.70
16372 63.7451 1464.90 1490.24 39.90
16373 63.7489 1495.10 1490.20 39.60
16374 63.7526 1470.90 1490.16 39.80
16375 63.7564 1514.60 1490.11 40.70
16376 63.7602 1410.40 1490.07 38.90
16377 63.7639 1448.10 1490.03 39.40
16378 63.7677 1495.20 1489.99 39.80
16379 63.7714 1520.60 1489.94 40.50
16380 63.7752 1528.10 1489.90 39.50
16381 63.7789 1442.90 1489.86 39.60
16382 63.7827 1502.80 1489.81 40.00
16383 63.7865 1470.60 1489.77 39.60
16384 63.7902 1450.70 1489.73 39.30
16385 63.7940 1443.60 1489.69 39.30
16386 63.7977 1531.40 1489.64 40.20
16387 63.8015 1467.30 1489.60 39.80
16388 63.8053 1512.10 1489.56 40.20
16389 63.8090 1481.90 1489.52 40.10
16390 63.8128 1459.40 1489.47 39.50
16391 63.8165 1505.60 1489.43 39.70
16392 63.8203 1460.10 1489.39 39.80
16393 63.8241 1512.50 1489.34 40.40
16394 63.8278 1485.10 1489.30 40.00
16395 63.8316 1480.80 1489.26 39.20
16396 63.8353 1501.30 1489.22 40.20
16397 63.8391 1454.30 1489.17 39.80
16398 63.8428 1465.10 1489.13 39.20
16399 63.8466 1465.40 1489.09 39.30
16400 63.8504 1487.10 1489.04 39.20
16401 63.8541 1443.60 1489.00 39.50
16402 63.8579 1482.00 1488.96 40.10
16403 63.8616 1454.20 1488.91 38.90
16404 63.8654 1441.80 1488.87 39.00
16405 63.8691 1477.10 1488.83 38.80
16406 63.8729 1499.50 1488.79 40.20
16407 63.8767 1459.40 1488.74 39.80
16408 63.8804 1509.80 1488.70 40.50
16409 63.8842 1403.70 1488.66 38.80
16410 63.8879 1488.50 1488.61 40.00
16411 63.8917 1403.10 1488.57 38.60
16412 63.8955 1507.10 1488.53 40.20
16413 63.8992 1485.20 1488.49 40.20
16414 63.9030 1481.60 1488.44 39.70
16415 63.9067 1491.40 1488.40 39.50
16416 63.9105 1510.00 1488.36 40.50
16417 63.9142 1526.10 1488.31 41.00
16418 63.9180 1496.80 1488.27 39.90
16419 63.9218 1426.50 1488.23 39.20
16420 63.9255 1493.40 1488.19 40.20
16421 63.9293 1453.80 1488.14 39.40
16422 63.9330 1453.00 1488.10 40.10
16423 63.9368 1464.70 1488.06 39.10
16424 63.9406 1459.70 1488.01 39.70
16425 63.9443 1356.50 1487.97 38.10
16426 63.9481 1467.80 1487.93 39.20
16427 63.9518 1489.50 1487.88 40.50
16428 63.9556 1461.60 1487.84 40.20
16429 63.9594 1500.40 1487.80 40.20
16430 63.9631 1481.40 1487.76 39.70
16431 63.9669 1467.50 1487.71 39.60
16432 63.9706 1460.10 1487.67 39.70
16433 63.9744 1491.30 1487.63 40.10
16434 63.9781 1576.90 1487.58 41.40
16435 63.9819 1472.10 1487.54 39.90
16436 63.9857 1481.60 1487.50 39.90
16437 63.9894 1440.50 1487.45 38.90
16438 63.9932 1459.30 1487.41 39.20
16439 63.9969 1418.10 1487.37 39.00
16440 64.0007 1449.80 1487.32 39.60
16441 64.0045 1434.70 1487.28 39.50
16442 64.0082 1434.90 1487.24 39.30
16443 64.0120 1465.00 1487.19 39.60
16444 64.0157 1476.20 1487.15 39.80
16445 64.0195 1469.60 1487.11 40.00
16446 64.0232 1507.10 1487.07 39.70
16447 64.0270 1415.50 1487.02 39.00
16448 64.0308 1423.70 1486.98 38.80
16449 64.0345 1413.80 1486.94 39.20
16450 64.0383 1421.70 1486.89 39.10
16451 64.0421 1536.30 1486.85 41.00
16452 64.0458 1450.20 1486.81 39.30
16453 64.0496 1441.00 1486.76 38.90
16454 64.0533 1504.20 1486.72 40.80
16455 64.0571 1538.20 1486.68 41.00
16456 64.0608 1472.00 1486.63 40.20
16457 64.0646 1557.10 1486.59 41.00
16458 64.0684 1462.20 1486.55 39.70
16459 64.0721 1434.40 1486.50 39.30
16460 64.0759 1409.50 1486.46 39.00
16461 64.0796 1427.90 1486.42 39.50
16462 64.0834 1513.40 1486.37 40.60
16463 64.0872 1484.10 1486.33 39.90
16464 64.0909 1476.20 1486.29 39.80
16465 64.0947 1524.30 1486.24 40.70
16466 64.0984 1448.30 1486.20 38.90
16467 64.1022 1542.00 1486.16 40.90
16468 64.1060 1505.70 1486.11 39.60
16469 64.1097 1441.60 1486.07 39.50
16470 64.1135 1465.00 1486.03 40.00
16471 64.1172 1462.30 1485.98 39.80
16472 64.1210 1519.40 1485.94 40.90
16473 64.1247 1345.40 1485.90 38.40
16474 64.1285 1446.50 1485.85 39.10
16475 64.1323 1512.40 1485.81 39.80
16476 64.1360 1436.20 1485.77 38.90
16477 64.1398 1481.50 1485.72 39.70
16478 64.1435 1441.60 1485.68 39.40
16479 64.1473 1540.50 1485.64 40.30
16480 64.1510 1498.50 1485.59 39.00
16481 64.1548 1455.70 1485.55 40.00
16482 64.1586 1514.50 1485.50 40.50
16483 64.1623 1504.50 1485.46 39.70
16484 64.1661 1504.90 1485.42 40.00
16485 64.1699 1531.60 1485.37 40.30
16486 64.1736 1465.70 1485.33 39.40
16487 64.1774 1486.70 1485.29 39.80
16488 64.1811 1437.50 1485.24 39.30
16489 64.1849 1552.80 1485.20 40.10
16490 64.1886 1503.50 1485.16 39.40
16491 64.1924 1525.90 1485.11 40.10
16492 64.1962 1541.10 1485.07 40.50
16493 64.1999 1443.40 1485.03 39.40
16494 64.2037 1491.10 1484.98 39.50
16495 64.2074 1549.00 1484.94 40.90
16496 64.2112 1432.30 1484.89 39.00
16497 64.2150 1494.00 1484.85 39.80
16498 64.2187 1544.00 1484.81 40.60
16499 64.2225 1429.00 1484.76 39.10
16500 64.2262 1487.50 1484.72 39.60
16501 64.2300 1470.30 1484.68 39.30
16502 64.2338 1476.70 1484.63 39.70
16503 64.2375 1485.80 1484.59 39.80
16504 64.2413 1485.40 1484.54 39.40
16505 64.2450 1523.00 1484.50 39.90
16506 64.2488 1471.20 1484.46 39.60
16507 64.2525 1465.60 1484.41 38.90
16508 64.2563 1488.40 1484.37 40.60
16509 64.2601 1490.10 1484.32 40.20
16510 64.2638 1553.60 1484.28 40.40
16511 64.2676 1468.70 1484.24 39.20
16512 64.2713 1477.40 1484.19 39.90
16513 64.2751 1477.20 1484.15 39.80
16514 64.2788 1463.60 1484.10 39.40
16515 64.2826 1416.10 1484.06 38.60
16516 64.2864 1553.10 1484.02 40.60
16517 64.2901 1470.30 1483.97 39.80
16518 64.2939 1519.80 1483.93 40.60
16519 64.2977 1506.50 1483.88 39.90
16520 64.3014 1486.30 1483.84 39.90
16521 64.3052 1504.00 1483.80 40.20
16522 64.3089 1499.10 1483.75 40.00
16523 64.3127 1553.20 1483.71 40.50
16524 64.3164 1510.30 1483.66 40.00
16525 64.3202 1572.80 1483.62 40.90
16526 64.3240 1543.30 1483.58 40.60
16527 64.3277 1546.60 1483.53 40.80
16528 64.3315 1567.70 1483.49 41.30
16529 64.3352 1545.30 1483.44 40.40
16530 64.3390 1543.70 1483.40 40.70
16531 64.3428 1602.20 1483.36 41.70
16532 64.3465 1523.00 1483.31 40.50
16533 64.3503 1512.30 1483.27 39.70
16534 64.3540 1569.60 1483.22 40.80
16535 64.3578 1555.30 1483.18 40.90
16536 64.3616 1528.20 1483.13 40.50
16537 64.3653 1532.90 1483.09 40.40
16538 64.3691 1498.70 1483.04 39.60
16539 64.3728 1512.20 1483.00 40.10
16540 64.3766 1461.20 1482.96 39.30
16541 64.3803 1560.10 1482.91 41.00
16542 64.3841 1503.70 1482.87 39.90
16543 64.3879 1556.30 1482.82 40.60
16544 64.3916 1564.50 1482.78 40.80
16545 64.3954 1531.10 1482.73 40.20
16546 64.3991 1521.20 1482.69 40.30
16547 64.4029 1508.80 1482.65 40.20
16548 64.4067 1586.10 1482.60 41.10
16549 64.4104 1620.00 1482.56 41.40
16550 64.4142 1520.80 1482.51 40.30
16551 64.4179 1539.20 1482.47 40.60
16552 64.4217 1477.60 1482.42 39.40
16553 64.4255 1537.10 1482.38 40.00
16554 64.4292 1523.10 1482.33 40.00
16555 64.4330 1556.20 1482.29 40.40
16556 64.4367 1538.70 1482.24 40.80
16557 64.4405 1558.80 1482.20 41.10
16558 64.4443 1528.10 1482.15 40.30
16559 64.4480 1569.30 1482.11 40.70
16560 64.4518 1542.80 1482.06 39.50
16561 64.4555 1554.40 1482.02 41.70
16562 64.4593 1514.60 1481.97 39.50
16563 64.4631 1569.80 1481.93 40.50
16564 64.4668 1448.70 1481.89 39.00
16565 64.4706 1549.70 1481.84 40.50
16566 64.4743 1552.80 1481.80 40.80
16567 64.4781 1630.80 1481.75 42.10
16568 64.4818 1570.80 1481.71 40.70
16569 64.4856 1554.50 1481.66 40.60
16570 64.4894 1585.60 1481.62 41.40
16571 64.4931 1531.60 1481.57 40.30
16572 64.4969 1540.10 1481.53 40.10
16573 64.5006 1600.80 1481.48 41.30
16574 64.5044 1641.90 1481.44 42.20
16575 64.5082 1619.30 1481.39 41.50
16576 64.5119 1596.90 1481.35 41.60
16577 64.5157 1542.00 1481.30 40.70
16578 64.5194 1623.90 1481.26 41.60
16579 64.5232 1599.50 1481.21 41.50
16580 64.5269 1524.80 1481.17 40.50
16581 64.5307 1586.60 1481.12 40.80
16582 64.5345 1639.20 1481.07 42.10
16583 64.5382 1625.10 1481.03 41.30
16584 64.5420 1674.70 1480.98 42.80
16585 64.5458 1637.00 1480.94 41.70
16586 64.5495 1579.30 1480.89 41.00
16587 64.5533 1643.00 1480.85 41.60
16588 64.5570 1617.80 1480.80 42.50
16589 64.5608 1667.90 1480.76 42.20
16590 64.5645 1611.30 1480.71 41.30
16591 64.5683 1642.90 1480.67 41.40
16592 64.5721 1668.10 1583.28 42.00
16593 64.5758 1620.20 1586.97 42.00
16594 64.5796 1610.80 1590.87 41.40
16595 64.5833 1751.20 1595.00 42.60
16596 64.5871 1743.00 1599.36 43.50
16597 64.5909 1711.70 1603.98 42.80
16598 64.5946 1741.00 1608.89 43.50
16599 64.5984 1695.30 1614.09 42.50
16600 64.6021 1803.30 1619.63 44.00
16601 64.6059 1729.50 1625.49 43.70
16602 64.6097 1822.90 1631.80 44.80
16603 64.6134 1842.10 1638.49 44.90
16604 64.6172 1700.80 1645.66 42.80
16605 64.6209 1723.60 1653.30 43.30
16606 64.6247 1847.20 1661.51 44.70
16607 64.6284 1940.80 1670.30 45.40
16608 64.6322 1872.70 1679.78 44.90
16609 64.6360 1820.90 1689.99 44.50
16610 64.6397 1883.80 1700.99 45.40
16611 64.6435 1889.00 1712.86 45.50
16612 64.6472 1968.30 1725.81 46.10
16613 64.6510 1923.40 1739.76 44.90
16614 64.6548 2000.90 1755.01 47.90
16615 64.6585 1985.60 1771.60 45.90
16616 64.6623 2115.90 1789.74 48.40
16617 64.6660 2003.10 1809.63 46.40
16618 64.6698 2080.30 1831.53 47.60
16619 64.6736 2042.60 1855.64 47.50
16620 64.6773 2171.40 1882.36 49.20
16621 64.6811 2168.90 1912.03 49.00
16622 64.6848 2263.60 1945.02 50.20
16623 64.6886 2385.70 1981.91 51.50
16624 64.6924 2320.60 2023.43 50.70
16625 64.6961 2424.70 2070.10 52.00
16626 64.6999 2577.90 2123.20 53.50
16627 64.7036 2564.60 2183.50 53.40
16628 64.7074 2670.40 2253.14 54.60
16629 64.7111 2734.10 2332.89 55.40
16630 64.7149 2843.20 2425.67 56.60
16631 64.7187 2938.10 2534.42 57.60
16632 64.7224 3180.80 2662.73 59.70
16633 64.7262 3326.60 2814.92 61.00
16634 64.7299 3514.10 2998.69 63.00
16635 64.7337 3796.10 3222.44 66.30
16636 64.7375 4194.80 3500.59 69.50
16637 64.7412 4562.90 3857.01 72.90
16638 64.7450 5019.00 4338.90 76.50
16639 64.7487 5613.10 5022.74 81.10
16640 64.7525 6673.80 6072.53 88.80
16641 64.7563 8408.50 7743.91 103.80
16642 64.7600 10706.10 10401.00 115.60
16643 64.7638 14398.30 14470.40 136.40
16644 64.7675 20652.90 20297.90 162.10
16645 64.7713 28271.80 27852.40 199.40
16646 64.7750 37387.70 36528.30 232.90
16647 64.7788 44323.90 44471.60 261.90
16648 64.7826 47805.90 48710.60 271.00
16649 64.7863 46229.40 46871.80 269.80
16650 64.7901 38988.70 40060.50 242.20
16651 64.7939 29380.60 31376.70 203.30
16652 64.7976 20068.40 23210.90 164.50
16653 64.8014 13950.60 16655.70 134.00
16654 64.8051 10019.90 11884.30 109.10
16655 64.8089 7940.20 8690.88 98.40
16656 64.8126 6580.20 6668.99 87.80
16657 64.8164 5702.90 5402.03 82.20
16658 64.8202 5077.50 4586.12 77.80
16659 64.8239 4400.20 4037.14 71.70
16660 64.8277 4077.40 3636.15 68.80
16661 64.8314 3803.40 3328.70 66.00
16662 64.8352 3562.80 3084.53 63.50
16663 64.8390 3328.00 2885.67 61.40
16664 64.8427 3222.00 2720.94 60.60
16665 64.8465 3048.00 2583.39 58.10
16666 64.8502 2911.60 2467.19 56.60
16667 64.8540 2798.90 2368.34 56.50
16668 64.8578 2719.90 2282.86 56.20
16669 64.8615 2613.90 2209.49 53.90
16670 64.8653 2588.80 2145.39 53.90
16671 64.8690 2500.70 2089.37 53.00
16672 64.8728 2505.10 2039.97 52.90
16673 64.8765 2412.70 1996.42 52.00
16674 64.8803 2268.10 1957.56 50.30
16675 64.8841 2301.00 1922.93 50.40
16676 64.8878 2233.80 1891.88 49.80
16677 64.8916 2235.40 1863.93 48.90
16678 64.8953 2109.40 1838.57 48.80
16679 64.8991 2094.80 1815.80 48.10
16680 64.9028 2058.60 1794.98 48.00
16681 64.9066 1974.30 1776.01 46.10
16682 64.9104 2044.50 1758.70 47.00
16683 64.9141 1952.90 1742.84 46.40
16684 64.9179 1950.60 1728.24 46.80
16685 64.9217 1964.00 1714.84 46.50
16686 64.9254 1914.00 1702.43 45.60
16687 64.9292 1908.10 1691.00 46.10
16688 64.9329 1830.20 1680.33 44.80
16689 64.9367 1875.00 1670.49 46.00
16690 64.9404 1844.30 1661.31 44.90
16691 64.9442 1771.90 1652.77 44.30
16692 64.9480 1766.10 1644.78 44.60
16693 64.9517 1749.50 1637.35 43.40
16694 64.9555 1726.50 1630.36 44.30
16695 64.9592 1691.80 1623.82 42.90
16696 64.9630 1807.40 1617.68 44.30
16697 64.9668 1752.80 1611.91 44.20
16698 64.9705 1695.60 1606.47 43.40
16699 64.9743 1673.30 1601.35 43.00
16700 64.9780 1682.90 1596.51 43.10
16701 64.9818 1642.40 1591.96 42.30
16702 64.9856 1596.50 1587.63 41.60
16703 64.9893 1649.70 1583.54 42.80
16704 64.9931 1640.30 1579.66 43.20
16705 64.9968 1561.80 1475.32 41.50
16706 65.0006 1668.50 1475.27 43.20
16707 65.0043 1662.70 1475.22 43.30
16708 65.0081 1574.70 1475.18 41.70
16709 65.0119 1575.00 1475.13 41.70
16710 65.0156 1622.10 1475.08 41.70
16711 65.0194 1636.10 1475.03 42.90
16712 65.0231 1595.50 1474.98 42.30
16713 65.0269 1508.00 1474.93 40.70
16714 65.0306 1603.90 1474.88 41.70
16715 65.0344 1569.90 1474.83 42.00
16716 65.0382 1532.00 1474.78 41.20
16717 65.0419 1546.20 1474.74 41.70
16718 65.0457 1565.10 1474.69 41.50
16719 65.0495 1606.10 1474.64 41.40
16720 65.0532 1559.90 1474.59 40.90
16721 65.0570 1503.30 1474.54 41.70
16722 65.0607 1612.70 1474.49 42.50
16723 65.0645 1506.70 1474.44 41.00
16724 65.0682 1519.00 1474.39 41.10
16725 65.0720 1537.90 1474.34 40.40
16726 65.0758 1570.90 1474.29 41.40
16727 65.0795 1528.60 1474.24 40.70
16728 65.0833 1586.90 1474.20 42.20
16729 65.0870 1520.40 1474.15 41.50
16730 65.0908 1499.40 1474.10 40.00
16731 65.0946 1583.20 1474.05 41.20
16732 65.0983 1561.20 1474.00 40.90
16733 65.1021 1526.40 1473.95 39.80
16734 65.1058 1546.80 1473.90 40.50
16735 65.1096 1552.60 1473.85 40.80
16736 65.1134 1489.70 1473.80 39.70
16737 65.1171 1561.40 1473.75 40.90
16738 65.1209 1543.50 1473.70 40.30
16739 65.1246 1580.00 1473.65 40.70
16740 65.1284 1540.90 1473.60 40.30
16741 65.1321 1533.00 1473.55 40.30
16742 65.1359 1466.20 1473.50 39.70
16743 65.1397 1593.20 1473.45 41.00
16744 65.1434 1511.20 1473.40 40.20
16745 65.1472 1528.50 1473.35 40.10
16746 65.1509 1493.80 1473.30 39.40
16747 65.1547 1560.80 1473.25 41.20
16748 65.1584 1562.00 1473.20 41.00
16749 65.1622 1518.20 1473.15 40.20
16750 65.1660 1506.20 1473.10 39.90
16751 65.1697 1513.10 1473.05 40.00
16752 65.1735 1463.30 1473.00 39.40
16753 65.1773 1469.30 1472.95 39.80
16754 65.1810 1536.20 1472.90 40.30
16755 65.1848 1500.40 1472.85 40.20
16756 65.1885 1470.30 1472.80 39.20
16757 65.1923 1471.00 1472.75 39.40
16758 65.1960 1436.60 1472.70 39.20
16759 65.1998 1438.20 1472.65 39.30
16760 65.2036 1501.10 1472.60 40.00
16761 65.2073 1489.10 1472.55 39.90
16762 65.2111 1529.90 1472.50 40.20
16763 65.2148 1455.40 1472.45 39.30
16764 65.2186 1472.30 1472.40 39.90
16765 65.2224 1462.10 1472.34 39.40
16766 65.2261 1441.20 1472.29 38.60
16767 65.2299 1449.20 1472.24 39.30
16768 65.2336 1441.10 1472.19 39.10
16769 65.2374 1494.40 1472.14 39.20
16770 65.2412 1456.80 1472.09 38.90
16771 65.2449 1493.00 1472.04 40.10
16772 65.2487 1485.10 1471.99 39.50
16773 65.2524 1467.30 1471.94 39.10
16774 65.2562 1507.70 1471.89 41.00
16775 65.2599 1389.30 1471.84 38.90
16776 65.2637 1426.00 1471.78 39.00
16777 65.2675 1495.50 1471.73 39.40
16778 65.2712 1471.80 1471.68 39.50
16779 65.2750 1463.00 1471.63 39.40
16780 65.2787 1456.20 1471.58 39.20
16781 65.2825 1448.80 1471.53 39.30
16782 65.2862 1450.20 1471.48 39.50
16783 65.2900 1463.70 1471.43 39.80
16784 65.2938 1436.00 1471.37 39.30
16785 65.2975 1456.10 1471.32 39.70
16786 65.3013 1426.20 1471.27 39.20
16787 65.3050 1491.30 1471.22 40.00
16788 65.3088 1512.70 1471.17 40.10
16789 65.3126 1398.70 1471.12 38.70
16790 65.3163 1540.90 1471.07 40.10
16791 65.3201 1508.80 1471.01 39.60
16792 65.3238 1435.10 1470.96 38.90
16793 65.3276 1478.50 1470.91 39.70
16794 65.3314 1488.30 1470.86 39.60
16795 65.3351 1407.40 1470.81 39.10
16796 65.3389 1489.90 1470.75 39.20
16797 65.3426 1477.50 1470.70 39.70
16798 65.3464 1472.40 1470.65 39.70
16799 65.3501 1370.40 1470.60 38.10
16800 65.3539 1461.70 1470.55 39.30
16801 65.3577 1452.90 1470.49 40.10
16802 65.3614 1460.50 1470.44 39.20
16803 65.3652 1420.50 1470.39 38.80
16804 65.3689 1442.90 1470.34 38.90
16805 65.3727 1433.30 1470.29 39.30
16806 65.3765 1416.70 1470.23 38.90
16807 65.3802 1433.40 1470.18 38.70
16808 65.3840 1482.00 1470.13 39.90
16809 65.3877 1487.70 1470.08 40.20
16810 65.3915 1461.60 1470.02 39.60
16811 65.3952 1478.60 1469.97 40.10
16812 65.3990 1524.90 1469.92 40.50
16813 65.4028 1437.90 1469.87 39.30
16814 65.4065 1434.60 1469.81 38.90
16815 65.4103 1448.80 1469.76 39.50
16816 65.4140 1414.30 1469.71 39.00
16817 65.4178 1441.10 1469.66 38.90
16818 65.4215 1430.70 1469.60 39.20
16819 65.4253 1419.50 1469.55 38.90
16820 65.4291 1399.90 1469.50 38.50
16821 65.4328 1521.00 1469.44 40.30
16822 65.4366 1437.40 1469.39 39.50
16823 65.4404 1448.50 1469.34 39.40
16824 65.4441 1449.20 1469.28 39.40
16825 65.4479 1449.10 1469.23 39.40
16826 65.4516 1499.40 1469.18 39.50
16827 65.4554 1461.00 1469.13 39.60
16828 65.4591 1426.70 1469.07 39.50
16829 65.4629 1442.80 1469.02 38.70
16830 65.4667 1460.20 1468.97 39.30
16831 65.4704 1476.30 1468.91 39.80
16832 65.4742 1462.80 1468.86 39.70
16833 65.4779 1457.40 1468.81 39.40
16834 65.4817 1465.70 1468.75 39.60
16835 65.4854 1416.90 1468.70 39.30
16836 65.4892 1410.50 1468.64 39.00
16837 65.4930 1394.60 1468.59 38.50
16838 65.4967 1462.00 1468.54 39.30
16839 65.5005 1412.10 1468.48 38.60
16840 65.5042 1478.50 1468.43 39.30
16841 65.5080 1384.20 1468.38 38.60
16842 65.5118 1436.60 1468.32 39.10
16843 65.5155 1400.50 1468.27 38.80
16844 65.5193 1387.70 1468.21 38.80
16845 65.5230 1489.90 1468.16 40.00
16846 65.5268 1422.60 1468.11 39.00
16847 65.5305 1480.20 1468.05 39.30
16848 65.5343 1437.50 1468.00 39.50
16849 65.5381 1416.90 1467.94 38.80
16850 65.5418 1441.10 1467.89 39.60
16851 65.5456 1464.70 1467.84 39.50
16852 65.5493 1440.00 1467.78 38.80
16853 65.5531 1452.70 1467.73 39.00
16854 65.5568 1407.20 1467.67 39.60
16855 65.5606 1517.30 1467.62 40.60
16856 65.5644 1406.80 1467.56 38.60
16857 65.5681 1509.40 1467.51 40.60
16858 65.5719 1368.00 1467.46 38.00
16859 65.5756 1438.20 1467.40 39.10
16860 65.5794 1457.40 1467.35 39.40
16861 65.5832 1496.90 1467.29 40.10
16862 65.5869 1405.70 1467.24 38.70
16863 65.5907 1460.60 1467.18 39.60
16864 65.5944 1411.00 1467.13 38.30
16865 65.5982 1370.50 1467.07 38.20
16866 65.6019 1423.50 1467.02 39.00
16867 65.6057 1344.60 1466.96 38.00
16868 65.6095 1505.50 1466.91 40.20
16869 65.6132 1477.30 1466.85 40.00
16870 65.6170 1426.70 1466.80 39.20
16871 65.6207 1490.90 1466.74 40.20
16872 65.6245 1498.30 1466.69 39.60
16873 65.6283 1394.20 1466.63 38.50
16874 65.6320 1381.90 1466.58 38.50
16875 65.6358 1382.90 1466.52 38.70
16876 65.6395 1433.20 1466.47 38.90
16877 65.6433 1414.10 1466.41 39.00
16878 65.6470 1470.10 1466.36 39.80
16879 65.6508 1421.30 1466.30 38.80
16880 65.6546 1462.30 1466.24 38.80
16881 65.6583 1434.10 1466.19 40.10
16882 65.6621 1389.50 1466.13 38.60
16883 65.6658 1374.50 1466.08 38.00
16884 65.6696 1400.80 1466.02 38.90
16885 65.6733 1395.50 1465.97 38.50
16886 65.6771 1435.70 1465.91 39.10
16887 65.6808 1457.80 1465.85 39.80
16888 65.6846 1447.00 1465.80 39.50
16889 65.6884 1441.40 1465.74 39.70
16890 65.6921 1433.10 1465.69 39.50
16891 65.6959 1461.30 1465.63 39.80
16892 65.6997 1384.70 1465.57 38.90
16893 65.7034 1419.20 1465.52 38.70
16894 65.7072 1448.80 1465.46 39.60
16895 65.7109 1394.90 1465.41 38.70
16896 65.7147 1389.30 1465.35 38.70
16897 65.7184 1403.60 1465.29 39.20
16898 65.7222 1359.60 1465.24 38.00
16899 65.7260 1476.40 1465.18 39.90
16900 65.7297 1363.30 1465.12 38.60
16901 65.7335 1366.40 1465.07 38.30
16902 65.7372 1461.10 1465.01 40.00
16903 65.7410 1465.00 1464.95 40.00
16904 65.7447 1405.80 1464.90 38.30
16905 65.7485 1429.80 1464.84 39.20
16906 65.7523 1427.50 1464.78 38.80
16907 65.7560 1465.20 1464.73 40.20
16908 65.7598 1448.00 1464.67 38.80
16909 65.7635 1404.70 1464.61 39.00
16910 65.7673 1419.30 1464.56 39.00
16911 65.7710 1365.70 1464.50 37.90
16912 65.7748 1463.30 1464.44 40.00
16913 65.7786 1418.20 1464.39 39.00
16914 65.7823 1424.00 1464.33 39.20
16915 65.7861 1446.70 1464.27 39.60
16916 65.7898 1387.30 1464.21 38.80
16917 65.7936 1405.30 1464.16 39.10
16918 65.7973 1491.50 1464.10 40.00
16919 65.8011 1383.10 1464.04 38.70
16920 65.8049 1441.30 1463.99 39.30
16921 65.8086 1422.70 1463.93 39.10
16922 65.8124 1381.60 1463.87 38.30
16923 65.8161 1376.30 1463.81 38.60
16924 65.8199 1429.70 1463.76 39.50
16925 65.8236 1405.40 1463.70 38.80
16926 65.8274 1432.90 1463.64 38.80
16927 65.8312 1447.70 1463.58 39.40
16928 65.8349 1426.90 1463.52 38.50
16929 65.8387 1444.80 1463.47 39.80
16930 65.8424 1401.40 1463.41 38.90
16931 65.8462 1372.30 1463.35 38.30
16932 65.8500 1401.60 1463.29 38.70
16933 65.8537 1380.50 1463.23 37.90
16934 65.8575 1373.20 1463.18 39.10
16935 65.8612 1392.30 1463.12 39.00
16936 65.8650 1405.30 1463.06 38.90
16937 65.8687 1438.60 1463.00 39.40
16938 65.8725 1448.00 1462.94 39.50
16939 65.8762 1399.40 1462.89 38.90
16940 65.8800 1401.70 1462.83 39.20
16941 65.8838 1345.70 1462.77 38.00
16942 65.8875 1419.20 1462.71 39.60
16943 65.8913 1374.30 1462.65 38.70
16944 65.8950 1402.30 1462.59 38.70
16945 65.8988 1523.10 1462.53 39.90
16946 65.9026 1435.60 1462.48 38.90
16947 65.9063 1409.40 1462.42 39.00
16948 65.9101 1399.30 1462.36 38.60
16949 65.9138 1387.90 1462.30 38.60
16950 65.9176 1466.50 1462.24 39.80
16951 65.9213 1422.90 1462.18 39.00
16952 65.9251 1486.20 1462.12 39.60
16953 65.9288 1419.60 1462.06 39.20
16954 65.9326 1345.40 1462.00 37.70
16955 65.9364 1377.70 1461.95 38.40
16956 65.9401 1369.10 1461.89 38.40
16957 65.9439 1433.40 1461.83 39.40
16958 65.9476 1393.90 1461.77 38.80
16959 65.9514 1439.40 1461.71 38.80
16960 65.9551 1447.20 1461.65 39.80
16961 65.9589 1385.30 1464.67 39.20
16962 65.9627 1370.50 1464.73 38.50
16963 65.9664 1486.30 1464.78 39.70
16964 65.9702 1406.40 1464.85 39.80
16965 65.9739 1415.80 1464.92 39.10
16966 65.9777 1352.40 1464.99 37.90
16967 65.9815 1450.90 1465.08 39.20
16968 65.9852 1399.90 1465.17 39.00
16969 65.9890 1404.30 1465.28 38.90
16970 65.9927 1452.40 1465.39 39.50
16971 65.9965 1436.20 1465.52 39.60
16972 66.0002 1478.00 1465.66 39.80
16973 66.0040 1359.30 1465.81 38.30
16974 66.0077 1434.00 1465.97 39.20
16975 66.0115 1392.70 1466.15 38.70
16976 66.0153 1398.60 1466.35 38.70
16977 66.0190 1427.20 1466.56 39.60
16978 66.0228 1488.60 1466.80 40.30
16979 66.0265 1393.30 1467.06 38.60
16980 66.0303 1382.00 1467.34 38.80
16981 66.0340 1494.30 1467.66 40.00
16982 66.0378 1435.30 1468.00 39.30
16983 66.0416 1468.10 1468.38 40.10
16984 66.0453 1450.10 1468.79 39.60
16985 66.0491 1479.50 1469.25 40.40
16986 66.0528 1455.60 1469.76 39.30
16987 66.0566 1368.40 1470.32 39.60
16988 66.0603 1451.40 1470.94 40.50
16989 66.0641 1511.30 1471.64 40.70
16990 66.0678 1447.30 1472.41 40.00
16991 66.0716 1447.80 1473.28 39.40
16992 66.0754 1433.00 1474.25 39.50
16993 66.0791 1468.80 1475.34 40.40
16994 66.0829 1410.60 1476.58 40.00
16995 66.0866 1438.90 1477.98 40.10
16996 66.0904 1404.40 1479.58 39.70
16997 66.0941 1457.60 1481.41 39.50
16998 66.0979 1389.30 1483.52 39.60
16999 66.1017 1496.00 1485.96 40.90
17000 66.1054 1521.00 1488.80 41.20
17001 66.1092 1528.80 1492.14 40.50
17002 66.1129 1438.10 1496.09 40.20
17003 66.1167 1474.90 1500.80 39.90
17004 66.1204 1502.00 1506.49 40.90
17005 66.1242 1425.10 1513.48 40.00
17006 66.1280 1535.50 1522.16 42.00
17007 66.1317 1502.90 1533.41 41.00
17008 66.1355 1547.00 1548.70 42.10
17009 66.1392 1614.90 1570.88 42.30
17010 66.1430 1466.50 1605.08 40.80
17011 66.1467 1618.00 1659.20 42.40
17012 66.1505 1705.10 1744.83 43.50
17013 66.1543 1817.00 1873.50 44.50
17014 66.1580 2053.80 2054.42 49.70
17015 66.1618 2169.60 2284.59 50.60
17016 66.1655 2560.20 2544.91 53.50
17017 66.1693 2739.60 2775.37 56.20
17018 66.1730 2761.50 2889.51 55.80
17019 66.1768 2748.60 2825.66 56.40
17020 66.1805 2567.10 2619.03 53.60
17021 66.1843 2232.60 2361.09 50.70
17022 66.1881 1957.70 2117.61 46.80
17023 66.1918 1726.60 1920.83 44.70
17024 66.1956 1652.40 1777.24 43.20
17025 66.1993 1596.00 1679.83 42.20
17026 66.2031 1527.20 1617.53 41.30
17027 66.2068 1529.50 1578.40 41.20
17028 66.2106 1474.50 1553.16 40.00
17029 66.2143 1504.10 1536.13 39.90
17030 66.2181 1436.80 1523.73 39.80
17031 66.2219 1524.40 1514.25 41.20
17032 66.2256 1527.40 1506.70 40.70
17033 66.2294 1451.70 1500.54 40.40
17034 66.2331 1493.90 1495.44 40.40
17035 66.2369 1423.60 1491.15 40.10
17036 66.2406 1452.10 1487.53 39.80
17037 66.2444 1440.80 1484.42 40.20
17038 66.2482 1497.00 1481.74 40.70
17039 66.2519 1437.00 1479.42 39.90
17040 66.2557 1510.50 1477.38 40.20
17041 66.2594 1464.70 1475.60 41.50
17042 66.2632 1455.80 1474.01 40.00
17043 66.2669 1456.40 1472.60 40.10
17044 66.2707 1412.40 1471.35 39.40
17045 66.2744 1490.70 1470.21 40.70
17046 66.2782 1465.50 1469.20 40.20
17047 66.2820 1381.60 1468.27 39.30
17048 66.2857 1447.40 1467.43 40.30
17049 66.2895 1472.80 1466.66 40.00
17050 66.2932 1453.40 1465.95 40.10
17051 66.2970 1321.50 1465.31 38.40
17052 66.3007 1424.90 1464.71 39.50
17053 66.3045 1445.60 1464.15 39.30
17054 66.3082 1415.20 1463.64 39.50
17055 66.3120 1371.70 1463.16 38.70
17056 66.3158 1381.20 1462.72 39.00
17057 66.3195 1399.70 1462.30 39.60
17058 66.3233 1395.70 1461.91 38.20
17059 66.3270 1373.90 1461.54 39.20
17060 66.3308 1409.80 1461.19 39.40
17061 66.3345 1408.60 1460.87 39.50
17062 66.3383 1367.90 1460.56 38.20
17063 66.3420 1427.70 1460.26 40.00
17064 66.3458 1432.20 1459.98 39.50
17065 66.3496 1440.50 1459.72 40.40
17066 66.3533 1390.80 1459.46 38.80
17067 66.3571 1474.80 1459.22 40.40
17068 66.3608 1395.50 1458.99 39.90
17069 66.3646 1397.90 1458.77 39.30
17070 66.3683 1413.10 1458.55 38.90
17071 66.3721 1469.40 1458.35 40.10
17072 66.3758 1408.50 1458.15 39.60
17073 66.3796 1406.70 1457.96 39.50
17074 66.3833 1434.20 1457.78 40.50
17075 66.3871 1435.20 1457.60 39.60
17076 66.3909 1401.10 1454.41 39.90
17077 66.3946 1440.70 1454.35 39.90
17078 66.3984 1363.50 1454.28 38.50
17079 66.4021 1391.20 1454.22 39.50
17080 66.4059 1371.70 1454.15 38.80
17081 66.4097 1384.50 1454.08 39.30
17082 66.4134 1370.10 1454.02 39.40
17083 66.4172 1425.60 1453.95 39.80
17084 66.4209 1465.70 1453.89 40.80
17085 66.4247 1396.90 1453.82 39.50
17086 66.4284 1426.30 1453.76 39.40
17087 66.4322 1382.00 1453.69 39.40
17088 66.4359 1384.40 1453.62 39.70
17089 66.4397 1385.10 1453.56 39.40
17090 66.4434 1447.30 1453.49 40.60
17091 66.4472 1381.60 1453.43 39.50
17092 66.4510 1410.00 1453.36 39.70
17093 66.4547 1379.30 1453.29 38.60
17094 66.4585 1397.80 1453.23 40.40
17095 66.4622 1321.50 1453.16 38.50
17096 66.4660 1458.10 1453.09 40.60
17097 66.4697 1330.40 1453.03 38.40
17098 66.4735 1339.30 1452.96 38.10
17099 66.4772 1391.50 1452.89 39.10
17100 66.4810 1378.10 1452.83 39.60
17101 66.4847 1415.30 1452.76 39.40
17102 66.4885 1453.90 1452.69 40.30
17103 66.4923 1389.70 1452.63 38.90
17104 66.4960 1353.10 1452.56 38.50
17105 66.4998 1410.30 1452.49 39.40
17106 66.5035 1399.60 1452.43 39.70
17107 66.5073 1468.70 1452.36 40.50
17108 66.5110 1442.90 1452.29 39.70
17109 66.5148 1422.30 1452.22 39.70
17110 66.5185 1417.60 1452.16 39.80
17111 66.5223 1443.40 1452.09 39.90
17112 66.5260 1432.10 1452.02 39.90
17113 66.5298 1458.30 1451.96 40.60
17114 66.5336 1362.90 1451.89 38.80
17115 66.5373 1380.40 1451.82 39.10
17116 66.5411 1339.10 1451.75 38.40
17117 66.5448 1432.50 1451.69 40.00
17118 66.5486 1422.40 1451.62 39.50
17119 66.5523 1359.30 1451.55 38.50
17120 66.5561 1345.90 1451.48 38.20
17121 66.5598 1417.80 1451.41 39.90
17122 66.5636 1446.70 1451.35 40.20
17123 66.5674 1400.10 1451.28 38.80
17124 66.5711 1469.60 1451.21 39.80
17125 66.5749 1445.90 1451.14 39.70
17126 66.5786 1366.60 1451.07 38.80
17127 66.5824 1404.80 1451.01 38.20
17128 66.5861 1414.60 1450.94 39.20
17129 66.5899 1360.30 1450.87 38.70
17130 66.5936 1401.00 1450.80 39.30
17131 66.5974 1393.90 1450.73 39.00
17132 66.6011 1411.10 1450.67 39.30
17133 66.6049 1353.80 1450.60 37.70
17134 66.6087 1356.50 1450.53 38.00
17135 66.6124 1399.10 1450.46 39.30
17136 66.6162 1370.10 1450.39 38.70
17137 66.6199 1423.40 1450.32 39.70
17138 66.6237 1410.90 1450.25 39.30
17139 66.6274 1422.60 1450.19 39.10
17140 66.6312 1407.50 1450.12 39.40
17141 66.6349 1462.40 1450.05 39.80
17142 66.6387 1360.60 1449.98 37.80
17143 66.6424 1432.40 1449.91 39.60
17144 66.6462 1412.60 1449.84 39.10
17145 66.6500 1436.30 1449.77 39.80
17146 66.6537 1331.20 1449.70 37.00
17147 66.6575 1444.30 1449.63 40.40
17148 66.6612 1389.30 1449.56 39.50
17149 66.6650 1418.50 1449.49 39.30
17150 66.6687 1370.50 1449.43 38.20
17151 66.6725 1375.10 1449.36 38.50
17152 66.6762 1380.60 1449.29 38.60
17153 66.6800 1370.30 1449.22 38.90
17154 66.6837 1446.50 1449.15 39.60
17155 66.6875 1437.80 1449.08 39.60
17156 66.6913 1394.20 1449.01 38.80
17157 66.6950 1364.90 1448.94 38.80
17158 66.6988 1382.30 1448.87 39.00
17159 66.7025 1427.70 1448.80 39.40
17160 66.7063 1404.40 1448.73 38.20
17161 66.7100 1406.30 1448.66 38.50
17162 66.7138 1428.80 1448.59 39.20
17163 66.7175 1361.70 1448.52 38.50
17164 66.7213 1444.50 1448.45 39.70
17165 66.7250 1379.10 1448.38 38.90
17166 66.7288 1414.20 1448.31 39.30
17167 66.7325 1409.80 1448.24 39.30
17168 66.7363 1375.90 1448.17 39.00
17169 66.7401 1345.90 1448.10 38.40
17170 66.7438 1396.60 1448.03 39.20
17171 66.7476 1417.20 1447.96 39.00
17172 66.7513 1368.30 1447.89 38.70
17173 66.7551 1378.30 1447.82 38.30
17174 66.7588 1408.00 1447.75 39.60
17175 66.7626 1425.10 1447.68 39.50
17176 66.7663 1476.80 1447.60 40.40
17177 66.7701 1396.20 1447.53 39.00
17178 66.7738 1359.30 1447.46 38.20
17179 66.7776 1364.60 1447.39 39.20
17180 66.7813 1444.20 1447.32 39.60
17181 66.7851 1408.10 1447.25 38.30
17182 66.7889 1379.80 1447.18 39.40
17183 66.7926 1435.70 1447.11 39.30
17184 66.7964 1405.40 1447.04 39.10
17185 66.8001 1346.20 1446.97 38.30
17186 66.8039 1348.50 1446.89 37.70
17187 66.8076 1361.50 1446.82 38.80
17188 66.8114 1467.30 1446.75 40.00
17189 66.8151 1369.30 1446.68 38.20
17190 66.8189 1420.60 1446.61 39.20
17191 66.8226 1390.20 1446.54 39.50
17192 66.8264 1372.80 1446.47 38.80
17193 66.8301 1460.80 1446.39 40.10
17194 66.8339 1429.80 1446.32 39.30
17195 66.8376 1442.00 1446.25 40.20
17196 66.8414 1443.10 1446.18 39.60
17197 66.8452 1459.70 1446.11 40.00
17198 66.8489 1394.10 1446.04 39.20
17199 66.8527 1452.30 1445.96 39.80
17200 66.8564 1400.90 1445.89 38.80
17201 66.8602 1376.20 1445.82 39.50
17202 66.8639 1438.10 1445.75 40.00
17203 66.8677 1397.20 1445.68 39.30
17204 66.8714 1404.80 1445.60 39.10
17205 66.8752 1418.40 1445.53 39.40
17206 66.8789 1419.00 1445.46 39.60
17207 66.8827 1454.10 1445.39 39.60
17208 66.8864 1360.40 1445.31 38.70
17209 66.8902 1430.80 1445.24 39.80
17210 66.8939 1432.80 1445.17 39.90
17211 66.8977 1392.50 1445.10 39.20
17212 66.9015 1371.40 1445.02 39.20
17213 66.9052 1391.00 1444.95 39.30
17214 66.9090 1387.90 1444.88 38.80
17215 66.9127 1365.80 1444.81 39.10
17216 66.9165 1367.10 1444.73 39.00
17217 66.9202 1400.40 1444.66 39.30
17218 66.9240 1337.10 1444.59 38.00
17219 66.9277 1401.70 1444.52 38.90
17220 66.9315 1373.20 1444.44 38.30
17221 66.9352 1430.80 1444.37 39.80
17222 66.9390 1421.80 1444.30 40.30
17223 66.9427 1459.50 1444.22 40.20
17224 66.9465 1374.40 1444.15 38.90
17225 66.9502 1464.10 1444.08 40.50
17226 66.9540 1383.40 1444.00 38.80
17227 66.9577 1412.90 1443.93 39.60
17228 66.9615 1437.10 1443.86 39.70
17229 66.9652 1445.70 1443.78 40.10
17230 66.9690 1368.40 1443.71 38.40
17231 66.9728 1346.30 1443.64 38.60
17232 66.9765 1444.60 1443.56 40.20
17233 66.9803 1384.20 1443.49 39.50
17234 66.9840 1444.60 1443.42 40.30
17235 66.9878 1351.40 1443.34 37.90
17236 66.9915 1407.90 1443.27 39.30
17237 66.9938 1462.80 1443.22 40.60
17238 66.9976 1443.00 1443.15 40.10
17239 67.0013 1439.90 1443.07 39.60
17240 67.0051 1393.70 1443.00 39.30
17241 67.0088 1389.90 1442.93 39.40
17242 67.0126 1304.30 1442.85 37.80
17243 67.0164 1409.50 1442.78 39.60
17244 67.0201 1317.70 1442.70 38.50
17245 67.0239 1456.70 1442.63 40.20
17246 67.0276 1369.10 1442.56 39.00
17247 67.0314 1427.50 1442.48 39.70
17248 67.0351 1397.60 1442.41 39.50
17249 67.0389 1351.70 1442.33 38.50
17250 67.0426 1360.30 1442.26 38.50
17251 67.0464 1396.00 1442.18 38.90
17252 67.0501 1407.50 1442.11 39.70
17253 67.0539 1346.20 1442.03 38.70
17254 67.0577 1423.90 1441.96 39.10
17255 67.0614 1372.30 1441.88 38.40
17256 67.0652 1364.80 1441.81 38.50
17257 67.0689 1388.90 1441.73 39.10
17258 67.0727 1425.90 1441.66 38.50
17259 67.0764 1382.50 1441.59 38.80
17260 67.0802 1376.50 1441.51 38.90
17261 67.0839 1363.50 1441.44 38.70
17262 67.0877 1434.00 1441.36 39.50
17263 67.0915 1376.80 1441.28 38.80
17264 67.0952 1364.40 1441.21 37.90
17265 67.0990 1341.80 1441.13 37.70
17266 67.1027 1399.10 1441.06 39.30
17267 67.1065 1472.90 1440.98 40.20
17268 67.1102 1317.60 1440.91 38.10
17269 67.1140 1340.30 1440.83 38.30
17270 67.1177 1371.10 1440.76 38.30
17271 67.1215 1360.80 1440.68 38.70
17272 67.1252 1395.80 1440.61 38.80
17273 67.1290 1443.90 1440.53 39.00
17274 67.1328 1421.30 1440.45 39.50
17275 67.1365 1391.70 1440.38 38.80
17276 67.1403 1344.80 1440.30 38.50
17277 67.1440 1370.20 1440.23 37.60
17278 67.1478 1357.00 1440.15 39.10
17279 67.1515 1440.10 1440.08 40.30
17280 67.1553 1466.70 1440.00 40.00
17281 67.1590 1307.50 1439.92 37.30
17282 67.1628 1450.70 1439.85 39.60
17283 67.1665 1433.40 1439.77 39.40
17284 67.1703 1371.30 1439.70 38.90
17285 67.1740 1332.00 1439.62 37.90
17286 67.1778 1368.50 1439.54 38.60
17287 67.1816 1360.30 1439.47 38.30
17288 67.1853 1368.00 1439.39 38.90
17289 67.1891 1403.60 1439.31 39.40
17290 67.1928 1395.70 1439.24 39.00
17291 67.1966 1350.80 1439.16 37.40
17292 67.2003 1398.50 1439.08 38.40
17293 67.2041 1360.40 1439.01 38.20
17294 67.2078 1374.70 1438.93 38.70
17295 67.2116 1355.90 1438.85 38.50
17296 67.2153 1408.50 1438.78 39.40
17297 67.2191 1458.40 1438.70 39.90
17298 67.2228 1400.70 1438.62 39.20
17299 67.2230 1397.80 1438.62 38.40
17300 67.2267 1374.90 1438.54 38.10
17301 67.2305 1362.00 1438.47 37.60
17302 67.2342 1386.30 1438.39 38.20
17303 67.2380 1373.30 1438.31 38.20
17304 67.2417 1377.60 1438.24 38.10
17305 67.2455 1345.00 1438.16 37.90
17306 67.2492 1357.00 1438.08 38.00
17307 67.2530 1416.90 1438.01 38.50
17308 67.2567 1431.30 1437.93 39.30
17309 67.2605 1412.60 1437.85 39.20
17310 67.2642 1380.90 1437.77 38.20
17311 67.2680 1325.60 1437.70 37.00
17312 67.2718 1331.30 1437.62 37.10
17313 67.2755 1370.30 1437.54 38.40
17314 67.2793 1325.00 1437.46 37.30
17315 67.2830 1382.80 1437.39 38.20
17316 67.2868 1406.80 1437.31 38.80
17317 67.2905 1322.10 1437.23 37.40
17318 67.2943 1423.80 1437.15 39.10
17319 67.2980 1341.10 1437.08 37.80
17320 67.3018 1409.50 1437.00 39.00
17321 67.3055 1380.90 1436.92 38.20
17322 67.3093 1396.90 1436.84 38.60
17323 67.3130 1438.40 1436.76 39.40
17324 67.3168 1407.70 1436.69 38.50
17325 67.3205 1407.60 1436.61 38.60
17326 67.3243 1333.10 1436.53 37.70
17327 67.3280 1287.70 1436.45 37.00
17328 67.3318 1410.00 1436.37 38.70
17329 67.3356 1337.10 1436.30 37.80
17330 67.3393 1344.20 1436.22 37.60
17331 67.3431 1378.10 1436.14 38.20
17332 67.3468 1436.20 1436.06 38.80
17333 67.3506 1303.40 1435.98 37.00
17334 67.3543 1380.70 1435.90 37.80
17335 67.3581 1380.90 1435.83 38.90
17336 67.3618 1344.70 1435.75 37.90
17337 67.3656 1322.20 1435.67 37.90
17338 67.3693 1397.00 1435.59 38.70
17339 67.3731 1402.60 1435.51 38.00
17340 67.3768 1421.40 1435.43 39.00
17341 67.3806 1402.10 1435.35 38.40
17342 67.3844 1359.00 1435.27 38.00
17343 67.3881 1362.70 1435.20 38.20
17344 67.3919 1352.90 1435.12 37.90
17345 67.3956 1373.90 1435.04 38.50
17346 67.3994 1458.60 1434.96 39.60
17347 67.4031 1308.00 1434.88 37.40
17348 67.4069 1460.00 1434.80 39.70
17349 67.4106 1334.30 1434.72 37.50
17350 67.4144 1363.10 1434.64 38.10
17351 67.4181 1327.70 1434.56 37.80
17352 67.4219 1377.20 1434.48 38.40
17353 67.4257 1363.10 1434.41 37.60
17354 67.4294 1398.30 1434.33 38.70
17355 67.4332 1411.30 1434.25 38.70
17356 67.4369 1382.70 1434.17 38.40
17357 67.4407 1387.80 1434.09 38.30
17358 67.4444 1394.90 1434.01 39.00
17359 67.4482 1346.50 1433.93 37.80
17360 67.4519 1332.40 1433.85 37.30
17361 67.4557 1397.70 1433.77 38.40
17362 67.4594 1431.40 1433.69 39.90
17363 67.4632 1331.60 1433.61 37.80
17364 67.4669 1394.90 1433.53 38.60
17365 67.4707 1354.00 1433.45 37.50
17366 67.4745 1402.50 1433.37 38.70
17367 67.4782 1383.30 1433.29 38.30
17368 67.4820 1415.30 1433.21 38.80
17369 67.4857 1395.00 1433.13 39.10
17370 67.4895 1345.40 1433.05 38.00
17371 67.4932 1426.30 1432.97 39.00
17372 67.4970 1475.80 1432.89 39.90
17373 67.5007 1397.20 1432.81 38.60
17374 67.5045 1399.30 1432.73 38.70
17375 67.5082 1384.70 1432.65 38.80
17376 67.5120 1341.40 1432.57 37.80
17377 67.5157 1382.50 1432.49 38.70
17378 67.5195 1407.10 1432.41 38.60
17379 67.5232 1390.80 1432.33 38.60
17380 67.5270 1364.80 1432.25 38.50
17381 67.5308 1356.20 1432.17 38.30
17382 67.5345 1378.00 1432.09 38.10
17383 67.5383 1365.30 1432.01 38.00
17384 67.5420 1374.30 1431.93 38.40
17385 67.5458 1423.90 1431.85 39.40
17386 67.5495 1381.60 1431.77 38.10
17387 67.5533 1368.80 1431.68 37.80
17388 67.5570 1444.90 1431.60 40.20
17389 67.5608 1401.60 1431.52 38.90
17390 67.5646 1354.30 1431.44 38.00
17391 67.5683 1307.10 1431.36 36.60
17392 67.5721 1385.10 1431.28 38.40
17393 67.5758 1430.10 1431.20 39.40
17394 67.5796 1476.20 1431.12 40.00
17395 67.5833 1340.40 1431.04 37.70
17396 67.5871 1433.80 1430.96 39.40
17397 67.5908 1431.60 1430.88 39.20
17398 67.5946 1380.00 1430.79 38.70
17399 67.5984 1366.20 1430.71 38.10
17400 67.6021 1414.70 1430.63 39.00
17401 67.6059 1429.30 1430.55 39.40
17402 67.6096 1360.80 1430.47 38.30
17403 67.6134 1299.70 1430.39 37.50
17404 67.6171 1389.10 1430.31 38.40
17405 67.6209 1374.80 1430.23 38.70
17406 67.6246 1424.30 1430.14 38.80
17407 67.6284 1469.20 1430.06 39.70
17408 67.6321 1383.40 1429.98 38.40
17409 67.6359 1437.40 1429.90 39.50
17410 67.6397 1398.10 1429.82 38.50
17411 67.6434 1292.30 1429.74 37.30
17412 67.6472 1391.20 1429.65 38.40
17413 67.6509 1331.40 1429.57 37.80
17414 67.6547 1395.40 1429.49 37.90
17415 67.6584 1489.90 1429.41 40.90
17416 67.6622 1426.70 1429.33 39.40
17417 67.6659 1363.50 1429.24 38.00
17418 67.6697 1373.00 1429.16 38.00
17419 67.6734 1414.00 1429.08 38.90
17420 67.6772 1357.30 1429.00 38.30
17421 67.6810 1280.50 1428.92 37.30
17422 67.6847 1413.90 1428.84 38.60
17423 67.6885 1448.30 1428.75 39.90
17424 67.6922 1397.30 1428.67 38.30
17425 67.6960 1336.10 1428.59 37.70
17426 67.6997 1420.50 1428.51 39.30
17427 67.7035 1276.00 1428.42 36.90
17428 67.7072 1365.40 1428.34 38.40
17429 67.7110 1437.00 1428.26 39.30
17430 67.7148 1392.50 1428.18 38.60
17431 67.7185 1418.10 1428.10 39.00
17432 67.7223 1351.00 1428.01 38.20
17433 67.7260 1329.60 1427.93 37.80
17434 67.7298 1416.70 1427.85 38.80
17435 67.7335 1349.10 1427.77 38.00
17436 67.7373 1446.10 1427.68 39.80
17437 67.7410 1349.80 1427.60 38.20
17438 67.7448 1334.70 1427.52 38.10
17439 67.7486 1371.50 1427.44 38.20
17440 67.7523 1422.60 1427.35 39.10
17441 67.7561 1418.50 1427.27 38.40
17442 67.7598 1386.60 1427.19 39.50
17443 67.7636 1433.30 1427.10 39.30
17444 67.7673 1494.40 1427.02 40.00
17445 67.7711 1435.40 1426.94 39.60
17446 67.7748 1377.90 1426.86 38.40
17447 67.7786 1345.10 1426.77 38.30
17448 67.7824 1405.50 1426.69 39.20
17449 67.7861 1410.70 1426.61 39.10
17450 67.7899 1319.10 1426.52 37.60
17451 67.7936 1378.00 1426.44 38.30
17452 67.7974 1318.30 1426.36 38.00
17453 67.8011 1393.60 1426.27 38.60
17454 67.8049 1429.30 1426.19 39.40
17455 67.8086 1394.50 1426.11 38.90
17456 67.8124 1394.70 1426.02 38.60
17457 67.8161 1374.00 1425.94 38.50
17458 67.8199 1450.60 1425.86 39.90
17459 67.8237 1408.00 1425.77 39.10
17460 67.8274 1414.30 1425.69 39.10
17461 67.8312 1370.10 1425.61 38.30
17462 67.8349 1359.70 1425.52 38.20
17463 67.8387 1375.00 1425.44 38.60
17464 67.8425 1395.80 1425.36 38.90
17465 67.8462 1445.40 1425.27 39.90
17466 67.8500 1422.10 1425.19 39.40
17467 67.8537 1349.50 1425.11 37.60
17468 67.8575 1354.80 1425.02 38.60
17469 67.8612 1359.30 1424.94 39.00
17470 67.8650 1298.10 1424.86 38.10
17471 67.8687 1369.80 1424.77 38.20
17472 67.8725 1386.00 1424.69 38.60
17473 67.8763 1379.20 1424.60 38.80
17474 67.8800 1427.50 1424.52 39.20
17475 67.8838 1474.70 1424.44 40.10
17476 67.8875 1373.40 1424.35 38.50
17477 67.8913 1380.60 1424.27 39.00
17478 67.8950 1388.10 1424.19 39.40
17479 67.8988 1373.20 1424.10 38.80
17480 67.9025 1423.50 1424.02 39.40
17481 67.9063 1363.90 1423.93 39.00
17482 67.9101 1399.50 1423.85 39.00
17483 67.9138 1411.90 1423.77 39.30
17484 67.9176 1448.20 1423.68 40.00
17485 67.9213 1384.20 1423.60 38.70
17486 67.9251 1331.30 1423.51 38.50
17487 67.9288 1363.80 1423.43 38.50
17488 67.9326 1361.90 1423.34 38.40
17489 67.9363 1435.00 1423.26 40.10
17490 67.9401 1391.90 1423.18 38.90
17491 67.9439 1373.50 1423.09 38.50
17492 67.9476 1335.90 1423.01 38.50
17493 67.9514 1394.50 1422.92 38.90
17494 67.9551 1380.30 1422.84 37.80
17495 67.9589 1456.60 1422.75 40.90
17496 67.9626 1357.10 1422.67 39.00
17497 67.9664 1341.80 1422.59 38.00
17498 67.9702 1422.50 1422.50 38.90
17499 67.9739 1406.10 1422.42 39.10
17500 67.9777 1404.90 1422.33 39.20
17501 67.9814 1315.70 1422.25 37.90
17502 67.9852 1421.90 1422.16 39.50
17503 67.9889 1397.50 1422.08 39.40
17504 67.9927 1405.80 1421.99 39.10
17505 67.9965 1386.00 1421.91 39.20
17506 68.0002 1401.20 1421.82 39.10
17507 68.0040 1421.90 1421.74 39.80
17508 68.0077 1431.70 1421.66 39.80
17509 68.0115 1368.90 1421.57 39.20
17510 68.0152 1388.20 1421.49 39.20
17511 68.0190 1420.40 1421.40 39.50
17512 68.0227 1419.30 1421.32 39.60
17513 68.0265 1374.50 1421.23 39.10
17514 68.0303 1382.40 1421.15 39.00
17515 68.0340 1429.10 1421.06 39.70
17516 68.0378 1394.70 1420.98 39.10
17517 68.0415 1413.30 1420.89 39.50
17518 68.0453 1318.40 1420.81 37.80
17519 68.0490 1371.20 1420.72 39.00
17520 68.0528 1448.70 1420.64 39.30
17521 68.0566 1354.70 1420.55 38.10
17522 68.0603 1425.70 1420.47 40.20
17523 68.0641 1337.70 1420.38 38.40
17524 68.0678 1369.20 1420.30 38.60
17525 68.0716 1394.40 1420.21 38.90
17526 68.0753 1422.00 1420.13 39.80
17527 68.0791 1416.80 1420.04 39.30
17528 68.0828 1443.90 1419.96 40.10
17529 68.0866 1442.40 1419.87 40.20
17530 68.0904 1434.90 1419.79 40.00
17531 68.0941 1383.20 1419.70 38.80
17532 68.0979 1356.10 1419.61 38.40
17533 68.1016 1407.80 1419.53 39.20
17534 68.1054 1353.40 1419.44 38.60
17535 68.1092 1323.40 1419.36 38.40
17536 68.1129 1420.80 1419.27 39.80
17537 68.1167 1465.20 1419.19 40.30
17538 68.1204 1372.90 1419.10 39.10
17539 68.1242 1376.30 1419.02 38.90
17540 68.1279 1432.90 1418.93 39.40
17541 68.1317 1332.60 1418.85 38.20
17542 68.1354 1351.10 1418.76 38.60
17543 68.1392 1352.60 1418.67 38.60
17544 68.1430 1336.40 1418.59 38.00
17545 68.1467 1482.00 1418.50 40.50
17546 68.1505 1404.70 1418.42 39.40
17547 68.1542 1415.50 1418.33 39.30
17548 68.1580 1426.10 1418.25 39.80
17549 68.1617 1370.00 1418.16 39.40
17550 68.1655 1420.20 1418.08 39.50
17551 68.1693 1397.80 1417.99 38.60
17552 68.1730 1429.50 1417.90 39.00
17553 68.1768 1381.60 1417.82 39.30
17554 68.1805 1426.50 1417.73 39.50
17555 68.1843 1355.40 1417.65 38.80
17556 68.1880 1415.70 1417.56 38.90
17557 68.1918 1468.40 1417.48 39.80
17558 68.1956 1449.30 1417.39 39.80
17559 68.1993 1363.90 1417.30 38.00
17560 68.2031 1413.70 1417.22 39.00
17561 68.2068 1353.20 1417.13 38.50
17562 68.2106 1397.80 1417.05 38.90
17563 68.2143 1411.30 1416.96 39.20
17564 68.2181 1350.20 1416.87 38.40
17565 68.2219 1371.00 1416.79 38.80
17566 68.2256 1353.60 1416.70 38.40
17567 68.2294 1433.70 1416.62 39.20
17568 68.2331 1364.70 1416.53 38.40
17569 68.2369 1424.90 1416.44 39.70
17570 68.2406 1377.80 1416.36 38.90
17571 68.2444 1374.50 1416.27 38.80
17572 68.2482 1433.90 1416.19 39.80
17573 68.2519 1420.00 1416.10 39.10
17574 68.2557 1427.90 1416.01 39.00
17575 68.2594 1343.30 1415.93 38.70
17576 68.2632 1449.30 1415.84 39.70
17577 68.2669 1404.80 1415.76 38.90
17578 68.2707 1406.50 1415.67 38.90
17579 68.2745 1302.40 1415.58 37.60
17580 68.2782 1335.60 1415.50 38.60
17581 68.2820 1393.10 1415.41 38.70
17582 68.2857 1302.70 1415.32 38.10
17583 68.2895 1336.50 1415.24 38.10
17584 68.2933 1380.60 1415.15 38.80
17585 68.2970 1387.40 1415.07 39.20
17586 68.3008 1425.70 1414.98 39.30
17587 68.3045 1382.00 1414.89 38.20
17588 68.3083 1309.30 1414.81 37.80
17589 68.3120 1336.20 1414.72 38.40
17590 68.3158 1355.50 1414.63 38.50
17591 68.3196 1420.10 1414.55 39.40
17592 68.3233 1373.30 1414.46 38.50
17593 68.3271 1415.70 1414.38 39.60
17594 68.3308 1379.20 1414.29 38.50
17595 68.3346 1418.50 1414.20 39.50
17596 68.3383 1421.50 1414.12 39.50
17597 68.3421 1334.50 1414.03 37.90
17598 68.3459 1366.10 1413.94 38.70
17599 68.3496 1372.30 1413.86 38.40
17600 68.3534 1388.90 1413.77 38.80
17601 68.3571 1385.60 1413.68 37.50
17602 68.3609 1333.10 1413.60 38.80
17603 68.3646 1317.70 1413.51 38.30
17604 68.3684 1430.40 1413.43 39.40
17605 68.3721 1357.10 1413.34 38.10
17606 68.3759 1382.50 1413.25 38.50
17607 68.3797 1366.80 1413.17 38.00
17608 68.3834 1367.00 1413.08 38.20
17609 68.3872 1379.20 1412.99 39.10
17610 68.3910 1394.00 1412.91 38.80
17611 68.3947 1406.70 1412.82 39.00
17612 68.3985 1375.60 1412.73 37.90
17613 68.4022 1378.10 1412.65 38.90
17614 68.4060 1407.20 1412.56 39.40
17615 68.4097 1370.00 1412.47 38.50
17616 68.4135 1399.20 1412.39 39.20
17617 68.4173 1382.10 1412.30 39.00
17618 68.4210 1368.50 1412.21 38.40
17619 68.4248 1398.90 1412.13 39.40
17620 68.4285 1395.90 1412.04 39.20
17621 68.4323 1342.00 1411.95 38.10
17622 68.4360 1344.70 1411.87 38.00
17623 68.4398 1411.30 1411.78 39.40
17624 68.4436 1388.20 1411.69 39.20
17625 68.4473 1455.50 1411.61 39.90
17626 68.4511 1372.80 1411.52 38.90
17627 68.4548 1348.50 1411.43 37.90
17628 68.4586 1381.50 1411.35 38.70
17629 68.4623 1432.00 1411.26 40.00
17630 68.4661 1358.60 1411.17 38.60
17631 68.4699 1320.60 1411.09 37.70
17632 68.4736 1330.80 1411.00 37.80
17633 68.4774 1346.40 1410.92 37.90
17634 68.4811 1433.70 1410.83 39.60
17635 68.4849 1387.60 1410.74 39.60
17636 68.4886 1394.50 1410.66 39.20
17637 68.4924 1381.00 1410.57 39.00
17638 68.4962 1378.90 1410.48 38.90
17639 68.4999 1395.70 1410.40 39.20
17640 68.5037 1428.00 1410.31 39.80
17641 68.5074 1386.90 1410.22 39.20
17642 68.5112 1403.20 1410.13 39.50
17643 68.5150 1374.40 1410.05 38.70
17644 68.5187 1405.10 1409.96 39.10
17645 68.5225 1347.00 1409.88 38.90
17646 68.5262 1365.60 1409.79 38.90
17647 68.5300 1409.00 1409.70 39.20
17648 68.5337 1502.30 1409.61 40.40
17649 68.5375 1449.10 1409.53 40.10
17650 68.5413 1417.90 1409.44 39.60
17651 68.5450 1341.80 1409.35 38.60
17652 68.5488 1440.90 1409.27 39.90
17653 68.5525 1355.70 1409.18 39.10
17654 68.5563 1342.80 1409.09 37.60
17655 68.5601 1415.40 1409.01 40.50
17656 68.5638 1437.50 1408.92 40.10
17657 68.5676 1353.70 1408.83 38.40
17658 68.5713 1407.80 1408.75 39.60
17659 68.5751 1333.80 1408.66 38.30
17660 68.5788 1418.40 1408.57 39.60
17661 68.5826 1418.10 1408.49 39.60
17662 68.5864 1443.00 1408.40 39.70
17663 68.5901 1370.40 1408.31 38.90
17664 68.5939 1439.90 1408.23 39.80
17665 68.5976 1332.60 1408.14 38.40
17666 68.6014 1394.20 1408.05 39.00
17667 68.6051 1307.30 1407.97 38.10
17668 68.6089 1415.30 1407.88 39.50
17669 68.6127 1433.90 1407.79 39.60
17670 68.6164 1336.30 1407.71 38.60
17671 68.6202 1465.40 1407.62 40.40
17672 68.6239 1361.50 1407.53 38.50
17673 68.6277 1423.70 1407.45 39.60
17674 68.6315 1385.60 1407.36 38.90
17675 68.6352 1411.10 1407.27 39.10
17676 68.6390 1379.40 1407.19 38.90
17677 68.6427 1386.30 1407.10 39.70
17678 68.6465 1383.60 1407.01 38.70
17679 68.6503 1371.20 1406.93 38.50
17680 68.6540 1357.40 1406.84 38.30
17681 68.6578 1349.60 1406.75 37.70
17682 68.6615 1494.00 1406.67 41.10
17683 68.6653 1381.40 1406.58 38.20
17684 68.6690 1389.30 1406.49 38.70
17685 68.6728 1345.90 1406.41 37.80
17686 68.6766 1385.50 1406.32 38.40
17687 68.6803 1405.70 1406.23 38.50
17688 68.6841 1347.80 1406.15 38.50
17689 68.6878 1369.90 1406.29 38.80
17690 68.6916 1370.30 1406.21 38.70
17691 68.6954 1382.40 1406.13 39.40
17692 68.6991 1416.00 1406.05 39.50
17693 68.7029 1380.70 1405.97 38.60
17694 68.7066 1374.10 1405.90 38.70
17695 68.7104 1453.60 1405.82 40.00
17696 68.7141 1440.90 1405.75 39.30
17697 68.7179 1347.20 1405.67 38.60
17698 68.7217 1354.90 1405.60 38.30
17699 68.7254 1339.60 1405.52 38.30
17700 68.7292 1353.50 1405.45 38.70
17701 68.7329 1397.60 1405.38 38.90
17702 68.7367 1355.20 1405.31 38.30
17703 68.7405 1331.20 1405.24 37.70
17704 68.7442 1292.40 1405.17 37.70
17705 68.7480 1400.00 1405.10 39.20
17706 68.7517 1402.30 1405.03 39.00
17707 68.7555 1353.20 1404.97 37.60
17708 68.7592 1345.60 1404.90 38.30
17709 68.7630 1346.60 1404.84 38.90
17710 68.7668 1356.80 1404.78 38.40
17711 68.7705 1408.00 1404.73 38.70
17712 68.7743 1421.00 1404.67 39.00
17713 68.7780 1403.60 1404.62 39.00
17714 68.7818 1405.00 1404.57 39.40
17715 68.7856 1356.40 1404.52 38.40
17716 68.7893 1339.50 1404.48 37.30
17717 68.7931 1362.70 1404.44 38.60
17718 68.7968 1424.50 1404.41 39.10
17719 68.8006 1396.00 1404.38 39.00
17720 68.8044 1410.60 1404.36 39.20
17721 68.8081 1381.70 1404.34 39.00
17722 68.8119 1366.50 1404.34 37.50
17723 68.8156 1424.20 1404.34 39.50
17724 68.8194 1338.00 1404.35 38.30
17725 68.8231 1387.50 1404.38 38.60
17726 68.8269 1421.80 1404.42 39.50
17727 68.8307 1358.70 1404.48 38.90
17728 68.8344 1429.60 1404.56 39.40
17729 68.8382 1392.50 1404.66 38.20
17730 68.8419 1391.40 1404.79 38.60
17731 68.8457 1403.70 1404.96 39.30
17732 68.8495 1393.20 1405.18 38.90
17733 68.8532 1366.60 1405.45 38.00
17734 68.8570 1400.20 1405.80 38.40
17735 68.8607 1446.40 1406.24 40.50
17736 68.8645 1359.40 1406.81 38.50
17737 68.8682 1362.70 1407.57 37.80
17738 68.8720 1400.20 1408.63 39.00
17739 68.8758 1433.00 1410.20 39.20
17740 68.8795 1410.30 1412.65 38.90
17741 68.8833 1434.10 1416.53 39.60
17742 68.8870 1378.00 1422.64 38.70
17743 68.8908 1401.90 1431.77 39.50
17744 68.8946 1460.00 1444.61 39.90
17745 68.8983 1390.30 1461.04 39.10
17746 68.9021 1364.70 1479.74 38.20
17747 68.9058 1445.40 1497.31 39.90
17748 68.9096 1443.60 1507.96 39.60
17749 68.9134 1421.10 1506.45 39.50
17750 68.9171 1473.70 1493.58 39.90
17751 68.9209 1387.70 1475.14 39.60
17752 68.9246 1421.60 1456.56 39.90
17753 68.9284 1331.50 1440.69 38.20
17754 68.9322 1374.00 1428.51 38.70
17755 68.9359 1401.20 1419.94 39.30
17756 68.9397 1389.30 1414.22 38.90
17757 68.9434 1398.90 1410.54 39.30
17758 68.9472 1362.50 1408.15 38.40
17759 68.9509 1427.40 1406.54 39.90
17760 68.9547 1401.10 1405.39 38.50
17761 68.9585 1414.30 1404.51 38.80
17762 68.9622 1401.20 1403.80 39.90
17763 68.9660 1366.50 1403.21 37.90
17764 68.9697 1356.80 1402.71 38.70
17765 68.9735 1361.00 1402.28 38.50
17766 68.9773 1396.80 1401.90 38.70
17767 68.9810 1414.80 1401.57 38.50
17768 68.9848 1313.60 1401.27 38.00
17769 68.9885 1370.10 1401.00 38.80
17770 68.9923 1430.30 1400.75 40.00
17771 68.9960 1480.50 1400.53 40.30
17772 68.9998 1366.90 1400.32 38.60
17773 69.0036 1375.10 1400.12 38.80
17774 69.0073 1294.30 1399.94 38.10
17775 69.0111 1402.80 1399.77 39.20
17776 69.0148 1405.30 1399.61 39.40
17777 69.0186 1396.40 1399.45 39.50
17778 69.0224 1359.80 1399.30 38.40
17779 69.0261 1356.60 1399.16 38.90
17780 69.0299 1427.20 1399.03 39.70
17781 69.0336 1367.60 1398.89 39.00
17782 69.0374 1369.10 1398.77 38.50
17783 69.0412 1318.80 1398.64 38.30
17784 69.0449 1396.30 1398.52 39.50
17785 69.0487 1386.80 1398.40 39.10
17786 69.0524 1372.50 1398.29 38.80
17787 69.0562 1338.40 1398.17 37.70
17788 69.0600 1387.60 1398.06 39.60
17789 69.0637 1387.50 1397.95 39.20
17790 69.0675 1324.00 1397.84 38.30
17791 69.0712 1321.90 1397.74 37.90
17792 69.0750 1395.00 1397.63 38.90
17793 69.0788 1356.60 1397.53 38.50
17794 69.0825 1392.60 1397.43 39.10
17795 69.0863 1402.80 1397.33 39.20
17796 69.0900 1361.80 1397.23 38.40
17797 69.0938 1312.70 1397.13 37.90
17798 69.0975 1344.40 1397.03 38.70
17799 69.1013 1395.60 1396.93 39.10
17800 69.1051 1326.00 1396.84 38.00
17801 69.1088 1410.40 1396.74 39.60
17802 69.1126 1413.40 1396.65 39.10
17803 69.1163 1399.90 1396.55 39.00
17804 69.1201 1409.10 1396.46 39.50
17805 69.1239 1421.80 1396.36 39.80
17806 69.1276 1391.80 1396.27 38.50
17807 69.1314 1317.80 1396.18 37.50
17808 69.1351 1323.50 1395.86 37.30
17809 69.1389 1389.70 1395.78 38.60
17810 69.1426 1395.30 1395.69 38.40
17811 69.1464 1390.30 1395.61 38.40
17812 69.1502 1323.20 1395.53 37.50
17813 69.1539 1401.30 1395.44 38.40
17814 69.1577 1469.10 1395.36 39.50
17815 69.1615 1387.40 1395.27 38.70
17816 69.1652 1425.80 1395.19 39.60
17817 69.1690 1362.70 1395.11 37.80
17818 69.1727 1383.70 1395.02 38.00
17819 69.1765 1351.10 1394.94 38.10
17820 69.1802 1396.90 1394.85 38.70
17821 69.1840 1402.40 1394.77 39.10
17822 69.1878 1429.40 1394.69 39.30
17823 69.1915 1372.60 1394.60 38.40
17824 69.1953 1423.50 1394.52 38.90
17825 69.1990 1360.00 1394.44 38.50
17826 69.2028 1433.60 1394.35 39.50
17827 69.2066 1359.10 1394.27 38.20
17828 69.2103 1437.50 1394.18 39.30
17829 69.2141 1298.50 1394.10 37.80
17830 69.2178 1446.20 1394.02 39.50
17831 69.2216 1329.30 1393.93 37.90
17832 69.2254 1385.70 1393.85 38.90
17833 69.2291 1428.50 1393.77 39.60
17834 69.2329 1362.30 1393.68 38.00
17835 69.2366 1412.80 1393.60 38.90
17836 69.2404 1418.50 1393.52 39.40
17837 69.2442 1437.40 1393.43 39.20
17838 69.2479 1418.20 1393.35 39.00
17839 69.2517 1340.00 1393.27 37.90
17840 69.2554 1419.30 1393.18 38.80
17841 69.2592 1336.30 1393.10 37.30
17842 69.2629 1387.00 1393.02 39.40
17843 69.2667 1392.10 1392.94 38.40
17844 69.2705 1377.00 1392.85 37.90
17845 69.2742 1357.30 1392.77 38.20
17846 69.2780 1330.80 1392.69 38.00
17847 69.2818 1430.60 1392.60 39.40
17848 69.2855 1412.10 1392.52 39.30
17849 69.2893 1419.30 1392.44 39.40
17850 69.2930 1383.90 1392.36 38.40
17851 69.2968 1422.70 1392.27 39.40
17852 69.3005 1390.20 1392.19 37.90
17853 69.3043 1341.20 1392.11 37.80
17854 69.3081 1381.20 1392.02 38.60
17855 69.3118 1348.10 1391.94 37.90
17856 69.3156 1351.70 1391.86 38.40
17857 69.3193 1317.30 1391.78 37.80
17858 69.3231 1378.60 1391.70 38.60
17859 69.3269 1368.90 1391.61 39.00
17860 69.3306 1440.10 1391.53 39.40
17861 69.3344 1398.20 1391.45 38.70
17862 69.3381 1330.60 1391.37 38.10
17863 69.3419 1382.50 1391.28 38.50
17864 69.3457 1349.90 1391.20 38.30
17865 69.3494 1380.80 1391.12 38.90
17866 69.3532 1356.60 1391.04 38.10
17867 69.3569 1389.20 1390.96 38.30
17868 69.3607 1383.10 1390.87 39.30
17869 69.3644 1388.10 1390.79 39.00
17870 69.3682 1406.80 1390.71 39.30
17871 69.3720 1349.90 1390.63 38.20
17872 69.3757 1325.20 1390.55 37.80
17873 69.3795 1387.00 1390.47 38.90
17874 69.3832 1325.70 1390.38 37.60
17875 69.3870 1409.20 1390.30 39.00
17876 69.3908 1384.20 1390.22 38.80
17877 69.3945 1370.70 1390.14 38.30
17878 69.3983 1326.30 1390.06 38.00
17879 69.4020 1369.90 1389.98 38.60
17880 69.4058 1394.80 1389.89 39.10
17881 69.4096 1390.40 1389.81 39.10
17882 69.4133 1299.10 1389.73 37.50
17883 69.4171 1432.40 1389.65 39.60
17884 69.4208 1399.40 1389.57 38.90
17885 69.4246 1399.20 1389.49 39.40
17886 69.4284 1441.90 1389.41 39.70
17887 69.4321 1304.80 1389.33 37.80
17888 69.4359 1400.10 1389.25 38.40
17889 69.4396 1378.50 1389.17 38.90
17890 69.4434 1346.00 1389.08 37.90
17891 69.4472 1404.40 1389.00 38.90
17892 69.4509 1336.40 1388.92 37.40
17893 69.4547 1403.00 1388.84 39.10
17894 69.4584 1405.20 1388.76 38.60
17895 69.4622 1365.10 1388.68 39.60
17896 69.4660 1394.50 1388.60 39.20
17897 69.4697 1345.80 1388.52 37.80
17898 69.4735 1328.80 1388.44 37.10
17899 69.4772 1433.40 1388.36 39.60
17900 69.4810 1398.50 1388.28 39.00
17901 69.4847 1427.00 1388.20 39.70
17902 69.4885 1440.60 1388.12 39.80
17903 69.4923 1444.20 1388.04 39.70
17904 69.4960 1344.10 1387.96 38.00
17905 69.4998 1397.70 1387.88 39.00
17906 69.5035 1373.00 1387.80 38.60
17907 69.5073 1404.20 1387.72 39.00
17908 69.5111 1439.00 1387.64 40.10
17909 69.5148 1367.80 1387.56 38.40
17910 69.5186 1382.50 1387.48 39.30
17911 69.5223 1385.00 1387.40 38.70
17912 69.5261 1355.20 1387.32 38.70
17913 69.5299 1357.10 1387.24 38.40
17914 69.5336 1390.90 1387.16 38.60
17915 69.5374 1413.80 1387.08 39.30
17916 69.5411 1374.40 1387.00 38.70
17917 69.5449 1417.10 1386.92 39.40
17918 69.5487 1410.10 1386.84 39.40
17919 69.5524 1409.60 1386.76 38.80
17920 69.5562 1372.60 1386.69 38.30
17921 69.5599 1405.40 1386.61 39.20
17922 69.5637 1420.00 1386.53 39.30
17923 69.5675 1309.40 1386.45 37.80
17924 69.5712 1375.20 1386.37 38.50
17925 69.5750 1416.70 1386.29 39.80
17926 69.5787 1446.90 1386.21 39.80
17927 69.5825 1298.80 1386.13 37.50
17928 69.5863 1359.40 1386.05 39.00
17929 69.5900 1402.10 1385.98 39.20
17930 69.5938 1369.90 1385.90 38.30
17931 69.5975 1338.00 1385.82 38.40
17932 69.6013 1337.90 1385.74 38.20
17933 69.6051 1417.70 1385.66 40.00
17934 69.6088 1337.40 1385.58 38.40
17935 69.6126 1382.20 1385.51 38.40
17936 69.6163 1349.40 1385.43 37.40
17937 69.6201 1374.90 1385.35 38.10
17938 69.6238 1412.20 1385.27 39.10
17939 69.6276 1346.30 1385.19 37.90
17940 69.6314 1434.50 1385.12 39.00
17941 69.6351 1378.00 1385.04 38.30
17942 69.6389 1428.00 1384.96 39.40
17943 69.6426 1362.80 1384.88 38.10
17944 69.6464 1431.00 1384.80 39.00
17945 69.6502 1374.00 1384.73 38.40
17946 69.6539 1368.20 1384.65 38.10
17947 69.6577 1398.60 1384.57 38.10
17948 69.6615 1373.50 1384.49 39.30
17949 69.6652 1425.80 1384.42 39.20
17950 69.6690 1389.30 1384.34 38.60
17951 69.6727 1369.70 1384.26 37.80
17952 69.6765 1364.10 1384.19 38.20
17953 69.6802 1362.10 1384.11 38.20
17954 69.6840 1406.70 1384.03 38.70
17955 69.6878 1405.80 1383.95 39.10
17956 69.6915 1397.80 1383.88 38.90
17957 69.6953 1379.60 1383.80 38.60
17958 69.6990 1378.80 1383.72 38.60
17959 69.7028 1420.20 1383.65 38.90
17960 69.7066 1404.00 1383.57 39.00
17961 69.7103 1368.60 1383.49 38.10
17962 69.7141 1365.70 1383.42 38.10
17963 69.7178 1409.40 1383.34 39.30
17964 69.7216 1421.70 1383.27 38.60
17965 69.7254 1385.30 1383.19 38.70
17966 69.7291 1437.30 1383.11 39.10
17967 69.7329 1340.60 1383.04 37.70
17968 69.7366 1400.60 1382.96 38.60
17969 69.7404 1433.80 1382.89 39.00
17970 69.7441 1378.80 1382.81 38.20
17971 69.7479 1384.40 1382.73 38.50
17972 69.7517 1427.10 1382.66 39.00
17973 69.7554 1403.60 1382.58 38.40
17974 69.7592 1371.00 1382.51 38.10
17975 69.7629 1430.80 1382.43 40.00
17976 69.7667 1355.70 1382.36 38.00
17977 69.7705 1365.50 1382.28 37.90
17978 69.7742 1428.30 1382.21 39.10
17979 69.7780 1419.40 1382.13 39.30
17980 69.7818 1451.10 1382.05 39.30
17981 69.7855 1438.30 1381.98 39.50
17982 69.7893 1443.20 1381.90 39.50
17983 69.7930 1413.60 1381.83 39.00
17984 69.7968 1451.30 1381.76 39.60
17985 69.8005 1485.30 1381.68 40.10
17986 69.8043 1379.40 1381.61 38.20
17987 69.8081 1438.80 1381.53 39.30
17988 69.8118 1440.60 1381.46 39.30
17989 69.8156 1347.70 1381.38 38.10
17990 69.8193 1353.90 1381.31 38.30
17991 69.8231 1402.90 1381.23 39.00
17992 69.8269 1348.80 1381.16 38.00
17993 69.8306 1398.20 1381.09 39.00
17994 69.8344 1382.00 1381.01 38.70
17995 69.8381 1438.60 1380.94 39.40
17996 69.8419 1434.10 1380.86 39.40
17997 69.8457 1437.10 1380.79 39.00
17998 69.8494 1422.60 1380.72 39.00
17999 69.8532 1444.10 1380.64 39.50
18000 69.8569 1461.60 1380.57 38.80
18001 69.8607 1341.10 1380.49 37.90
18002 69.8644 1545.20 1380.42 41.10
18003 69.8682 1489.80 1380.35 40.10
18004 69.8720 1412.10 1380.27 39.20
18005 69.8757 1392.10 1380.20 38.70
18006 69.8795 1470.00 1380.13 39.70
18007 69.8832 1394.60 1380.06 38.70
18008 69.8870 1317.90 1379.98 37.60
18009 69.8908 1399.00 1379.91 39.30
18010 69.8945 1371.50 1379.84 39.00
18011 69.8983 1384.20 1379.76 39.20
18012 69.9020 1432.80 1379.69 39.70
18013 69.9058 1412.10 1379.62 39.10
18014 69.9096 1412.90 1379.55 39.30
18015 69.9133 1434.20 1379.47 39.60
18016 69.9171 1448.40 1379.40 40.00
18017 69.9208 1467.90 1379.33 40.30
18018 69.9246 1377.40 1379.26 38.70
18019 69.9284 1364.80 1379.19 38.70
18020 69.9321 1385.00 1379.11 39.10
18021 69.9359 1375.90 1379.04 38.40
18022 69.9396 1420.30 1378.97 39.50
18023 69.9434 1439.90 1378.90 39.40
18024 69.9472 1423.50 1378.83 39.70
18025 69.9509 1482.10 1378.76 40.50
18026 69.9547 1415.80 1378.68 38.70
18027 69.9584 1391.30 1378.61 38.50
18028 69.9622 1460.90 1378.54 40.70
18029 69.9660 1390.10 1378.47 39.10
18030 69.9697 1413.90 1378.40 38.90
18031 69.9735 1430.20 1378.33 39.10
18032 69.9772 1451.90 1378.26 39.50
18033 69.9810 1471.40 1378.19 40.10
18034 69.9847 1427.40 1378.12 39.40
18035 69.9885 1496.90 1378.04 40.40
18036 69.9923 1488.60 1377.97 40.00
18037 69.9960 1492.00 1377.90 40.40
18038 69.9998 1426.70 1377.83 39.60
18039 70.0035 1468.30 1377.76 39.90
18040 70.0073 1450.20 1377.69 39.50
18041 70.0111 1408.60 1377.62 39.40
18042 70.0148 1476.70 1377.55 40.50
18043 70.0186 1510.40 1377.48 40.70
18044 70.0223 1435.30 1377.41 39.50
18045 70.0261 1459.70 1377.34 40.20
18046 70.0298 1542.50 1377.27 41.40
18047 70.0336 1530.20 1422.09 40.80
18048 70.0374 1487.00 1423.54 40.50
18049 70.0411 1464.90 1425.07 40.30
18050 70.0449 1487.60 1426.68 40.50
18051 70.0487 1543.40 1428.38 41.20
18052 70.0524 1536.00 1430.18 40.90
18053 70.0562 1509.70 1432.07 40.30
18054 70.0599 1477.50 1434.09 40.10
18055 70.0637 1568.50 1436.22 42.40
18056 70.0675 1491.60 1438.48 40.40
18057 70.0712 1497.50 1440.88 40.40
18058 70.0750 1560.00 1443.43 41.10
18059 70.0787 1542.90 1446.13 41.10
18060 70.0825 1532.80 1449.02 41.10
18061 70.0862 1509.40 1452.11 41.50
18062 70.0900 1483.50 1455.39 40.00
18063 70.0938 1543.80 1458.91 40.50
18064 70.0975 1563.20 1462.68 41.40
18065 70.1013 1561.70 1466.71 40.70
18066 70.1050 1579.70 1471.04 40.80
18067 70.1088 1534.00 1475.70 40.60
18068 70.1126 1604.60 1480.72 41.60
18069 70.1163 1571.00 1486.13 41.10
18070 70.1201 1595.70 1492.02 41.80
18071 70.1238 1613.30 1498.34 41.80
18072 70.1276 1599.60 1505.23 41.70
18073 70.1314 1607.00 1512.74 41.30
18074 70.1351 1640.40 1520.90 41.80
18075 70.1389 1735.70 1529.83 43.10
18076 70.1426 1649.90 1539.63 42.50
18077 70.1464 1675.30 1550.39 42.40
18078 70.1501 1706.40 1562.24 43.00
18079 70.1539 1685.60 1575.32 42.70
18080 70.1577 1750.70 1589.93 43.10
18081 70.1614 1769.10 1606.09 44.00
18082 70.1652 1808.40 1624.17 45.20
18083 70.1690 1797.50 1644.49 44.10
18084 70.1727 1911.30 1667.40 45.10
18085 70.1765 1891.00 1693.24 45.30
18086 70.1802 1953.20 1722.76 45.80
18087 70.1840 2024.30 1756.55 46.90
18088 70.1877 2016.80 1795.30 46.90
18089 70.1915 2144.00 1840.28 48.70
18090 70.1953 2065.80 1893.09 47.60
18091 70.1990 2191.50 1954.66 49.20
18092 70.2028 2367.70 2028.15 51.10
18093 70.2065 2395.50 2116.43 51.50
18094 70.2103 2536.80 2223.91 52.10
18095 70.2141 2652.50 2358.15 54.50
18096 70.2178 2924.70 2532.46 56.90
18097 70.2216 3050.30 2770.16 58.50
18098 70.2253 3574.50 3115.18 63.70
18099 70.2291 3976.00 3641.02 66.80
18100 70.2329 4668.60 4469.52 73.00
18101 70.2366 5889.70 5739.60 82.10
18102 70.2404 7764.80 7618.54 97.10
18103 70.2441 10315.60 10219.80 114.30
18104 70.2479 13897.00 13516.00 134.00
18105 70.2516 17374.00 17220.50 149.70
18106 70.2554 20587.80 20689.20 161.40
18107 70.2592 21727.70 22792.80 167.80
18108 70.2629 21548.70 22550.30 171.90
18109 70.2667 18406.80 20093.30 155.60
18110 70.2704 14662.70 16488.30 136.60
18111 70.2742 10252.30 12834.30 112.30
18112 70.2779 7676.80 9660.32 96.10
18113 70.2817 5671.50 7201.38 81.60
18114 70.2855 4583.40 5450.72 72.10
18115 70.2892 3879.40 4277.91 66.10
18116 70.2930 3427.30 3520.60 62.20
18117 70.2968 3127.60 3036.93 59.40
18118 70.3005 2785.20 2716.49 55.10
18119 70.3043 2617.30 2493.94 53.80
18120 70.3080 2536.20 2328.52 53.30
18121 70.3118 2277.90 2199.83 50.00
18122 70.3155 2268.40 2096.25 49.80
18123 70.3193 2194.90 2011.44 49.40
18124 70.3231 2145.90 1939.98 48.30
18125 70.3268 2063.30 1880.12 47.70
18126 70.3306 2059.50 1829.03 46.70
18127 70.3343 2032.00 1785.10 47.20
18128 70.3381 1966.80 1747.20 46.50
18129 70.3419 1950.40 1714.22 46.80
18130 70.3456 1849.50 1685.30 44.60
18131 70.3494 1928.60 1659.90 46.10
18132 70.3531 1818.00 1637.39 45.00
18133 70.3569 1885.10 1617.49 45.00
18134 70.3607 1811.40 1599.56 44.20
18135 70.3644 1802.80 1583.59 44.80
18136 70.3682 1696.10 1569.21 42.70
18137 70.3719 1708.80 1556.23 43.20
18138 70.3757 1753.90 1544.45 43.70
18139 70.3794 1707.90 1533.78 43.70
18140 70.3832 1622.10 1524.02 42.20
18141 70.3870 1704.20 1515.11 42.70
18142 70.3907 1677.70 1506.95 43.40
18143 70.3945 1649.20 1499.45 42.30
18144 70.3982 1684.00 1492.53 42.10
18145 70.4020 1679.70 1486.16 43.40
18146 70.4057 1699.40 1480.25 43.20
18147 70.4095 1593.60 1474.81 41.90
18148 70.4133 1643.50 1469.71 42.40
18149 70.4170 1597.60 1464.98 41.90
18150 70.4208 1599.70 1460.59 42.00
18151 70.4246 1563.00 1456.48 41.60
18152 70.4283 1609.60 1452.63 42.10
18153 70.4321 1528.70 1449.04 41.00
18154 70.4358 1536.00 1445.66 40.60
18155 70.4396 1512.70 1442.49 40.70
18156 70.4433 1527.40 1439.51 40.70
18157 70.4471 1524.20 1436.71 41.20
18158 70.4509 1507.00 1434.05 40.80
18159 70.4546 1494.70 1431.56 40.40
18160 70.4584 1488.80 1429.19 39.70
18161 70.4621 1496.20 1426.95 40.70
18162 70.4659 1482.00 1424.84 40.80
18163 70.4697 1455.70 1422.83 40.00
18164 70.4734 1463.50 1420.93 39.80
18165 70.4772 1498.90 1419.12 40.70
18166 70.4809 1538.30 1417.39 41.10
18167 70.4847 1446.40 1415.75 40.10
18168 70.4884 1437.80 1369.52 39.50
18169 70.4922 1497.70 1369.47 40.80
18170 70.4960 1448.40 1369.41 39.50
18171 70.4997 1447.70 1369.35 39.80
18172 70.5035 1434.70 1369.30 39.90
18173 70.5072 1474.10 1369.24 40.20
18174 70.5110 1423.10 1369.18 39.80
18175 70.5147 1466.20 1369.13 39.60
18176 70.5185 1432.20 1369.07 39.40
18177 70.5223 1410.60 1369.02 39.80
18178 70.5260 1374.90 1368.96 39.30
18179 70.5298 1403.40 1368.90 39.50
18180 70.5335 1449.60 1368.85 40.10
18181 70.5373 1367.00 1368.79 38.60
18182 70.5411 1414.10 1368.74 39.50
18183 70.5448 1411.50 1368.68 39.30
18184 70.5486 1458.00 1368.63 40.30
18185 70.5523 1502.30 1368.57 40.60
18186 70.5561 1365.80 1368.52 38.60
18187 70.5599 1443.00 1368.46 39.30
18188 70.5636 1442.30 1368.41 41.00
18189 70.5674 1387.70 1368.35 39.50
18190 70.5711 1507.40 1368.30 39.60
18191 70.5749 1446.10 1368.25 38.90
18192 70.5786 1421.70 1368.19 38.80
18193 70.5824 1467.90 1368.14 39.70
18194 70.5862 1433.10 1368.08 38.70
18195 70.5899 1363.90 1368.03 37.80
18196 70.5937 1397.40 1367.98 38.50
18197 70.5974 1437.60 1367.92 38.80
18198 70.6012 1406.90 1367.87 38.50
18199 70.6050 1457.40 1367.82 39.10
18200 70.6087 1430.50 1367.76 39.30
18201 70.6125 1462.70 1367.71 39.50
18202 70.6162 1430.10 1367.66 38.90
18203 70.6200 1436.60 1367.61 39.10
18204 70.6237 1446.50 1367.55 39.40
18205 70.6275 1365.40 1367.50 37.90
18206 70.6313 1442.00 1367.45 39.10
18207 70.6350 1428.90 1367.40 38.80
18208 70.6388 1445.60 1367.35 39.00
18209 70.6425 1350.80 1367.29 38.00
18210 70.6463 1462.80 1367.24 38.60
18211 70.6500 1349.90 1367.19 37.90
18212 70.6538 1438.90 1367.14 38.80
18213 70.6576 1398.90 1367.09 38.60
18214 70.6613 1359.60 1367.04 37.60
18215 70.6651 1409.80 1366.98 39.80
18216 70.6688 1495.40 1366.93 40.10
18217 70.6726 1416.60 1366.88 38.50
18218 70.6764 1395.10 1366.83 38.80
18219 70.6801 1332.10 1366.78 37.50
18220 70.6839 1403.70 1366.73 38.80
18221 70.6876 1402.20 1366.68 38.80
18222 70.6914 1414.00 1366.63 38.30
18223 70.6951 1383.80 1366.58 38.60
18224 70.6989 1446.60 1366.53 39.30
18225 70.7027 1397.40 1366.48 38.80
18226 70.7064 1378.60 1366.43 38.40
18227 70.7102 1434.60 1366.38 39.40
18228 70.7139 1395.50 1366.33 38.50
18229 70.7177 1401.50 1366.28 38.40
18230 70.7215 1385.60 1366.23 38.40
18231 70.7252 1377.80 1366.18 38.30
18232 70.7290 1403.20 1366.14 38.70
18233 70.7327 1399.60 1366.09 38.70
18234 70.7365 1381.70 1366.04 38.10
18235 70.7402 1411.20 1365.99 39.00
18236 70.7440 1400.60 1365.94 38.80
18237 70.7478 1382.50 1365.89 38.40
18238 70.7515 1389.10 1365.84 38.50
18239 70.7553 1391.40 1365.80 38.60
18240 70.7590 1377.40 1365.75 38.00
18241 70.7628 1404.70 1365.70 39.00
18242 70.7665 1457.30 1365.65 40.00
18243 70.7703 1389.80 1365.61 38.70
18244 70.7741 1383.00 1365.56 38.30
18245 70.7778 1450.20 1365.51 38.90
18246 70.7816 1386.20 1365.46 38.20
18247 70.7853 1395.30 1365.42 38.50
18248 70.7891 1421.40 1365.37 38.80
18249 70.7928 1387.40 1365.32 38.60
18250 70.7966 1372.10 1365.28 38.60
18251 70.8004 1326.60 1365.23 37.70
18252 70.8041 1367.40 1365.19 37.90
18253 70.8079 1380.30 1365.14 38.60
18254 70.8117 1375.90 1365.09 38.20
18255 70.8154 1375.70 1365.05 38.40
18256 70.8192 1400.00 1365.00 38.40
18257 70.8229 1368.90 1364.96 38.40
18258 70.8267 1450.10 1364.91 39.20
18259 70.8304 1370.50 1364.87 38.20
18260 70.8342 1402.20 1364.82 38.40
18261 70.8379 1411.50 1364.78 39.00
18262 70.8417 1349.40 1364.73 37.60
18263 70.8455 1394.80 1364.69 39.00
18264 70.8492 1415.20 1364.64 38.80
18265 70.8530 1403.00 1364.60 38.80
18266 70.8567 1456.50 1364.55 39.60
18267 70.8605 1404.00 1364.51 38.40
18268 70.8643 1364.60 1364.46 38.60
18269 70.8680 1381.40 1364.42 38.80
18270 70.8718 1374.70 1364.38 37.80
18271 70.8755 1399.20 1364.33 38.30
18272 70.8793 1459.00 1364.29 39.40
18273 70.8830 1404.80 1364.25 38.70
18274 70.8868 1364.40 1364.20 38.30
18275 70.8905 1315.40 1364.16 37.80
18276 70.8943 1463.60 1364.12 39.70
18277 70.8981 1373.50 1364.07 38.50
18278 70.9018 1360.80 1364.03 38.00
18279 70.9056 1380.70 1363.99 38.30
18280 70.9093 1332.80 1363.95 37.50
18281 70.9131 1373.90 1363.90 38.60
18282 70.9168 1302.60 1363.86 37.30
18283 70.9206 1328.50 1363.82 37.70
18284 70.9244 1341.80 1363.78 38.20
18285 70.9281 1375.60 1363.74 38.50
18286 70.9319 1347.30 1363.69 37.90
18287 70.9356 1369.10 1363.65 38.20
18288 70.9394 1437.90 1363.61 39.20
18289 70.9432 1421.10 1363.57 39.60
18290 70.9469 1385.80 1363.53 38.50
18291 70.9507 1367.10 1363.49 38.40
18292 70.9544 1350.40 1363.45 38.30
18293 70.9582 1340.50 1363.41 37.50
18294 70.9619 1337.10 1363.37 37.30
18295 70.9657 1404.80 1363.33 39.70
18296 70.9695 1356.30 1363.29 37.90
18297 70.9732 1349.70 1363.25 38.00
18298 70.9770 1356.70 1363.21 37.80
18299 70.9807 1396.10 1363.17 38.70
18300 70.9845 1362.30 1363.13 38.30
18301 70.9882 1340.70 1363.09 37.70
18302 70.9920 1351.50 1363.05 38.30
18303 70.9958 1407.00 1363.01 39.20
18304 70.9995 1346.10 1362.97 38.00
18305 71.0033 1391.60 1362.93 38.60
18306 71.0070 1315.90 1362.89 37.50
18307 71.0108 1339.90 1362.86 37.70
18308 71.0145 1397.40 1362.82 39.00
18309 71.0183 1415.90 1362.78 39.00
18310 71.0221 1343.70 1362.74 38.10
18311 71.0258 1408.70 1362.70 38.80
18312 71.0296 1401.00 1362.66 38.60
18313 71.0333 1358.60 1362.63 37.80
18314 71.0371 1372.20 1362.59 38.20
18315 71.0408 1413.30 1362.55 39.00
18316 71.0446 1434.60 1362.51 39.00
18317 71.0484 1386.10 1362.48 39.00
18318 71.0521 1393.60 1362.44 39.30
18319 71.0559 1370.10 1362.40 38.50
18320 71.0596 1389.60 1362.37 38.00
18321 71.0634 1374.80 1362.33 39.10
18322 71.0671 1293.00 1362.29 37.50
18323 71.0709 1393.70 1362.26 38.40
18324 71.0747 1479.50 1362.22 39.40
18325 71.0784 1351.30 1362.19 37.60
18326 71.0822 1375.00 1362.15 38.30
18327 71.0859 1348.30 1362.11 38.00
18328 71.0897 1354.30 1362.08 38.10
18329 71.0934 1339.00 1362.04 37.90
18330 71.0972 1356.10 1362.01 38.30
18331 71.1010 1356.80 1361.97 38.20
18332 71.1047 1350.80 1361.94 38.50
18333 71.1085 1345.40 1361.90 38.00
18334 71.1122 1368.40 1361.87 38.60
18335 71.1160 1324.00 1361.84 37.50
18336 71.1197 1333.60 1361.80 38.10
18337 71.1235 1375.40 1361.77 38.60
18338 71.1273 1356.00 1361.73 38.00
18339 71.1310 1313.10 1361.70 37.60
18340 71.1348 1374.00 1361.67 38.50
18341 71.1385 1343.60 1361.63 38.00
18342 71.1423 1397.20 1361.60 39.00
18343 71.1460 1350.60 1361.57 38.10
18344 71.1498 1382.20 1361.53 38.80
18345 71.1536 1361.50 1361.50 38.50
18346 71.1573 1321.80 1361.47 37.60
18347 71.1611 1358.70 1361.43 37.60
18348 71.1648 1361.20 1361.40 39.00
18349 71.1686 1383.10 1361.37 38.70
18350 71.1723 1387.60 1361.34 38.50
18351 71.1761 1398.20 1361.31 38.60
18352 71.1798 1352.30 1361.27 38.20
18353 71.1836 1378.00 1361.24 38.40
18354 71.1874 1366.90 1361.21 38.20
18355 71.1911 1403.40 1361.18 38.80
18356 71.1949 1371.80 1361.15 38.10
18357 71.1986 1350.10 1361.12 38.30
18358 71.2024 1377.20 1361.08 38.10
18359 71.2061 1388.70 1361.05 39.30
18360 71.2099 1325.80 1361.02 38.00
18361 71.2137 1342.00 1360.99 37.90
18362 71.2174 1335.20 1360.96 38.30
18363 71.2212 1328.00 1360.93 37.70
18364 71.2249 1335.60 1360.90 38.10
18365 71.2287 1342.00 1360.87 37.90
18366 71.2324 1328.00 1360.84 37.80
18367 71.2362 1414.90 1360.81 39.10
18368 71.2400 1425.60 1360.78 39.10
18369 71.2437 1391.90 1360.75 39.30
18370 71.2475 1363.60 1360.73 38.40
18371 71.2512 1365.30 1360.70 38.20
18372 71.2550 1360.40 1360.67 38.30
18373 71.2587 1343.90 1360.64 37.60
18374 71.2625 1337.30 1360.61 38.30
18375 71.2662 1323.30 1360.58 37.70
18376 71.2700 1330.90 1360.55 37.80
18377 71.2738 1353.40 1360.53 38.10
18378 71.2775 1373.90 1360.50 38.40
18379 71.2813 1329.40 1360.47 37.90
18380 71.2850 1372.10 1360.44 38.60
18381 71.2888 1457.80 1360.41 39.50
18382 71.2925 1284.50 1360.39 37.10
18383 71.2963 1345.60 1360.36 38.30
18384 71.3000 1347.90 1360.33 38.00
18385 71.3038 1403.00 1360.31 39.00
18386 71.3076 1348.40 1360.28 37.80
18387 71.3113 1320.70 1360.25 37.70
18388 71.3151 1359.80 1360.23 38.30
18389 71.3188 1400.60 1360.20 38.70
18390 71.3226 1374.00 1360.17 38.80
18391 71.3263 1387.40 1360.15 39.10
18392 71.3301 1369.90 1360.12 38.40
18393 71.3338 1393.10 1360.10 38.50
18394 71.3376 1295.30 1360.07 37.30
18395 71.3414 1418.20 1360.05 39.40
18396 71.3451 1391.60 1360.02 38.70
18397 71.3489 1337.80 1360.00 38.20
18398 71.3526 1403.20 1359.97 38.70
18399 71.3564 1380.20 1359.95 38.80
18400 71.3602 1313.90 1359.92 37.10
18401 71.3639 1429.70 1359.90 40.00
18402 71.3677 1316.70 1359.87 37.90
18403 71.3714 1308.90 1359.85 37.80
18404 71.3752 1391.40 1359.83 38.80
18405 71.3789 1389.80 1359.80 38.80
18406 71.3827 1349.60 1359.78 38.10
18407 71.3864 1302.40 1359.76 37.90
18408 71.3902 1396.00 1359.73 39.10
18409 71.3939 1405.80 1359.71 39.10
18410 71.3977 1333.30 1359.69 38.10
18411 71.4015 1334.40 1359.66 37.90
18412 71.4052 1385.10 1359.64 38.90
18413 71.4090 1435.20 1359.62 39.60
18414 71.4127 1295.40 1359.60 37.60
18415 71.4165 1377.50 1359.57 38.20
18416 71.4202 1329.90 1359.55 37.80
18417 71.4240 1362.10 1359.53 38.70
18418 71.4278 1456.50 1359.51 39.90
18419 71.4315 1399.00 1359.49 38.90
18420 71.4353 1325.70 1359.47 37.90
18421 71.4390 1357.40 1359.45 38.20
18422 71.4428 1357.90 1359.42 38.40
18423 71.4465 1334.20 1359.40 37.60
18424 71.4503 1407.00 1359.38 39.40
18425 71.4540 1389.20 1359.36 38.80
18426 71.4578 1373.00 1359.34 37.50
18427 71.4615 1408.60 1359.32 38.50
18428 71.4653 1390.50 1359.30 39.50
18429 71.4691 1381.50 1359.28 38.60
18430 71.4728 1325.50 1359.26 37.20
18431 71.4766 1291.80 1359.24 36.70
18432 71.4803 1347.60 1359.22 37.90
18433 71.4841 1357.00 1359.20 38.20
18434 71.4878 1349.00 1359.18 38.50
18435 71.4916 1349.10 1359.17 38.20
18436 71.4954 1321.50 1359.15 37.60
18437 71.4991 1340.60 1359.13 38.20
18438 71.5029 1364.80 1359.11 38.50
18439 71.5066 1312.90 1359.09 37.70
18440 71.5104 1370.10 1359.07 38.70
18441 71.5141 1377.00 1359.06 38.40
18442 71.5179 1359.80 1359.04 38.50
18443 71.5216 1412.20 1359.02 39.50
18444 71.5254 1336.40 1359.00 38.20
18445 71.5291 1350.30 1358.99 38.40
18446 71.5329 1344.60 1358.97 38.50
18447 71.5367 1387.60 1358.95 38.40
18448 71.5404 1364.20 1358.93 38.90
18449 71.5442 1404.30 1358.92 39.10
18450 71.5479 1353.20 1358.90 38.10
18451 71.5517 1362.00 1358.88 38.60
18452 71.5554 1392.00 1358.87 38.80
18453 71.5592 1355.50 1358.85 37.60
18454 71.5629 1315.60 1358.84 38.40
18455 71.5667 1281.40 1358.82 37.50
18456 71.5705 1342.50 1358.80 38.20
18457 71.5742 1478.50 1358.79 39.70
18458 71.5780 1360.70 1358.77 38.60
18459 71.5817 1401.70 1358.76 38.70
18460 71.5855 1406.00 1358.74 39.10
18461 71.5892 1401.30 1358.73 39.10
18462 71.5930 1380.70 1358.71 39.10
18463 71.5967 1345.80 1358.70 38.40
18464 71.6005 1393.60 1358.69 38.90
18465 71.6042 1383.70 1358.67 38.90
18466 71.6080 1449.20 1358.66 39.40
18467 71.6118 1352.40 1358.64 38.20
18468 71.6155 1411.40 1358.63 39.30
18469 71.6193 1323.90 1358.62 37.70
18470 71.6230 1343.70 1358.60 38.50
18471 71.6268 1332.60 1358.59 38.10
18472 71.6305 1352.40 1358.58 38.10
18473 71.6343 1339.20 1358.57 38.40
18474 71.6380 1366.90 1358.55 38.50
18475 71.6418 1399.80 1358.54 39.60
18476 71.6456 1308.50 1358.53 37.90
18477 71.6493 1351.30 1358.52 38.70
18478 71.6531 1363.10 1358.50 38.70
18479 71.6568 1319.50 1358.49 37.50
18480 71.6606 1356.80 1358.48 38.00
18481 71.6643 1364.40 1358.47 39.70
18482 71.6681 1415.20 1358.46 39.70
18483 71.6718 1351.40 1358.45 38.50
18484 71.6756 1361.30 1358.43 38.50
18485 71.6793 1312.40 1358.42 37.50
18486 71.6831 1297.20 1358.41 37.50
18487 71.6868 1366.40 1358.40 38.60
18488 71.6906 1448.00 1358.39 40.20
18489 71.6944 1359.40 1358.38 38.50
18490 71.6981 1309.00 1358.37 37.80
18491 71.7019 1405.90 1358.36 39.20
18492 71.7056 1337.30 1358.35 38.40
18493 71.7094 1337.90 1358.34 38.60
18494 71.7131 1334.90 1358.33 38.30
18495 71.7169 1314.20 1358.32 38.20
18496 71.7206 1387.10 1358.32 39.00
18497 71.7244 1431.00 1358.31 39.60
18498 71.7281 1390.20 1358.30 39.30
18499 71.7319 1380.90 1358.29 39.20
18500 71.7357 1376.70 1358.28 38.70
18501 71.7394 1350.50 1358.27 38.80
18502 71.7432 1409.50 1358.26 39.50
18503 71.7469 1373.30 1358.26 39.00
18504 71.7507 1354.30 1358.25 38.80
18505 71.7544 1309.50 1358.24 38.30
18506 71.7582 1385.30 1358.23 39.10
18507 71.7619 1368.50 1358.23 38.30
18508 71.7657 1367.50 1358.22 39.00
18509 71.7694 1405.40 1358.21 38.50
18510 71.7732 1312.20 1358.21 37.80
18511 71.7769 1374.10 1358.20 38.60
18512 71.7807 1361.80 1358.19 38.60
18513 71.7844 1410.60 1358.19 39.60
18514 71.7882 1347.30 1358.18 38.50
18515 71.7920 1376.30 1358.17 38.50
18516 71.7957 1410.40 1358.17 39.30
18517 71.7995 1380.50 1358.16 38.80
18518 71.8032 1287.90 1358.16 37.60
18519 71.8070 1392.80 1358.15 38.80
18520 71.8107 1368.70 1358.15 38.10
18521 71.8145 1288.80 1358.14 37.60
18522 71.8182 1328.70 1358.14 38.30
18523 71.8220 1319.80 1358.13 38.10
18524 71.8257 1392.50 1358.13 39.50
18525 71.8295 1291.20 1358.12 37.80
18526 71.8333 1359.10 1358.12 38.60
18527 71.8370 1309.90 1358.11 37.90
18528 71.8408 1374.60 1358.11 38.40
18529 71.8445 1355.10 1358.11 38.70
18530 71.8483 1379.10 1358.10 39.00
18531 71.8520 1322.70 1358.10 38.10
18532 71.8558 1384.10 1358.10 38.90
18533 71.8595 1310.70 1358.09 37.70
18534 71.8633 1337.50 1358.09 38.50
18535 71.8670 1373.00 1358.09 39.30
18536 71.8708 1324.80 1358.09 37.80
18537 71.8745 1340.50 1358.08 39.00
18538 71.8783 1348.80 1358.08 38.30
18539 71.8821 1269.90 1358.08 37.20
18540 71.8858 1412.90 1358.08 39.60
18541 71.8896 1387.20 1358.08 39.20
18542 71.8933 1353.40 1358.07 38.90
18543 71.8971 1370.60 1358.07 39.20
18544 71.9008 1298.00 1358.07 37.90
18545 71.9046 1369.50 1358.07 39.10
18546 71.9083 1367.60 1358.07 38.60
18547 71.9121 1409.10 1358.07 39.20
18548 71.9158 1338.90 1358.07 38.20
18549 71.9196 1342.00 1358.07 38.40
18550 71.9233 1269.10 1358.07 37.60
18551 71.9271 1362.50 1358.07 38.80
18552 71.9308 1386.10 1358.07 38.90
18553 71.9346 1338.80 1358.07 39.00
18554 71.9383 1373.90 1358.07 38.90
18555 71.9421 1357.30 1358.07 39.40
18556 71.9458 1406.70 1358.07 39.70
18557 71.9496 1383.20 1358.07 38.80
18558 71.9534 1342.20 1358.07 38.60
18559 71.9571 1380.30 1358.07 39.20
18560 71.9609 1400.40 1358.07 39.00
18561 71.9646 1367.80 1358.08 39.90
18562 71.9684 1408.70 1358.08 40.00
18563 71.9721 1351.50 1358.08 39.00
18564 71.9759 1450.90 1358.08 40.10
18565 71.9796 1367.80 1358.08 38.90
18566 71.9834 1396.70 1358.09 38.80
18567 71.9871 1355.40 1358.09 38.80
18568 71.9909 1332.90 1358.09 37.80
18569 71.9932 1411.90 1358.09 39.20
18570 71.9969 1363.90 1358.10 38.50
18571 72.0007 1346.90 1358.10 38.40
18572 72.0044 1356.30 1358.10 38.10
18573 72.0082 1344.80 1358.11 38.20
18574 72.0119 1290.90 1358.11 37.70
18575 72.0157 1408.90 1358.11 39.20
18576 72.0194 1336.20 1358.12 38.20
18577 72.0232 1369.00 1358.12 38.80
18578 72.0269 1319.90 1358.13 37.40
18579 72.0307 1277.30 1358.13 37.60
18580 72.0345 1363.30 1358.13 38.50
18581 72.0382 1344.30 1358.14 37.90
18582 72.0420 1348.90 1358.14 38.40
18583 72.0457 1354.10 1358.15 38.20
18584 72.0495 1330.60 1358.15 37.20
18585 72.0533 1312.50 1358.16 38.30
18586 72.0570 1358.60 1358.17 38.70
18587 72.0608 1370.70 1358.17 38.60
18588 72.0645 1383.20 1358.18 38.40
18589 72.0683 1305.20 1358.18 37.70
18590 72.0720 1376.10 1358.19 38.30
18591 72.0758 1338.00 1358.20 38.10
18592 72.0795 1318.90 1358.20 37.90
18593 72.0833 1353.10 1358.21 38.70
18594 72.0870 1278.20 1358.22 37.30
18595 72.0908 1309.50 1358.22 37.70
18596 72.0945 1445.30 1358.23 39.80
18597 72.0983 1261.70 1358.24 36.70
18598 72.1021 1359.30 1358.25 38.30
18599 72.1058 1363.00 1358.25 38.60
18600 72.1096 1357.60 1358.26 38.20
18601 72.1133 1347.70 1358.27 38.60
18602 72.1171 1367.80 1358.28 38.60
18603 72.1208 1358.30 1358.29 38.20
18604 72.1246 1366.70 1358.29 38.90
18605 72.1283 1347.90 1358.30 38.20
18606 72.1321 1410.10 1358.31 39.70
18607 72.1359 1285.20 1358.32 37.60
18608 72.1396 1405.60 1358.33 39.50
18609 72.1434 1326.60 1358.34 38.20
18610 72.1471 1359.90 1358.35 38.10
18611 72.1509 1303.80 1358.36 37.20
18612 72.1546 1395.30 1358.37 40.20
18613 72.1584 1379.30 1358.38 39.10
18614 72.1621 1423.20 1358.39 39.50
18615 72.1659 1449.70 1358.40 39.80
18616 72.1696 1381.80 1358.41 38.50
18617 72.1734 1284.10 1358.42 37.30
18618 72.1771 1378.50 1358.43 38.80
18619 72.1809 1376.20 1358.44 39.10
18620 72.1846 1311.10 1358.45 37.80
18621 72.1884 1335.30 1358.46 38.20
18622 72.1922 1325.20 1358.47 38.10
18623 72.1959 1377.00 1358.49 38.90
18624 72.1997 1367.70 1358.50 39.00
18625 72.2034 1363.20 1358.51 38.70
18626 72.2072 1378.90 1358.52 39.20
18627 72.2109 1360.80 1358.53 38.60
18628 72.2147 1382.70 1358.55 38.90
18629 72.2184 1436.20 1358.56 39.90
18630 72.2222 1327.50 1358.57 38.40
18631 72.2260 1329.50 1358.58 38.00
18632 72.2280 1372.10 1358.59 38.40
18633 72.2318 1378.30 1358.60 39.00
18634 72.2355 1379.30 1358.62 39.00
18635 72.2393 1404.90 1358.63 39.10
18636 72.2430 1398.70 1358.64 39.30
18637 72.2468 1393.50 1358.66 39.30
18638 72.2505 1374.80 1358.67 38.60
18639 72.2543 1421.00 1358.69 39.10
18640 72.2581 1406.60 1358.70 38.80
18641 72.2618 1318.20 1358.71 37.10
18642 72.2656 1319.00 1358.73 38.80
18643 72.2693 1352.90 1358.74 38.40
18644 72.2731 1380.50 1358.76 39.20
18645 72.2768 1399.20 1358.77 38.70
18646 72.2806 1346.40 1358.79 38.10
18647 72.2843 1345.20 1358.80 38.40
18648 72.2881 1436.30 1358.82 38.80
18649 72.2918 1375.30 1358.83 38.60
18650 72.2956 1347.20 1358.85 37.90
18651 72.2993 1424.80 1358.87 39.90
18652 72.3031 1411.20 1358.88 39.90
18653 72.3068 1399.50 1358.90 39.10
18654 72.3106 1385.20 1358.92 39.00
18655 72.3143 1426.70 1358.93 39.80
18656 72.3181 1433.60 1358.95 39.30
18657 72.3219 1365.10 1358.97 37.80
18658 72.3256 1348.90 1358.98 38.10
18659 72.3294 1385.80 1359.00 38.40
18660 72.3331 1400.30 1359.02 39.30
18661 72.3369 1402.70 1359.03 39.20
18662 72.3406 1325.60 1359.05 38.50
18663 72.3444 1420.60 1359.07 40.50
18664 72.3481 1340.30 1359.09 38.30
18665 72.3519 1380.70 1359.11 39.10
18666 72.3556 1373.50 1359.12 39.10
18667 72.3594 1388.20 1359.14 38.70
18668 72.3632 1458.10 1359.16 40.50
18669 72.3669 1377.10 1359.18 39.10
18670 72.3707 1351.00 1359.20 38.40
18671 72.3744 1318.60 1359.22 38.00
18672 72.3782 1421.20 1359.24 39.70
18673 72.3819 1379.90 1359.26 38.50
18674 72.3857 1329.40 1359.28 37.90
18675 72.3894 1375.50 1359.30 39.30
18676 72.3932 1360.60 1359.32 38.80
18677 72.3969 1368.80 1359.34 38.90
18678 72.4007 1424.30 1359.36 39.00
18679 72.4045 1380.00 1359.38 38.80
18680 72.4082 1367.90 1359.40 39.00
18681 72.4120 1410.10 1359.42 40.10
18682 72.4157 1413.10 1359.44 39.90
18683 72.4195 1377.50 1359.46 39.00
18684 72.4232 1381.50 1359.48 39.60
18685 72.4270 1412.70 1359.50 39.30
18686 72.4307 1311.10 1359.52 37.70
18687 72.4345 1350.90 1359.54 38.50
18688 72.4382 1385.70 1359.57 39.40
18689 72.4420 1380.90 1359.59 39.30
18690 72.4457 1411.80 1359.61 39.60
18691 72.4495 1368.80 1359.63 39.10
18692 72.4533 1340.60 1359.65 38.00
18693 72.4570 1403.90 1359.68 39.80
18694 72.4608 1363.40 1359.70 38.60
18695 72.4645 1412.40 1359.72 40.50
18696 72.4683 1378.10 1359.74 39.60
18697 72.4720 1348.90 1359.77 38.30
18698 72.4758 1393.30 1359.79 38.50
18699 72.4795 1338.40 1359.81 38.20
18700 72.4833 1410.40 1359.84 39.70
18701 72.4871 1351.50 1359.86 38.50
18702 72.4908 1442.90 1359.89 40.30
18703 72.4946 1394.80 1359.91 39.30
18704 72.4983 1378.30 1359.93 39.40
18705 72.5021 1444.60 1359.96 40.20
18706 72.5058 1346.70 1359.98 38.50
18707 72.5096 1388.60 1360.01 39.00
18708 72.5133 1378.20 1360.03 39.50
18709 72.5171 1422.20 1360.06 40.10
18710 72.5208 1389.50 1360.08 39.30
18711 72.5246 1307.00 1360.11 37.90
18712 72.5284 1312.20 1360.13 37.90
18713 72.5321 1416.70 1360.16 40.20
18714 72.5359 1379.50 1360.18 38.80
18715 72.5396 1307.40 1360.21 38.20
18716 72.5434 1352.90 1360.24 38.60
18717 72.5471 1387.20 1360.26 39.30
18718 72.5509 1411.50 1360.29 39.80
18719 72.5546 1381.20 1360.31 39.00
18720 72.5584 1395.80 1360.34 39.30
18721 72.5622 1370.00 1360.37 37.90
18722 72.5659 1389.90 1360.39 40.20
18723 72.5697 1382.60 1360.42 40.10
18724 72.5734 1483.50 1360.45 40.50
18725 72.5772 1447.60 1360.48 40.10
18726 72.5809 1381.90 1360.50 39.00
18727 72.5847 1388.80 1360.53 39.40
18728 72.5884 1424.20 1360.56 40.10
18729 72.5922 1333.60 1360.59 38.80
18730 72.5959 1299.60 1360.61 38.30
18731 72.5997 1380.60 1360.64 39.30
18732 72.6034 1459.30 1360.67 40.50
18733 72.6072 1460.20 1360.70 40.70
18734 72.6110 1377.90 1360.73 39.90
18735 72.6147 1479.50 1360.76 40.70
18736 72.6185 1390.50 1360.78 39.20
18737 72.6222 1377.70 1360.81 39.20
18738 72.6260 1425.40 1360.84 40.20
18739 72.6298 1382.50 1360.87 40.10
18740 72.6335 1336.30 1360.90 38.40
18741 72.6373 1440.90 1360.93 39.60
18742 72.6410 1360.40 1360.96 39.20
18743 72.6448 1412.80 1360.99 40.40
18744 72.6485 1401.80 1361.02 39.60
18745 72.6523 1389.20 1361.05 40.10
18746 72.6560 1441.00 1361.08 40.20
18747 72.6598 1430.40 1361.11 39.80
18748 72.6635 1407.20 1361.14 39.30
18749 72.6673 1378.00 1361.17 39.30
18750 72.6711 1402.50 1361.20 39.50
18751 72.6748 1436.50 1361.24 39.80
18752 72.6786 1382.60 1361.27 39.10
18753 72.6823 1380.90 1361.30 39.20
18754 72.6861 1435.30 1361.33 41.00
18755 72.6898 1421.70 1361.36 39.40
18756 72.6936 1419.90 1377.80 38.80
18757 72.6973 1388.00 1378.37 38.20
18758 72.7011 1408.00 1378.97 38.50
18759 72.7049 1425.70 1379.60 39.10
18760 72.7086 1401.60 1380.25 38.70
18761 72.7124 1383.30 1380.94 38.40
18762 72.7161 1381.70 1381.67 38.50
18763 72.7199 1436.00 1382.44 39.10
18764 72.7236 1406.30 1383.24 38.60
18765 72.7274 1458.50 1384.09 39.50
18766 72.7311 1442.60 1384.98 39.30
18767 72.7349 1400.60 1385.93 38.20
18768 72.7387 1418.90 1386.93 38.80
18769 72.7424 1458.30 1387.99 39.40
18770 72.7462 1446.30 1389.12 39.10
18771 72.7499 1406.00 1390.32 38.60
18772 72.7537 1452.90 1391.59 39.10
18773 72.7574 1460.20 1392.94 39.50
18774 72.7612 1444.50 1394.39 38.20
18775 72.7650 1408.90 1395.93 39.10
18776 72.7687 1385.60 1397.58 38.60
18777 72.7725 1413.80 1399.35 38.50
18778 72.7762 1461.90 1401.24 39.10
18779 72.7800 1466.00 1403.28 39.20
18780 72.7837 1435.80 1405.49 38.70
18781 72.7875 1512.10 1407.85 40.40
18782 72.7912 1457.70 1410.42 39.30
18783 72.7950 1437.00 1413.20 39.50
18784 72.7988 1493.80 1416.23 39.90
18785 72.8025 1485.80 1419.52 40.10
18786 72.8063 1478.20 1423.12 39.70
18787 72.8100 1486.60 1427.06 40.20
18788 72.8138 1561.50 1431.37 40.80
18789 72.8175 1510.50 1436.13 40.30
18790 72.8213 1501.30 1441.42 39.90
18791 72.8250 1514.00 1447.24 40.40
18792 72.8288 1446.80 1453.73 39.30
18793 72.8326 1488.30 1460.98 39.70
18794 72.8363 1553.20 1469.13 40.70
18795 72.8401 1565.50 1478.31 40.70
18796 72.8438 1593.60 1488.71 40.90
18797 72.8476 1599.20 1500.57 41.40
18798 72.8513 1688.30 1514.13 42.70
18799 72.8551 1694.50 1529.72 42.50
18800 72.8588 1670.50 1547.79 41.90
18801 72.8626 1672.30 1569.07 42.00
18802 72.8664 1711.90 1593.93 43.50
18803 72.8701 1771.60 1623.62 43.60
18804 72.8739 1764.40 1659.38 43.80
18805 72.8776 1850.60 1703.57 44.70
18806 72.8814 1800.30 1759.51 43.30
18807 72.8851 2080.40 1834.19 47.50
18808 72.8889 2192.80 1939.18 49.20
18809 72.8926 2255.20 2094.89 49.40
18810 72.8964 2480.40 2335.15 51.80
18811 72.9002 2807.50 2705.59 55.70
18812 72.9039 3412.70 3257.94 60.40
18813 72.9077 4174.70 4042.71 68.10
18814 72.9114 5342.70 5074.46 78.20
18815 72.9152 6590.30 6329.30 87.10
18816 72.9190 8014.20 7650.37 97.70
18817 72.9227 9104.20 8768.65 103.80
18818 72.9265 9232.50 9291.33 105.60
18819 72.9302 8710.80 8975.76 101.40
18820 72.9340 7296.30 7970.98 93.30
18821 72.9377 5937.10 6667.12 83.60
18822 72.9415 4315.50 5383.87 69.70
18823 72.9453 3436.60 4284.68 62.10
18824 72.9490 2909.60 3437.14 57.40
18825 72.9528 2535.30 2827.36 53.10
18826 72.9565 2264.00 2416.06 49.30
18827 72.9603 2115.60 2148.25 47.10
18828 72.9640 2109.60 1974.07 48.40
18829 72.9678 1971.20 1858.84 46.40
18830 72.9716 1860.00 1777.51 45.10
18831 72.9753 1791.00 1717.70 43.50
18832 72.9791 1834.00 1671.11 44.10
18833 72.9828 1686.90 1633.47 42.70
18834 72.9866 1723.60 1602.38 42.90
18835 72.9903 1638.50 1576.41 41.80
18836 72.9941 1612.90 1554.43 41.80
18837 72.9978 1615.50 1535.71 41.60
18838 73.0016 1633.40 1519.54 41.90
18839 73.0054 1545.70 1505.58 41.20
18840 73.0091 1497.50 1493.41 40.20
18841 73.0129 1567.20 1482.74 40.90
18842 73.0166 1489.20 1473.33 40.50
18843 73.0204 1541.30 1465.03 41.30
18844 73.0241 1529.30 1457.63 40.40
18845 73.0279 1456.70 1451.04 39.70
18846 73.0316 1565.30 1445.12 41.20
18847 73.0354 1462.10 1439.79 39.60
18848 73.0392 1522.70 1434.98 40.10
18849 73.0429 1534.70 1430.63 41.00
18850 73.0467 1488.30 1426.68 39.70
18851 73.0505 1429.50 1423.08 39.20
18852 73.0542 1485.30 1419.78 40.30
18853 73.0580 1466.20 1416.78 39.80
18854 73.0617 1519.00 1414.02 40.00
18855 73.0655 1447.50 1411.49 40.30
18856 73.0692 1434.60 1409.13 39.30
18857 73.0730 1449.60 1406.98 38.90
18858 73.0767 1443.20 1404.97 39.00
18859 73.0805 1402.10 1403.13 38.80
18860 73.0843 1520.40 1401.40 40.60
18861 73.0880 1524.80 1399.80 40.30
18862 73.0918 1450.70 1398.31 39.50
18863 73.0955 1427.90 1396.92 39.30
18864 73.0993 1434.00 1395.62 39.00
18865 73.1030 1484.50 1394.41 40.10
18866 73.1068 1418.40 1393.28 39.20
18867 73.1106 1422.20 1392.22 39.00
18868 73.1143 1386.30 1391.22 39.00
18869 73.1181 1438.90 1390.28 39.40
18870 73.1218 1418.50 1389.40 39.00
18871 73.1256 1454.50 1388.57 39.30
18872 73.1293 1351.50 1387.79 38.10
18873 73.1331 1435.00 1387.05 39.20
18874 73.1369 1345.10 1386.36 37.90
18875 73.1406 1461.60 1385.70 39.30
18876 73.1444 1427.70 1385.08 39.20
18877 73.1481 1413.60 1384.49 38.70
18878 73.1519 1390.80 1383.93 38.40
18879 73.1556 1371.60 1383.41 38.00
18880 73.1594 1309.20 1382.91 36.90
18881 73.1632 1369.80 1366.40 38.90
18882 73.1669 1406.50 1366.45 39.90
18883 73.1707 1401.20 1366.50 38.80
18884 73.1744 1438.80 1366.54 38.80
18885 73.1782 1457.20 1366.59 38.70
18886 73.1820 1409.70 1366.64 38.30
18887 73.1857 1405.70 1366.69 38.40
18888 73.1895 1370.70 1366.74 37.90
18889 73.1932 1345.00 1366.78 37.60
18890 73.1970 1379.90 1366.83 38.10
18891 73.2007 1426.90 1366.88 39.00
18892 73.2045 1367.20 1366.93 38.00
18893 73.2083 1423.70 1366.98 38.40
18894 73.2120 1445.20 1367.03 38.80
18895 73.2158 1418.10 1367.08 39.10
18896 73.2195 1367.20 1367.13 38.00
18897 73.2233 1387.00 1367.18 38.60
18898 73.2270 1390.70 1367.22 38.60
18899 73.2308 1358.90 1367.27 37.70
18900 73.2346 1320.00 1367.32 37.50
18901 73.2383 1374.60 1367.37 38.30
18902 73.2421 1389.60 1367.42 38.20
18903 73.2458 1398.20 1367.47 38.60
18904 73.2496 1320.90 1367.52 37.80
18905 73.2533 1383.50 1367.57 38.00
18906 73.2571 1393.30 1367.62 38.50
18907 73.2609 1392.40 1367.67 37.90
18908 73.2646 1429.50 1367.72 39.30
18909 73.2684 1371.10 1367.77 38.70
18910 73.2721 1402.20 1367.82 38.80
18911 73.2759 1407.80 1367.88 38.00
18912 73.2796 1362.80 1367.93 38.10
18913 73.2834 1411.60 1367.98 38.60
18914 73.2872 1438.50 1368.03 39.30
18915 73.2909 1380.60 1368.08 37.60
18916 73.2947 1365.20 1368.13 38.40
18917 73.2984 1347.10 1368.18 38.20
18918 73.3022 1329.50 1368.23 38.20
18919 73.3059 1404.50 1368.28 38.60
18920 73.3097 1437.90 1368.34 39.20
18921 73.3135 1362.80 1368.39 38.30
18922 73.3172 1354.50 1368.44 38.50
18923 73.3210 1365.30 1368.49 38.30
18924 73.3248 1352.90 1368.54 37.60
18925 73.3285 1431.30 1368.59 39.40
18926 73.3323 1339.60 1368.65 38.10
18927 73.3360 1380.10 1368.70 38.50
18928 73.3398 1334.60 1368.75 38.00
18929 73.3435 1431.40 1368.80 39.80
18930 73.3473 1360.00 1368.85 37.90
18931 73.3511 1418.70 1368.91 39.60
18932 73.3548 1391.30 1368.96 38.80
18933 73.3586 1357.80 1369.01 38.30
18934 73.3623 1405.10 1369.07 38.50
18935 73.3661 1393.00 1369.12 39.20
18936 73.3698 1381.40 1369.17 38.70
18937 73.3736 1378.90 1369.22 38.40
18938 73.3774 1394.60 1369.28 38.50
18939 73.3811 1353.20 1369.33 38.30
18940 73.3849 1357.20 1369.38 37.50
18941 73.3886 1342.30 1369.44 37.80
18942 73.3924 1372.90 1369.49 38.60
18943 73.3961 1382.50 1369.54 38.50
18944 73.3999 1410.40 1369.60 39.10
18945 73.4037 1333.70 1369.65 37.80
18946 73.4074 1418.60 1369.71 39.10
18947 73.4112 1430.70 1369.76 39.20
18948 73.4149 1370.60 1369.81 38.70
18949 73.4187 1372.00 1369.87 38.30
18950 73.4224 1339.40 1369.92 38.00
18951 73.4262 1361.10 1369.98 38.10
18952 73.4300 1443.30 1370.03 38.90
18953 73.4337 1379.10 1370.08 38.60
18954 73.4375 1402.60 1370.14 38.70
18955 73.4413 1302.70 1370.19 37.60
18956 73.4450 1408.30 1370.25 39.20
18957 73.4488 1384.60 1370.30 38.30
18958 73.4525 1358.30 1370.36 38.20
18959 73.4563 1225.30 1370.41 36.40
18960 73.4600 1386.00 1370.47 38.10
18961 73.4638 1361.50 1370.52 38.00
18962 73.4676 1334.30 1370.58 38.60
18963 73.4713 1406.30 1370.63 38.80
18964 73.4751 1320.90 1370.69 37.70
18965 73.4788 1381.70 1370.74 38.20
18966 73.4826 1386.70 1370.80 38.70
18967 73.4863 1360.70 1370.85 38.60
18968 73.4901 1330.20 1370.91 38.40
18969 73.4939 1378.90 1370.96 38.60
18970 73.4976 1411.60 1371.02 38.90
18971 73.5014 1363.50 1371.08 38.90
18972 73.5051 1278.20 1371.13 37.30
18973 73.5089 1310.60 1371.19 37.90
18974 73.5127 1302.80 1371.24 37.20
18975 73.5164 1395.70 1371.30 38.90
18976 73.5202 1338.90 1371.36 38.20
18977 73.5239 1354.10 1371.41 38.50
18978 73.5277 1339.60 1371.47 37.80
18979 73.5314 1420.40 1371.53 39.20
18980 73.5352 1433.20 1371.58 39.50
18981 73.5390 1379.20 1371.64 38.80
18982 73.5427 1358.00 1371.69 38.50
18983 73.5465 1340.40 1371.75 37.80
18984 73.5502 1402.90 1371.81 38.80
18985 73.5540 1314.90 1371.86 37.60
18986 73.5577 1369.80 1371.92 38.20
18987 73.5615 1409.00 1371.98 38.50
18988 73.5653 1392.80 1372.04 40.00
18989 73.5690 1423.60 1372.09 40.20
18990 73.5728 1264.90 1372.15 36.80
18991 73.5766 1410.20 1372.21 39.20
18992 73.5803 1356.10 1372.26 38.30
18993 73.5841 1316.30 1372.32 38.10
18994 73.5878 1347.60 1372.38 37.70
18995 73.5916 1345.60 1372.44 38.80
18996 73.5953 1368.00 1372.49 38.60
18997 73.5991 1364.50 1372.55 38.40
18998 73.6029 1418.90 1372.61 39.40
18999 73.6066 1343.30 1372.67 38.40
19000 73.6104 1376.00 1372.72 38.40
19001 73.6141 1362.90 1372.78 37.50
19002 73.6179 1382.60 1372.84 38.50
19003 73.6217 1402.40 1372.90 39.30
19004 73.6254 1349.70 1372.96 38.30
19005 73.6292 1352.30 1373.01 38.20
19006 73.6329 1337.40 1373.07 37.90
19007 73.6367 1431.40 1373.13 39.10
19008 73.6405 1345.70 1373.19 38.30
19009 73.6442 1344.40 1373.25 38.30
19010 73.6480 1301.80 1373.30 38.10
19011 73.6517 1369.30 1373.36 37.10
19012 73.6555 1385.40 1373.42 37.50
19013 73.6592 1372.90 1373.48 37.30
19014 73.6630 1376.60 1373.54 37.30
19015 73.6668 1413.30 1373.60 38.80
19016 73.6705 1371.80 1373.66 37.50
19017 73.6743 1413.20 1373.71 37.50
19018 73.6780 1336.50 1373.77 36.80
19019 73.6818 1342.60 1373.83 36.80
19020 73.6855 1332.00 1373.89 37.00
19021 73.6893 1325.50 1373.95 37.20
19022 73.6931 1383.30 1374.01 37.70
19023 73.6968 1347.10 1374.07 37.10
19024 73.7006 1398.00 1374.13 38.30
19025 73.7044 1332.90 1374.19 37.40
19026 73.7081 1375.20 1374.25 37.70
19027 73.7119 1413.80 1374.30 38.00
19028 73.7156 1383.60 1374.36 37.60
19029 73.7194 1375.30 1374.42 37.90
19030 73.7231 1453.40 1374.48 38.90
19031 73.7269 1371.40 1374.54 37.70
19032 73.7307 1361.10 1374.60 37.60
19033 73.7344 1403.60 1374.66 38.20
19034 73.7382 1311.60 1374.72 36.70
19035 73.7419 1449.70 1374.78 38.50
19036 73.7457 1399.90 1374.84 37.90
19037 73.7495 1396.70 1374.90 37.80
19038 73.7532 1365.20 1374.96 37.50
19039 73.7570 1362.30 1375.02 37.60
19040 73.7607 1309.40 1375.08 36.90
19041 73.7645 1439.70 1375.14 38.30
19042 73.7683 1366.60 1375.20 38.40
19043 73.7720 1354.70 1375.26 37.40
19044 73.7758 1336.40 1375.32 37.20
19045 73.7795 1395.90 1375.38 37.40
19046 73.7833 1384.40 1375.44 38.10
19047 73.7870 1400.80 1375.50 37.80
19048 73.7908 1408.40 1375.56 38.00
19049 73.7946 1358.50 1375.62 37.90
19050 73.7983 1397.10 1375.68 37.60
19051 73.8021 1352.50 1375.74 37.60
19052 73.8058 1372.30 1375.80 38.00
19053 73.8096 1279.10 1375.86 36.10
19054 73.8134 1336.70 1375.92 37.10
19055 73.8171 1356.00 1375.98 37.50
19056 73.8209 1331.20 1376.04 36.90
19057 73.8246 1346.30 1376.10 37.30
19058 73.8284 1394.90 1376.16 38.00
19059 73.8322 1457.80 1376.22 38.70
19060 73.8359 1321.30 1376.28 36.70
19061 73.8397 1350.60 1376.34 36.90
19062 73.8434 1372.40 1376.40 38.10
19063 73.8472 1348.60 1376.47 37.30
19064 73.8510 1390.10 1376.53 38.10
19065 73.8547 1390.80 1376.59 38.10
19066 73.8585 1428.70 1376.65 38.40
19067 73.8622 1337.10 1376.71 36.70
19068 73.8660 1373.30 1376.77 38.40
19069 73.8698 1346.30 1376.83 37.50
19070 73.8735 1315.50 1376.89 36.80
19071 73.8773 1364.20 1376.95 37.50
19072 73.8810 1345.70 1377.01 36.80
19073 73.8848 1399.10 1377.07 38.10
19074 73.8885 1349.70 1377.14 37.50
19075 73.8923 1294.00 1377.20 37.20
19076 73.8961 1368.10 1377.26 37.50
19077 73.8998 1358.90 1377.32 37.50
19078 73.9036 1319.30 1377.38 37.10
19079 73.9073 1393.20 1377.44 38.30
19080 73.9111 1391.30 1377.50 37.90
19081 73.9149 1377.40 1377.56 37.80
19082 73.9186 1337.20 1377.62 37.30
19083 73.9224 1377.40 1377.69 37.40
19084 73.9261 1336.10 1377.75 37.60
19085 73.9299 1388.90 1377.81 37.70
19086 73.9336 1320.40 1377.87 37.00
19087 73.9374 1387.50 1377.93 38.00
19088 73.9412 1390.20 1377.99 37.90
19089 73.9449 1362.30 1378.05 38.10
19090 73.9487 1333.20 1378.11 37.10
19091 73.9525 1406.30 1378.18 38.10
19092 73.9562 1344.00 1378.24 37.60
19093 73.9600 1397.30 1378.30 37.70
19094 73.9637 1372.80 1378.36 37.40
19095 73.9675 1378.50 1378.42 38.40
19096 73.9713 1369.50 1378.48 37.70
19097 73.9750 1388.30 1378.54 37.90
19098 73.9788 1385.50 1378.61 37.70
19099 73.9825 1327.40 1378.67 37.30
19100 73.9863 1384.50 1378.73 37.70
19101 73.9901 1393.80 1378.79 37.80
19102 73.9938 1376.20 1378.85 37.70
19103 73.9976 1382.00 1378.91 38.00
19104 74.0013 1286.90 1378.97 36.70
19105 74.0051 1376.80 1379.04 37.70
19106 74.0088 1348.10 1379.23 37.50
19107 74.0126 1355.30 1379.29 37.70
19108 74.0164 1312.80 1379.36 37.00
19109 74.0201 1390.40 1379.42 37.70
19110 74.0239 1335.00 1379.49 37.40
19111 74.0276 1349.80 1379.56 37.40
19112 74.0314 1360.60 1379.62 37.60
19113 74.0352 1381.70 1379.69 37.80
19114 74.0389 1361.60 1379.76 37.30
19115 74.0427 1377.30 1379.83 37.90
19116 74.0464 1371.50 1379.90 37.60
19117 74.0502 1380.30 1379.96 37.90
19118 74.0540 1392.20 1380.03 38.40
19119 74.0577 1331.00 1380.10 37.10
19120 74.0615 1349.80 1380.17 36.90
19121 74.0652 1355.70 1380.24 38.50
19122 74.0690 1358.10 1380.31 38.00
19123 74.0727 1338.80 1380.39 37.00
19124 74.0765 1330.30 1380.46 36.90
19125 74.0803 1384.90 1380.53 37.80
19126 74.0840 1296.20 1380.61 36.80
19127 74.0878 1375.90 1380.68 37.70
19128 74.0916 1393.10 1380.76 38.20
19129 74.0953 1422.30 1380.83 38.40
19130 74.0991 1372.60 1380.91 37.80
19131 74.1028 1379.50 1380.99 38.00
19132 74.1066 1284.40 1381.07 36.40
19133 74.1104 1339.00 1381.15 37.40
19134 74.1141 1405.90 1381.24 38.20
19135 74.1179 1318.00 1381.32 37.30
19136 74.1216 1363.90 1381.41 37.20
19137 74.1254 1294.20 1381.50 36.70
19138 74.1292 1393.90 1381.59 38.40
19139 74.1329 1351.80 1381.69 37.40
19140 74.1367 1377.50 1381.79 37.50
19141 74.1404 1348.60 1381.90 37.20
19142 74.1442 1328.30 1382.00 37.40
19143 74.1480 1326.50 1382.12 36.60
19144 74.1517 1331.20 1382.24 36.90
19145 74.1555 1360.80 1382.37 37.20
19146 74.1592 1335.60 1382.50 36.60
19147 74.1630 1403.80 1382.65 37.50
19148 74.1667 1368.90 1382.81 38.20
19149 74.1705 1357.80 1382.98 37.50
19150 74.1743 1404.90 1383.17 37.80
19151 74.1780 1323.50 1383.38 36.90
19152 74.1818 1362.70 1383.62 37.60
19153 74.1855 1358.30 1383.88 37.30
19154 74.1893 1351.10 1384.19 37.10
19155 74.1931 1370.30 1384.55 37.40
19156 74.1968 1419.30 1384.98 38.30
19157 74.2006 1410.50 1385.51 38.20
19158 74.2044 1314.80 1386.22 36.80
19159 74.2081 1361.60 1387.20 37.60
19160 74.2119 1394.60 1388.63 37.70
19161 74.2156 1343.90 1390.80 37.20
19162 74.2194 1397.70 1394.09 38.20
19163 74.2231 1347.90 1398.89 37.00
19164 74.2269 1338.70 1405.48 36.90
19165 74.2307 1413.90 1414.04 37.70
19166 74.2344 1384.10 1424.00 37.70
19167 74.2382 1385.50 1434.17 37.10
19168 74.2419 1435.30 1442.21 38.60
19169 74.2457 1439.90 1445.22 38.80
19170 74.2495 1494.70 1441.83 38.90
19171 74.2532 1468.30 1433.57 39.10
19172 74.2570 1396.10 1423.47 38.10
19173 74.2607 1402.50 1413.74 37.80
19174 74.2645 1361.50 1405.48 37.30
19175 74.2683 1458.90 1399.14 39.60
19176 74.2720 1361.50 1394.62 37.60
19177 74.2758 1367.10 1391.56 37.90
19178 74.2795 1331.50 1389.59 36.50
19179 74.2833 1354.10 1388.32 37.10
19180 74.2871 1308.90 1387.50 36.90
19181 74.2908 1356.20 1386.93 37.30
19182 74.2946 1380.50 1386.53 37.60
19183 74.2983 1361.40 1386.23 37.70
19184 74.3021 1364.90 1386.00 37.80
19185 74.3058 1391.10 1385.82 38.00
19186 74.3096 1373.60 1385.68 37.70
19187 74.3134 1359.00 1385.57 37.10
19188 74.3171 1317.90 1385.48 37.00
19189 74.3209 1398.10 1385.41 38.00
19190 74.3247 1351.70 1385.37 37.40
19191 74.3284 1424.30 1385.33 38.20
19192 74.3322 1382.20 1385.31 37.70
19193 74.3359 1409.70 1385.29 38.20
19194 74.3397 1297.30 1385.29 36.70
19195 74.3435 1389.00 1385.29 37.80
19196 74.3472 1388.40 1385.30 38.00
19197 74.3510 1366.90 1385.31 37.60
19198 74.3547 1339.40 1385.33 37.30
19199 74.3585 1377.00 1385.35 37.40
19200 74.3623 1410.00 1385.38 37.70
19201 74.3660 1330.80 1385.40 37.20
19202 74.3698 1388.20 1385.43 37.80
19203 74.3735 1323.50 1385.47 36.90
19204 74.3773 1277.10 1385.50 36.40
19205 74.3811 1349.50 1385.54 37.30
19206 74.3848 1323.70 1385.58 36.90
19207 74.3886 1362.60 1385.62 37.50
19208 74.3923 1305.90 1385.66 36.40
19209 74.3961 1343.60 1385.71 37.10
19210 74.3999 1285.40 1385.75 36.00
19211 74.4036 1381.60 1385.80 37.70
19212 74.4074 1254.00 1385.84 35.90
19213 74.4111 1378.00 1385.89 37.60
19214 74.4149 1313.20 1385.94 37.10
19215 74.4186 1408.60 1385.99 37.90
19216 74.4224 1373.70 1386.04 37.50
19217 74.4262 1339.80 1386.09 37.30
19218 74.4299 1431.20 1386.14 38.20
19219 74.4337 1329.30 1386.19 36.60
19220 74.4374 1394.00 1386.24 37.60
19221 74.4412 1352.10 1386.29 37.10
19222 74.4450 1363.20 1386.34 37.40
19223 74.4487 1367.60 1386.40 37.20
19224 74.4525 1372.20 1386.45 37.30
19225 74.4563 1389.00 1386.50 38.20
19226 74.4600 1364.50 1386.56 37.30
19227 74.4638 1342.90 1386.61 36.70
19228 74.4675 1405.30 1386.66 38.80
19229 74.4713 1402.70 1386.72 38.20
19230 74.4750 1361.70 1386.77 37.00
19231 74.4788 1336.30 1386.82 37.30
19232 74.4826 1378.50 1386.88 37.60
19233 74.4863 1277.90 1386.81 36.20
19234 74.4901 1410.60 1386.87 38.30
19235 74.4938 1372.50 1386.93 37.20
19236 74.4976 1344.10 1386.98 36.90
19237 74.5014 1455.90 1387.04 38.80
19238 74.5051 1352.60 1387.10 37.40
19239 74.5089 1380.60 1387.16 37.30
19240 74.5126 1326.20 1387.22 36.90
19241 74.5164 1447.50 1387.27 38.20
19242 74.5202 1374.60 1387.33 37.50
19243 74.5239 1339.90 1387.39 37.30
19244 74.5277 1396.80 1387.45 37.90
19245 74.5314 1364.00 1387.50 37.30
19246 74.5352 1389.20 1387.56 37.80
19247 74.5390 1346.50 1387.62 36.80
19248 74.5427 1329.20 1387.68 36.60
19249 74.5465 1374.30 1387.73 37.90
19250 74.5502 1274.40 1387.79 35.90
19251 74.5540 1379.10 1387.85 37.80
19252 74.5578 1399.30 1387.91 37.80
19253 74.5615 1381.90 1387.96 37.20
19254 74.5653 1338.20 1388.02 36.80
19255 74.5691 1442.90 1388.08 39.60
19256 74.5728 1356.30 1388.13 36.90
19257 74.5766 1351.90 1388.19 37.30
19258 74.5803 1380.60 1388.25 37.10
19259 74.5841 1382.60 1388.30 37.60
19260 74.5878 1331.10 1388.36 37.30
19261 74.5916 1404.10 1388.42 38.00
19262 74.5954 1335.40 1388.47 37.10
19263 74.5991 1334.10 1388.53 37.10
19264 74.6029 1367.60 1388.59 37.70
19265 74.6066 1367.20 1388.64 37.50
19266 74.6104 1340.30 1388.70 37.10
19267 74.6142 1358.00 1388.75 38.40
19268 74.6179 1354.90 1388.81 37.80
19269 74.6217 1398.20 1388.87 38.90
19270 74.6254 1296.80 1388.92 37.10
19271 74.6292 1367.70 1388.98 38.20
19272 74.6330 1375.70 1389.03 38.70
19273 74.6367 1417.80 1389.09 39.00
19274 74.6405 1343.80 1389.14 38.10
19275 74.6442 1313.00 1389.20 37.30
19276 74.6480 1380.00 1389.25 38.70
19277 74.6518 1306.10 1389.31 37.20
19278 74.6555 1336.90 1389.36 38.10
19279 74.6593 1288.60 1389.42 36.90
19280 74.6630 1349.00 1389.47 37.90
19281 74.6668 1472.10 1389.53 40.10
19282 74.6706 1349.80 1389.58 38.40
19283 74.6743 1386.60 1389.64 38.60
19284 74.6781 1347.00 1389.69 38.00
19285 74.6818 1349.50 1389.75 38.10
19286 74.6856 1355.80 1389.80 38.60
19287 74.6894 1379.40 1389.86 38.30
19288 74.6931 1382.30 1389.91 38.40
19289 74.6969 1357.30 1389.96 37.70
19290 74.7006 1349.80 1390.02 38.10
19291 74.7044 1382.50 1390.07 38.60
19292 74.7082 1383.50 1390.13 38.80
19293 74.7119 1380.70 1390.18 38.70
19294 74.7157 1340.70 1390.23 37.80
19295 74.7194 1391.20 1390.29 39.10
19296 74.7232 1361.50 1390.34 38.50
19297 74.7270 1378.70 1390.39 38.80
19298 74.7307 1304.10 1390.45 37.50
19299 74.7345 1317.70 1390.50 37.30
19300 74.7382 1308.80 1390.55 37.40
19301 74.7420 1374.00 1390.61 38.50
19302 74.7458 1407.70 1390.66 38.80
19303 74.7495 1373.70 1390.71 38.70
19304 74.7533 1329.10 1390.76 37.60
19305 74.7570 1331.60 1390.82 37.90
19306 74.7608 1399.90 1390.87 39.10
19307 74.7646 1402.30 1390.92 38.50
19308 74.7683 1390.20 1390.97 39.40
19309 74.7721 1306.30 1391.02 37.70
19310 74.7758 1315.50 1391.08 37.80
19311 74.7796 1328.50 1391.13 37.40
19312 74.7834 1374.80 1391.18 38.40
19313 74.7871 1391.40 1391.23 38.80
19314 74.7909 1353.10 1391.28 38.60
19315 74.7946 1325.90 1391.34 37.90
19316 74.7984 1419.30 1391.39 38.90
19317 74.8021 1350.90 1391.44 38.30
19318 74.8059 1347.30 1391.49 38.20
19319 74.8097 1404.50 1391.54 38.50
19320 74.8134 1321.00 1391.59 37.30
19321 74.8172 1381.90 1391.64 38.90
19322 74.8210 1326.10 1391.69 37.70
19323 74.8247 1361.10 1391.74 38.40
19324 74.8285 1424.40 1391.79 39.40
19325 74.8322 1348.80 1391.84 38.40
19326 74.8360 1381.10 1391.89 38.50
19327 74.8398 1347.10 1391.94 38.30
19328 74.8435 1360.90 1391.99 38.60
19329 74.8473 1369.30 1392.04 38.90
19330 74.8510 1317.10 1392.09 37.60
19331 74.8548 1271.60 1392.14 37.00
19332 74.8586 1313.90 1392.19 37.50
19333 74.8623 1334.20 1392.24 37.50
19334 74.8661 1333.50 1392.29 38.30
19335 74.8698 1349.10 1392.34 38.80
19336 74.8736 1323.90 1392.39 37.70
19337 74.8774 1337.20 1392.44 37.90
19338 74.8811 1346.70 1392.49 38.10
19339 74.8849 1323.50 1392.54 37.80
19340 74.8886 1361.50 1392.58 38.30
19341 74.8924 1398.40 1392.63 39.00
19342 74.8961 1378.40 1392.68 38.60
19343 74.8999 1420.90 1392.73 39.30
19344 74.9037 1323.10 1392.78 37.90
19345 74.9074 1346.50 1392.82 38.00
19346 74.9112 1311.70 1392.87 38.20
19347 74.9149 1382.20 1392.92 38.60
19348 74.9187 1361.20 1392.97 38.10
19349 74.9225 1349.30 1393.02 38.50
19350 74.9262 1315.70 1393.06 37.90
19351 74.9300 1350.60 1393.11 38.20
19352 74.9337 1352.50 1393.16 38.20
19353 74.9375 1352.40 1393.20 38.30
19354 74.9413 1342.30 1393.25 38.10
19355 74.9450 1331.60 1393.30 38.00
19356 74.9488 1348.10 1393.34 38.50
19357 74.9526 1332.70 1393.39 38.30
19358 74.9563 1283.80 1393.44 37.40
19359 74.9601 1357.00 1393.48 38.20
19360 74.9638 1313.10 1393.53 37.00
19361 74.9676 1357.30 1393.57 38.70
19362 74.9713 1429.30 1393.62 39.90
19363 74.9751 1363.70 1393.66 38.30
19364 74.9789 1377.40 1393.71 38.40
19365 74.9826 1337.00 1393.76 37.60
19366 74.9864 1369.90 1393.80 38.50
19367 74.9901 1289.10 1393.85 37.10
19368 74.9939 1317.80 1393.89 37.90
19369 74.9977 1355.90 1393.94 38.40
19370 75.0014 1384.00 1393.98 39.10
19371 75.0052 1371.50 1394.02 38.80
19372 75.0089 1396.40 1394.07 38.60
19373 75.0127 1357.60 1394.11 38.30
19374 75.0165 1354.00 1394.16 38.60
19375 75.0202 1367.80 1394.20 38.70
19376 75.0240 1439.90 1394.24 40.00
19377 75.0277 1346.30 1394.29 38.70
19378 75.0315 1312.20 1394.33 37.90
19379 75.0353 1347.70 1394.37 38.30
19380 75.0390 1375.50 1394.42 38.80
19381 75.0428 1375.90 1394.46 38.50
19382 75.0465 1364.20 1394.50 39.20
19383 75.0503 1370.30 1394.55 38.30
19384 75.0540 1332.90 1394.59 37.60
19385 75.0578 1392.90 1394.63 39.40
19386 75.0616 1386.70 1394.67 38.30
19387 75.0653 1351.90 1394.72 38.40
19388 75.0691 1361.60 1394.76 39.10
19389 75.0729 1327.30 1394.80 37.70
19390 75.0766 1376.40 1394.84 38.40
19391 75.0804 1356.60 1394.88 38.20
19392 75.0841 1338.70 1394.92 38.00
19393 75.0879 1396.90 1394.97 39.20
19394 75.0917 1400.30 1395.01 39.40
19395 75.0954 1308.00 1395.05 37.70
19396 75.0992 1366.70 1395.09 38.60
19397 75.1029 1430.80 1395.13 39.50
19398 75.1067 1388.20 1395.17 38.50
19399 75.1105 1412.10 1395.21 39.10
19400 75.1142 1423.20 1395.25 39.30
19401 75.1180 1397.60 1395.29 38.90
19402 75.1217 1379.70 1395.33 38.70
19403 75.1255 1361.30 1395.37 37.90
19404 75.1293 1367.40 1395.41 38.70
19405 75.1330 1398.60 1395.45 38.90
19406 75.1368 1388.40 1395.49 38.10
19407 75.1405 1382.50 1395.53 38.10
19408 75.1443 1337.00 1395.56 38.10
19409 75.1480 1390.00 1395.60 38.80
19410 75.1518 1402.20 1395.64 38.20
19411 75.1556 1371.80 1395.68 38.60
19412 75.1593 1393.40 1395.72 38.40
19413 75.1631 1358.70 1395.76 37.90
19414 75.1668 1383.20 1395.79 38.90
19415 75.1706 1430.90 1395.83 39.90
19416 75.1744 1360.10 1395.87 37.90
19417 75.1781 1497.70 1395.91 40.30
19418 75.1819 1361.10 1395.94 38.50
19419 75.1856 1393.00 1395.98 38.90
19420 75.1894 1351.60 1396.02 38.30
19421 75.1932 1344.30 1396.05 38.30
19422 75.1969 1364.10 1396.09 37.80
19423 75.2007 1440.20 1396.13 39.80
19424 75.2044 1374.40 1396.16 38.70
19425 75.2082 1385.60 1396.20 39.10
19426 75.2120 1309.50 1396.24 37.70
19427 75.2157 1391.00 1396.27 38.40
19428 75.2195 1385.70 1396.31 38.60
19429 75.2232 1374.50 1396.34 38.80
19430 75.2270 1437.10 1396.38 39.80
19431 75.2308 1358.90 1396.41 38.30
19432 75.2345 1425.90 1396.45 39.10
19433 75.2383 1369.60 1396.48 38.50
19434 75.2420 1393.30 1396.52 39.20
19435 75.2458 1439.10 1396.55 39.80
19436 75.2496 1385.60 1396.59 38.40
19437 75.2533 1379.60 1396.62 38.80
19438 75.2571 1361.00 1396.65 38.30
19439 75.2608 1458.10 1396.69 39.90
19440 75.2646 1360.70 1396.72 37.80
19441 75.2683 1420.60 1396.75 40.00
19442 75.2721 1379.00 1396.79 39.30
19443 75.2759 1431.40 1396.82 39.60
19444 75.2796 1456.30 1396.85 39.30
19445 75.2834 1454.90 1396.88 39.50
19446 75.2871 1380.40 1396.92 39.20
19447 75.2909 1412.90 1396.95 39.40
19448 75.2947 1478.00 1396.98 40.20
19449 75.2984 1433.40 1397.01 39.20
19450 75.3022 1416.20 1397.04 39.20
19451 75.3059 1447.20 1397.08 40.00
19452 75.3097 1419.60 1397.11 39.70
19453 75.3135 1418.40 1427.85 39.70
19454 75.3172 1337.00 1428.86 37.90
19455 75.3210 1407.00 1429.90 38.90
19456 75.3247 1393.40 1431.01 38.90
19457 75.3285 1495.20 1432.16 40.60
19458 75.3323 1421.40 1433.37 39.50
19459 75.3360 1426.30 1434.64 39.80
19460 75.3398 1355.70 1435.97 38.30
19461 75.3435 1502.80 1437.38 40.70
19462 75.3473 1443.70 1438.86 40.20
19463 75.3511 1426.70 1440.41 39.40
19464 75.3548 1429.20 1442.06 40.00
19465 75.3586 1462.30 1443.80 39.70
19466 75.3623 1435.70 1445.63 39.30
19467 75.3661 1483.10 1447.58 39.90
19468 75.3699 1466.90 1449.64 40.60
19469 75.3736 1476.90 1451.82 40.10
19470 75.3774 1459.70 1454.14 39.70
19471 75.3811 1434.50 1456.61 39.20
19472 75.3849 1471.30 1459.24 39.60
19473 75.3886 1488.60 1462.05 40.60
19474 75.3924 1575.80 1465.05 41.60
19475 75.3962 1509.30 1468.26 40.60
19476 75.3999 1497.40 1471.71 40.30
19477 75.4037 1579.10 1475.40 41.50
19478 75.4074 1524.10 1479.37 41.00
19479 75.4112 1566.40 1483.65 41.20
19480 75.4150 1535.50 1488.26 40.50
19481 75.4187 1534.70 1493.26 41.10
19482 75.4225 1608.70 1498.67 41.70
19483 75.4262 1593.50 1504.57 41.90
19484 75.4300 1617.60 1510.96 41.90
19485 75.4337 1618.80 1517.96 42.30
19486 75.4375 1586.70 1525.61 42.00
19487 75.4413 1662.00 1534.03 43.00
19488 75.4450 1653.00 1543.27 42.40
19489 75.4488 1537.40 1553.48 40.70
19490 75.4526 1641.60 1564.81 42.20
19491 75.4563 1625.80 1577.36 42.30
19492 75.4601 1671.90 1591.40 43.10
19493 75.4638 1725.70 1607.22 43.20
19494 75.4676 1768.50 1624.87 44.50
19495 75.4713 1724.10 1644.94 44.30
19496 75.4751 1821.10 1667.75 44.90
19497 75.4789 1844.00 1693.77 44.60
19498 75.4826 1844.40 1723.69 44.70
19499 75.4864 1872.50 1758.38 44.90
19500 75.4901 2009.50 1798.75 46.80
19501 75.4939 1994.10 1846.17 47.30
19502 75.4977 2142.30 1902.48 49.10
19503 75.5014 2110.00 1970.53 48.30
19504 75.5052 2279.40 2053.72 50.70
19505 75.5089 2400.30 2159.64 52.00
19506 75.5127 2475.40 2300.03 52.90
19507 75.5165 2880.40 2497.28 57.70
19508 75.5202 3051.70 2787.80 59.00
19509 75.5240 3475.40 3229.75 63.50
19510 75.5277 4041.90 3904.62 68.60
19511 75.5315 5208.10 4904.07 78.70
19512 75.5352 6484.00 6311.77 88.40
19513 75.5390 8912.40 8185.08 104.50
19514 75.5428 11406.00 10440.90 119.60
19515 75.5465 14364.00 12904.60 138.30
19516 75.5503 16062.50 15129.20 145.50
19517 75.5540 16957.50 16454.90 149.40
19518 75.5578 16517.40 16331.20 148.00
19519 75.5616 14218.00 14814.70 134.70
19520 75.5653 10922.10 12520.70 117.00
19521 75.5691 8317.70 10065.80 102.10
19522 75.5728 6002.40 7856.55 84.80
19523 75.5766 4655.20 6064.31 73.70
19524 75.5804 3956.70 4720.46 67.40
19525 75.5841 3393.10 3777.58 62.00
19526 75.5879 2961.50 3148.88 58.00
19527 75.5916 2734.10 2733.32 55.60
19528 75.5954 2535.70 2461.14 53.80
19529 75.5991 2402.10 2275.59 52.60
19530 75.6029 2334.70 2141.59 51.30
19531 75.6067 2105.50 2039.89 48.90
19532 75.6104 2061.00 1959.55 48.30
19533 75.6142 1999.40 1893.69 47.30
19534 75.6179 1956.70 1838.95 46.50
19535 75.6217 1941.60 1792.76 46.30
19536 75.6255 1896.50 1753.41 45.70
19537 75.6292 1794.30 1719.43 44.80
19538 75.6330 1828.00 1690.32 46.00
19539 75.6367 1743.60 1664.83 44.20
19540 75.6405 1800.00 1642.55 44.40
19541 75.6443 1766.70 1622.91 44.50
19542 75.6480 1749.50 1605.56 44.50
19543 75.6518 1706.40 1590.14 43.60
19544 75.6555 1765.70 1576.38 44.80
19545 75.6593 1740.70 1564.02 44.60
19546 75.6630 1646.80 1552.95 43.20
19547 75.6668 1650.20 1542.91 42.90
19548 75.6706 1640.70 1533.83 42.70
19549 75.6743 1630.70 1525.60 42.70
19550 75.6781 1644.80 1518.09 42.90
19551 75.6818 1583.40 1511.19 41.50
19552 75.6856 1593.00 1504.93 42.70
19553 75.6893 1607.40 1499.15 41.80
19554 75.6931 1543.00 1493.84 40.80
19555 75.6969 1534.50 1488.94 41.60
19556 75.7006 1564.60 1484.41 41.40
19557 75.7044 1525.40 1480.22 41.10
19558 75.7082 1583.20 1476.33 42.10
19559 75.7119 1553.00 1472.71 41.80
19560 75.7157 1487.60 1469.35 41.20
19561 75.7194 1564.00 1466.20 42.00
19562 75.7232 1529.10 1463.26 41.50
19563 75.7269 1565.50 1460.52 42.20
19564 75.7307 1455.10 1457.95 40.60
19565 75.7345 1479.10 1455.53 40.90
19566 75.7382 1425.40 1453.27 39.90
19567 75.7420 1463.50 1451.14 40.10
19568 75.7457 1506.50 1449.13 40.60
19569 75.7495 1517.50 1447.24 41.10
19570 75.7533 1466.10 1445.45 40.20
19571 75.7570 1443.30 1443.76 40.20
19572 75.7608 1447.90 1442.17 40.00
19573 75.7645 1414.60 1440.65 39.40
19574 75.7683 1481.20 1439.22 41.00
19575 75.7720 1499.50 1437.86 41.40
19576 75.7758 1388.50 1436.57 39.20
19577 75.7796 1342.60 1435.35 38.20
19578 75.7833 1456.80 1434.18 40.40
19579 75.7871 1499.10 1433.07 40.60
19580 75.7908 1437.60 1432.01 40.20
19581 75.7946 1429.50 1431.00 39.20
19582 75.7983 1418.20 1430.04 39.60
19583 75.8021 1416.90 1399.43 39.70
19584 75.8059 1405.90 1399.43 39.70
19585 75.8096 1330.30 1399.43 38.90
19586 75.8134 1405.20 1399.43 39.60
19587 75.8171 1401.40 1399.44 39.40
19588 75.8209 1359.90 1399.44 39.20
19589 75.8247 1333.90 1399.44 38.70
19590 75.8284 1383.30 1399.44 38.70
19591 75.8322 1469.70 1399.44 40.40
19592 75.8359 1466.80 1399.44 40.30
19593 75.8397 1389.00 1399.44 39.20
19594 75.8434 1371.20 1399.44 38.40
19595 75.8472 1441.70 1399.44 40.60
19596 75.8510 1388.80 1399.44 39.00
19597 75.8547 1423.70 1399.44 40.30
19598 75.8585 1370.50 1399.44 38.70
19599 75.8622 1431.10 1399.44 39.70
19600 75.8660 1393.50 1399.44 39.30
19601 75.8698 1485.80 1399.44 41.50
19602 75.8735 1341.60 1399.44 38.40
19603 75.8773 1356.00 1399.44 38.00
19604 75.8810 1407.90 1399.43 39.50
19605 75.8848 1353.00 1399.43 38.50
19606 75.8885 1461.20 1399.43 40.40
19607 75.8923 1419.80 1399.43 40.50
19608 75.8961 1356.50 1399.42 39.00
19609 75.8998 1322.30 1399.42 38.50
19610 75.9036 1377.90 1399.42 38.80
19611 75.9073 1362.50 1399.41 38.80
19612 75.9111 1375.20 1399.41 39.30
19613 75.9148 1427.00 1399.41 39.60
19614 75.9186 1377.80 1399.40 39.10
19615 75.9224 1421.20 1399.40 39.00
19616 75.9261 1383.60 1399.39 39.00
19617 75.9299 1385.80 1399.39 39.60
19618 75.9336 1425.70 1399.38 40.00
19619 75.9374 1415.80 1399.38 40.00
19620 75.9411 1341.00 1399.37 38.20
19621 75.9449 1411.80 1399.36 39.20
19622 75.9487 1300.90 1399.36 38.50
19623 75.9524 1355.30 1399.35 39.00
19624 75.9562 1404.80 1399.34 39.80
19625 75.9600 1416.60 1399.34 39.70
19626 75.9637 1469.10 1399.33 40.40
19627 75.9675 1417.40 1399.32 39.00
19628 75.9712 1402.30 1399.31 40.20
19629 75.9750 1413.80 1399.30 39.90
19630 75.9787 1337.00 1399.30 38.50
19631 75.9825 1377.30 1399.29 38.70
19632 75.9862 1327.10 1399.28 38.60
19633 75.9900 1402.70 1399.27 39.50
19634 75.9938 1353.50 1399.26 38.80
19635 75.9975 1351.50 1399.25 38.80
19636 76.0013 1388.10 1399.24 39.10
19637 76.0050 1364.70 1399.23 38.90
19638 76.0088 1407.40 1399.22 39.20
19639 76.0126 1417.10 1399.21 39.80
19640 76.0163 1300.50 1399.20 38.00
19641 76.0201 1366.50 1399.18 39.10
19642 76.0238 1321.10 1399.17 38.10
19643 76.0276 1401.50 1399.16 39.50
19644 76.0313 1413.90 1399.15 40.10
19645 76.0351 1329.00 1399.14 38.70
19646 76.0389 1294.10 1399.12 37.90
19647 76.0426 1344.50 1399.11 38.00
19648 76.0464 1414.10 1399.10 39.70
19649 76.0501 1360.50 1399.08 39.30
19650 76.0539 1306.50 1399.07 38.40
19651 76.0576 1355.70 1399.06 38.30
19652 76.0614 1357.00 1399.04 37.60
19653 76.0652 1419.50 1399.03 38.40
19654 76.0689 1409.10 1399.01 39.20
19655 76.0727 1368.70 1399.00 37.70
19656 76.0764 1416.90 1398.98 38.80
19657 76.0802 1388.10 1398.97 38.00
19658 76.0839 1332.00 1398.95 37.30
19659 76.0877 1389.30 1398.94 39.00
19660 76.0915 1330.30 1398.92 37.30
19661 76.0952 1400.40 1398.90 38.50
19662 76.0990 1391.20 1398.89 38.80
19663 76.1027 1385.00 1398.87 38.50
19664 76.1065 1340.90 1398.85 38.10
19665 76.1102 1335.70 1398.83 37.90
19666 76.1140 1375.00 1398.82 38.70
19667 76.1178 1406.50 1398.80 39.30
19668 76.1215 1387.30 1398.78 38.90
19669 76.1253 1374.60 1398.76 37.70
19670 76.1290 1368.50 1398.74 38.40
19671 76.1328 1366.70 1398.72 38.30
19672 76.1365 1402.70 1398.70 38.70
19673 76.1403 1307.60 1398.68 37.30
19674 76.1441 1331.20 1398.66 37.30
19675 76.1478 1355.50 1398.64 38.30
19676 76.1516 1344.50 1398.62 38.10
19677 76.1553 1364.90 1398.60 37.90
19678 76.1591 1386.40 1398.58 38.80
19679 76.1628 1335.20 1398.56 37.70
19680 76.1666 1377.00 1398.54 38.10
19681 76.1704 1407.80 1398.52 39.80
19682 76.1741 1285.70 1398.50 37.10
19683 76.1779 1279.80 1398.47 37.40
19684 76.1816 1403.60 1398.45 39.00
19685 76.1854 1380.20 1398.43 38.50
19686 76.1891 1326.80 1398.40 38.00
19687 76.1929 1397.90 1398.38 38.90
19688 76.1967 1351.60 1398.36 38.30
19689 76.2004 1383.40 1398.33 38.70
19690 76.2042 1320.60 1398.31 37.60
19691 76.2079 1348.50 1398.29 37.90
19692 76.2117 1361.60 1398.26 38.50
19693 76.2154 1377.90 1398.24 38.30
19694 76.2192 1395.40 1398.21 38.70
19695 76.2230 1370.30 1398.18 38.10
19696 76.2267 1392.30 1398.16 38.80
19697 76.2305 1385.60 1398.13 38.60
19698 76.2342 1363.90 1398.11 38.50
19699 76.2380 1304.70 1398.08 37.30
19700 76.2417 1317.70 1398.05 38.00
19701 76.2455 1256.90 1398.03 36.50
19702 76.2493 1377.60 1398.00 38.90
19703 76.2530 1345.30 1397.97 38.00
19704 76.2568 1339.30 1397.94 38.00
19705 76.2605 1360.70 1397.91 38.80
19706 76.2643 1411.10 1397.89 38.60
19707 76.2680 1364.20 1397.86 38.50
19708 76.2718 1314.00 1397.83 38.40
19709 76.2756 1309.30 1397.80 38.20
19710 76.2793 1360.30 1397.77 37.70
19711 76.2831 1359.30 1397.74 38.20
19712 76.2868 1362.10 1397.71 38.30
19713 76.2906 1343.70 1397.68 38.20
19714 76.2943 1431.30 1397.65 39.50
19715 76.2981 1338.20 1397.62 38.10
19716 76.3019 1420.50 1397.59 39.20
19717 76.3056 1357.00 1397.56 38.50
19718 76.3094 1328.10 1397.52 38.10
19719 76.3131 1384.00 1397.49 39.10
19720 76.3169 1390.90 1397.46 39.10
19721 76.3206 1337.80 1397.43 38.10
19722 76.3244 1437.10 1397.39 39.30
19723 76.3281 1384.00 1397.36 38.80
19724 76.3319 1308.20 1397.33 37.10
19725 76.3357 1291.70 1397.30 37.40
19726 76.3394 1371.30 1397.26 38.40
19727 76.3432 1330.80 1397.23 37.70
19728 76.3469 1364.50 1397.19 38.80
19729 76.3507 1345.10 1397.16 38.10
19730 76.3544 1375.60 1397.12 39.10
19731 76.3582 1343.40 1397.09 38.40
19732 76.3620 1347.10 1397.05 38.20
19733 76.3657 1302.30 1397.02 37.00
19734 76.3695 1365.00 1396.98 39.30
19735 76.3732 1389.90 1396.94 38.80
19736 76.3770 1373.80 1396.91 38.30
19737 76.3807 1406.00 1396.87 38.60
19738 76.3845 1325.60 1396.83 38.00
19739 76.3882 1332.50 1396.80 37.80
19740 76.3920 1462.60 1396.76 40.10
19741 76.3958 1395.40 1396.72 38.90
19742 76.3995 1307.90 1396.68 37.30
19743 76.4033 1369.70 1396.65 38.20
19744 76.4070 1383.00 1396.61 39.10
19745 76.4108 1370.50 1396.57 38.70
19746 76.4145 1310.30 1396.53 37.30
19747 76.4183 1358.20 1396.49 38.40
19748 76.4221 1403.40 1396.45 39.00
19749 76.4258 1355.70 1396.41 38.70
19750 76.4296 1394.60 1396.37 39.30
19751 76.4333 1430.30 1396.33 40.20
19752 76.4371 1349.00 1396.29 38.70
19753 76.4408 1382.50 1396.25 38.90
19754 76.4446 1368.30 1396.21 39.10
19755 76.4483 1351.40 1396.16 38.40
19756 76.4521 1362.60 1396.12 39.00
19757 76.4559 1397.90 1396.08 39.20
19758 76.4596 1357.90 1396.04 38.50
19759 76.4634 1329.60 1395.99 38.10
19760 76.4671 1331.50 1395.95 37.50
19761 76.4709 1364.10 1395.91 39.30
19762 76.4746 1313.00 1395.87 38.20
19763 76.4784 1415.10 1395.82 39.30
19764 76.4821 1367.00 1395.78 37.90
19765 76.4859 1318.10 1395.73 37.90
19766 76.4897 1432.60 1395.69 39.70
19767 76.4934 1365.60 1395.64 38.30
19768 76.4972 1317.30 1395.60 38.10
19769 76.5009 1375.80 1395.55 38.20
19770 76.5047 1406.30 1395.51 39.00
19771 76.5084 1343.10 1395.46 38.60
19772 76.5122 1339.10 1395.42 37.20
19773 76.5160 1406.70 1395.37 38.90
19774 76.5197 1304.20 1395.32 37.50
19775 76.5235 1328.90 1395.28 37.90
19776 76.5272 1360.80 1395.23 38.50
19777 76.5310 1390.00 1395.18 38.80
19778 76.5347 1402.00 1395.13 40.50
19779 76.5385 1360.20 1395.09 37.30
19780 76.5422 1358.00 1395.04 37.30
19781 76.5460 1320.50 1394.99 36.60
19782 76.5498 1320.10 1394.94 37.00
19783 76.5535 1356.50 1394.89 37.50
19784 76.5573 1342.60 1394.84 37.10
19785 76.5610 1382.10 1394.79 37.70
19786 76.5648 1318.10 1394.74 36.70
19787 76.5685 1286.20 1394.69 36.20
19788 76.5723 1319.40 1394.64 37.40
19789 76.5760 1364.80 1394.59 37.50
19790 76.5798 1373.20 1394.54 37.40
19791 76.5836 1317.80 1394.49 36.60
19792 76.5873 1412.00 1394.44 38.10
19793 76.5911 1336.00 1394.39 37.00
19794 76.5948 1358.30 1394.33 37.30
19795 76.5986 1393.40 1394.28 37.90
19796 76.6023 1363.00 1394.23 37.30
19797 76.6061 1368.50 1394.18 37.40
19798 76.6098 1348.70 1394.12 37.50
19799 76.6136 1354.50 1396.04 37.70
19800 76.6173 1336.10 1396.04 37.30
19801 76.6211 1315.30 1396.05 36.80
19802 76.6249 1357.90 1396.07 37.30
19803 76.6286 1375.50 1396.08 37.90
19804 76.6324 1369.80 1396.10 37.20
19805 76.6361 1372.50 1396.13 37.80
19806 76.6399 1357.50 1396.15 37.40
19807 76.6436 1347.60 1396.19 37.40
19808 76.6474 1381.90 1396.22 37.90
19809 76.6512 1351.70 1396.26 37.80
19810 76.6549 1321.10 1396.31 37.40
19811 76.6587 1356.50 1396.36 37.70
19812 76.6624 1369.50 1396.42 37.60
19813 76.6662 1443.80 1396.48 38.30
19814 76.6699 1355.90 1396.55 37.60
19815 76.6737 1419.30 1396.63 38.90
19816 76.6774 1389.00 1396.71 38.00
19817 76.6812 1327.00 1396.81 37.20
19818 76.6849 1357.70 1396.91 37.40
19819 76.6887 1442.40 1397.03 39.20
19820 76.6925 1402.30 1397.15 38.10
19821 76.6962 1336.70 1397.29 37.20
19822 76.7000 1347.70 1397.45 37.50
19823 76.7037 1364.20 1397.62 37.20
19824 76.7075 1357.80 1397.80 37.70
19825 76.7112 1315.70 1398.00 37.30
19826 76.7150 1367.50 1398.23 37.60
19827 76.7187 1350.10 1398.48 37.30
19828 76.7225 1353.40 1398.75 37.50
19829 76.7262 1375.10 1399.05 38.00
19830 76.7300 1351.40 1399.38 37.80
19831 76.7338 1364.70 1399.75 37.90
19832 76.7375 1272.10 1400.15 36.30
19833 76.7413 1341.60 1400.60 37.00
19834 76.7450 1339.30 1401.10 37.00
19835 76.7488 1348.20 1401.66 37.90
19836 76.7525 1374.70 1402.29 37.60
19837 76.7563 1302.60 1402.99 37.10
19838 76.7600 1270.60 1403.77 36.20
19839 76.7638 1384.60 1404.66 37.80
19840 76.7675 1303.00 1405.66 36.50
19841 76.7713 1354.60 1406.79 38.20
19842 76.7750 1326.60 1408.09 37.50
19843 76.7788 1360.70 1409.57 38.10
19844 76.7826 1415.80 1411.28 38.10
19845 76.7863 1360.30 1413.26 37.90
19846 76.7901 1407.30 1415.56 38.80
19847 76.7938 1350.80 1418.26 37.30
19848 76.7976 1370.30 1421.45 37.80
19849 76.8013 1385.20 1425.27 38.20
19850 76.8051 1316.30 1429.92 37.10
19851 76.8088 1434.30 1435.72 39.10
19852 76.8126 1421.20 1443.30 38.60
19853 76.8164 1440.40 1453.54 38.50
19854 76.8201 1439.50 1468.32 38.90
19855 76.8239 1459.80 1490.40 39.00
19856 76.8276 1518.60 1524.03 39.90
19857 76.8314 1555.20 1574.56 40.00
19858 76.8351 1559.90 1647.52 40.60
19859 76.8389 1798.20 1747.49 43.50
19860 76.8426 1819.30 1874.35 43.80
19861 76.8464 1980.20 2022.99 46.00
19862 76.8501 2111.70 2174.97 47.70
19863 76.8539 2224.00 2299.51 48.60
19864 76.8576 2289.80 2354.78 49.40
19865 76.8614 2271.20 2317.60 49.40
19866 76.8652 2035.10 2204.04 46.00
19867 76.8689 1899.60 2054.30 44.50
19868 76.8727 1736.00 1903.15 43.20
19869 76.8764 1536.80 1770.35 40.40
19870 76.8802 1576.10 1664.92 40.60
19871 76.8839 1477.80 1586.46 39.00
19872 76.8877 1409.60 1531.73 38.20
19873 76.8914 1472.80 1494.96 39.20
19874 76.8952 1481.30 1470.77 39.80
19875 76.8989 1416.90 1454.62 38.40
19876 76.9027 1455.30 1443.47 39.60
19877 76.9064 1419.40 1435.34 39.20
19878 76.9102 1457.20 1429.08 39.40
19879 76.9140 1331.80 1424.08 37.30
19880 76.9177 1364.10 1419.96 38.00
19881 76.9215 1391.60 1416.52 38.20
19882 76.9252 1460.60 1413.58 39.00
19883 76.9290 1330.10 1411.07 37.50
19884 76.9327 1370.70 1408.89 38.10
19885 76.9365 1431.50 1406.99 38.40
19886 76.9402 1271.90 1405.32 36.00
19887 76.9440 1409.60 1403.85 38.50
19888 76.9477 1326.00 1402.55 37.50
19889 76.9515 1385.00 1401.38 38.60
19890 76.9553 1401.50 1400.33 38.40
19891 76.9590 1327.10 1399.38 37.30
19892 76.9628 1345.30 1398.53 37.70
19893 76.9665 1347.90 1397.75 37.00
19894 76.9703 1366.50 1397.04 38.10
19895 76.9740 1416.20 1396.39 39.40
19896 76.9778 1382.30 1395.79 38.20
19897 76.9815 1371.90 1395.23 37.80
19898 76.9853 1415.60 1394.72 38.60
19899 76.9890 1376.30 1394.24 37.80
19900 76.9928 1336.10 1393.79 37.50
19901 76.9965 1354.20 1393.38 37.50
19902 76.9987 1332.80 1393.14 38.40
19903 77.0025 1390.60 1392.76 38.00
19904 77.0062 1352.30 1392.41 38.10
19905 77.0100 1296.20 1392.07 37.40
19906 77.0138 1350.80 1391.75 38.20
19907 77.0175 1375.90 1391.45 38.70
19908 77.0213 1373.00 1391.16 38.50
19909 77.0250 1332.00 1390.89 39.40
19910 77.0288 1354.50 1390.63 37.20
19911 77.0325 1331.60 1390.38 36.90
19912 77.0363 1431.20 1390.14 38.20
19913 77.0400 1370.90 1389.91 37.70
19914 77.0438 1345.90 1389.69 37.40
19915 77.0476 1380.60 1389.47 37.70
19916 77.0513 1364.10 1389.26 37.50
19917 77.0551 1335.10 1389.06 36.90
19918 77.0588 1359.50 1388.87 37.20
19919 77.0626 1350.80 1388.68 37.90
19920 77.0663 1377.20 1388.50 37.70
19921 77.0701 1359.10 1388.32 37.20
19922 77.0739 1405.10 1388.15 37.80
19923 77.0776 1351.20 1387.98 37.30
19924 77.0814 1371.00 1387.82 37.50
19925 77.0851 1337.50 1387.66 37.00
19926 77.0889 1313.60 1387.50 36.80
19927 77.0926 1343.20 1387.34 37.00
19928 77.0964 1303.50 1387.19 36.50
19929 77.1001 1374.80 1387.05 37.90
19930 77.1039 1344.80 1386.90 37.60
19931 77.1077 1316.90 1384.87 37.00
19932 77.1114 1320.00 1384.78 36.90
19933 77.1152 1375.80 1384.70 37.50
19934 77.1189 1340.00 1384.61 37.40
19935 77.1227 1353.90 1384.53 37.00
19936 77.1264 1303.40 1384.44 36.80
19937 77.1302 1308.00 1384.35 36.70
19938 77.1339 1353.30 1384.27 37.50
19939 77.1377 1393.40 1384.18 38.10
19940 77.1415 1393.70 1384.09 38.50
19941 77.1452 1410.90 1384.00 38.70
19942 77.1490 1398.10 1383.92 38.30
19943 77.1527 1340.00 1383.83 37.20
19944 77.1565 1301.00 1383.74 36.20
19945 77.1602 1334.80 1383.65 37.30
19946 77.1640 1317.40 1383.57 37.40
19947 77.1677 1371.70 1383.48 37.80
19948 77.1715 1337.50 1383.39 37.30
19949 77.1752 1365.30 1383.30 37.50
19950 77.1790 1404.20 1383.21 38.70
19951 77.1827 1360.40 1383.12 37.50
19952 77.1865 1356.70 1383.03 37.50
19953 77.1903 1314.00 1382.94 37.00
19954 77.1940 1357.70 1382.85 37.10
19955 77.1978 1331.80 1382.76 37.30
19956 77.2015 1364.50 1382.67 38.00
19957 77.2053 1261.60 1382.58 36.10
19958 77.2090 1392.00 1382.49 37.90
19959 77.2128 1344.80 1382.40 37.40
19960 77.2166 1322.80 1382.31 37.20
19961 77.2203 1379.80 1382.22 38.20
19962 77.2241 1353.00 1382.12 37.80
19963 77.2278 1343.90 1382.03 37.30
19964 77.2281 1315.70 1382.02 37.10
19965 77.2319 1348.80 1381.93 37.40
19966 77.2356 1348.80 1381.84 37.70
19967 77.2394 1358.40 1381.75 37.70
19968 77.2431 1309.40 1381.66 37.10
19969 77.2469 1398.10 1381.56 38.20
19970 77.2506 1328.20 1381.47 37.60
19971 77.2544 1298.50 1381.38 36.90
19972 77.2581 1376.60 1381.28 38.40
19973 77.2619 1302.70 1381.19 36.80
19974 77.2656 1342.20 1381.10 37.30
19975 77.2694 1378.20 1381.00 38.50
19976 77.2731 1363.90 1380.91 38.30
19977 77.2769 1389.10 1380.82 38.50
19978 77.2806 1364.80 1380.72 37.90
19979 77.2844 1339.10 1380.63 37.50
19980 77.2881 1445.30 1380.53 39.30
19981 77.2919 1323.80 1380.44 37.30
19982 77.2957 1426.80 1380.34 39.20
19983 77.2994 1355.30 1380.25 38.20
19984 77.3032 1338.80 1380.15 37.90
19985 77.3069 1354.00 1380.06 38.30
19986 77.3107 1315.70 1379.96 37.50
19987 77.3144 1410.80 1379.86 39.20
19988 77.3182 1397.40 1379.77 38.80
19989 77.3219 1395.50 1379.67 38.60
19990 77.3257 1406.70 1379.58 38.70
19991 77.3294 1456.10 1379.48 39.40
19992 77.3332 1298.70 1379.38 37.40
19993 77.3370 1311.60 1379.28 37.90
19994 77.3407 1330.10 1379.19 37.80
19995 77.3445 1354.30 1379.09 38.10
19996 77.3482 1444.00 1378.99 39.70
19997 77.3520 1357.20 1378.90 38.20
19998 77.3557 1377.00 1378.80 38.80
19999 77.3595 1357.30 1378.70 38.50
20000 77.3632 1358.20 1378.60 38.00
20001 77.3670 1291.50 1378.50 36.60
20002 77.3707 1408.40 1378.40 39.20
20003 77.3745 1351.80 1378.31 38.20
20004 77.3782 1389.10 1378.21 38.50
20005 77.3820 1358.30 1378.11 38.30
20006 77.3857 1395.00 1378.01 38.10
20007 77.3895 1403.80 1377.91 38.00
20008 77.3933 1339.40 1377.81 38.20
20009 77.3970 1324.90 1377.71 37.70
20010 77.4008 1326.10 1377.61 37.60
20011 77.4045 1333.00 1377.51 38.00
20012 77.4083 1336.80 1377.41 37.70
20013 77.4120 1320.20 1377.31 37.40
20014 77.4158 1353.70 1377.21 38.20
20015 77.4195 1328.10 1377.11 37.80
20016 77.4233 1370.00 1377.01 38.30
20017 77.4270 1391.50 1376.91 38.90
20018 77.4308 1407.70 1376.81 38.60
20019 77.4345 1330.90 1376.71 37.30
20020 77.4383 1347.70 1376.60 37.90
20021 77.4420 1336.70 1376.50 37.80
20022 77.4458 1279.00 1376.40 37.30
20023 77.4496 1422.00 1376.30 39.50
20024 77.4533 1377.40 1376.20 38.50
20025 77.4571 1381.20 1376.10 38.70
20026 77.4608 1333.60 1375.99 38.00
20027 77.4646 1364.50 1375.89 37.90
20028 77.4683 1390.50 1375.79 38.40
20029 77.4721 1329.20 1375.69 38.20
20030 77.4758 1300.90 1375.58 37.60
20031 77.4796 1361.50 1375.48 38.10
20032 77.4834 1324.30 1375.38 37.50
20033 77.4871 1370.90 1375.28 38.10
20034 77.4909 1446.30 1375.17 39.20
20035 77.4946 1397.30 1375.07 38.80
20036 77.4984 1333.00 1374.96 37.70
20037 77.5021 1371.80 1374.86 38.40
20038 77.5059 1380.30 1374.76 38.30
20039 77.5096 1396.40 1374.65 38.70
20040 77.5134 1301.60 1374.55 37.50
20041 77.5171 1320.60 1374.45 37.60
20042 77.5209 1348.80 1374.34 38.20
20043 77.5246 1360.10 1374.24 38.30
20044 77.5284 1363.20 1374.13 38.10
20045 77.5322 1331.20 1374.03 38.20
20046 77.5359 1314.60 1373.92 37.60
20047 77.5397 1395.10 1373.82 38.80
20048 77.5434 1353.40 1373.71 38.20
20049 77.5472 1356.60 1373.61 38.40
20050 77.5509 1366.10 1373.50 38.90
20051 77.5547 1420.70 1373.40 39.60
20052 77.5584 1439.70 1373.29 39.70
20053 77.5622 1345.10 1373.19 37.90
20054 77.5659 1358.50 1373.08 37.50
20055 77.5697 1335.60 1372.97 38.30
20056 77.5735 1350.20 1372.87 38.30
20057 77.5772 1316.90 1372.76 37.40
20058 77.5810 1368.40 1372.66 37.50
20059 77.5847 1366.40 1372.55 38.10
20060 77.5885 1393.50 1372.44 38.40
20061 77.5922 1306.90 1372.34 38.00
20062 77.5960 1371.70 1372.23 38.30
20063 77.5997 1327.20 1372.12 38.20
20064 77.6035 1372.90 1372.02 39.10
20065 77.6072 1364.50 1371.91 38.50
20066 77.6110 1303.70 1371.80 37.80
20067 77.6148 1385.90 1371.69 38.60
20068 77.6185 1361.20 1371.59 38.50
20069 77.6223 1394.20 1371.48 38.90
20070 77.6260 1372.10 1371.37 39.00
20071 77.6298 1368.50 1371.26 38.60
20072 77.6335 1404.80 1371.16 39.70
20073 77.6373 1424.00 1371.05 39.50
20074 77.6410 1351.90 1370.94 38.30
20075 77.6448 1425.80 1370.83 39.20
20076 77.6486 1404.90 1370.72 39.20
20077 77.6523 1393.40 1370.62 38.70
20078 77.6561 1389.10 1370.51 39.00
20079 77.6598 1389.80 1370.40 39.00
20080 77.6636 1395.30 1370.29 38.50
20081 77.6673 1401.90 1370.18 38.80
20082 77.6711 1389.70 1370.07 39.60
20083 77.6823 1383.00 1369.75 39.00
20084 77.6861 1442.20 1369.64 40.40
20085 77.6899 1314.30 1369.53 37.80
20086 77.6936 1376.80 1369.42 38.00
20087 77.6974 1404.70 1369.31 38.90
20088 77.7011 1446.80 1369.20 39.50
20089 77.7049 1380.00 1369.09 38.70
20090 77.7086 1312.70 1368.98 37.70
20091 77.7124 1383.70 1368.87 38.70
20092 77.7161 1341.60 1368.77 38.30
20093 77.7199 1387.60 1368.66 38.90
20094 77.7236 1395.90 1368.55 38.60
20095 77.7274 1410.80 1368.44 39.10
20096 77.7312 1414.50 1368.33 39.40
20097 77.7349 1448.40 1368.22 39.60
20098 77.7387 1389.80 1368.11 38.90
20099 77.7424 1380.60 1368.00 38.60
20100 77.7462 1412.70 1367.89 38.60
20101 77.7499 1400.30 1367.78 39.10
20102 77.7537 1343.40 1367.67 37.80
20103 77.7574 1395.80 1367.56 38.70
20104 77.7612 1313.10 1367.44 37.60
20105 77.7650 1426.00 1367.33 38.50
20106 77.7687 1364.00 1367.22 38.00
20107 77.7725 1421.70 1367.11 39.90
20108 77.7762 1400.90 1367.00 39.00
20109 77.7800 1388.00 1366.89 38.60
20110 77.7837 1389.20 1366.78 38.80
20111 77.7875 1445.80 1366.67 39.90
20112 77.7912 1439.30 1366.56 39.00
20113 77.7950 1389.90 1366.45 38.50
20114 77.7988 1327.50 1366.34 38.40
20115 77.8025 1389.00 1366.23 38.80
20116 77.8063 1391.60 1366.12 39.20
20117 77.8100 1350.00 1366.01 38.60
20118 77.8138 1367.00 1365.89 38.20
20119 77.8175 1397.50 1365.78 38.30
20120 77.8213 1372.80 1365.67 39.00
20121 77.8251 1349.30 1365.56 38.30
20122 77.8288 1381.70 1365.45 39.00
20123 77.8326 1376.50 1365.34 38.00
20124 77.8363 1449.40 1365.23 39.70
20125 77.8401 1377.70 1365.12 38.50
20126 77.8438 1477.70 1365.00 39.40
20127 77.8476 1462.80 1364.89 39.80
20128 77.8513 1436.10 1364.78 39.30
20129 77.8551 1387.30 1364.67 38.90
20130 77.8588 1349.00 1364.56 38.50
20131 77.8626 1461.00 1364.45 39.50
20132 77.8664 1363.00 1364.34 37.00
20133 77.8701 1453.30 1364.22 40.10
20134 77.8739 1494.90 1364.11 40.10
20135 77.8776 1463.00 1364.00 39.80
20136 77.8814 1412.20 1363.89 39.20
20137 77.8851 1482.80 1363.78 39.60
20138 77.8889 1464.30 1363.67 39.70
20139 77.8926 1446.00 1363.55 39.40
20140 77.8964 1423.50 1363.44 39.50
20141 77.9002 1408.50 1363.33 39.20
20142 77.9039 1434.90 1391.54 39.60
20143 77.9077 1397.50 1392.30 38.90
20144 77.9114 1516.30 1393.09 40.60
20145 77.9152 1385.90 1393.94 38.80
20146 77.9190 1376.60 1394.82 38.80
20147 77.9227 1462.90 1395.76 39.90
20148 77.9265 1474.90 1396.75 39.80
20149 77.9302 1414.80 1397.79 39.50
20150 77.9340 1461.30 1398.89 39.60
20151 77.9377 1439.60 1400.06 39.50
20152 77.9415 1456.40 1401.29 39.80
20153 77.9452 1456.30 1402.59 39.40
20154 77.9490 1437.70 1403.98 39.50
20155 77.9528 1501.80 1405.45 39.80
20156 77.9565 1492.50 1407.01 40.40
20157 77.9603 1404.80 1408.67 38.70
20158 77.9640 1356.10 1410.43 38.30
20159 77.9678 1477.80 1412.30 38.80
20160 77.9715 1459.10 1414.30 40.00
20161 77.9753 1475.90 1416.43 39.40
20162 77.9790 1492.20 1418.71 40.20
20163 77.9828 1506.60 1421.15 40.50
20164 77.9866 1531.70 1423.76 40.10
20165 77.9903 1510.20 1426.55 40.50
20166 77.9941 1606.70 1429.55 41.70
20167 77.9978 1530.30 1432.77 40.20
20168 78.0016 1549.00 1436.25 40.00
20169 78.0166 1540.70 1453.17 40.70
20170 78.0204 1621.70 1458.30 41.60
20171 78.0241 1575.00 1463.92 41.10
20172 78.0279 1563.60 1470.02 41.30
20173 78.0316 1590.00 1476.72 41.50
20174 78.0354 1679.40 1484.05 42.60
20175 78.0391 1639.00 1492.12 42.00
20176 78.0429 1551.90 1501.01 40.70
20177 78.0467 1698.00 1510.83 42.70
20178 78.0504 1701.00 1521.73 43.00
20179 78.0542 1739.30 1533.88 43.90
20180 78.0579 1739.90 1547.44 43.70
20181 78.0617 1709.00 1562.61 43.20
20182 78.0654 1695.60 1579.72 42.70
20183 78.0692 1765.70 1599.05 43.40
20184 78.0730 1822.50 1621.19 44.90
20185 78.0767 1875.80 1646.28 45.30
20186 78.0805 1921.80 1675.22 45.60
20187 78.0842 1980.60 1708.64 46.40
20188 78.0880 2009.70 1747.74 46.50
20189 78.0917 2029.50 1793.71 47.30
20190 78.0955 2027.80 1848.15 47.40
20191 78.0993 2189.50 1913.99 49.30
20192 78.1030 2250.60 1995.61 49.40
20193 78.1068 2421.90 2099.84 52.00
20194 78.1105 2613.10 2240.47 54.20
20195 78.1143 2853.50 2438.95 56.50
20196 78.1180 3298.20 2732.94 60.90
20197 78.1218 3687.10 3177.91 64.80
20198 78.1256 4234.00 3844.54 69.40
20199 78.1293 5372.90 4813.72 78.30
20200 78.1331 6914.60 6150.42 90.30
20201 78.1368 8826.30 7880.18 103.80
20202 78.1406 11368.80 9961.19 119.20
20203 78.1443 13681.40 12169.20 131.70
20204 78.1481 15729.80 14155.60 141.30
20205 78.1518 16321.60 15346.10 144.90
20206 78.1556 15460.20 15284.30 141.20
20207 78.1594 13171.00 13994.70 129.10
20208 78.1631 10435.50 11972.70 114.00
20209 78.1669 7742.80 9757.40 96.00
20210 78.1706 5813.50 7708.96 83.60
20211 78.1744 4579.50 6010.68 72.50
20212 78.1781 3853.60 4707.43 65.90
20213 78.1819 3335.30 3768.04 60.60
20214 78.1857 2962.00 3126.69 57.30
20215 78.1894 2662.20 2698.31 54.30
20216 78.1932 2543.50 2415.40 53.10
20217 78.1969 2398.20 2222.72 51.20
20218 78.2007 2215.30 2086.28 48.60
20219 78.2044 2173.10 1984.39 48.60
20220 78.2082 2063.70 1904.26 47.20
20221 78.2120 1872.90 1839.28 45.30
20222 78.2157 1969.20 1785.53 46.20
20223 78.2195 1872.40 1740.13 45.10
20224 78.2232 1858.30 1701.44 45.20
20225 78.2270 1917.50 1668.14 45.10
20226 78.2307 1797.50 1639.41 44.30
20227 78.2345 1719.10 1614.33 43.20
20228 78.2383 1746.80 1592.39 43.70
20229 78.2420 1692.20 1572.93 42.30
20230 78.2458 1767.80 1555.85 43.50
20231 78.2495 1738.30 1540.57 43.60
20232 78.2533 1653.00 1526.98 42.00
20233 78.2571 1703.90 1514.69 43.40
20234 78.2608 1626.50 1503.70 41.80
20235 78.2646 1635.20 1493.75 41.60
20236 78.2683 1633.80 1484.74 41.30
20237 78.2721 1617.70 1476.48 42.70
20238 78.2758 1645.90 1469.02 42.30
20239 78.2796 1611.10 1462.16 41.70
20240 78.2833 1585.00 1455.89 40.90
20241 78.2871 1574.10 1450.08 40.80
20242 78.2909 1531.70 1444.76 40.60
20243 78.2946 1505.50 1439.83 40.60
20244 78.2984 1567.20 1435.28 41.30
20245 78.3021 1575.50 1431.05 40.90
20246 78.3059 1525.20 1427.10 40.60
20247 78.3096 1481.50 1423.44 39.30
20248 78.3134 1528.90 1420.02 40.50
20249 78.3172 1481.30 1416.82 40.00
20250 78.3209 1561.60 1413.82 41.00
20251 78.3247 1500.60 1411.02 40.10
20252 78.3284 1540.10 1408.38 40.80
20253 78.3322 1511.80 1405.90 40.50
20254 78.3360 1482.60 1403.56 40.10
20255 78.3397 1438.00 1401.36 39.20
20256 78.3435 1454.40 1399.28 39.60
20257 78.3472 1523.90 1397.31 40.20
20258 78.3510 1471.10 1395.44 39.90
20259 78.3547 1478.40 1393.68 39.80
20260 78.3585 1462.40 1392.00 39.60
20261 78.3623 1461.40 1390.41 40.00
20262 78.3660 1510.60 1388.89 40.00
20263 78.3698 1483.30 1387.45 40.10
20264 78.3735 1503.60 1386.08 40.50
20265 78.3773 1461.10 1384.77 39.50
20266 78.3810 1379.20 1383.51 38.10
20267 78.3848 1509.10 1382.32 40.30
20268 78.3886 1421.40 1381.17 39.50
20269 78.3923 1460.80 1380.08 39.90
20270 78.3961 1444.70 1379.03 39.40
20271 78.3998 1499.90 1378.02 39.80
20272 78.4036 1449.30 1377.05 39.60
20273 78.4073 1319.80 1348.68 37.50
20274 78.4111 1442.60 1348.58 39.50
20275 78.4149 1445.10 1348.48 39.20
20276 78.4186 1399.40 1348.38 38.60
20277 78.4224 1417.00 1348.28 39.20
20278 78.4261 1424.30 1348.18 39.10
20279 78.4299 1397.30 1348.08 38.20
20280 78.4336 1413.60 1347.98 39.30
20281 78.4374 1455.40 1347.88 39.20
20282 78.4412 1377.70 1347.78 38.70
20283 78.4449 1354.20 1347.68 37.30
20284 78.4487 1456.00 1347.58 39.70
20285 78.4524 1379.00 1347.48 38.10
20286 78.4562 1394.90 1347.38 38.80
20287 78.4600 1384.30 1347.28 38.30
20288 78.4637 1436.60 1347.18 39.50
20289 78.4675 1396.50 1347.08 38.60
20290 78.4712 1391.60 1346.99 39.20
20291 78.4750 1393.20 1346.89 38.60
20292 78.4787 1423.40 1346.79 38.40
20293 78.4825 1453.70 1346.69 39.50
20294 78.4863 1343.10 1346.60 38.40
20295 78.4900 1378.00 1346.50 38.40
20296 78.4938 1444.40 1346.40 39.60
20297 78.4975 1369.40 1346.31 38.40
20298 78.5013 1367.50 1346.21 38.30
20299 78.5051 1334.10 1346.11 38.00
20300 78.5088 1387.30 1346.02 38.60
20301 78.5126 1391.20 1345.92 38.70
20302 78.5163 1436.00 1345.83 39.30
20303 78.5201 1437.20 1345.73 39.40
20304 78.5238 1408.30 1345.64 39.10
20305 78.5276 1333.60 1345.54 37.50
20306 78.5314 1374.40 1345.45 38.30
20307 78.5351 1440.80 1345.35 39.60
20308 78.5389 1410.90 1345.26 39.20
20309 78.5426 1397.60 1345.16 39.10
20310 78.5464 1344.30 1345.07 38.10
20311 78.5501 1385.70 1344.98 38.90
20312 78.5539 1413.60 1344.88 38.60
20313 78.5577 1382.70 1344.79 38.40
20314 78.5614 1397.10 1344.70 38.90
20315 78.5652 1314.40 1344.61 37.40
20316 78.5689 1402.90 1344.51 38.40
20317 78.5727 1369.00 1344.42 39.60
20318 78.5764 1382.50 1344.33 38.90
20319 78.5802 1425.50 1344.24 39.00
20320 78.5840 1447.50 1344.15 39.50
20321 78.5877 1351.90 1344.05 38.50
20322 78.5915 1384.60 1343.96 38.80
20323 78.5953 1373.10 1343.87 37.80
20324 78.5990 1397.20 1343.78 38.70
20325 78.6028 1404.70 1343.69 38.80
20326 78.6065 1493.70 1343.60 40.20
20327 78.6103 1409.80 1343.51 39.20
20328 78.6140 1367.10 1343.42 38.30
20329 78.6178 1432.10 1343.33 39.10
20330 78.6216 1355.50 1343.25 37.90
20331 78.6253 1381.30 1343.16 38.20
20332 78.6291 1314.00 1343.07 37.50
20333 78.6328 1348.60 1342.98 38.30
20334 78.6366 1479.00 1342.89 40.00
20335 78.6403 1368.80 1342.81 38.60
20336 78.6441 1367.80 1342.72 38.50
20337 78.6479 1344.10 1342.63 38.30
20338 78.6516 1394.60 1342.54 39.00
20339 78.6554 1382.00 1342.46 38.70
20340 78.6591 1276.10 1342.37 37.30
20341 78.6629 1342.90 1342.29 38.40
20342 78.6667 1344.40 1342.20 38.30
20343 78.6704 1361.40 1342.11 37.80
20344 78.6742 1373.20 1342.03 39.50
20345 78.6779 1383.80 1341.94 38.60
20346 78.6817 1464.70 1341.86 39.70
20347 78.6854 1362.20 1341.78 38.00
20348 78.6892 1358.00 1341.69 38.40
20349 78.6930 1391.90 1341.61 36.80
20350 78.7005 1347.70 1341.44 36.20
20351 78.7042 1431.10 1341.36 39.50
20352 78.7080 1402.80 1341.28 38.70
20353 78.7117 1400.10 1341.19 39.00
20354 78.7155 1353.90 1341.11 38.30
20355 78.7193 1441.40 1341.03 39.50
20356 78.7230 1364.60 1340.95 38.30
20357 78.7268 1374.80 1340.87 38.90
20358 78.7306 1342.40 1340.79 37.90
20359 78.7343 1333.90 1340.71 37.90
20360 78.7381 1367.50 1340.63 38.40
20361 78.7418 1360.70 1340.55 38.90
20362 78.7456 1371.60 1340.47 38.60
20363 78.7493 1350.00 1340.39 38.40
20364 78.7531 1482.40 1340.31 40.50
20365 78.7569 1371.40 1340.23 38.60
20366 78.7606 1389.20 1340.15 39.30
20367 78.7644 1358.20 1340.07 38.00
20368 78.7681 1386.10 1340.00 37.80
20369 78.7719 1368.00 1339.92 38.40
20370 78.7756 1369.90 1339.84 39.20
20371 78.7794 1409.10 1339.76 39.30
20372 78.7832 1337.20 1339.69 37.90
20373 78.7869 1353.10 1339.61 38.40
20374 78.7907 1362.50 1339.54 38.40
20375 78.7944 1343.60 1339.46 38.20
20376 78.7982 1336.90 1339.39 38.30
20377 78.8020 1387.90 1339.31 38.90
20378 78.8057 1372.70 1339.24 38.60
20379 78.8095 1364.60 1339.16 38.60
20380 78.8132 1357.70 1339.09 38.10
20381 78.8170 1402.50 1339.01 39.30
20382 78.8207 1298.90 1338.94 37.40
20383 78.8245 1335.80 1338.87 38.10
20384 78.8283 1291.50 1338.80 37.40
20385 78.8320 1394.90 1338.72 38.80
20386 78.8358 1343.30 1338.65 38.00
20387 78.8395 1298.90 1338.58 37.60
20388 78.8433 1369.20 1338.51 38.10
20389 78.8471 1335.10 1338.44 38.10
20390 78.8508 1390.40 1338.37 38.30
20391 78.8546 1383.50 1338.30 38.90
20392 78.8583 1355.50 1338.23 38.30
20393 78.8621 1368.40 1338.16 38.40
20394 78.8659 1295.00 1338.09 37.30
20395 78.8696 1367.80 1338.02 37.60
20396 78.8734 1367.60 1337.95 39.20
20397 78.8771 1337.20 1337.88 37.90
20398 78.8809 1372.60 1337.81 38.30
20399 78.8846 1335.40 1337.75 37.80
20400 78.8884 1318.90 1337.68 37.80
20401 78.8922 1372.60 1337.61 38.40
20402 78.8959 1341.80 1337.55 37.90
20403 78.8997 1340.70 1337.48 37.80
20404 78.9034 1366.10 1337.42 38.50
20405 78.9072 1274.70 1337.35 36.60
20406 78.9110 1363.60 1337.28 38.30
20407 78.9147 1308.40 1337.22 37.40
20408 78.9185 1311.20 1337.16 37.70
20409 78.9222 1264.00 1337.09 36.60
20410 78.9260 1335.50 1337.03 37.90
20411 78.9297 1310.60 1336.97 37.70
20412 78.9335 1378.40 1336.90 38.40
20413 78.9373 1363.10 1336.84 37.30
20414 78.9410 1326.10 1336.78 37.60
20415 78.9448 1346.80 1336.72 37.50
20416 78.9485 1329.00 1336.66 37.60
20417 78.9523 1291.50 1336.59 37.70
20418 78.9561 1260.60 1336.53 36.80
20419 78.9598 1382.30 1336.47 38.70
20420 78.9636 1287.10 1336.41 37.30
20421 78.9673 1357.30 1336.35 37.60
20422 78.9711 1349.70 1336.30 38.20
20423 78.9749 1355.60 1336.24 38.90
20424 78.9786 1354.40 1336.18 38.00
20425 78.9824 1285.80 1336.12 36.50
20426 78.9861 1328.60 1336.06 38.20
20427 78.9899 1324.50 1336.01 38.00
20428 78.9937 1345.00 1335.95 38.20
20429 78.9974 1335.40 1335.89 38.20
20430 79.0012 1320.00 1335.84 37.60
20431 79.0049 1308.40 1335.78 37.80
20432 79.0087 1264.10 1335.73 36.90
20433 79.0124 1363.00 1335.67 38.40
20434 79.0162 1391.10 1335.62 38.70
20435 79.0200 1313.60 1335.56 37.60
20436 79.0237 1364.80 1335.51 38.00
20437 79.0275 1284.90 1335.46 37.10
20438 79.0312 1357.30 1335.40 38.10
20439 79.0350 1282.50 1335.35 37.40
20440 79.0388 1400.30 1335.30 38.40
20441 79.0425 1344.20 1335.25 38.20
20442 79.0463 1355.30 1335.20 38.10
20443 79.0500 1278.90 1335.14 36.90
20444 79.0538 1302.00 1335.09 37.50
20445 79.0576 1284.60 1335.04 37.80
20446 79.0613 1303.20 1334.99 37.60
20447 79.0651 1277.80 1334.94 36.70
20448 79.0688 1287.40 1334.90 36.60
20449 79.0726 1310.10 1334.85 38.10
20450 79.0763 1356.40 1334.80 38.40
20451 79.0801 1352.20 1334.75 38.10
20452 79.0839 1255.90 1334.70 36.60
20453 79.0876 1324.30 1334.66 37.70
20454 79.0914 1336.00 1334.61 37.30
20455 79.0952 1291.70 1334.57 37.10
20456 79.0989 1286.30 1334.52 37.10
20457 79.1027 1277.20 1334.47 37.20
20458 79.1064 1356.60 1334.43 38.30
20459 79.1102 1257.80 1334.39 36.30
20460 79.1139 1346.20 1334.34 37.30
20461 79.1177 1287.60 1334.30 37.30
20462 79.1215 1321.00 1334.25 37.50
20463 79.1252 1360.00 1334.21 38.50
20464 79.1290 1272.60 1334.17 37.50
20465 79.1327 1328.80 1334.13 37.80
20466 79.1365 1312.10 1334.09 37.20
20467 79.1403 1325.50 1334.05 37.70
20468 79.1440 1288.70 1334.01 37.00
20469 79.1478 1310.70 1333.96 37.30
20470 79.1515 1324.10 1333.93 37.90
20471 79.1553 1288.70 1333.89 36.60
20472 79.1591 1327.20 1333.85 37.60
20473 79.1628 1311.50 1333.81 37.60
20474 79.1666 1295.00 1333.77 37.00
20475 79.1703 1337.30 1333.73 37.20
20476 79.1741 1322.70 1333.70 38.20
20477 79.1778 1287.20 1333.66 37.10
20478 79.1816 1345.20 1333.62 37.80
20479 79.1854 1345.60 1333.59 37.80
20480 79.1891 1355.60 1333.61 38.00
20481 79.1929 1329.80 1333.57 37.50
20482 79.1966 1267.10 1333.54 36.60
20483 79.2004 1362.50 1333.51 38.20
20484 79.2041 1356.80 1333.48 38.00
20485 79.2079 1277.50 1333.44 37.10
20486 79.2117 1328.90 1333.41 37.90
20487 79.2154 1424.80 1333.38 39.10
20488 79.2192 1345.40 1333.35 37.80
20489 79.2230 1324.50 1333.33 37.70
20490 79.2267 1322.20 1333.30 37.70
20491 79.2305 1326.70 1333.27 37.70
20492 79.2342 1324.50 1333.24 37.50
20493 79.2380 1394.30 1333.21 38.60
20494 79.2418 1313.70 1333.19 37.60
20495 79.2455 1334.10 1333.16 37.70
20496 79.2493 1306.60 1333.14 37.30
20497 79.2530 1340.70 1333.11 38.10
20498 79.2568 1282.50 1333.09 37.50
20499 79.2605 1264.50 1333.07 37.10
20500 79.2643 1266.90 1333.04 36.80
20501 79.2681 1273.90 1333.02 36.40
20502 79.2718 1324.10 1333.00 37.60
20503 79.2756 1338.60 1332.98 38.40
20504 79.2793 1361.50 1332.96 38.20
20505 79.2831 1321.50 1332.95 37.30
20506 79.2869 1315.10 1332.93 37.30
20507 79.2906 1379.70 1332.91 38.00
20508 79.2944 1331.60 1332.90 37.90
20509 79.2981 1313.80 1332.88 37.40
20510 79.3019 1354.00 1332.87 38.30
20511 79.3057 1327.40 1332.86 37.60
20512 79.3094 1344.20 1332.85 38.00
20513 79.3132 1337.70 1332.84 38.00
20514 79.3169 1273.00 1332.83 37.00
20515 79.3207 1313.30 1332.82 37.70
20516 79.3245 1376.00 1332.82 38.60
20517 79.3282 1333.60 1332.81 37.90
20518 79.3320 1326.10 1332.81 38.10
20519 79.3357 1361.90 1332.82 38.50
20520 79.3395 1315.90 1332.82 37.80
20521 79.3432 1266.40 1332.83 36.80
20522 79.3470 1288.40 1332.84 37.20
20523 79.3508 1331.30 1332.85 37.80
20524 79.3545 1346.10 1332.87 38.00
20525 79.3583 1311.40 1332.89 37.40
20526 79.3621 1285.30 1332.92 37.00
20527 79.3658 1345.90 1332.96 37.60
20528 79.3696 1276.70 1333.00 36.20
20529 79.3733 1426.40 1333.05 39.70
20530 79.3771 1305.80 1333.12 37.50
20531 79.3808 1340.90 1333.20 37.70
20532 79.3846 1315.60 1333.29 37.70
20533 79.3884 1348.90 1333.41 38.00
20534 79.3921 1328.20 1333.56 37.90
20535 79.3959 1332.10 1333.76 37.40
20536 79.3996 1303.10 1334.03 37.40
20537 79.4034 1338.90 1334.41 38.10
20538 79.4072 1345.80 1334.99 38.10
20539 79.4109 1309.30 1335.87 37.30
20540 79.4147 1370.60 1337.17 38.40
20541 79.4184 1325.40 1339.06 37.60
20542 79.4222 1319.60 1341.66 37.70
20543 79.4260 1303.40 1345.00 36.80
20544 79.4297 1326.30 1348.98 37.40
20545 79.4335 1343.50 1353.26 38.20
20546 79.4372 1331.80 1357.11 38.00
20547 79.4410 1360.70 1359.51 38.30
20548 79.4447 1307.00 1359.57 37.30
20549 79.4485 1333.80 1357.25 37.70
20550 79.4523 1339.50 1353.44 37.40
20551 79.4560 1362.90 1349.15 38.30
20552 79.4598 1289.50 1345.14 37.10
20553 79.4635 1341.70 1341.75 38.00
20554 79.4673 1282.20 1339.11 36.90
20555 79.4711 1319.20 1337.18 37.70
20556 79.4748 1330.60 1335.83 38.30
20557 79.4786 1307.50 1334.93 37.60
20558 79.4824 1289.80 1334.33 37.20
20559 79.4861 1332.50 1333.93 38.00
20560 79.4899 1312.30 1333.64 37.20
20561 79.4936 1385.80 1333.43 38.80
20562 79.4974 1273.20 1333.27 37.00
20563 79.5011 1262.90 1333.14 36.60
20564 79.5049 1282.90 1333.04 36.90
20565 79.5087 1275.70 1332.95 36.70
20566 79.5124 1292.00 1332.87 37.80
20567 79.5162 1304.40 1332.81 37.70
20568 79.5199 1258.60 1332.75 36.80
20569 79.5237 1392.00 1332.71 38.90
20570 79.5275 1354.00 1332.67 38.40
20571 79.5312 1338.40 1332.63 37.90
20572 79.5350 1272.80 1332.61 36.80
20573 79.5387 1334.40 1332.58 37.80
20574 79.5425 1296.40 1332.56 37.30
20575 79.5463 1300.30 1332.54 36.90
20576 79.5500 1273.80 1332.53 37.00
20577 79.5538 1322.50 1332.52 37.60
20578 79.5575 1333.10 1332.51 38.20
20579 79.5613 1293.20 1332.50 37.20
20580 79.5650 1301.40 1332.50 37.20
20581 79.5688 1267.30 1332.49 36.30
20582 79.5726 1261.80 1332.49 37.60
20583 79.5763 1278.40 1332.49 37.30
20584 79.5801 1261.80 1332.49 36.70
20585 79.5838 1307.40 1332.49 36.90
20586 79.5876 1301.80 1332.49 37.40
20587 79.5914 1305.50 1332.50 37.80
20588 79.5951 1319.10 1332.50 37.80
20589 79.5989 1256.00 1332.51 36.70
20590 79.6027 1309.30 1332.52 37.50
20591 79.6064 1311.50 1332.53 37.20
20592 79.6102 1367.20 1332.53 38.30
20593 79.6139 1330.30 1332.54 38.00
20594 79.6177 1323.80 1332.55 37.60
20595 79.6214 1330.80 1332.57 37.40
20596 79.6252 1373.60 1332.58 38.30
20597 79.6290 1344.80 1332.59 38.00
20598 79.6327 1329.20 1332.60 37.50
20599 79.6365 1274.30 1332.62 36.80
20600 79.6402 1338.60 1332.63 37.50
20601 79.6440 1300.50 1332.65 37.00
20602 79.6478 1328.90 1332.66 37.40
20603 79.6515 1339.50 1332.68 36.90
20604 79.6553 1327.90 1332.70 37.20
20605 79.6590 1391.30 1332.71 38.70
20606 79.6628 1376.20 1332.73 38.10
20607 79.6666 1237.10 1332.75 36.10
20608 79.6703 1250.90 1332.77 36.10
20609 79.6741 1309.60 1332.79 37.90
20610 79.6778 1294.10 1332.81 37.20
20611 79.6816 1300.90 1332.83 37.40
20612 79.6853 1292.80 1332.85 36.90
20613 79.6891 1306.40 1332.87 37.10
20614 79.6929 1328.20 1332.90 37.30
20615 79.6966 1310.60 1332.92 37.10
20616 79.7004 1286.30 1332.89 36.60
20617 79.7041 1332.30 1332.91 36.80
20618 79.7079 1323.20 1332.94 37.50
20619 79.7117 1314.60 1332.97 37.40
20620 79.7154 1268.20 1332.99 36.70
20621 79.7192 1323.90 1333.02 37.50
20622 79.7229 1304.80 1333.05 36.70
20623 79.7267 1349.70 1333.08 38.10
20624 79.7305 1325.60 1333.10 37.40
20625 79.7342 1317.60 1333.13 37.50
20626 79.7380 1292.10 1333.16 37.00
20627 79.7417 1317.00 1333.19 37.20
20628 79.7455 1333.50 1333.22 37.20
20629 79.7493 1289.40 1333.25 36.60
20630 79.7530 1262.40 1333.28 36.50
20631 79.7568 1298.80 1333.31 36.60
20632 79.7605 1295.60 1333.34 37.10
20633 79.7643 1371.90 1333.38 38.00
20634 79.7681 1266.50 1333.41 36.30
20635 79.7718 1250.50 1333.44 36.10
20636 79.7756 1326.30 1333.47 37.70
20637 79.7793 1272.80 1333.51 36.90
20638 79.7831 1254.00 1333.54 36.30
20639 79.7869 1280.40 1333.57 36.70
20640 79.7906 1308.80 1333.61 37.20
20641 79.7944 1343.50 1333.64 37.10
20642 79.7981 1308.70 1333.68 37.00
20643 79.8019 1306.50 1333.71 37.20
20644 79.8056 1271.90 1333.75 36.60
20645 79.8094 1307.90 1333.79 37.00
20646 79.8132 1310.10 1333.82 37.30
20647 79.8169 1356.20 1333.86 37.80
20648 79.8207 1258.20 1333.90 36.30
20649 79.8244 1338.50 1333.93 37.30
20650 79.8282 1358.10 1333.97 38.20
20651 79.8320 1299.20 1334.01 37.00
20652 79.8357 1273.20 1334.05 36.70
20653 79.8395 1374.60 1334.09 37.90
20654 79.8432 1300.00 1334.13 37.30
20655 79.8470 1270.50 1334.17 36.30
20656 79.8508 1270.60 1334.21 36.70
20657 79.8545 1330.00 1334.25 37.80
20658 79.8583 1293.10 1334.29 36.60
20659 79.8620 1325.30 1334.33 37.40
20660 79.8658 1303.60 1334.37 36.60
20661 79.8696 1309.10 1334.42 36.60
20662 79.8733 1349.10 1334.46 37.80
20663 79.8771 1366.60 1334.50 38.40
20664 79.8808 1312.20 1334.54 37.10
20665 79.8846 1330.60 1334.59 37.40
20666 79.8884 1297.80 1334.63 36.70
20667 79.8921 1358.00 1334.67 37.80
20668 79.8959 1348.50 1334.72 37.90
20669 79.8996 1312.90 1334.76 36.60
20670 79.9034 1318.70 1334.81 37.00
20671 79.9072 1308.70 1334.85 37.10
20672 79.9109 1285.50 1334.90 36.70
20673 79.9147 1312.10 1334.94 37.50
20674 79.9184 1248.00 1334.99 36.40
20675 79.9222 1318.20 1335.04 36.80
20676 79.9259 1329.60 1335.08 37.60
20677 79.9297 1308.80 1335.13 37.50
20678 79.9335 1338.80 1335.18 37.80
20679 79.9372 1323.30 1335.23 37.50
20680 79.9410 1271.30 1335.27 36.60
20681 79.9447 1328.20 1335.32 37.90
20682 79.9485 1341.40 1335.37 38.20
20683 79.9523 1302.60 1335.42 37.40
20684 79.9560 1341.90 1335.47 37.50
20685 79.9598 1295.70 1335.52 37.60
20686 79.9635 1269.70 1335.57 36.70
20687 79.9673 1365.20 1335.62 38.00
20688 79.9710 1308.80 1335.67 37.00
20689 79.9748 1281.80 1335.72 37.30
20690 79.9786 1278.40 1335.77 36.80
20691 79.9823 1315.70 1335.82 37.50
20692 79.9861 1236.80 1335.87 36.20
20693 79.9899 1258.50 1335.92 36.20
20694 79.9936 1346.00 1335.97 37.30
20695 79.9974 1364.20 1336.03 37.50
20696 80.0011 1317.40 1336.08 37.70
20697 80.0049 1394.30 1336.13 37.90
20698 80.0086 1312.50 1336.18 37.10
20699 80.0124 1313.00 1336.24 37.30
20700 80.0162 1319.30 1336.29 36.90
20701 80.0199 1276.40 1336.34 36.70
20702 80.0237 1300.90 1336.40 37.10
20703 80.0274 1349.40 1336.45 37.90
20704 80.0312 1315.80 1336.50 37.50
20705 80.0350 1281.10 1336.56 36.80
20706 80.0387 1384.20 1336.61 38.00
20707 80.0425 1308.20 1336.67 37.90
20708 80.0462 1313.70 1336.72 37.10
20709 80.0500 1320.70 1336.78 36.90
20710 80.0538 1267.40 1336.83 36.20
20711 80.0575 1300.30 1336.89 36.50
20712 80.0613 1299.00 1336.94 37.30
20713 80.0650 1300.80 1337.00 37.20
20714 80.0688 1382.80 1337.06 37.80
20715 80.0725 1318.10 1337.11 37.70
20716 80.0763 1354.40 1337.17 38.40
20717 80.0801 1240.60 1337.23 36.00
20718 80.0838 1362.50 1337.28 38.00
20719 80.0876 1307.50 1337.34 37.00
20720 80.0913 1241.80 1337.40 36.50
20721 80.0951 1297.50 1337.45 37.60
20722 80.0989 1300.30 1337.51 36.80
20723 80.1026 1288.50 1337.57 37.20
20724 80.1064 1281.60 1337.63 37.10
20725 80.1101 1276.80 1337.68 36.90
20726 80.1139 1386.40 1337.74 38.70
20727 80.1177 1296.50 1337.80 37.50
20728 80.1214 1348.10 1337.86 38.20
20729 80.1252 1297.30 1337.92 37.90
20730 80.1289 1363.10 1337.97 38.60
20731 80.1327 1269.00 1338.03 37.00
20732 80.1365 1334.90 1338.09 37.80
20733 80.1402 1333.90 1338.15 38.20
20734 80.1440 1348.50 1338.21 38.40
20735 80.1477 1288.20 1338.27 37.00
20736 80.1515 1352.40 1338.33 37.80
20737 80.1553 1298.00 1338.39 37.30
20738 80.1590 1302.90 1338.45 37.90
20739 80.1628 1302.00 1338.50 37.90
20740 80.1665 1272.20 1338.56 37.10
20741 80.1703 1298.30 1338.62 36.90
20742 80.1740 1379.00 1338.68 39.10
20743 80.1778 1384.80 1338.74 38.80
20744 80.1816 1320.50 1338.80 37.20
20745 80.1853 1323.80 1338.86 37.20
20746 80.1891 1299.80 1338.92 37.90
20747 80.1928 1289.90 1338.98 37.50
20748 80.1966 1330.90 1339.04 37.70
20749 80.2004 1353.80 1339.10 38.40
20750 80.2041 1324.50 1339.16 37.90
20751 80.2079 1258.10 1339.22 37.20
20752 80.2116 1307.80 1339.28 37.00
20753 80.2154 1348.80 1339.34 38.30
20754 80.2191 1268.40 1339.40 37.10
20755 80.2229 1238.50 1339.46 36.40
20756 80.2267 1298.50 1339.52 37.90
20757 80.2304 1275.80 1339.58 36.70
20758 80.2342 1307.10 1339.64 37.60
20759 80.2380 1318.30 1339.70 38.10
20760 80.2417 1279.10 1339.76 37.40
20761 80.2455 1332.40 1339.82 38.20
20762 80.2492 1348.00 1339.88 38.10
20763 80.2530 1299.40 1339.94 37.70
20764 80.2567 1343.70 1340.00 38.10
20765 80.2605 1384.10 1340.06 38.70
20766 80.2643 1283.90 1340.12 37.10
20767 80.2680 1333.60 1340.18 38.00
20768 80.2718 1309.10 1340.24 37.10
20769 80.2755 1279.00 1340.30 38.00
20770 80.2793 1334.90 1340.35 37.90
20771 80.2831 1309.10 1340.41 37.20
20772 80.2868 1302.30 1340.47 37.30
20773 80.2906 1394.50 1340.53 38.10
20774 80.2943 1312.00 1340.59 37.60
20775 80.2981 1376.20 1340.65 38.80
20776 80.3019 1326.80 1340.71 37.80
20777 80.3056 1341.70 1340.77 38.20
20778 80.3094 1316.00 1340.83 37.90
20779 80.3131 1290.50 1340.88 37.10
20780 80.3169 1232.20 1340.94 36.80
20781 80.3206 1353.90 1341.00 38.40
20782 80.3244 1327.50 1341.06 38.30
20783 80.3282 1289.70 1341.12 37.30
20784 80.3319 1354.80 1341.17 38.50
20785 80.3357 1352.70 1341.23 38.20
20786 80.3394 1295.00 1341.29 36.70
20787 80.3432 1323.20 1341.34 38.20
20788 80.3469 1309.00 1341.40 37.90
20789 80.3507 1373.40 1341.46 38.80
20790 80.3545 1303.00 1341.51 37.30
20791 80.3582 1311.30 1341.57 37.80
20792 80.3620 1340.20 1341.63 38.10
20793 80.3658 1290.40 1341.68 37.50
20794 80.3695 1304.50 1341.74 37.00
20795 80.3733 1309.60 1341.79 38.00
20796 80.3770 1350.00 1341.85 38.60
20797 80.3808 1323.50 1341.90 37.40
20798 80.3845 1327.50 1341.96 37.80
20799 80.3883 1317.70 1342.01 37.40
20800 80.3921 1353.10 1342.07 38.30
20801 80.3958 1324.30 1342.12 37.90
20802 80.3996 1337.50 1342.17 38.10
20803 80.4033 1361.70 1342.23 37.90
20804 80.4071 1316.10 1342.28 37.60
20805 80.4109 1362.40 1342.33 38.40
20806 80.4146 1365.10 1342.38 38.40
20807 80.4184 1369.70 1342.44 38.60
20808 80.4221 1367.50 1342.49 38.70
20809 80.4259 1395.10 1342.54 39.10
20810 80.4296 1328.30 1342.59 37.80
20811 80.4334 1306.50 1342.64 37.40
20812 80.4372 1359.60 1342.69 38.60
20813 80.4409 1346.80 1342.74 38.20
20814 80.4447 1379.50 1342.79 38.20
20815 80.4484 1349.10 1342.84 38.10
20816 80.4522 1414.70 1342.89 39.70
20817 80.4560 1356.40 1342.94 37.40
20818 80.4597 1332.90 1342.98 38.10
20819 80.4635 1417.20 1343.03 39.30
20820 80.4672 1354.90 1374.95 38.20
20821 80.4710 1388.40 1375.94 38.30
20822 80.4747 1431.50 1376.97 39.80
20823 80.4785 1332.10 1378.04 38.10
20824 80.4823 1412.90 1379.16 39.30
20825 80.4860 1429.40 1380.33 39.50
20826 80.4898 1343.20 1381.55 37.00
20827 80.4935 1460.10 1382.82 39.90
20828 80.4973 1417.20 1384.17 39.00
20829 80.5011 1304.50 1385.57 37.60
20830 80.5048 1399.50 1387.04 38.40
20831 80.5086 1417.80 1388.58 39.20
20832 80.5123 1424.70 1390.21 39.40
20833 80.5161 1405.90 1391.92 38.90
20834 80.5198 1395.70 1393.71 38.80
20835 80.5236 1421.80 1395.61 39.40
20836 80.5274 1423.50 1397.60 39.60
20837 80.5311 1463.50 1399.71 39.70
20838 80.5349 1456.30 1401.95 39.60
20839 80.5386 1438.50 1404.31 38.80
20840 80.5424 1494.10 1406.81 40.30
20841 80.5462 1399.30 1409.47 38.50
20842 80.5499 1460.40 1412.29 39.30
20843 80.5537 1439.40 1415.30 40.00
20844 80.5574 1372.00 1418.51 38.40
20845 80.5612 1512.50 1421.91 40.50
20846 80.5650 1484.60 1425.57 40.00
20847 80.5687 1445.60 1429.46 39.80
20848 80.5725 1467.90 1433.66 39.70
20849 80.5762 1558.40 1438.16 41.50
20850 80.5800 1467.10 1442.99 39.50
20851 80.5837 1496.40 1448.21 39.60
20852 80.5875 1549.70 1453.83 40.80
20853 80.5913 1467.10 1459.92 39.90
20854 80.5950 1580.80 1466.54 40.70
20855 80.5988 1538.80 1473.71 40.50
20856 80.6025 1583.90 1481.53 41.10
20857 80.6063 1604.80 1490.07 41.10
20858 80.6100 1663.50 1499.44 42.70
20859 80.6138 1702.80 1509.70 42.70
20860 80.6176 1651.10 1521.03 42.60
20861 80.6213 1659.30 1533.54 42.40
20862 80.6251 1755.00 1547.40 43.50
20863 80.6288 1729.70 1562.85 43.10
20864 80.6326 1785.50 1580.15 44.10
20865 80.6364 1799.00 1599.41 43.70
20866 80.6401 1721.50 1621.22 43.30
20867 80.6439 1835.00 1645.82 44.50
20868 80.6476 1875.20 1673.85 44.90
20869 80.6514 1898.00 1705.92 45.10
20870 80.6551 1976.40 1742.89 46.50
20871 80.6589 2048.90 1785.74 46.90
20872 80.6627 2118.50 1835.50 48.50
20873 80.6664 2235.20 1894.77 49.40
20874 80.6702 2276.40 1965.20 49.00
20875 80.6739 2336.60 2051.46 50.00
20876 80.6777 2656.00 2160.09 55.10
20877 80.6815 2752.00 2304.33 55.30
20878 80.6852 3053.90 2502.72 58.00
20879 80.6890 3359.70 2790.47 60.80
20880 80.6927 3717.60 3219.62 64.60
20881 80.6965 4316.40 3858.91 70.20
20882 80.7002 5305.60 4792.17 77.80
20883 80.7040 6730.80 6096.86 90.00
20884 80.7078 8946.80 7831.58 103.40
20885 80.7115 11765.80 9977.68 120.40
20886 80.7153 14328.80 12403.40 134.10
20887 80.7190 17108.00 14843.00 148.40
20888 80.7228 19062.50 16795.50 157.80
20889 80.7265 19147.90 17669.00 156.80
20890 80.7303 17438.30 17121.50 149.90
20891 80.7341 14329.40 15369.30 134.70
20892 80.7378 11004.10 12996.80 116.40
20893 80.7416 8176.00 10532.80 98.60
20894 80.7453 6159.00 8310.08 84.70
20895 80.7491 4864.70 6472.37 74.40
20896 80.7529 4051.40 5064.56 68.00
20897 80.7566 3567.60 4051.15 63.40
20898 80.7604 3217.40 3349.72 60.60
20899 80.7641 2871.60 2877.38 55.40
20900 80.7679 2626.30 2561.59 54.30
20901 80.7716 2431.20 2345.36 50.10
20902 80.7754 2439.10 2191.25 53.10
20903 80.7792 2259.40 2074.83 50.20
20904 80.7829 2128.40 1984.13 48.20
20905 80.7867 1964.90 1910.27 45.40
20906 80.7904 1920.40 1848.92 45.50
20907 80.7942 2068.50 1796.71 47.10
20908 80.7979 1886.70 1752.51 45.40
20909 80.8017 1909.40 1714.22 45.30
20910 80.8055 1876.00 1681.16 45.40
20911 80.8092 1785.30 1652.05 44.00
20912 80.8130 1682.00 1626.68 42.90
20913 80.8167 1733.60 1604.24 43.90
20914 80.8205 1750.60 1584.37 44.10
20915 80.8243 1776.50 1566.55 44.00
20916 80.8280 1775.90 1550.76 44.00
20917 80.8318 1668.50 1536.49 42.60
20918 80.8355 1597.40 1523.70 41.40
20919 80.8393 1678.10 1512.03 42.70
20920 80.8430 1572.50 1501.49 40.50
20921 80.8468 1530.40 1491.92 40.60
20922 80.8506 1576.80 1483.16 41.10
20923 80.8543 1611.60 1475.13 42.00
20924 80.8581 1578.70 1467.80 40.80
20925 80.8618 1575.80 1461.03 41.50
20926 80.8656 1550.30 1454.79 40.50
20927 80.8693 1524.70 1449.03 40.30
20928 80.8731 1529.10 1443.69 40.80
20929 80.8768 1476.40 1438.75 39.80
20930 80.8806 1443.70 1434.13 39.20
20931 80.8844 1462.20 1429.84 39.50
20932 80.8881 1456.60 1425.84 39.50
20933 80.8919 1420.40 1422.10 39.50
20934 80.8957 1469.70 1418.59 39.90
20935 80.8994 1487.10 1415.32 39.60
20936 80.9032 1534.80 1412.22 40.60
20937 80.9069 1450.30 1409.32 39.80
20938 80.9107 1404.40 1406.58 38.90
20939 80.9144 1404.90 1404.01 39.20
20940 80.9182 1351.60 1401.56 38.10
20941 80.9219 1449.50 1399.27 39.30
20942 80.9257 1338.00 1397.08 37.70
20943 80.9295 1368.30 1395.02 38.10
20944 80.9332 1417.40 1393.04 39.00
20945 80.9370 1321.30 1391.18 37.00
20946 80.9407 1328.30 1389.41 37.20
20947 80.9445 1357.10 1387.71 37.30
20948 80.9482 1404.40 1386.10 38.50
20949 80.9520 1346.40 1384.56 37.80
20950 80.9558 1317.60 1383.08 37.10
20951 80.9595 1402.00 1381.68 38.60
20952 80.9633 1335.70 1380.33 37.40
20953 80.9670 1342.00 1379.03 37.70
20954 80.9708 1339.90 1377.79 37.40
20955 80.9745 1263.30 1376.60 36.50
20956 80.9783 1290.80 1375.46 37.00
20957 80.9821 1409.20 1374.35 38.40
20958 80.9858 1344.70 1373.29 38.20
20959 80.9896 1356.10 1341.02 38.40
20960 80.9933 1355.30 1340.90 37.70
20961 80.9971 1357.10 1340.79 37.90
20962 81.0008 1397.10 1340.67 38.60
20963 81.0046 1333.90 1340.54 37.70
20964 81.0084 1349.50 1340.42 37.80
20965 81.0121 1331.10 1340.29 37.50
20966 81.0159 1359.30 1340.16 38.60
20967 81.0196 1357.50 1340.03 38.30
20968 81.0234 1367.80 1339.90 38.30
20969 81.0272 1380.40 1339.76 38.50
20970 81.0309 1331.90 1339.62 37.70
20971 81.0347 1313.00 1339.48 36.90
20972 81.0384 1326.50 1339.34 37.20
20973 81.0422 1338.10 1339.19 37.20
20974 81.0459 1299.50 1339.05 37.10
20975 81.0497 1302.00 1338.90 36.80
20976 81.0534 1355.50 1338.74 38.20
20977 81.0572 1329.50 1338.59 37.60
20978 81.0610 1260.40 1338.43 36.70
20979 81.0647 1282.30 1338.27 36.70
20980 81.0685 1305.40 1338.11 37.10
20981 81.0722 1335.60 1337.95 37.20
20982 81.0760 1325.70 1337.78 37.60
20983 81.0797 1308.10 1337.61 37.50
20984 81.0835 1351.10 1337.44 38.00
20985 81.0873 1363.20 1337.26 38.40
20986 81.0910 1297.00 1337.08 37.30
20987 81.0948 1334.70 1336.90 37.80
20988 81.0985 1360.50 1336.72 38.60
20989 81.1023 1392.80 1336.54 38.30
20990 81.1060 1315.10 1336.35 37.80
20991 81.1098 1218.40 1336.16 35.90
20992 81.1136 1268.40 1335.97 36.70
20993 81.1173 1256.00 1335.77 37.00
20994 81.1211 1280.30 1335.57 37.40
20995 81.1248 1342.70 1335.37 38.10
20996 81.1286 1308.90 1335.17 37.60
20997 81.1323 1298.60 1334.96 37.90
20998 81.1361 1221.80 1334.75 36.20
20999 81.1398 1279.40 1334.54 37.20
21000 81.1436 1272.60 1334.32 37.20
21001 81.1474 1300.20 1334.10 37.30
21002 81.1511 1245.30 1333.88 36.80
21003 81.1549 1321.70 1333.66 37.80
21004 81.1586 1221.20 1333.43 36.00
21005 81.1624 1318.50 1333.20 37.90
21006 81.1662 1319.50 1332.97 37.80
21007 81.1699 1284.80 1332.73 37.10
21008 81.1737 1312.50 1332.49 37.20
21009 81.1774 1217.50 1332.25 37.20
21010 81.1812 1331.60 1332.01 38.00
21011 81.1849 1285.30 1331.76 37.60
21012 81.1887 1295.60 1331.51 37.60
21013 81.1924 1344.70 1331.25 37.50
21014 81.1962 1284.60 1330.99 37.60
21015 81.2000 1256.60 1330.73 37.10
21016 81.2037 1263.30 1330.47 37.20
21017 81.2075 1273.00 1330.20 36.70
21018 81.2112 1326.30 1329.93 38.40
21019 81.2150 1264.40 1329.66 37.40
21020 81.2187 1297.70 1329.38 37.70
21021 81.2225 1213.80 1329.10 36.60
21022 81.2263 1249.70 1328.82 36.70
21023 81.2300 1276.80 1328.53 37.50
21024 81.2338 1263.60 1328.24 37.20
21025 81.2375 1341.30 1327.95 38.30
21026 81.2413 1267.10 1327.65 36.40
21027 81.2450 1227.10 1327.35 36.70
21028 81.2488 1256.10 1327.05 37.00
21029 81.2525 1246.40 1326.74 37.30
21030 81.2563 1325.00 1326.43 38.40
21031 81.2601 1301.60 1326.11 37.70
21032 81.2638 1261.00 1325.79 37.10
21033 81.2676 1296.80 1325.47 37.70
21034 81.2713 1282.00 1325.15 36.10
21035 81.2751 1219.20 1324.82 36.80
21036 81.2788 1243.00 1324.49 37.60
21037 81.2826 1255.60 1324.15 36.90
21038 81.2863 1252.70 1323.81 36.60
21039 81.2901 1319.70 1323.47 38.20
21040 81.2939 1244.40 1323.12 37.40
21041 81.2976 1294.10 1322.77 37.50
21042 81.3014 1308.60 1322.41 37.60
21043 81.3051 1278.80 1322.05 37.40
21044 81.3089 1236.10 1321.69 36.80
21045 81.3126 1304.70 1321.33 37.50
21046 81.3164 1280.20 1320.96 37.50
21047 81.3202 1258.30 1320.58 37.10
21048 81.3239 1245.70 1320.20 36.90
21049 81.3277 1276.40 1319.82 37.80
21050 81.3314 1224.00 1319.43 36.70
21051 81.3352 1283.60 1319.04 37.80
21052 81.3389 1212.20 1318.65 36.60
21053 81.3427 1276.90 1318.25 37.40
21054 81.3465 1307.50 1317.85 38.30
21055 81.3502 1223.80 1317.44 36.90
21056 81.3540 1275.10 1317.03 37.70
21057 81.3577 1299.70 1316.62 37.80
21058 81.3615 1253.50 1316.20 36.80
21059 81.3652 1248.70 1315.77 37.30
21060 81.3690 1250.40 1315.35 37.10
21061 81.3727 1280.70 1314.91 36.80
21062 81.3765 1218.40 1314.48 37.10
21063 81.3803 1269.60 1314.04 37.50
21064 81.3840 1308.90 1313.59 37.00
21065 81.3878 1250.90 1313.14 37.20
21066 81.3915 1147.80 1312.69 35.40
21067 81.3953 1251.30 1312.23 37.00
21068 81.3990 1274.40 1311.77 37.40
21069 81.4028 1288.30 1311.30 37.70
21070 81.4065 1248.90 1310.83 36.80
21071 81.4103 1244.60 1310.35 36.50
21072 81.4140 1208.40 1309.87 36.10
21073 81.4178 1279.40 1309.39 37.10
21074 81.4216 1204.90 1308.90 36.30
21075 81.4253 1250.60 1308.40 36.70
21076 81.4291 1223.70 1307.90 36.90
21077 81.4328 1255.00 1307.40 37.30
21078 81.4366 1293.50 1306.89 37.90
21079 81.4403 1255.20 1306.38 37.00
21080 81.4441 1206.60 1305.86 36.60
21081 81.4479 1312.50 1305.34 37.30
21082 81.4516 1243.30 1304.81 37.20
21083 81.4554 1289.50 1304.28 37.60
21084 81.4591 1218.30 1303.74 36.50
21085 81.4629 1285.60 1303.19 36.90
21086 81.4666 1238.90 1302.64 36.80
21087 81.4704 1275.50 1302.09 36.50
21088 81.4741 1229.10 1301.54 36.80
21089 81.4779 1255.90 1300.97 36.70
21090 81.4817 1223.40 1300.40 36.50
21091 81.4854 1226.00 1299.83 36.30
21092 81.4892 1273.20 1299.25 37.30
21093 81.4929 1337.40 1298.67 38.60
21094 81.4967 1259.70 1298.08 37.30
21095 81.5004 1204.80 1297.49 36.30
21096 81.5042 1252.70 1296.89 37.20
21097 81.5079 1237.70 1296.28 37.10
21098 81.5117 1231.30 1295.67 36.60
21099 81.5155 1192.90 1295.05 36.30
21100 81.5192 1331.00 1294.43 38.50
21101 81.5230 1249.30 1293.81 37.10
21102 81.5267 1211.80 1293.18 36.10
21103 81.5305 1247.10 1292.54 37.30
21104 81.5342 1204.60 1291.90 36.50
21105 81.5380 1307.80 1291.25 37.20
21106 81.5417 1228.00 1290.59 35.90
21107 81.5455 1271.00 1289.94 36.50
21108 81.5492 1250.20 1289.27 36.10
21109 81.5530 1240.70 1288.60 36.30
21110 81.5568 1261.70 1287.92 36.40
21111 81.5605 1289.00 1287.24 36.80
21112 81.5643 1263.50 1286.55 36.70
21113 81.5680 1231.70 1285.86 36.10
21114 81.5718 1210.40 1285.16 35.20
21115 81.5755 1219.10 1284.45 36.50
21116 81.5793 1212.20 1283.74 36.20
21117 81.5830 1259.50 1283.02 36.50
21118 81.5868 1239.40 1282.30 36.10
21119 81.5906 1336.30 1281.57 37.80
21120 81.5943 1207.20 1280.83 36.10
21121 81.5981 1262.50 1280.09 36.50
21122 81.6018 1236.30 1279.34 36.50
21123 81.6056 1336.60 1278.59 38.00
21124 81.6093 1211.80 1277.83 35.80
21125 81.6131 1257.70 1277.06 36.90
21126 81.6168 1270.00 1276.29 36.60
21127 81.6206 1232.90 1275.51 36.10
21128 81.6243 1235.60 1274.72 36.10
21129 81.6281 1269.50 1273.93 36.50
21130 81.6319 1220.10 1273.13 35.80
21131 81.6356 1275.80 1272.33 36.50
21132 81.6394 1198.40 1271.52 35.40
21133 81.6431 1292.80 1270.70 37.40
21134 81.6469 1243.20 1269.88 36.40
21135 81.6506 1239.70 1269.04 36.20
21136 81.6544 1267.70 1268.21 36.80
21137 81.6581 1186.70 1267.36 34.80
21138 81.6619 1231.40 1266.51 36.40
21139 81.6656 1245.60 1265.65 36.60
21140 81.6694 1337.80 1264.79 37.80
21141 81.6732 1226.40 1263.92 35.80
21142 81.6769 1277.10 1263.04 36.70
21143 81.6807 1265.10 1262.16 37.00
21144 81.6844 1302.30 1261.26 37.30
21145 81.6882 1222.40 1260.36 35.90
21146 81.6919 1267.10 1259.46 36.40
21147 81.6957 1241.10 1258.55 36.50
21148 81.6994 1244.20 1257.63 36.40
21149 81.7032 1252.70 1256.70 36.50
21150 81.7069 1308.30 1255.76 36.80
21151 81.7107 1263.20 1254.82 36.70
21152 81.7144 1221.30 1253.87 36.10
21153 81.7182 1226.00 1252.92 36.10
21154 81.7219 1279.30 1251.96 36.90
21155 81.7257 1249.60 1250.98 36.20
21156 81.7295 1263.20 1250.00 36.70
21157 81.7332 1334.80 1249.02 37.70
21158 81.7370 1292.80 1248.03 36.50
21159 81.7407 1237.40 1247.03 36.20
21160 81.7445 1229.60 1246.02 35.80
21161 81.7482 1264.60 1245.01 36.50
21162 81.7520 1218.80 1243.98 36.00
21163 81.7557 1224.20 1242.95 36.10
21164 81.7595 1237.50 1241.92 36.30
21165 81.7633 1257.10 1240.87 36.70
21166 81.7670 1243.30 1239.82 36.00
21167 81.7708 1208.20 1238.75 35.60
21168 81.7745 1242.20 1237.68 36.10
21169 81.7783 1346.20 1236.61 38.30
21170 81.7820 1276.00 1235.52 36.50
21171 81.7858 1257.50 1234.43 36.50
21172 81.7895 1241.50 1233.33 36.50
21173 81.7933 1232.00 1232.22 36.40
21174 81.7970 1225.00 1231.10 36.00
21175 81.8008 1220.00 1229.97 36.30
21176 81.8046 1286.90 1228.84 37.30
21177 81.8083 1272.40 1227.70 36.90
21178 81.8121 1306.90 1226.55 37.40
21179 81.8158 1218.80 1225.39 36.00
21180 81.8196 1236.50 1224.22 36.50
21181 81.8233 1289.50 1223.05 37.10
21182 81.8271 1201.40 1221.86 35.70
21183 81.8308 1235.40 1220.67 36.40
21184 81.8346 1244.20 1219.47 37.00
21185 81.8383 1205.80 1218.26 35.90
21186 81.8421 1257.10 1217.04 36.40
21187 81.8458 1270.70 1215.82 36.90
21188 81.8496 1199.60 1214.58 35.40
21189 81.8533 1256.30 1213.34 36.60
21190 81.8571 1240.90 1212.08 36.50
21191 81.8609 1201.60 1210.82 36.00
21192 81.8646 1221.80 1209.55 36.10
21193 81.8684 1262.40 1208.27 37.00
21194 81.8721 1218.80 1206.98 36.00
21195 81.8759 1168.80 1205.68 35.10
21196 81.8796 1254.80 1204.38 37.20
21197 81.8834 1231.80 1203.06 36.60
21198 81.8871 1231.80 1201.74 36.20
21199 81.8909 1216.10 1200.41 35.70
21200 81.8946 1239.40 1199.07 36.50
21201 81.8984 1208.70 1197.71 36.00
21202 81.9021 1276.40 1196.35 37.20
21203 81.9059 1226.30 1194.98 35.90
21204 81.9097 1261.40 1193.60 36.70
21205 81.9134 1246.30 1192.21 36.10
21206 81.9172 1256.10 1190.81 36.50
21207 81.9209 1233.70 1189.40 36.40
21208 81.9247 1230.70 1187.98 36.20
21209 81.9284 1244.40 1186.55 36.10
21210 81.9322 1246.30 1185.11 36.40
21211 81.9359 1170.20 1183.66 35.40
21212 81.9397 1214.70 1182.21 36.30
21213 81.9434 1260.80 1180.74 37.00
21214 81.9472 1270.90 1179.26 36.80
21215 81.9509 1300.50 1177.77 36.80
21216 81.9547 1273.60 1176.28 36.40
21217 81.9584 1271.40 1174.77 36.20
21218 81.9622 1290.30 1173.26 36.80
21219 81.9659 1203.40 1171.72 35.90
21220 81.9697 1242.00 1170.19 35.50
21221 81.9735 1238.90 1168.63 36.40
21222 81.9772 1180.70 1167.08 36.20
21223 81.9810 1293.90 1165.51 37.20
21224 81.9847 1218.40 1163.93 35.60
21225 81.9885 1224.10 1162.34 34.70
21226 81.9922 1263.20 1160.74 35.70
21227 81.9960 1261.90 1159.13 37.20
21228 81.9997 1280.10 1157.51 37.30
21229 82.0035 1223.70 1155.88 35.40
21230 82.0072 1200.50 1154.23 34.30
21231 82.0110 1265.40 1152.58 34.50
21232 82.0147 1266.40 1150.92 33.60
loop_
_refln_index_h
_refln_index_k
_refln_index_l
_refln_F_squared_calc
_refln_F_squared_meas
_refln_F_squared_sigma
_refln_observed_status
_refln_d_spacing
0 0 1 31.94 33.53 0.88 o 3.928119
1 0 1 1678.27 1682.91 32.03 o 2.777600
1 1 1 279.76 352.95 6.56 o 2.267901
0 0 2 2897.72 2927.18 56.59 o 1.964060
1 0 2 4.92 5.23 0.20 o 1.756709
1 1 2 1048.80 1081.22 20.39 o 1.603648
2 0 2 1724.49 1697.59 32.58 o 1.388800
0 0 3 0.68 0.72 0.07 o 1.309373
2 1 2 0.68 0.72 0.07 o 1.309373
1 0 3 741.96 753.57 14.13 o 1.242180
1 1 3 83.57 80.76 1.47 o 1.184373
2 2 2 1173.49 1145.50 21.99 o 1.133950
2 0 3 0.02 0.01 0.02 o 1.089464
2 1 3 557.86 567.55 10.56 o 1.049834
0 0 4 860.23 844.19 16.31 o 0.982030
1 0 4 0.04 0.04 0.03 o 0.952709
2 2 3 0.04 0.04 0.03 o 0.952709
1 1 4 433.84 432.89 8.04 o 0.925867
3 0 3 433.84 432.89 8.04 o 0.925867
3 1 3 42.86 38.39 0.80 o 0.901172
2 0 4 658.73 635.20 12.04 o 0.878354
2 1 4 0.10 0.12 0.06 o 0.857186
3 2 3 344.04 324.71 6.06 o 0.837478
2 2 4 518.12 493.93 9.36 o 0.801824
0 0 5 0.12 0.08 0.14 < 0.785624
3 0 4 0.12 0.08 0.14 < 0.785624
1 0 5 276.12 266.04 4.89 o 0.770368
3 1 4 276.12 266.04 4.89 o 0.770368
3 3 3 25.75 23.16 0.58 o 0.755967
1 1 5 25.75 23.16 0.58 o 0.755967
2 0 5 0.10 0.04 0.05 < 0.729433
3 2 4 0.10 0.04 0.05 < 0.729433
2 1 5 223.45 206.03 3.80 o 0.717173
4 0 4 335.61 315.89 6.18 o 0.694400
2 2 5 0.07 0.05 0.08 < 0.683798
4 1 4 0.07 0.05 0.08 < 0.683798
3 3 4 181.89 173.15 3.20 o 0.673667
3 0 5 181.89 173.15 3.20 o 0.673667
3 1 5 16.48 13.90 0.39 o 0.663973
0 0 6 273.97 262.25 4.97 o 0.654687
4 2 4 273.97 262.25 4.97 o 0.654687
1 0 6 0.04 0.02 0.08 < 0.645779
3 2 5 148.74 143.86 2.63 o 0.637225
1 1 6 148.74 143.86 2.63 o 0.637225
