#------------------------------------------------------------------------------
#$Date: 2017-05-25 04:58:54 +0300 (Thu, 25 May 2017) $
#$Revision: 196962 $
#$URL: file:///home/coder/svn-repositories/cod/cif/7/04/31/7043106.cif $
#------------------------------------------------------------------------------
#
# This file is available in the Crystallography Open Database (COD),
# http://www.crystallography.net/
#
# All data on this site have been placed in the public domain by the
# contributors.
#
data_7043106
loop_
_publ_author_name
'Whittle, Thomas A.'
'Brant, William R.'
'Hester, James R.'
'Gu, Qinfen'
'Schmid, Siegbert'
_publ_section_title
;
 Tailoring phase transition temperatures in perovskites via A-site vacancy
 generation
;
_journal_name_full               'Dalton Trans.'
_journal_paper_doi               10.1039/C7DT00352H
_journal_year                    2017
_chemical_formula_sum            'Nb0.4 O3 Sr0.8 Ti0.6'
_chemical_formula_weight         184
_chemical_name_systematic        ' ?'
_space_group_IT_number           221
_symmetry_cell_setting           cubic
_symmetry_Int_Tables_number      221
_symmetry_space_group_name_Hall  '-P 4 2 3'
_symmetry_space_group_name_H-M   'P m -3 m'
_cell_angle_alpha                90
_cell_angle_beta                 90
_cell_angle_gamma                90
_cell_formula_units_Z            1
_cell_length_a                   3.93076(3)
_cell_length_b                   3.93076(3)
_cell_length_c                   3.93076(3)
_cell_measurement_temperature    293
_cell_volume                     60.7337(8)
_diffrn_ambient_temperature      293
_diffrn_radiation_probe          neutron
_diffrn_radiation_wavelength     1.622
_exptl_absorpt_coefficient_mu    0.008
_exptl_crystal_density_diffrn    5.0304
_exptl_crystal_F_000             84
_pd_instr_location               ' ?'
_pd_meas_2theta_range_max        163.950
_pd_meas_2theta_range_min        2.749
_pd_meas_number_of_points        3225
_pd_proc_2theta_range_max        163.95
_pd_proc_2theta_range_min        2.749
_pd_proc_ls_background_function  '12 Legendre polynoms'
_pd_proc_ls_pref_orient_corr     none
_pd_proc_ls_profile_function     Pseudo-Voigt
_pd_proc_ls_prof_R_factor        0.0509
_pd_proc_ls_prof_wR_expected     0.0157
_pd_proc_ls_prof_wR_factor       0.0714
_refine_ls_goodness_of_fit_all   4.56
_refine_ls_number_constraints    1
_refine_ls_number_parameters     22
_refine_ls_number_restraints     0
_refine_ls_R_factor_all          0.0416
_refine_ls_R_factor_gt           0.0268
_refine_ls_shift/su_max          0.0386
_refine_ls_shift/su_mean         0.0086
_refine_ls_weighting_scheme      sigma
_refine_ls_wR_factor_all         0.0727
_refine_ls_wR_factor_gt          0.0691
_cod_data_source_file            c7dt00352h2.cif
_cod_data_source_block           I
_cod_original_cell_volume        60.7336(8)
_cod_original_sg_symbol_Hall     '-P 4;2;3'
_cod_database_code               7043106
loop_
_space_group_symop_id
_space_group_symop_operation_xyz
1 x,y,z
2 -x,-y,z
3 -x,y,-z
4 x,-y,-z
5 z,x,y
6 z,-x,-y
7 -z,-x,y
8 -z,x,-y
9 y,z,x
10 -y,z,-x
11 y,-z,-x
12 -y,-z,x
13 y,x,-z
14 -y,-x,-z
15 y,-x,z
16 -y,x,z
17 x,z,-y
18 -x,z,y
19 -x,-z,-y
20 x,-z,y
21 z,y,-x
22 z,-y,x
23 -z,y,x
24 -z,-y,-x
25 -x,-y,-z
26 x,y,-z
27 x,-y,z
28 -x,y,z
29 -z,-x,-y
30 -z,x,y
31 z,x,-y
32 z,-x,y
33 -y,-z,-x
34 y,-z,x
35 -y,z,x
36 y,z,-x
37 -y,-x,z
38 y,x,z
39 -y,x,-z
40 y,-x,-z
41 -x,-z,y
42 x,-z,-y
43 x,z,y
44 -x,z,-y
45 -z,-y,x
46 -z,y,-x
47 z,-y,-x
48 z,y,x
loop_
_atom_site_label
_atom_site_type_symbol
_atom_site_fract_x
_atom_site_fract_y
_atom_site_fract_z
_atom_site_adp_type
_atom_site_U_iso_or_equiv
_atom_site_site_symmetry_multiplicity
_atom_site_occupancy
_atom_site_calc_flag
Sr Sr 0.5 0.5 0.5 Uiso 0.0096(7) 1 0.8 d
Ti Ti 0 0 0 Uiso 0.013(2) 1 0.6 d
Nb Nb 0 0 0 Uiso 0.013(2) 1 0.4 d
O O 0 0 0.5 Uiso 0.0066(2) 3 1 d
loop_
_atom_type_symbol
_atom_type_scat_length_neutron
_atom_type_scat_source
Sr 7.020 International_Tables_Vol_C
Ti -3.438 International_Tables_Vol_C
Nb 7.054 International_Tables_Vol_C
O 5.803 International_Tables_Vol_C
loop_
_geom_angle_atom_site_label_1
_geom_angle_atom_site_label_2
_geom_angle_atom_site_label_3
_geom_angle_site_symmetry_1
_geom_angle_site_symmetry_3
_geom_angle
O Sr O . 1_565 90.0000(6)
O Sr O . 1_655 90.0000(6)
O Sr O . 1_665 180.0(5)
O Sr O . 5_555 60.0000(3)
O Sr O . 5_556 60.0000(3)
O Sr O . 5_565 120.0000(3)
O Sr O . 5_566 120.0000(3)
O Sr O . 9_555 60.0000(3)
O Sr O . 9_556 60.0000(3)
O Sr O . 9_655 120.0000(3)
O Sr O . 9_656 120.0000(3)
O Sr O 1_565 1_655 180.0(5)
O Sr O 1_565 1_665 90.0000(6)
O Sr O 1_565 5_555 120.0000(3)
O Sr O 1_565 5_556 120.0000(3)
O Sr O 1_565 5_565 60.0000(3)
O Sr O 1_565 5_566 60.0000(3)
O Sr O 1_565 9_555 60.0000(3)
O Sr O 1_565 9_556 60.0000(3)
O Sr O 1_565 9_655 120.0000(3)
O Sr O 1_565 9_656 120.0000(3)
O Sr O 1_655 1_665 90.0000(6)
O Sr O 1_655 5_555 60.0000(3)
O Sr O 1_655 5_556 60.0000(3)
O Sr O 1_655 5_565 120.0000(3)
O Sr O 1_655 5_566 120.0000(3)
O Sr O 1_655 9_555 120.0000(3)
O Sr O 1_655 9_556 120.0000(3)
O Sr O 1_655 9_655 60.0000(3)
O Sr O 1_655 9_656 60.0000(3)
O Sr O 1_665 5_555 120.0000(3)
O Sr O 1_665 5_556 120.0000(3)
O Sr O 1_665 5_565 60.0000(3)
O Sr O 1_665 5_566 60.0000(3)
O Sr O 1_665 9_555 120.0000(3)
O Sr O 1_665 9_556 120.0000(3)
O Sr O 1_665 9_655 60.0000(3)
O Sr O 1_665 9_656 60.0000(3)
O Sr O 5_555 5_556 90.0000(6)
O Sr O 5_555 5_565 90.0000(6)
O Sr O 5_555 5_566 180.0(5)
O Sr O 5_555 9_555 60.0000(3)
O Sr O 5_555 9_556 120.0000(3)
O Sr O 5_555 9_655 60.0000(3)
O Sr O 5_555 9_656 120.0000(3)
O Sr O 5_556 5_565 180.0(5)
O Sr O 5_556 5_566 90.0000(6)
O Sr O 5_556 9_555 120.0000(3)
O Sr O 5_556 9_556 60.0000(3)
O Sr O 5_556 9_655 120.0000(3)
O Sr O 5_556 9_656 60.0000(3)
O Sr O 5_565 5_566 90.0000(6)
O Sr O 5_565 9_555 60.0000(3)
O Sr O 5_565 9_556 120.0000(3)
O Sr O 5_565 9_655 60.0000(3)
O Sr O 5_565 9_656 120.0000(3)
O Sr O 5_566 9_555 120.0000(3)
O Sr O 5_566 9_556 60.0000(3)
O Sr O 5_566 9_655 120.0000(3)
O Sr O 5_566 9_656 60.0000(3)
O Sr O 9_555 9_556 90.0000(6)
O Sr O 9_555 9_655 90.0000(6)
O Sr O 9_555 9_656 180.0(5)
O Sr O 9_556 9_655 180.0(5)
O Sr O 9_556 9_656 90.0000(6)
O Sr O 9_655 9_656 90.0000(6)
O Ti O 1_554 . 180.0(5)
O Ti O 1_554 5_455 90
O Ti O 1_554 5_555 90
O Ti O 1_554 9_545 90
O Ti O 1_554 9_555 90
O Ti O . 5_455 90
O Ti O . 5_555 90
O Ti O . 9_545 90
O Ti O . 9_555 90
O Ti O 5_455 5_555 180.0(5)
O Ti O 5_455 9_545 90
O Ti O 5_455 9_555 90
O Ti O 5_555 9_545 90
O Ti O 5_555 9_555 90
O Ti O 9_545 9_555 180.0(5)
O Nb O 1_554 . 180.0(5)
O Nb O 1_554 5_455 90
O Nb O 1_554 5_555 90
O Nb O 1_554 9_545 90
O Nb O 1_554 9_555 90
O Nb O . 5_455 90
O Nb O . 5_555 90
O Nb O . 9_545 90
O Nb O . 9_555 90
O Nb O 5_455 5_555 180.0(5)
O Nb O 5_455 9_545 90
O Nb O 5_455 9_555 90
O Nb O 5_555 9_545 90
O Nb O 5_555 9_555 90
O Nb O 9_545 9_555 180.0(5)
loop_
_geom_bond_atom_site_label_1
_geom_bond_atom_site_label_2
_geom_bond_site_symmetry_2
_geom_bond_distance
Sr O . 2.77947(3)
Sr O 1_565 2.77947(3)
Sr O 1_655 2.77947(3)
Sr O 1_665 2.77947(3)
Sr O 5_555 2.77947(3)
Sr O 5_556 2.77947(3)
Sr O 5_565 2.77947(3)
Sr O 5_566 2.77947(3)
Sr O 9_555 2.77947(3)
Sr O 9_556 2.77947(3)
Sr O 9_655 2.77947(3)
Sr O 9_656 2.77947(3)
Ti O 1_554 1.96538(3)
Ti O . 1.96538(3)
Ti O 5_455 1.96538(3)
Ti O 5_555 1.96538(3)
Ti O 9_545 1.96538(3)
Ti O 9_555 1.96538(3)
Nb O 1_554 1.96538(3)
Nb O . 1.96538(3)
Nb O 5_455 1.96538(3)
Nb O 5_555 1.96538(3)
Nb O 9_545 1.96538(3)
Nb O 9_555 1.96538(3)
loop_
_pd_proc_point_id
_pd_proc_2theta_corrected
_pd_proc_intensity_net
_pd_calc_intensity_net
_pd_proc_ls_weight
1 2.5660 0.00 0.00 0.00
2 2.6167 0.00 0.00 0.00
3 2.6670 0.00 0.00 0.00
4 2.7171 0.00 0.00 0.00
5 2.7673 0.00 0.00 0.00
6 2.8174 0.00 0.00 0.00
7 2.8674 0.00 0.00 0.00
8 2.9175 0.00 0.00 0.00
9 2.9675 0.00 0.00 0.00
10 3.0175 0.00 0.00 0.00
11 3.0675 0.00 0.00 0.00
12 3.1176 0.00 0.00 0.00
13 3.1677 0.00 0.00 0.00
14 3.2176 0.00 0.00 0.00
15 3.2677 0.00 0.00 0.00
16 3.3177 0.00 0.00 0.00
17 3.3677 0.00 0.00 0.00
18 3.4177 0.00 0.00 0.00
19 3.4676 0.00 0.00 0.00
20 3.5177 0.00 0.00 0.00
21 3.5677 0.00 0.00 0.00
22 3.6177 0.00 0.00 0.00
23 3.6678 0.00 0.00 0.00
24 3.7177 0.00 0.00 0.00
25 3.7677 0.00 0.00 0.00
26 8.0176 998.22 1007.03 20.64
27 8.0677 1034.44 1006.88 21.00
28 8.1176 1060.19 1006.76 21.29
29 8.1677 1053.34 1006.68 21.22
30 8.2177 1002.39 1006.62 20.71
31 8.2677 1036.23 1006.59 21.04
32 8.3177 1040.74 1006.59 21.10
33 8.3677 1026.17 1006.62 20.91
34 8.4177 1039.34 1006.68 21.06
35 8.4676 1024.38 1006.77 20.90
36 8.5177 1015.51 1006.89 20.82
37 8.5677 1040.56 1007.03 21.07
38 8.6177 1021.59 1007.19 20.88
39 8.6678 999.16 1007.38 20.66
40 8.7176 996.90 1007.60 20.62
41 8.7677 1019.32 1007.84 20.88
42 8.8169 1026.37 1008.10 21.37
43 8.8672 1073.92 1008.39 21.90
44 8.9173 1057.33 1008.69 21.72
45 8.9674 1026.29 1009.02 21.39
46 9.0175 1063.16 1009.38 21.80
47 9.0675 1053.67 1009.75 21.70
48 9.1176 1046.44 1010.14 21.60
49 9.1676 1086.64 1010.55 22.02
50 9.2176 1033.69 1010.98 21.49
51 9.2676 1059.67 1011.43 21.76
52 9.3177 1046.55 1011.90 21.65
53 9.3676 1047.70 1012.38 21.66
54 9.4177 1016.08 1012.89 21.27
55 9.4677 1021.17 1013.40 21.35
56 9.5177 1016.10 1013.94 21.34
57 9.5677 1017.12 1014.49 21.30
58 9.6177 1063.81 1015.05 21.78
59 9.6677 1034.22 1015.63 21.49
60 9.7176 1051.88 1016.23 21.67
61 9.7677 1022.43 1016.83 21.39
62 9.8177 1021.35 1017.45 21.37
63 9.8677 1023.32 1018.09 21.37
64 9.9178 1051.20 1018.74 21.66
65 9.9676 1063.92 1019.39 21.79
66 10.0177 1025.93 1020.06 21.40
67 10.0669 1018.01 1020.73 23.05
68 10.1172 1011.68 1021.43 23.03
69 10.1673 1054.03 1022.13 23.50
70 10.2174 1046.98 1022.85 23.38
71 10.2675 1038.12 1023.57 23.31
72 10.3175 1018.38 1024.30 23.10
73 10.3675 1060.14 1025.04 23.58
74 10.4176 1043.76 1025.79 23.41
75 10.4676 990.47 1026.55 22.78
76 10.5176 966.77 1027.31 22.49
77 10.5677 1004.06 1028.08 22.98
78 10.6176 1020.59 1028.86 23.13
79 10.6677 1007.55 1029.65 23.00
80 10.7177 1060.98 1030.44 23.53
81 10.7677 985.03 1031.24 22.73
82 10.8177 1058.11 1032.04 23.50
83 10.8677 1018.09 1032.85 23.12
84 10.9177 1053.93 1033.66 23.52
85 10.9676 1018.90 1034.48 23.14
86 11.0177 1013.05 1035.31 23.02
87 11.0677 1003.84 1036.13 22.92
88 11.1177 1046.82 1036.97 23.39
89 11.1678 969.79 1037.80 22.56
90 11.2176 1047.86 1038.64 23.51
91 11.2677 1051.93 1039.48 23.59
92 11.3168 1043.84 1040.31 23.04
93 11.3672 973.42 1041.16 22.15
94 11.4173 974.40 1042.01 22.27
95 11.4674 1049.61 1042.86 23.05
96 11.5175 994.17 1043.72 22.48
97 11.5675 985.50 1044.57 22.30
98 11.6175 1064.16 1045.43 23.26
99 11.6676 1064.47 1046.28 23.31
100 11.7176 994.19 1047.14 22.45
101 11.7676 1045.46 1048.00 23.00
102 11.8177 1018.70 1048.85 22.73
103 11.8676 1039.09 1049.71 22.99
104 11.9177 1026.43 1050.57 22.83
105 11.9677 1013.35 1051.42 22.68
106 12.0177 1002.39 1052.28 22.56
107 12.0677 1041.54 1053.13 22.99
108 12.1177 990.48 1053.99 22.42
109 12.1677 1030.23 1054.84 22.87
110 12.2176 1014.70 1055.69 22.70
111 12.2677 1027.96 1056.54 22.86
112 12.3177 1003.86 1057.38 22.61
113 12.3677 1016.65 1058.23 22.71
114 12.4178 988.47 1059.07 22.42
115 12.4676 1024.25 1059.91 22.81
116 12.5177 1039.24 1060.75 22.98
117 12.5668 1073.40 1061.57 21.95
118 12.6172 1074.62 1062.41 21.97
119 12.6673 1020.63 1063.23 21.40
120 12.7174 1032.17 1064.06 21.53
121 12.7674 1069.16 1064.88 21.91
122 12.8175 1039.47 1065.70 21.62
123 12.8675 1047.37 1066.52 21.70
124 12.9176 1030.32 1067.33 21.51
125 12.9676 1037.58 1068.13 21.59
126 13.0176 1032.45 1068.93 21.51
127 13.0677 1032.79 1069.73 21.54
128 13.1176 1013.95 1070.52 21.34
129 13.1677 1061.07 1071.31 21.85
130 13.2176 1013.07 1072.10 21.32
131 13.2677 1029.88 1072.88 21.49
132 13.3177 1039.38 1073.65 21.61
133 13.3677 1050.46 1074.42 21.72
134 13.4177 1041.56 1075.18 21.61
135 13.4675 1025.40 1075.93 21.45
136 13.5177 1042.17 1076.69 21.63
137 13.5677 1049.15 1077.43 21.70
138 13.6177 1076.26 1078.18 21.96
139 13.6678 1068.43 1078.92 21.91
140 13.7176 1013.26 1079.64 21.34
141 13.7677 1076.51 1080.37 21.97
142 13.8168 1060.10 1081.07 21.83
143 13.8672 1048.95 1081.79 21.71
144 13.9173 1030.29 1082.49 21.52
145 13.9674 1059.63 1083.19 21.83
146 14.0174 1039.52 1083.88 21.61
147 14.0675 1020.40 1084.57 21.44
148 14.1175 1060.98 1085.25 21.84
149 14.1676 1010.38 1085.92 21.32
150 14.2176 1022.50 1086.58 21.44
151 14.2676 1060.11 1087.24 21.84
152 14.3177 1061.36 1087.89 21.85
153 14.3676 1059.42 1088.54 21.83
154 14.4177 1042.34 1089.18 21.66
155 14.4676 1050.04 1089.80 21.73
156 14.5177 1074.65 1090.43 21.99
157 14.5676 1016.10 1091.04 21.38
158 14.6177 1044.19 1091.65 21.67
159 14.6677 1102.40 1092.25 22.26
160 14.7175 1090.28 1092.84 22.14
161 14.7677 1070.25 1093.43 21.95
162 14.8177 1068.83 1094.01 21.92
163 14.8677 1071.19 1094.58 21.95
164 14.9177 1069.22 1095.14 21.95
165 14.9676 1072.89 1095.70 21.98
166 15.0177 1112.36 1096.25 22.37
167 15.0668 1067.08 1096.78 21.95
168 15.1172 1105.43 1097.32 22.30
169 15.1673 1094.57 1097.84 22.22
170 15.2174 1091.05 1098.36 22.14
171 15.2674 1090.12 1098.87 22.15
172 15.3175 1051.74 1099.37 21.78
173 15.3675 1072.49 1099.87 21.97
174 15.4176 1067.02 1100.36 21.92
175 15.4676 1047.92 1100.83 21.71
176 15.5176 1060.97 1101.30 21.86
177 15.5677 1075.49 1101.77 22.01
178 15.6176 1056.26 1102.22 21.82
179 15.6677 1091.10 1102.67 22.18
180 15.7176 1071.42 1103.11 21.98
181 15.7676 1069.89 1103.54 21.98
182 15.8176 1071.55 1103.96 21.95
183 15.8676 1066.58 1104.37 21.93
184 15.9177 1090.52 1104.78 22.16
185 15.9675 1073.32 1105.18 22.00
186 16.0177 1069.73 1105.57 21.95
187 16.0677 1120.65 1105.95 22.47
188 16.1177 1078.89 1106.33 22.05
189 16.1677 1067.30 1106.70 21.95
190 16.2176 1077.46 1107.05 22.06
191 16.2677 1040.72 1107.40 21.65
192 16.3168 1077.77 1107.74 22.51
193 16.3672 1117.61 1108.08 22.93
194 16.4173 1081.11 1108.41 22.53
195 16.4674 1092.89 1108.73 22.66
196 16.5174 1090.64 1109.04 22.65
197 16.5675 1052.53 1109.34 22.24
198 16.6175 1102.30 1109.64 22.76
199 16.6676 1114.67 1109.92 22.88
200 16.7176 1071.27 1110.20 22.44
201 16.7676 1109.94 1110.48 22.84
202 16.8177 1107.23 1110.74 22.82
203 16.8676 1081.29 1111.00 22.55
204 16.9177 1060.10 1111.24 22.32
205 16.9676 1108.76 1111.48 22.84
206 17.0177 1104.89 1111.72 22.78
207 17.0676 1140.39 1111.94 23.15
208 17.1176 1061.14 1112.16 22.35
209 17.1677 1067.14 1112.37 22.41
210 17.2175 1095.52 1112.57 22.70
211 17.2677 1084.36 1112.77 22.58
212 17.3177 1103.80 1112.95 22.77
213 17.3677 1093.89 1113.13 22.69
214 17.4177 1123.24 1113.31 22.98
215 17.4676 1128.98 1113.47 23.04
216 17.5177 1133.54 1113.63 23.09
217 17.5668 1103.99 1113.78 22.63
218 17.6172 1160.99 1113.92 23.23
219 17.6673 1132.05 1114.06 22.91
220 17.7173 1138.48 1114.18 22.98
221 17.7674 1087.28 1114.30 22.47
222 17.8175 1057.05 1114.42 22.14
223 17.8675 1100.66 1114.52 22.59
224 17.9176 1079.21 1114.62 22.38
225 17.9676 1123.66 1114.72 22.84
226 18.0176 1109.24 1114.80 22.70
227 18.0677 1103.42 1114.88 22.63
228 18.1176 1124.96 1114.95 22.85
229 18.1677 1116.62 1115.02 22.76
230 18.2176 1195.41 1115.07 23.57
231 18.2676 1090.69 1115.12 22.52
232 18.3176 1112.20 1115.17 22.72
233 18.3676 1099.76 1115.21 22.60
234 18.4177 1121.86 1115.24 22.82
235 18.4675 1104.69 1115.26 22.64
236 18.5176 1135.10 1115.28 22.97
237 18.5676 1155.95 1115.29 23.17
238 18.6176 1144.87 1115.30 23.05
239 18.6677 1130.36 1115.29 22.90
240 18.7176 1096.26 1115.29 22.55
241 18.7677 1131.76 1115.27 22.91
242 18.8168 1144.09 1115.25 23.51
243 18.8672 1120.14 1115.23 23.29
244 18.9173 1145.27 1115.19 23.55
245 18.9673 1145.45 1115.15 23.53
246 19.0174 1138.90 1115.11 23.45
247 19.0675 1114.41 1115.06 23.20
248 19.1175 1141.82 1115.00 23.47
249 19.1676 1167.54 1114.94 23.78
250 19.2176 1141.67 1114.87 23.49
251 19.2676 1145.58 1114.80 23.54
252 19.3177 1132.58 1114.72 23.40
253 19.3676 1146.61 1114.63 23.53
254 19.4176 1188.03 1114.54 23.96
255 19.4676 1110.12 1114.45 23.17
256 19.5176 1182.78 1114.35 23.92
257 19.5676 1147.72 1114.24 23.55
258 19.6176 1154.82 1114.13 23.58
259 19.6677 1151.82 1114.01 23.61
260 19.7175 1154.63 1113.89 23.61
261 19.7676 1145.41 1113.76 23.54
262 19.8176 1175.81 1113.63 23.86
263 19.8676 1181.51 1113.49 23.89
264 19.9177 1169.67 1113.35 23.78
265 19.9676 1203.17 1113.20 24.16
266 20.0177 1137.37 1113.05 23.48
267 20.0668 1171.20 1112.90 24.29
268 20.1172 1117.84 1112.74 23.74
269 20.1673 1195.67 1112.57 24.58
270 20.2173 1144.55 1112.40 24.03
271 20.2674 1135.97 1112.23 23.95
272 20.3175 1163.54 1112.05 24.23
273 20.3675 1194.81 1111.86 24.57
274 20.4176 1163.33 1111.68 24.23
275 20.4676 1173.54 1111.49 24.34
276 20.5176 1152.57 1111.29 24.14
277 20.5677 1173.72 1111.09 24.33
278 20.6176 1207.73 1110.89 24.69
279 20.6676 1190.38 1110.68 24.51
280 20.7176 1153.44 1110.47 24.13
281 20.7676 1210.09 1110.26 24.72
282 20.8176 1169.30 1110.04 24.29
283 20.8676 1124.25 1109.82 23.81
284 20.9177 1156.32 1109.59 24.13
285 20.9675 1160.74 1109.36 24.20
286 21.0176 1145.13 1109.13 24.02
287 21.0676 1162.06 1108.89 24.21
288 21.1176 1152.50 1108.66 24.12
289 21.1677 1192.34 1108.41 24.52
290 21.2176 1172.62 1108.17 24.35
291 21.2677 1201.59 1107.92 24.63
292 21.3168 1144.59 1107.68 23.37
293 21.3671 1157.85 1107.42 23.43
294 21.4173 1156.98 1107.17 23.44
295 21.4673 1173.65 1106.91 23.60
296 21.5174 1109.48 1106.65 22.95
297 21.5675 1175.12 1106.39 23.63
298 21.6175 1145.72 1106.13 23.35
299 21.6676 1138.71 1105.88 23.28
300 21.7176 1176.73 1105.63 23.62
301 21.7675 1114.27 1105.39 23.00
302 21.8176 1124.95 1105.17 23.11
303 21.8676 1195.53 1104.99 23.84
304 21.9176 1154.78 1104.86 23.45
305 21.9676 1138.22 1104.81 23.25
306 22.0176 1150.02 1104.88 23.39
307 22.0676 1158.59 1105.12 23.49
308 22.1176 1170.07 1105.57 23.58
309 22.1676 1151.86 1106.29 23.40
310 22.2175 1171.75 1107.34 23.60
311 22.2676 1188.20 1108.78 23.76
312 22.3176 1143.55 1110.64 23.33
313 22.3676 1156.92 1112.95 23.47
314 22.4177 1139.75 1115.69 23.26
315 22.4676 1179.46 1118.82 23.67
316 22.5176 1165.39 1122.28 23.54
317 22.5668 1194.43 1125.90 24.28
318 22.6171 1164.52 1129.71 23.98
319 22.6673 1185.11 1133.51 24.18
320 22.7173 1165.69 1137.18 23.96
321 22.7674 1179.93 1140.65 24.07
322 22.8175 1163.94 1143.85 23.93
323 22.8675 1159.20 1146.74 23.90
324 22.9176 1183.23 1149.34 24.11
325 22.9675 1171.62 1151.67 24.01
326 23.0175 1162.06 1153.79 23.92
327 23.0676 1220.56 1155.78 24.52
328 23.1176 1247.95 1157.69 24.80
329 23.1676 1198.57 1159.57 24.32
330 23.2176 1193.85 1161.47 24.25
331 23.2676 1201.76 1163.37 24.31
332 23.3176 1213.07 1165.25 24.44
333 23.3676 1249.49 1167.00 24.81
334 23.4176 1228.58 1168.49 24.63
335 23.4675 1207.31 1169.56 24.41
336 23.5176 1269.17 1170.00 24.99
337 23.5676 1232.56 1169.60 24.66
338 23.6176 1256.33 1168.19 24.89
339 23.6677 1231.69 1165.62 24.68
340 23.7176 1172.85 1161.86 24.06
341 23.7676 1194.41 1156.95 24.29
342 23.8168 1235.28 1151.13 27.09
343 23.8671 1236.91 1144.41 27.14
344 23.9173 1262.94 1137.25 27.41
345 23.9673 1213.28 1129.99 26.85
346 24.0174 1172.19 1122.91 26.38
347 24.0674 1215.46 1116.32 26.86
348 24.1175 1203.66 1110.39 26.75
349 24.1676 1176.30 1105.26 26.47
350 24.2175 1193.44 1100.98 26.63
351 24.2675 1217.53 1097.51 26.91
352 24.3176 1213.81 1094.76 26.88
353 24.3675 1224.49 1092.65 26.94
354 24.4176 1184.35 1091.05 26.51
355 24.4676 1218.11 1089.84 26.94
356 24.5176 1193.40 1088.93 26.62
357 24.5676 1173.45 1088.23 26.41
358 24.6176 1166.58 1087.66 26.33
359 24.6676 1153.59 1087.19 26.13
360 24.7175 1165.00 1086.78 26.27
361 24.7676 1219.60 1086.41 26.92
362 24.8176 1172.93 1086.06 26.43
363 24.8676 1180.70 1085.72 26.47
364 24.9177 1218.30 1085.39 26.86
365 24.9676 1164.68 1085.06 26.28
366 25.0176 1164.36 1084.74 26.25
367 25.0668 1183.98 1084.42 26.09
368 25.1171 1154.19 1084.11 25.71
369 25.1672 1152.70 1083.79 25.75
370 25.2173 1177.50 1083.48 26.08
371 25.2674 1147.85 1083.17 25.77
372 25.3174 1166.78 1082.86 25.94
373 25.3675 1165.34 1082.55 25.94
374 25.4175 1162.93 1082.25 25.88
375 25.4675 1143.22 1081.95 25.62
376 25.5175 1130.23 1081.65 25.47
377 25.5676 1131.55 1081.35 25.56
378 25.6175 1118.37 1081.06 25.40
379 25.6676 1153.57 1080.76 25.79
380 25.7176 1130.59 1080.47 25.57
381 25.7676 1152.98 1080.18 25.82
382 25.8176 1182.53 1079.90 26.17
383 25.8676 1109.01 1079.61 25.23
384 25.9176 1084.79 1079.33 24.98
385 25.9675 1142.78 1079.05 25.71
386 26.0176 1140.28 1078.77 25.59
387 26.0676 1128.23 1078.50 25.54
388 26.1176 1164.55 1078.22 25.92
389 26.1677 1182.88 1077.95 26.18
390 26.2176 1133.84 1077.68 25.60
391 26.2676 1125.03 1077.42 25.49
392 26.3326 1123.84 1077.08 23.41
393 26.3677 1051.08 1076.89 32.34
394 26.4079 1123.76 1076.69 23.40
395 26.4581 1093.11 1076.43 23.06
396 26.5081 1092.03 1076.18 23.07
397 26.5582 1123.14 1075.92 23.41
398 26.6083 1092.59 1075.68 23.10
399 26.6583 1111.06 1075.43 23.28
400 26.7083 1093.90 1075.19 23.09
401 26.7583 1058.58 1074.95 22.72
402 26.8084 1080.25 1074.71 22.93
403 26.8583 1119.81 1074.48 23.35
404 26.9084 1040.80 1074.24 22.52
405 26.9584 1103.37 1074.02 23.19
406 27.0084 1124.50 1073.79 23.42
407 27.0584 1101.55 1073.57 23.17
408 27.1084 1076.69 1073.35 22.89
409 27.1584 1073.82 1073.13 22.90
410 27.2084 1093.98 1072.92 23.08
411 27.2584 1077.89 1072.71 22.90
412 27.3084 1081.30 1072.50 22.95
413 27.3584 1068.46 1072.30 22.81
414 27.4085 1098.36 1072.10 23.14
415 27.4584 1104.33 1071.90 23.21
416 27.5084 1042.06 1071.71 22.52
417 27.5575 1081.13 1071.52 24.54
418 27.6079 1058.12 1071.33 24.31
419 27.6581 1092.08 1071.14 24.70
420 27.7081 1065.44 1070.96 24.37
421 27.7582 1089.41 1070.78 24.63
422 27.8082 1038.43 1070.61 24.08
423 27.8582 1064.85 1070.44 24.32
424 27.9083 1094.73 1070.27 24.78
425 27.9583 1049.13 1070.11 24.19
426 28.0083 1031.06 1069.95 24.02
427 28.0583 1018.32 1069.79 23.83
428 28.1085 1037.76 1069.64 24.07
429 28.1584 1010.29 1069.49 23.82
430 28.2084 1097.73 1069.34 24.74
431 28.2584 1085.96 1069.20 24.59
432 28.3084 1061.44 1069.06 24.40
433 28.3584 1046.46 1068.92 24.20
434 28.4084 1090.35 1068.79 24.65
435 28.4583 1075.51 1068.66 24.46
436 28.5083 1054.82 1068.54 24.30
437 28.5584 1031.39 1068.42 24.01
438 28.6084 1074.18 1068.30 24.58
439 28.6584 1076.20 1068.19 24.53
440 28.7085 1075.68 1068.08 24.54
441 28.7584 1063.48 1067.97 24.43
442 28.8109 1035.38 1067.87 19.68
443 28.8671 1077.05 1067.76 25.47
444 28.9172 1017.25 1067.66 24.81
445 28.9673 1067.67 1067.57 25.37
446 29.0174 1053.39 1067.49 25.20
447 29.0674 1043.11 1067.40 25.06
448 29.1174 1047.48 1067.33 25.16
449 29.1675 1032.81 1067.25 24.97
450 29.2175 1043.54 1067.18 25.07
451 29.2675 1026.61 1067.12 24.88
452 29.3176 1098.97 1067.05 25.75
453 29.3675 1060.64 1067.00 25.30
454 29.4176 1029.49 1066.94 24.91
455 29.4676 1052.60 1066.89 25.21
456 29.5176 1032.77 1066.84 24.98
457 29.5676 1018.16 1066.80 24.79
458 29.6176 1009.34 1066.76 24.68
459 29.6676 1056.54 1066.73 25.26
460 29.7175 1043.01 1066.70 25.10
461 29.7676 1032.69 1066.67 24.92
462 29.8176 1095.46 1066.65 25.69
463 29.8676 1050.66 1066.64 25.20
464 29.9177 1011.31 1066.62 24.68
465 29.9675 1015.03 1066.61 24.73
466 30.0176 1013.82 1066.61 24.72
467 30.0667 1002.52 1066.60 22.71
468 30.1171 1015.68 1066.61 22.88
469 30.1672 1046.03 1066.61 23.20
470 30.2173 998.61 1066.63 22.67
471 30.2674 1036.76 1066.64 23.12
472 30.3174 1040.11 1066.66 23.09
473 30.3674 1022.13 1066.68 22.95
474 30.4175 938.13 1066.71 21.95
475 30.4675 994.86 1066.74 22.68
476 30.5175 1009.74 1066.78 22.70
477 30.5676 989.00 1066.82 22.53
478 30.6175 979.82 1066.86 22.44
479 30.6676 1009.04 1066.91 22.77
480 30.7176 1055.87 1066.96 23.32
481 30.7676 1040.19 1067.02 23.11
482 30.8176 1017.50 1067.08 22.83
483 30.8676 995.02 1067.15 22.60
484 30.9176 942.68 1067.22 22.00
485 30.9675 1005.37 1067.29 22.72
486 31.0176 980.48 1067.37 22.45
487 31.0676 994.90 1067.45 22.62
488 31.1176 1016.17 1067.54 22.84
489 31.1677 995.73 1067.63 22.66
490 31.2175 990.75 1067.72 22.61
491 31.2676 995.55 1067.82 22.61
492 31.3161 1022.16 1067.92 22.51
493 31.3665 997.88 1068.03 22.25
494 31.4166 946.68 1068.14 21.68
495 31.4667 969.41 1068.26 21.90
496 31.5168 1024.55 1068.38 22.52
497 31.5668 1013.51 1068.50 22.42
498 31.6168 964.86 1068.63 21.86
499 31.6669 967.51 1068.77 21.87
500 31.7169 985.46 1068.90 22.09
501 31.7669 993.09 1069.05 22.24
502 31.8170 1001.71 1069.19 22.28
503 31.8669 1000.07 1069.34 22.28
504 31.9170 1006.89 1069.50 22.29
505 31.9670 973.53 1069.66 21.97
506 32.0170 983.84 1069.82 22.05
507 32.0670 993.15 1069.99 22.20
508 32.1170 973.65 1070.16 22.01
509 32.1670 972.72 1070.34 21.97
510 32.2169 996.77 1072.21 22.24
511 32.2670 1000.45 1072.42 22.26
512 32.3170 994.83 1072.64 22.18
513 32.3670 988.48 1072.87 22.13
514 32.4171 975.21 1073.12 22.03
515 32.4669 997.42 1073.40 22.23
516 32.5170 948.39 1073.72 21.69
517 32.5609 992.18 1074.04 22.43
518 32.6113 1010.43 1074.49 22.65
519 32.6614 1056.46 1075.02 23.11
520 32.7115 1077.87 1075.69 23.45
521 32.7615 1041.03 1076.50 23.00
522 32.8116 1012.61 1077.51 22.66
523 32.8616 1026.84 1078.72 22.80
524 32.9117 1075.53 1080.15 23.33
525 32.9617 1062.10 1081.81 23.21
526 33.0117 1011.76 1083.68 22.66
527 33.0618 1048.15 1085.75 23.06
528 33.1117 1019.22 1087.96 22.74
529 33.1618 1056.43 1090.29 23.12
530 33.2117 1071.40 1092.65 23.27
531 33.2617 1031.69 1095.01 22.86
532 33.3117 1076.77 1097.31 23.38
533 33.3618 1070.77 1099.53 23.30
534 33.4118 1075.93 1101.59 23.37
535 33.4616 1077.87 1103.48 23.39
536 33.5118 1049.78 1105.15 23.08
537 33.5618 1034.01 1106.55 22.90
538 33.6118 992.65 1107.62 22.42
539 33.6619 1036.36 1108.30 22.93
540 33.7117 965.40 1108.54 22.14
541 33.7618 984.74 1108.29 22.35
542 33.8055 986.00 1107.65 21.92
543 33.8559 1038.00 1106.44 22.54
544 33.9060 1018.37 1104.79 22.29
545 33.9561 1013.31 1102.76 22.24
546 34.0062 1051.70 1100.50 22.66
547 34.0562 1043.54 1098.13 22.56
548 34.1063 980.63 1095.80 21.86
549 34.1563 961.12 1093.62 21.64
550 34.2063 1004.13 1091.70 22.15
551 34.2563 1028.18 1090.09 22.36
552 34.3064 996.26 1088.81 22.04
553 34.3563 978.23 1087.88 21.79
554 34.4064 974.76 1087.25 21.82
555 34.4564 993.53 1086.88 22.01
556 34.5064 997.52 1086.74 22.04
557 34.5564 1002.97 1086.76 22.11
558 34.6064 981.62 1086.91 21.89
559 34.6564 991.82 1087.15 21.98
560 34.7063 1029.68 1087.46 22.39
561 34.7564 984.67 1087.81 21.94
562 34.8064 970.94 1088.18 21.78
563 34.8564 1020.39 1088.58 22.34
564 34.9065 984.44 1088.99 21.92
565 34.9563 980.58 1089.40 21.87
566 35.0064 967.20 1089.83 21.69
567 35.0608 1010.05 1090.30 22.12
568 35.1111 1005.08 1090.74 22.04
569 35.1613 1045.17 1091.18 22.53
570 35.2113 993.77 1091.63 21.94
571 35.2614 1012.02 1092.08 22.12
572 35.3114 1041.03 1092.54 22.42
573 35.3615 986.58 1093.00 21.87
574 35.4115 991.52 1093.47 21.92
575 35.4615 1029.82 1093.94 22.34
576 35.5115 978.98 1094.41 21.77
577 35.5616 1001.29 1094.89 22.00
578 35.6115 1017.28 1095.38 22.19
579 35.6616 1008.67 1095.87 22.11
580 35.7116 972.44 1096.36 21.71
581 35.7616 983.70 1096.86 21.81
582 35.8116 1013.27 1097.37 22.17
583 35.8616 1021.39 1097.87 22.21
584 35.9116 1006.04 1098.39 22.08
585 35.9615 1040.77 1098.91 22.46
586 36.0116 1003.23 1099.43 22.04
587 36.0616 1000.13 1099.96 21.99
588 36.1116 1010.06 1100.49 22.09
589 36.1617 987.83 1101.03 21.87
590 36.2116 1015.96 1101.57 22.15
591 36.2616 1001.65 1102.12 22.01
592 36.3167 1067.21 1102.73 22.55
593 36.3671 1034.55 1103.30 22.22
594 36.4172 1054.29 1103.87 22.42
595 36.4672 990.10 1104.44 21.71
596 36.5173 1048.48 1105.02 22.37
597 36.5674 1044.18 1105.60 22.33
598 36.6174 1090.75 1106.19 22.78
599 36.6675 1036.02 1106.78 22.25
600 36.7175 1034.83 1107.39 22.22
601 36.7675 1068.17 1107.99 22.58
602 36.8176 1079.08 1108.61 22.67
603 36.8675 1065.72 1109.22 22.58
604 36.9175 1070.92 1109.85 22.62
605 36.9675 1073.74 1110.48 22.66
606 37.0175 1137.91 1111.12 23.34
607 37.0675 1168.19 1111.77 23.62
608 37.1175 1177.04 1112.42 23.69
609 37.1676 1147.35 1113.09 23.38
610 37.2174 1132.28 1113.75 23.23
611 37.2675 1190.53 1114.43 23.83
612 37.3175 1206.63 1115.12 23.99
613 37.3676 1195.83 1115.81 23.88
614 37.4176 1178.00 1116.52 23.69
615 37.4675 1209.60 1117.23 24.00
616 37.5176 1197.11 1117.95 23.88
617 37.5667 1225.37 1118.67 24.67
618 37.6171 1203.76 1119.41 24.47
619 37.6672 1235.81 1120.16 24.80
620 37.7172 1239.23 1120.93 24.85
621 37.7673 1188.04 1121.70 24.31
622 37.8174 1213.89 1122.49 24.57
623 37.8674 1200.46 1123.28 24.43
624 37.9175 1158.24 1124.10 24.02
625 37.9675 1128.72 1124.92 23.69
626 38.0175 1119.99 1125.76 23.60
627 38.0676 1102.22 1126.61 23.40
628 38.1175 1143.48 1127.47 23.87
629 38.1675 1075.91 1128.36 23.13
630 38.2175 1128.43 1129.26 23.68
631 38.2675 1116.19 1130.17 23.56
632 38.3175 1112.75 1131.11 23.52
633 38.3675 1133.66 1132.07 23.74
634 38.4176 1106.46 1133.05 23.42
635 38.4674 1097.19 1134.04 23.33
636 38.5175 1089.36 1135.07 23.26
637 38.5675 1149.19 1136.11 23.90
638 38.6175 1079.55 1137.19 23.17
639 38.6676 1103.91 1138.29 23.43
640 38.7175 1145.38 1139.42 23.88
641 38.7676 1072.25 1140.59 23.11
642 38.8167 1072.99 1141.76 22.95
643 38.8671 1094.55 1143.01 23.15
644 38.9172 1062.32 1144.28 22.82
645 38.9672 1103.89 1145.60 23.26
646 39.0173 1096.86 1146.96 23.20
647 39.0674 1091.91 1148.37 23.13
648 39.1174 1137.03 1149.83 23.58
649 39.1675 1074.98 1151.35 22.97
650 39.2175 1091.40 1152.92 23.13
651 39.2675 1103.40 1155.88 23.32
652 39.3176 1113.68 1157.61 23.35
653 39.3675 1103.04 1159.42 23.24
654 39.4175 1109.82 1161.31 23.35
655 39.4675 1119.61 1163.29 23.45
656 39.5175 1091.71 1165.38 23.14
657 39.5675 1113.46 1167.57 23.39
658 39.6175 1117.93 1169.89 23.37
659 39.6675 1129.81 1172.34 23.55
660 39.7174 1129.91 1174.94 23.54
661 39.7675 1194.83 1177.71 24.20
662 39.8175 1180.98 1180.66 24.05
663 39.8675 1224.31 1183.81 24.50
664 39.9176 1140.11 1187.19 23.65
665 39.9675 1201.78 1190.82 24.29
666 40.0176 1195.19 1194.75 24.20
667 40.0667 1227.06 1198.93 23.76
668 40.1171 1159.59 1203.61 23.10
669 40.1672 1183.36 1208.74 23.33
670 40.2172 1218.41 1214.48 23.68
671 40.2673 1250.57 1221.07 24.02
672 40.3174 1259.56 1228.91 24.11
673 40.3674 1315.78 1238.73 24.67
674 40.4175 1318.00 1251.83 24.68
675 40.4674 1422.88 1270.35 25.70
676 40.5174 1466.24 1298.01 26.10
677 40.5675 1586.55 1340.73 27.19
678 40.6175 1755.12 1407.26 28.67
679 40.6675 1910.97 1510.69 29.91
680 40.7175 2226.65 1669.06 32.31
681 40.7675 2543.19 1906.13 34.62
682 40.8175 2965.64 2251.48 37.41
683 40.8675 3465.39 2739.41 40.49
684 40.9175 4119.98 3407.06 44.16
685 40.9674 4889.82 4289.08 48.13
686 41.0175 5802.92 5422.97 52.46
687 41.0675 6831.45 6824.42 56.94
688 41.1175 8107.46 8501.73 62.02
689 41.1676 9488.87 10446.90 67.08
690 41.2175 11227.80 12613.30 73.04
691 41.2675 13267.40 14956.90 79.38
692 41.3250 14761.00 17766.30 85.60
693 41.3754 17764.00 20222.30 93.88
694 41.4255 20883.40 22547.70 101.78
695 41.4755 24313.30 24644.40 109.91
696 41.5256 26932.80 26413.00 115.82
697 41.5757 28735.10 27746.30 119.70
698 41.6257 29769.60 28554.10 121.88
699 41.6758 30565.50 28770.90 123.52
700 41.7258 29686.10 28356.70 121.58
701 41.7758 29187.90 27311.70 120.44
702 41.8259 27676.90 25675.20 117.17
703 41.8758 25705.50 23547.30 112.72
704 41.9259 22733.90 21041.10 105.71
705 41.9758 19220.70 18331.90 96.93
706 42.0258 15791.50 15565.50 87.57
707 42.0758 12783.00 12895.90 78.62
708 42.1258 10393.30 10443.00 70.80
709 42.1759 8287.73 8285.58 63.11
710 42.2257 6509.35 6482.24 55.84
711 42.2758 4945.79 5018.97 48.64
712 42.3258 3549.49 3887.97 41.17
713 42.3758 2599.72 3045.51 35.26
714 42.4259 2006.46 2440.39 31.00
715 42.4758 1792.89 2023.56 29.30
716 42.5258 1652.74 1744.19 28.14
717 42.5774 1656.97 1558.45 28.83
718 42.6278 1628.60 1444.86 28.58
719 42.6779 1583.42 1374.85 28.19
720 42.7280 1499.74 1331.53 27.44
721 42.7780 1508.20 1304.38 27.51
722 42.8281 1466.89 1286.69 27.13
723 42.8781 1437.87 1274.55 26.88
724 42.9282 1432.75 1265.61 26.81
725 42.9782 1384.06 1258.64 26.36
726 43.0282 1391.83 1252.90 26.44
727 43.0783 1364.89 1247.99 26.18
728 43.1282 1343.33 1243.74 25.97
729 43.1783 1348.71 1239.98 26.01
730 43.2282 1282.65 1236.65 25.39
731 43.2783 1248.75 1233.67 25.01
732 43.3283 1304.08 1231.02 25.60
733 43.3783 1303.79 1228.64 25.61
734 43.4283 1276.00 1226.51 25.32
735 43.4781 1292.81 1224.61 25.47
736 43.5283 1274.74 1222.90 25.31
737 43.5783 1262.33 1221.37 25.20
738 43.6283 1257.94 1220.00 25.15
739 43.6784 1321.14 1218.78 25.75
740 43.7282 1263.39 1217.69 25.15
741 43.7783 1291.18 1216.72 25.44
742 43.8191 1293.93 1216.02 25.28
743 43.8695 1305.25 1215.23 25.38
744 43.9196 1277.34 1214.55 25.11
745 43.9696 1269.96 1213.96 25.00
746 44.0197 1259.49 1213.44 24.93
747 44.0698 1260.54 1213.00 24.93
748 44.1198 1259.68 1212.62 24.94
749 44.1699 1205.14 1212.31 24.40
750 44.2199 1254.02 1212.06 24.88
751 44.2699 1252.47 1211.86 24.89
752 44.3200 1266.12 1211.71 24.99
753 44.3699 1289.08 1211.60 25.23
754 44.4199 1245.10 1211.55 24.79
755 44.4699 1288.81 1211.53 25.22
756 44.5199 1302.12 1211.55 25.35
757 44.5699 1341.45 1211.61 25.75
758 44.6199 1284.75 1211.71 25.19
759 44.6700 1319.82 1211.84 25.50
760 44.7198 1359.97 1212.00 25.91
761 44.7699 1302.11 1212.20 25.35
762 44.8199 1300.88 1212.42 25.32
763 44.8699 1339.48 1212.67 25.72
764 44.9200 1326.96 1212.95 25.59
765 44.9699 1332.93 1213.26 25.66
766 45.0200 1347.11 1213.59 25.78
767 45.0601 1421.95 1213.88 26.82
768 45.1105 1444.61 1214.26 27.00
769 45.1606 1457.87 1214.67 27.18
770 45.2106 1475.59 1215.10 27.31
771 45.2607 1450.43 1215.56 27.09
772 45.3108 1485.97 1216.04 27.42
773 45.3608 1400.83 1216.55 26.61
774 45.4109 1436.99 1217.08 26.97
775 45.4609 1482.67 1217.64 27.42
776 45.5109 1418.52 1218.23 26.81
777 45.5610 1379.74 1218.84 26.43
778 45.6109 1358.07 1219.48 26.27
779 45.6610 1383.22 1220.15 26.46
780 45.7109 1337.14 1220.86 26.05
781 45.7609 1313.17 1221.59 25.81
782 45.8109 1327.56 1222.36 25.95
783 45.8609 1283.10 1223.16 25.48
784 45.9110 1302.49 1224.00 25.68
785 45.9608 1178.94 1224.87 24.47
786 46.0109 1250.72 1225.78 25.15
787 46.0609 1279.62 1226.74 25.47
788 46.1109 1233.27 1227.75 25.04
789 46.1610 1307.88 1228.80 25.77
790 46.2109 1220.74 1229.91 24.88
791 46.2609 1281.09 1231.08 25.46
792 46.3044 1254.86 1232.14 36.35
793 46.3470 1275.91 1233.23 26.32
794 46.3973 1269.62 1234.59 26.33
795 46.4475 1277.51 1236.02 26.37
796 46.4975 1218.65 1237.54 25.73
797 46.5477 1252.28 1239.15 26.09
798 46.5977 1208.42 1240.86 25.69
799 46.6478 1300.84 1242.69 26.55
800 46.6978 1218.13 1244.63 25.67
801 46.7478 1287.11 1246.72 26.39
802 46.7979 1257.10 1248.97 26.08
803 46.8477 1281.94 1251.37 26.45
804 46.8978 1275.70 1253.98 26.32
805 46.9478 1269.17 1256.80 26.34
806 46.9978 1298.01 1259.86 26.57
807 47.0478 1291.46 1263.21 26.53
808 47.0979 1285.84 1266.88 26.38
809 47.1479 1344.38 1270.93 27.02
810 47.1978 1307.80 1275.44 26.66
811 47.2478 1372.30 1280.57 27.38
812 47.2978 1332.81 1286.55 26.89
813 47.3479 1310.95 1293.84 26.75
814 47.3979 1383.39 1303.18 27.54
815 47.4478 1390.82 1315.93 27.62
816 47.4978 1459.54 1334.47 28.30
817 47.5536 1568.04 1366.81 28.03
818 47.6039 1557.84 1413.53 27.90
819 47.6541 1762.84 1486.94 29.65
820 47.7041 1876.20 1600.78 30.64
821 47.7542 2131.20 1774.84 32.69
822 47.8042 2441.96 2033.02 35.00
823 47.8542 2781.27 2405.13 37.40
824 47.9043 3309.70 2925.45 40.88
825 47.9544 3921.46 3627.05 44.64
826 48.0043 4631.89 4536.00 48.43
827 48.0543 5571.49 5678.00 53.13
828 48.1045 6653.82 7064.07 58.06
829 48.1544 8192.41 8665.85 64.39
830 48.2044 9986.99 10456.60 70.91
831 48.2544 11913.10 12369.40 77.27
832 48.3044 14430.80 14315.20 84.93
833 48.3544 16778.40 16185.60 91.62
834 48.4044 18503.60 17863.10 96.28
835 48.4543 19886.80 19228.30 99.96
836 48.5043 20489.50 20182.40 101.49
837 48.5544 20858.60 20642.00 102.43
838 48.6044 20802.60 20558.00 102.49
839 48.6544 20085.90 19926.20 100.66
840 48.7045 19065.20 18783.80 98.21
841 48.7544 17283.90 17223.00 93.58
842 48.8082 15645.60 15204.60 73.00
843 48.8670 12659.00 12799.90 77.95
844 48.9171 9995.29 10748.70 69.05
845 48.9672 8386.54 8817.94 63.07
846 49.0173 6586.74 7092.27 55.76
847 49.0673 5426.18 5624.28 50.51
848 49.1173 4256.46 4427.85 44.71
849 49.1674 3116.01 3491.99 38.25
850 49.2174 2408.05 2792.62 33.66
851 49.2674 1907.68 2289.23 29.93
852 49.3175 1709.30 1939.71 28.30
853 49.3674 1625.56 1706.79 27.65
854 49.4175 1585.80 1555.14 27.30
855 49.4675 1567.85 1459.48 27.16
856 49.5175 1546.91 1399.93 26.95
857 49.5675 1467.33 1362.93 26.26
858 49.6175 1463.07 1339.55 26.21
859 49.6675 1458.54 1324.17 26.20
860 49.7174 1447.02 1313.45 26.10
861 49.7675 1434.88 1305.42 25.99
862 49.8175 1439.80 1299.06 26.04
863 49.8675 1394.43 1293.74 25.61
864 49.9176 1364.03 1289.16 25.33
865 49.9674 1368.12 1285.15 25.40
866 50.0175 1334.74 1281.56 25.09
867 50.0666 1340.78 1278.40 26.36
868 50.1170 1367.64 1275.47 26.67
869 50.1671 1384.20 1272.84 26.80
870 50.2172 1361.84 1270.45 26.61
871 50.2673 1362.40 1268.28 26.62
872 50.3173 1323.30 1266.30 26.23
873 50.3673 1305.69 1264.50 26.04
874 50.4174 1299.75 1262.84 25.98
875 50.4674 1311.48 1261.32 26.07
876 50.5174 1328.99 1259.92 26.27
877 50.5675 1291.07 1258.63 25.90
878 50.6174 1290.53 1257.45 25.89
879 50.6675 1309.48 1256.35 26.09
880 50.7174 1279.90 1255.34 25.78
881 50.7675 1293.16 1254.40 25.92
882 50.8175 1311.06 1253.53 26.09
883 50.8675 1271.66 1252.72 25.70
884 50.9175 1267.44 1251.96 25.66
885 50.9674 1311.98 1251.26 26.12
886 51.0175 1280.20 1250.60 25.77
887 51.0675 1285.57 1249.99 25.83
888 51.1175 1292.84 1249.42 25.92
889 51.1676 1212.52 1248.88 25.10
890 51.2174 1269.34 1248.38 25.67
891 51.2675 1281.66 1247.90 25.81
892 51.3175 1275.10 1247.46 36.81
893 51.3592 1228.62 1247.11 25.42
894 51.4095 1209.63 1246.71 25.24
895 51.4597 1222.00 1246.34 25.37
896 51.5097 1225.76 1245.98 25.41
897 51.5598 1256.20 1245.65 25.71
898 51.6099 1297.49 1243.82 26.12
899 51.6599 1290.41 1243.54 26.05
900 51.7099 1237.82 1243.27 25.53
901 51.7599 1296.41 1243.02 26.13
902 51.8100 1239.99 1242.78 25.55
903 51.8599 1257.57 1242.55 25.72
904 51.9100 1274.84 1242.33 25.92
905 51.9600 1291.97 1242.12 26.07
906 52.0100 1266.47 1241.93 25.84
907 52.0600 1292.66 1241.74 26.10
908 52.1100 1327.43 1241.56 26.45
909 52.1600 1265.36 1241.38 25.83
910 52.2100 1270.31 1241.22 25.89
911 52.2599 1301.27 1241.06 26.18
912 52.3100 1355.10 1240.91 26.72
913 52.3600 1373.39 1240.76 26.91
914 52.4101 1362.30 1240.62 26.80
915 52.4600 1331.95 1240.48 26.49
916 52.5100 1368.62 1240.35 26.86
917 52.5526 1396.83 1240.24 38.22
918 52.6004 1414.89 1240.13 26.89
919 52.6508 1386.68 1240.00 26.65
920 52.7009 1412.29 1239.89 26.89
921 52.7510 1431.37 1239.77 27.05
922 52.8011 1394.37 1239.66 26.73
923 52.8511 1372.17 1239.56 26.51
924 52.9011 1395.73 1239.45 26.73
925 52.9512 1385.14 1239.35 26.65
926 53.0012 1418.79 1239.25 26.95
927 53.0512 1342.07 1239.15 26.20
928 53.1013 1370.82 1239.06 26.47
929 53.1512 1327.97 1238.97 26.06
930 53.2013 1370.13 1238.88 26.45
931 53.2513 1329.54 1238.79 26.07
932 53.3013 1295.02 1238.70 25.70
933 53.3513 1244.69 1238.62 25.23
934 53.4013 1283.96 1238.54 25.63
935 53.4513 1284.63 1238.46 25.63
936 53.5012 1210.26 1238.39 24.87
937 53.5513 1196.89 1238.32 24.72
938 53.6013 1257.32 1238.26 25.36
939 53.6513 1199.89 1238.21 24.74
940 53.7014 1260.95 1238.17 25.41
941 53.7512 1250.55 1238.15 25.26
942 53.8071 1200.36 1238.18 19.93
943 53.8598 1225.62 1238.28 24.29
944 53.9099 1198.45 1238.51 24.04
945 53.9599 1187.64 1238.92 23.92
946 54.0100 1230.76 1239.65 24.34
947 54.0601 1197.11 1240.82 24.02
948 54.1101 1239.47 1242.64 24.43
949 54.1601 1236.60 1245.34 24.43
950 54.2102 1246.97 1249.19 24.51
951 54.2602 1204.20 1254.44 24.08
952 54.3102 1246.75 1261.31 24.51
953 54.3603 1223.66 1269.95 24.29
954 54.4102 1236.99 1280.30 24.42
955 54.4602 1272.83 1292.19 24.75
956 54.5102 1249.16 1305.16 24.54
957 54.5602 1296.97 1318.53 24.99
958 54.6102 1316.86 1331.43 25.20
959 54.6602 1287.01 1342.86 24.89
960 54.7102 1300.42 1351.86 25.03
961 54.7602 1307.23 1357.58 25.13
962 54.8102 1284.69 1359.43 24.87
963 54.8602 1351.81 1357.18 25.51
964 54.9103 1293.32 1350.95 24.96
965 54.9603 1284.27 1341.32 24.90
966 55.0102 1284.33 1329.18 24.90
967 55.0621 1287.41 1315.00 20.23
968 55.1185 1281.07 1299.17 24.39
969 55.1686 1253.20 1285.79 24.15
970 55.2187 1273.85 1273.74 24.33
971 55.2687 1250.33 1263.47 24.11
972 55.3188 1228.51 1255.08 23.91
973 55.3688 1248.60 1248.54 24.09
974 55.4189 1217.60 1243.64 23.80
975 55.4689 1245.82 1240.10 24.09
976 55.5189 1258.78 1237.63 24.20
977 55.5690 1235.85 1235.94 23.98
978 55.6189 1248.11 1234.80 24.12
979 55.6690 1219.47 1234.02 23.81
980 55.7189 1225.08 1233.48 23.89
981 55.7690 1219.50 1233.08 23.81
982 55.8189 1199.46 1232.76 23.62
983 55.8690 1248.02 1232.49 24.10
984 55.9190 1224.13 1232.25 23.86
985 55.9688 1199.46 1232.03 23.61
986 56.0190 1199.43 1231.81 23.63
987 56.0690 1200.54 1231.60 23.64
988 56.1190 1179.57 1231.39 23.41
989 56.1690 1186.54 1231.18 23.50
990 56.2189 1167.78 1230.98 23.30
991 56.2690 1184.69 1230.77 23.50
992 56.3256 1211.18 1230.54 24.29
993 56.3760 1170.63 1230.34 23.90
994 56.4261 1193.73 1230.14 24.12
995 56.4761 1190.88 1229.93 24.08
996 56.5262 1208.40 1229.73 24.27
997 56.5763 1188.18 1229.52 24.04
998 56.6263 1174.53 1229.32 23.92
999 56.6764 1169.93 1229.11 23.86
1000 56.7263 1157.67 1228.91 23.73
1001 56.7763 1162.75 1228.70 23.81
1002 56.8264 1193.53 1228.49 24.10
1003 56.8764 1167.61 1228.29 23.87
1004 56.9264 1172.54 1228.08 23.89
1005 56.9764 1238.72 1227.86 24.57
1006 57.0264 1154.17 1227.65 23.72
1007 57.0764 1195.49 1227.44 24.14
1008 57.1264 1185.67 1227.22 24.00
1009 57.1764 1174.60 1227.01 23.91
1010 57.2263 1179.65 1226.79 23.97
1011 57.2764 1151.53 1226.57 23.68
1012 57.3264 1161.58 1226.35 23.78
1013 57.3764 1153.41 1226.13 23.70
1014 57.4265 1183.05 1225.91 23.99
1015 57.4764 1177.89 1225.69 23.98
1016 57.5264 1197.79 1225.46 24.15
1017 57.5861 1136.15 1225.19 23.33
1018 57.6364 1204.76 1224.97 24.03
1019 57.6866 1176.09 1224.74 23.75
1020 57.7366 1146.14 1224.51 23.47
1021 57.7867 1170.89 1224.27 23.68
1022 57.8368 1199.28 1224.04 23.98
1023 57.8868 1197.99 1223.81 23.99
1024 57.9369 1118.99 1223.57 23.15
1025 57.9869 1179.75 1223.33 23.74
1026 58.0369 1224.39 1223.10 24.25
1027 58.0869 1181.60 1222.86 23.80
1028 58.1369 1191.70 1222.62 23.92
1029 58.1869 1219.53 1222.38 24.18
1030 58.2369 1195.37 1220.92 23.97
1031 58.2869 1149.25 1220.69 23.49
1032 58.3369 1149.57 1220.46 23.48
1033 58.3869 1150.74 1220.22 23.52
1034 58.4370 1208.57 1219.98 24.07
1035 58.4868 1153.96 1219.75 23.52
1036 58.5369 1149.99 1219.51 23.44
1037 58.5869 1199.07 1219.27 23.99
1038 58.6369 1169.37 1219.03 23.67
1039 58.6870 1141.92 1218.79 23.42
1040 58.7369 1152.25 1218.54 23.52
1041 58.7869 1155.38 1218.30 23.52
1042 58.8271 1178.77 1218.10 26.57
1043 58.8775 1131.10 1217.85 26.07
1044 58.9276 1168.68 1217.61 26.42
1045 58.9776 1162.63 1217.36 26.42
1046 59.0277 1182.12 1217.11 26.52
1047 59.0778 1170.41 1216.86 26.29
1048 59.1278 1147.97 1216.60 26.07
1049 59.1779 1171.55 1216.35 26.46
1050 59.2279 1157.85 1216.10 26.17
1051 59.2779 1186.57 1215.85 26.64
1052 59.3279 1181.71 1215.59 26.56
1053 59.3779 1173.53 1215.34 26.65
1054 59.4279 1156.66 1215.08 26.19
1055 59.4779 1164.24 1214.83 26.36
1056 59.5279 1152.12 1214.57 26.37
1057 59.5779 1204.79 1214.32 26.72
1058 59.6279 1213.25 1214.07 26.87
1059 59.6779 1174.53 1213.83 26.57
1060 59.7278 1168.09 1213.61 26.22
1061 59.7779 1155.44 1213.40 26.04
1062 59.8279 1140.38 1213.23 26.24
1063 59.8779 1161.10 1213.13 26.31
1064 59.9280 1201.63 1213.11 26.86
1065 59.9779 1157.03 1213.21 26.29
1066 60.0280 1139.97 1213.48 26.03
1067 60.0666 1143.43 1213.82 25.87
1068 60.1170 1158.92 1214.50 26.03
1069 60.1671 1178.99 1215.43 26.27
1070 60.2171 1180.74 1216.64 26.31
1071 60.2672 1145.53 1218.11 26.06
1072 60.3173 1213.38 1219.75 26.78
1073 60.3673 1214.27 1221.46 26.67
1074 60.4174 1218.79 1223.11 26.76
1075 60.4673 1233.73 1224.51 26.95
1076 60.5173 1290.19 1225.51 27.79
1077 60.5674 1212.63 1225.97 26.57
1078 60.6174 1232.19 1225.80 26.85
1079 60.6674 1247.01 1224.98 27.25
1080 60.7174 1190.37 1223.58 26.56
1081 60.7674 1205.43 1221.71 26.65
1082 60.8174 1193.66 1219.53 26.38
1083 60.8674 1232.79 1217.23 26.91
1084 60.9174 1207.54 1214.96 26.67
1085 60.9673 1143.02 1212.85 25.99
1086 61.0174 1170.60 1210.98 26.35
1087 61.0674 1173.18 1209.39 26.28
1088 61.1174 1147.32 1208.09 26.09
1089 61.1675 1134.37 1207.04 25.87
1090 61.2174 1152.84 1206.22 26.17
1091 61.2674 1097.77 1205.56 25.45
1092 61.3166 1151.42 1205.03 26.04
1093 61.3669 1149.68 1204.59 26.08
1094 61.4171 1182.17 1204.20 26.28
1095 61.4671 1149.83 1203.85 25.99
1096 61.5172 1190.00 1203.52 26.38
1097 61.5672 1110.29 1203.21 25.52
1098 61.6173 1135.40 1202.90 25.93
1099 61.6674 1134.60 1202.60 26.02
1100 61.7173 1166.41 1202.30 26.21
1101 61.7673 1137.81 1202.01 25.70
1102 61.8174 1099.99 1201.71 25.34
1103 61.8673 1138.63 1201.41 25.90
1104 61.9174 1157.99 1201.12 26.18
1105 61.9674 1130.15 1200.82 25.77
1106 62.0174 1126.24 1200.53 25.86
1107 62.0674 1145.87 1200.24 25.91
1108 62.1174 1149.63 1199.94 26.09
1109 62.1674 1137.71 1199.65 25.89
1110 62.2173 1157.11 1199.36 26.02
1111 62.2674 1125.78 1199.07 25.87
1112 62.3174 1110.04 1198.77 25.49
1113 62.3674 1118.94 1198.48 25.64
1114 62.4175 1132.10 1198.19 25.69
1115 62.4674 1134.81 1197.90 25.91
1116 62.5174 1132.67 1197.61 25.95
1117 62.5666 1202.57 1197.32 27.49
1118 62.6169 1117.08 1197.03 26.58
1119 62.6670 1182.19 1196.74 27.38
1120 62.7171 1184.37 1196.45 27.26
1121 62.7672 1175.02 1196.16 27.18
1122 62.8172 1261.16 1198.41 28.28
1123 62.8673 1198.20 1198.15 27.50
1124 62.9174 1200.19 1197.89 27.35
1125 62.9673 1229.52 1197.64 27.82
1126 63.0173 1246.06 1197.38 27.98
1127 63.0674 1236.47 1197.13 27.86
1128 63.1173 1224.60 1196.87 27.76
1129 63.1674 1234.75 1196.62 27.86
1130 63.2174 1244.47 1196.37 28.08
1131 63.2674 1189.09 1196.12 27.16
1132 63.3174 1230.10 1195.87 27.85
1133 63.3674 1236.39 1195.62 27.88
1134 63.4174 1245.11 1195.37 28.08
1135 63.4673 1203.96 1195.13 27.48
1136 63.5174 1242.43 1194.89 27.81
1137 63.5674 1206.98 1194.64 27.62
1138 63.6174 1156.50 1194.40 26.85
1139 63.6675 1151.71 1194.16 26.91
1140 63.7174 1190.39 1193.92 27.33
1141 63.7674 1173.61 1193.69 27.29
1142 63.8166 1156.01 1193.45 25.29
1143 63.8669 1141.51 1193.22 25.17
1144 63.9171 1146.87 1192.99 25.21
1145 63.9671 1128.93 1192.76 24.99
1146 64.0172 1138.28 1192.53 25.11
1147 64.0672 1160.96 1192.30 25.34
1148 64.1173 1141.65 1192.07 25.16
1149 64.1673 1134.07 1191.85 25.06
1150 64.2173 1153.80 1191.63 25.26
1151 64.2673 1183.11 1191.40 25.61
1152 64.3174 1162.67 1191.18 25.36
1153 64.3673 1171.69 1190.97 25.48
1154 64.4174 1161.63 1190.76 25.37
1155 64.4674 1107.85 1190.54 24.76
1156 64.5174 1158.11 1190.34 25.31
1157 64.5674 1138.96 1190.13 25.11
1158 64.6174 1130.36 1189.92 25.00
1159 64.6674 1138.64 1189.72 25.10
1160 64.7173 1153.68 1189.52 25.30
1161 64.7674 1140.39 1189.33 25.13
1162 64.8174 1114.55 1189.13 24.83
1163 64.8674 1145.55 1188.94 25.16
1164 64.9175 1154.91 1188.75 25.29
1165 64.9673 1146.23 1188.56 25.23
1166 65.0255 1110.44 1188.35 19.66
1167 65.0799 1149.03 1188.16 24.55
1168 65.1301 1100.05 1187.98 23.93
1169 65.1801 1093.87 1187.80 23.86
1170 65.2302 1116.82 1187.63 24.17
1171 65.2802 1161.05 1187.47 24.57
1172 65.3302 1146.01 1187.30 24.57
1173 65.3803 1085.24 1187.14 23.74
1174 65.4304 1122.85 1186.98 24.20
1175 65.4803 1109.51 1186.83 24.08
1176 65.5304 1158.48 1186.68 24.54
1177 65.5805 1102.03 1186.53 23.97
1178 65.6304 1097.35 1186.39 23.91
1179 65.6804 1116.68 1186.25 24.16
1180 65.7304 1148.31 1186.12 24.47
1181 65.7804 1102.64 1185.99 23.99
1182 65.8304 1153.40 1185.86 24.53
1183 65.8804 1164.67 1185.74 24.63
1184 65.9304 1127.26 1185.62 24.29
1185 65.9803 1144.40 1185.51 24.45
1186 66.0304 1126.41 1185.40 24.22
1187 66.0804 1148.25 1185.30 24.43
1188 66.1304 1150.43 1185.20 24.51
1189 66.1805 1126.08 1185.11 24.19
1190 66.2304 1223.60 1185.03 25.24
1191 66.2804 1217.33 1184.95 25.16
1192 66.3296 1204.39 1184.87 24.06
1193 66.3799 1160.44 1184.80 23.61
1194 66.4301 1181.55 1184.74 23.84
1195 66.4801 1151.01 1184.68 23.52
1196 66.5302 1145.43 1184.63 23.45
1197 66.5803 1145.45 1184.59 23.47
1198 66.6303 1140.83 1184.56 23.42
1199 66.6803 1133.76 1184.53 23.31
1200 66.7303 1134.14 1184.51 23.31
1201 66.7804 1177.46 1184.49 23.78
1202 66.8303 1124.81 1184.49 23.22
1203 66.8804 1152.45 1184.49 23.51
1204 66.9304 1111.09 1184.50 23.10
1205 66.9804 1150.74 1184.53 23.51
1206 67.0304 1134.99 1184.56 23.36
1207 67.0804 1104.22 1184.60 23.04
1208 67.1304 1159.61 1184.65 23.60
1209 67.1804 1101.28 1184.71 22.98
1210 67.2303 1126.60 1184.78 23.28
1211 67.2804 1172.10 1184.87 23.73
1212 67.3304 1142.46 1184.96 23.41
1213 67.3805 1089.12 1185.07 22.89
1214 67.4304 1121.91 1185.19 23.20
1215 67.4804 1089.81 1185.33 22.89
1216 67.5174 1093.93 1185.44 33.07
1217 67.5701 1151.18 1185.61 24.23
1218 67.6205 1112.02 1185.79 23.83
1219 67.6706 1158.86 1185.98 24.31
1220 67.7206 1159.40 1186.19 24.33
1221 67.7707 1190.70 1186.42 24.64
1222 67.8208 1108.63 1186.67 23.78
1223 67.8708 1108.61 1186.94 23.77
1224 67.9209 1148.89 1187.23 24.22
1225 67.9708 1138.73 1187.54 24.11
1226 68.0209 1174.91 1187.87 24.46
1227 68.0709 1191.89 1188.23 24.66
1228 68.1208 1162.43 1188.63 24.35
1229 68.1709 1141.39 1189.04 24.11
1230 68.2209 1147.40 1189.48 24.18
1231 68.2709 1177.53 1189.96 24.50
1232 68.3209 1110.40 1190.46 23.79
1233 68.3709 1140.10 1191.00 24.10
1234 68.4209 1184.06 1191.58 24.59
1235 68.4708 1132.58 1192.20 24.03
1236 68.5209 1124.56 1192.86 23.95
1237 68.5709 1125.90 1193.56 23.95
1238 68.6209 1097.35 1194.32 23.66
1239 68.6710 1196.71 1195.12 24.70
1240 68.7209 1171.81 1195.98 24.45
1241 68.7709 1153.46 1196.91 24.27
1242 68.8356 1157.40 1198.19 24.12
1243 68.8860 1150.41 1199.28 24.01
1244 68.9361 1166.01 1200.44 24.18
1245 68.9862 1150.81 1201.67 24.03
1246 69.0362 1140.82 1203.00 23.93
1247 69.0863 1138.43 1204.43 23.89
1248 69.1363 1167.30 1205.96 24.21
1249 69.1864 1187.25 1207.61 24.43
1250 69.2364 1166.71 1209.38 24.21
1251 69.2864 1224.65 1211.30 24.78
1252 69.3365 1224.62 1213.37 24.78
1253 69.3864 1218.96 1215.59 24.75
1254 69.4365 1252.11 1218.01 25.07
1255 69.4864 1283.41 1220.63 25.38
1256 69.5364 1253.72 1223.47 25.08
1257 69.5864 1254.96 1226.57 25.11
1258 69.6365 1274.97 1229.95 25.30
1259 69.6865 1247.18 1233.64 25.02
1260 69.7363 1263.11 1237.66 25.16
1261 69.7865 1304.92 1242.11 25.62
1262 69.8364 1273.80 1246.98 25.27
1263 69.8865 1237.36 1252.36 24.92
1264 69.9365 1290.80 1258.32 25.45
1265 69.9864 1256.23 1264.91 25.09
1266 70.0365 1261.86 1272.28 25.16
1267 70.0656 1258.03 1276.96 34.67
1268 70.1074 1281.23 1284.25 24.82
1269 70.1576 1278.66 1294.03 24.82
1270 70.2076 1308.83 1305.12 25.09
1271 70.2577 1268.63 1317.95 24.70
1272 70.3077 1316.30 1333.10 25.15
1273 70.3577 1375.26 1351.73 25.72
1274 70.4078 1454.69 1376.03 26.44
1275 70.4578 1432.05 1409.87 26.24
1276 70.5078 1484.81 1460.44 26.76
1277 70.5578 1627.52 1540.17 28.00
1278 70.6079 1759.60 1669.82 29.18
1279 70.6579 1936.09 1880.52 30.63
1280 70.7079 2188.48 2218.32 32.58
1281 70.7579 2664.10 2744.26 36.03
1282 70.8079 3316.56 3533.25 40.18
1283 70.8579 4432.40 4665.85 46.53
1284 70.9079 5832.61 6214.78 53.40
1285 70.9578 7743.16 8221.26 61.53
1286 71.0078 10544.60 10687.90 71.89
1287 71.0579 13819.10 13540.90 82.38
1288 71.1079 17398.80 16607.90 92.58
1289 71.1579 20515.20 19650.40 100.74
1290 71.2079 22733.70 22364.80 106.24
1291 71.2579 23990.80 24428.90 109.19
1292 71.3054 24419.80 25534.40 98.36
1293 71.3593 24609.80 25594.30 125.68
1294 71.4094 23856.60 24501.30 123.71
1295 71.4595 22582.80 22459.60 120.32
1296 71.5095 19823.00 19754.20 112.33
1297 71.5596 16501.70 16699.00 102.25
1298 71.6096 12811.30 13617.10 89.82
1299 71.6597 10102.70 10744.20 79.82
1300 71.7097 7924.02 8257.15 70.43
1301 71.7597 6364.08 6230.17 63.15
1302 71.8098 5128.93 4666.89 56.77
1303 71.8597 4005.00 3530.15 50.08
1304 71.9098 3115.23 2736.95 44.22
1305 71.9597 2582.17 2211.82 40.16
1306 72.0098 2028.67 1874.61 35.61
1307 72.0597 1900.06 1665.91 34.32
1308 72.1097 1753.19 1537.93 33.00
1309 72.1598 1698.43 1459.16 32.67
1310 72.2096 1567.73 1409.54 31.33
1311 72.2598 1523.61 1376.05 30.81
1312 72.3098 1450.29 1352.08 29.98
1313 72.3598 1480.38 1333.61 30.42
1314 72.4098 1415.44 1318.54 29.73
1315 72.4597 1362.76 1305.81 29.16
1316 72.5098 1321.72 1294.72 28.65
1317 72.5589 1351.98 1285.16 29.22
1318 72.6093 1305.71 1276.45 28.77
1319 72.6594 1285.77 1268.74 28.46
1320 72.7095 1280.39 1261.82 28.43
1321 72.7595 1292.99 1255.62 28.67
1322 72.8096 1271.77 1250.02 28.39
1323 72.8596 1261.13 1244.96 28.29
1324 72.9097 1252.36 1240.36 28.00
1325 72.9597 1298.71 1236.19 28.61
1326 73.0097 1295.92 1232.38 28.60
1327 73.0598 1262.58 1228.90 28.27
1328 73.1097 1301.42 1225.72 28.67
1329 73.1598 1274.45 1222.79 28.30
1330 73.2097 1304.37 1220.12 28.77
1331 73.2598 1310.09 1217.64 28.83
1332 73.3097 1268.24 1215.37 28.21
1333 73.3597 1328.07 1213.27 29.12
1334 73.4098 1268.41 1211.32 28.38
1335 73.4596 1255.14 1209.53 28.13
1336 73.5098 1248.93 1207.86 28.15
1337 73.5598 1270.86 1206.32 28.30
1338 73.6098 1253.88 1204.88 28.21
1339 73.6598 1292.35 1203.55 28.61
1340 73.7097 1260.77 1202.32 28.33
1341 73.7598 1216.59 1201.17 27.77
1342 73.8165 1190.98 1199.96 24.52
1343 73.8669 1181.53 1198.97 24.44
1344 73.9170 1193.51 1198.05 24.56
1345 73.9670 1177.64 1197.19 24.40
1346 74.0171 1175.43 1196.40 24.39
1347 74.0672 1186.21 1195.66 24.47
1348 74.1172 1203.08 1194.97 24.66
1349 74.1673 1173.88 1194.33 24.35
1350 74.2173 1171.29 1193.74 24.34
1351 74.2673 1178.28 1193.19 24.37
1352 74.3174 1168.53 1192.67 24.31
1353 74.3673 1179.25 1192.20 24.38
1354 74.4174 1148.90 1191.76 24.10
1355 74.4673 1164.34 1191.36 24.27
1356 74.5173 1185.80 1190.99 24.48
1357 74.5673 1148.75 1190.64 24.07
1358 74.6173 1171.26 1190.33 24.30
1359 74.6674 1198.94 1190.04 24.60
1360 74.7172 1188.16 1189.79 24.48
1361 74.7673 1192.46 1189.55 24.55
1362 74.8174 1207.72 1189.34 24.68
1363 74.8673 1226.08 1189.15 24.87
1364 74.9174 1171.51 1188.99 24.31
1365 74.9673 1224.54 1188.85 24.92
1366 75.0174 1205.29 1188.73 24.67
1367 75.0665 1230.32 1188.63 24.88
1368 75.1169 1206.96 1188.55 24.64
1369 75.1670 1225.94 1188.49 24.85
1370 75.2170 1212.32 1188.45 24.69
1371 75.2671 1216.36 1188.43 24.74
1372 75.3172 1240.23 1188.43 25.00
1373 75.3672 1255.62 1188.46 25.17
1374 75.4173 1212.08 1188.51 24.73
1375 75.4673 1219.69 1188.58 24.78
1376 75.5173 1285.70 1188.70 25.47
1377 75.5674 1291.80 1188.87 25.52
1378 75.6173 1252.25 1189.11 25.12
1379 75.6674 1276.40 1189.50 25.36
1380 75.7173 1302.16 1190.10 25.65
1381 75.7673 1275.00 1191.09 25.34
1382 75.8173 1261.69 1192.67 25.21
1383 75.8673 1298.81 1195.17 25.58
1384 75.9174 1309.28 1198.97 25.66
1385 75.9672 1338.65 1204.49 25.97
1386 76.0173 1234.77 1212.20 24.95
1387 76.0673 1269.86 1222.33 25.31
1388 76.1173 1336.61 1234.90 25.94
1389 76.1674 1325.74 1249.53 25.86
1390 76.2173 1319.94 1265.25 25.81
1391 76.2733 1299.83 1282.60 21.34
1392 76.3266 1282.96 1296.72 25.97
1393 76.3768 1327.75 1305.91 26.45
1394 76.4268 1330.92 1309.67 26.45
1395 76.4769 1297.25 1307.43 26.07
1396 76.5269 1305.18 1299.58 26.16
1397 76.5769 1330.60 1287.42 26.45
1398 76.6270 1293.58 1272.63 26.07
1399 76.6770 1229.84 1257.06 25.38
1400 76.7270 1232.71 1242.19 25.46
1401 76.7770 1240.70 1229.08 25.51
1402 76.8271 1202.51 1218.28 25.13
1403 76.8771 1212.23 1209.99 25.21
1404 76.9271 1196.85 1203.99 25.09
1405 76.9771 1162.28 1199.90 24.71
1406 77.0271 1208.09 1197.27 25.18
1407 77.0771 1170.98 1195.70 24.79
1408 77.1271 1201.62 1194.82 25.11
1409 77.1770 1191.96 1194.39 25.04
1410 77.2270 1194.81 1194.22 25.05
1411 77.2771 1205.08 1194.22 25.16
1412 77.3271 1230.21 1194.30 25.42
1413 77.3771 1223.23 1194.44 25.34
1414 77.4271 1228.68 1194.61 25.43
1415 77.4771 1263.53 1194.80 25.76
1416 77.5271 1248.53 1195.01 25.62
1417 77.5734 1311.14 1195.22 25.79
1418 77.6237 1290.35 1195.45 25.63
1419 77.6739 1344.52 1195.70 26.12
1420 77.7239 1281.77 1195.96 25.51
1421 77.7741 1355.01 1196.22 26.27
1422 77.8241 1345.15 1196.49 26.18
1423 77.8742 1320.83 1196.77 25.92
1424 77.9242 1383.96 1197.06 26.58
1425 77.9742 1361.49 1197.35 26.36
1426 78.0242 1337.55 1197.65 26.06
1427 78.0741 1333.94 1197.95 26.04
1428 78.1242 1354.98 1198.26 26.23
1429 78.1742 1316.52 1198.58 25.88
1430 78.2242 1354.17 1198.90 26.25
1431 78.2742 1269.44 1199.23 25.38
1432 78.3242 1254.09 1199.56 25.23
1433 78.3743 1295.66 1199.89 25.67
1434 78.4242 1280.83 1200.23 25.51
1435 78.4742 1251.04 1205.75 25.22
1436 78.5242 1213.76 1206.17 24.84
1437 78.5742 1227.85 1206.59 24.97
1438 78.6243 1258.39 1207.01 25.26
1439 78.6742 1244.55 1207.44 25.08
1440 78.7243 1218.91 1207.88 24.88
1441 78.7617 1193.54 1208.21 32.88
1442 78.8136 1166.39 1208.67 23.13
1443 78.8640 1247.19 1209.12 23.93
1444 78.9141 1180.66 1209.58 23.27
1445 78.9642 1181.24 1210.04 23.26
1446 79.0143 1191.02 1210.51 23.38
1447 79.0643 1176.66 1210.98 23.22
1448 79.1143 1198.53 1211.45 23.46
1449 79.1644 1237.35 1211.93 23.81
1450 79.2144 1203.32 1212.42 23.49
1451 79.2644 1265.46 1212.91 24.08
1452 79.3145 1233.49 1213.41 23.78
1453 79.3644 1223.27 1213.91 23.68
1454 79.4145 1196.62 1214.41 23.42
1455 79.4645 1262.79 1214.92 24.05
1456 79.5145 1226.79 1215.44 23.73
1457 79.5645 1232.98 1215.96 23.78
1458 79.6145 1269.76 1216.49 24.15
1459 79.6645 1243.24 1217.02 23.87
1460 79.7144 1257.50 1217.55 24.02
1461 79.7645 1268.13 1218.10 24.11
1462 79.8145 1216.22 1218.64 23.61
1463 79.8645 1238.12 1219.20 23.81
1464 79.9146 1220.58 1219.76 23.66
1465 79.9644 1232.10 1220.32 23.76
1466 80.0225 1219.32 1220.98 19.36
1467 80.0783 1224.33 1219.21 23.86
1468 80.1284 1163.38 1219.82 23.26
1469 80.1784 1184.31 1220.44 23.48
1470 80.2286 1188.65 1221.06 23.51
1471 80.2786 1175.18 1221.69 23.39
1472 80.3286 1195.89 1222.32 23.60
1473 80.3787 1186.30 1222.96 23.49
1474 80.4287 1130.28 1223.61 22.93
1475 80.4787 1174.30 1224.26 23.36
1476 80.5287 1149.45 1224.92 23.12
1477 80.5788 1200.58 1225.59 23.65
1478 80.6287 1190.95 1226.26 23.53
1479 80.6787 1195.44 1226.96 23.58
1480 80.7288 1141.12 1227.67 23.04
1481 80.7788 1168.19 1228.40 23.31
1482 80.8287 1213.32 1229.18 23.77
1483 80.8788 1161.58 1230.02 23.24
1484 80.9287 1123.65 1230.95 22.85
1485 80.9787 1166.52 1231.99 23.30
1486 81.0288 1175.55 1233.17 23.40
1487 81.0788 1183.32 1234.50 23.47
1488 81.1288 1138.51 1235.99 23.01
1489 81.1788 1159.03 1237.61 23.23
1490 81.2287 1201.29 1239.28 23.64
1491 81.2832 1209.35 1241.07 19.38
1492 81.3416 1162.33 1242.79 23.28
1493 81.3917 1207.86 1243.97 23.75
1494 81.4417 1150.77 1244.79 23.17
1495 81.4918 1205.35 1245.26 23.71
1496 81.5419 1211.52 1245.44 23.80
1497 81.5919 1234.11 1245.42 24.02
1498 81.6420 1200.02 1245.33 23.67
1499 81.6919 1204.61 1245.27 23.71
1500 81.7420 1246.79 1245.31 24.12
1501 81.7920 1268.09 1245.50 24.32
1502 81.8420 1232.79 1245.86 23.99
1503 81.8920 1221.54 1246.36 23.89
1504 81.9420 1235.92 1247.00 24.02
1505 81.9920 1251.00 1247.75 24.15
1506 82.0420 1231.20 1248.57 23.97
1507 82.0920 1240.22 1249.46 24.07
1508 82.1421 1229.63 1250.38 23.96
1509 82.1919 1213.44 1251.34 23.78
1510 82.2420 1203.38 1252.32 23.69
1511 82.2920 1174.93 1253.33 23.42
1512 82.3420 1166.76 1254.35 23.32
1513 82.3921 1206.51 1255.41 23.72
1514 82.4420 1205.18 1256.47 23.74
1515 82.4920 1235.14 1257.57 24.02
1516 82.5538 1251.98 1258.95 23.05
1517 82.6042 1258.02 1260.11 23.04
1518 82.6543 1230.20 1261.28 22.76
1519 82.7044 1237.58 1262.49 22.84
1520 82.7544 1258.72 1263.72 23.07
1521 82.8045 1248.50 1264.98 22.95
1522 82.8545 1239.96 1266.27 22.91
1523 82.9046 1283.65 1267.59 23.29
1524 82.9546 1234.75 1268.95 22.82
1525 83.0046 1233.63 1270.34 22.79
1526 83.0547 1250.94 1271.78 22.95
1527 83.1046 1279.37 1273.25 23.24
1528 83.1547 1263.36 1274.78 23.09
1529 83.2046 1273.97 1276.34 23.18
1530 83.2546 1231.89 1277.95 22.82
1531 83.3046 1293.64 1279.62 23.39
1532 83.3547 1245.67 1281.35 22.90
1533 83.4047 1283.03 1283.13 23.26
1534 83.4545 1275.84 1284.97 23.22
1535 83.5046 1271.02 1286.89 23.20
1536 83.5546 1286.19 1288.88 23.31
1537 83.6047 1282.33 1290.95 23.29
1538 83.6547 1256.18 1295.23 23.05
1539 83.7046 1299.70 1297.49 23.44
1540 83.7547 1330.88 1299.86 23.69
1541 83.8196 1330.54 1303.09 23.04
1542 83.8700 1312.93 1305.74 22.87
1543 83.9201 1266.28 1308.49 22.50
1544 83.9701 1298.03 1311.37 22.73
1545 84.0202 1315.28 1314.41 22.90
1546 84.0703 1284.05 1317.60 22.60
1547 84.1203 1319.98 1320.97 22.94
1548 84.1704 1304.69 1324.53 22.77
1549 84.2204 1325.06 1328.29 23.00
1550 84.2704 1350.76 1332.28 23.20
1551 84.3205 1328.84 1336.53 23.01
1552 84.3704 1341.67 1341.03 23.11
1553 84.4204 1353.33 1345.85 23.24
1554 84.4704 1342.48 1350.99 23.14
1555 84.5204 1339.58 1356.51 23.10
1556 84.5704 1367.67 1362.44 23.35
1557 84.6204 1360.15 1368.82 23.30
1558 84.6705 1367.96 1375.73 23.36
1559 84.7203 1373.05 1383.16 23.40
1560 84.7704 1377.45 1391.28 23.44
1561 84.8204 1387.60 1400.10 23.52
1562 84.8704 1380.31 1409.75 23.44
1563 84.9205 1418.33 1420.33 23.77
1564 84.9704 1400.42 1431.94 23.63
1565 85.0204 1422.87 1444.79 23.78
1566 85.0705 1445.36 1459.06 25.26
1567 85.1209 1458.03 1475.05 25.35
1568 85.1710 1414.35 1492.84 24.98
1569 85.2210 1486.76 1512.80 25.60
1570 85.2711 1510.62 1535.42 25.83
1571 85.3212 1488.88 1561.19 25.63
1572 85.3712 1565.93 1590.83 26.30
1573 85.4213 1583.60 1625.68 26.45
1574 85.4713 1684.13 1667.81 27.32
1575 85.5213 1747.14 1721.45 27.80
1576 85.5714 1837.76 1794.86 28.53
1577 85.6213 2061.14 1902.98 30.24
1578 85.6714 2161.30 2074.89 30.97
1579 85.7213 2359.68 2357.27 32.48
1580 85.7713 2723.98 2827.94 34.92
1581 85.8213 3269.90 3597.26 38.27
1582 85.8714 4153.46 4813.07 43.10
1583 85.9214 5815.64 6635.93 51.03
1584 85.9712 8316.37 9208.99 60.95
1585 86.0213 12309.80 12653.80 74.23
1586 86.0714 17509.10 16932.50 88.73
1587 86.1214 23746.30 21836.50 103.85
1588 86.1714 29300.00 26984.30 115.93
1589 86.2213 33182.20 31794.30 123.82
1590 86.2765 35386.90 35910.70 109.87
1591 86.3274 35841.40 37846.10 140.54
1592 86.3776 35911.30 37582.40 140.65
1593 86.4276 34471.20 35230.90 137.37
1594 86.4777 30847.80 31259.80 129.29
1595 86.5277 26237.20 26365.90 118.48
1596 86.5778 20674.90 21212.60 104.43
1597 86.6278 15659.30 16370.40 90.41
1598 86.6779 12065.50 12189.40 78.98
1599 86.7279 9557.14 8860.04 70.09
1600 86.7778 7367.43 6382.96 61.35
1601 86.8280 5793.85 4640.40 54.25
1602 86.8779 4497.61 3495.67 47.77
1603 86.9279 3586.96 2771.98 42.79
1604 86.9779 2964.70 2331.39 39.10
1605 87.0279 2542.51 2067.28 36.38
1606 87.0779 2222.88 1907.24 34.02
1607 87.1279 2130.38 1805.92 33.39
1608 87.1778 2038.81 1737.29 32.63
1609 87.2279 1928.62 1686.74 31.69
1610 87.2779 1749.25 1647.12 30.08
1611 87.3279 1810.19 1614.49 30.65
1612 87.3779 1724.85 1586.83 29.93
1613 87.4280 1653.03 1562.92 29.29
1614 87.4779 1640.05 1542.18 29.17
1615 87.5279 1660.32 1523.96 29.38
1616 87.5549 1478.74 1515.04 33.86
1617 87.5971 1499.14 1502.24 26.87
1618 87.6472 1469.74 1488.66 26.67
1619 87.6973 1532.73 1476.59 27.22
1620 87.7474 1463.38 1465.83 26.56
1621 87.7974 1510.40 1456.24 27.05
1622 87.8475 1478.95 1447.64 26.71
1623 87.8975 1445.99 1439.94 26.42
1624 87.9475 1445.07 1433.02 26.34
1625 87.9975 1468.02 1426.80 26.60
1626 88.0476 1436.72 1421.18 26.36
1627 88.0975 1488.46 1416.14 26.81
1628 88.1476 1430.54 1411.58 26.30
1629 88.1976 1438.71 1407.47 26.36
1630 88.2476 1473.05 1403.77 26.69
1631 88.2976 1482.96 1400.45 26.80
1632 88.3476 1454.98 1397.46 26.54
1633 88.3976 1472.25 1394.78 26.64
1634 88.4475 1424.54 1392.40 26.19
1635 88.4976 1443.99 1390.27 26.29
1636 88.5476 1448.99 1388.39 26.38
1637 88.5976 1438.41 1386.73 26.32
1638 88.6477 1459.41 1385.30 26.49
1639 88.6975 1459.82 1384.07 26.53
1640 88.7476 1456.52 1383.03 26.38
1641 88.8111 1519.41 1381.98 25.04
1642 88.8615 1444.83 1381.35 24.41
1643 88.9116 1456.09 1380.91 24.47
1644 88.9616 1509.32 1380.62 24.98
1645 89.0117 1455.87 1380.49 24.53
1646 89.0618 1519.47 1380.53 25.03
1647 89.1118 1499.96 1380.73 24.90
1648 89.1619 1464.58 1381.10 24.55
1649 89.2119 1448.23 1381.63 24.40
1650 89.2619 1482.81 1382.34 24.71
1651 89.3120 1459.11 1383.22 24.53
1652 89.3619 1463.60 1384.28 24.58
1653 89.4119 1446.33 1385.55 24.38
1654 89.4619 1461.29 1387.01 24.55
1655 89.5119 1400.78 1388.70 23.97
1656 89.5619 1490.00 1390.63 24.72
1657 89.6119 1474.64 1392.81 24.62
1658 89.6620 1442.73 1395.28 24.33
1659 89.7118 1469.70 1398.04 24.63
1660 89.7619 1446.71 1401.16 24.39
1661 89.8120 1452.55 1404.67 24.47
1662 89.8619 1466.53 1408.59 24.60
1663 89.9120 1423.65 1413.02 24.23
1664 89.9619 1479.08 1417.98 24.68
1665 90.0120 1420.77 1423.60 24.15
1666 90.0664 1440.50 1430.53 25.20
1667 90.1168 1395.51 1437.86 24.84
1668 90.1669 1475.52 1446.17 25.51
1669 90.2169 1477.74 1455.65 25.54
1670 90.2670 1511.55 1466.61 25.85
1671 90.3171 1523.89 1479.40 25.94
1672 90.3671 1487.71 1494.57 25.64
1673 90.4172 1565.37 1513.27 26.30
1674 90.4672 1574.38 1537.50 26.36
1675 90.5172 1639.88 1571.38 26.92
1676 90.5673 1703.23 1622.86 27.41
1677 90.6172 1715.22 1705.76 27.56
1678 90.6673 1807.35 1844.77 28.26
1679 90.7172 1911.96 2075.98 29.11
1680 90.7673 2230.73 2453.26 31.39
1681 90.8172 2873.10 3037.32 35.65
1682 90.8672 3822.90 3897.06 41.09
1683 90.9173 5324.76 5083.64 48.55
1684 90.9671 7316.91 6594.56 57.04
1685 91.0173 9662.54 8396.01 65.68
1686 91.0673 11674.90 10331.30 72.39
1687 91.1173 12980.60 12191.10 76.45
1688 91.1673 13682.20 13699.20 78.58
1689 91.2172 13919.10 14572.00 79.30
1690 91.2673 13734.10 14616.30 78.77
1691 91.3226 13197.10 13691.40 77.55
1692 91.3729 11802.60 12169.80 73.26
1693 91.4231 9846.18 10300.10 66.82
1694 91.4731 7798.39 8366.05 59.39
1695 91.5232 6226.73 6572.20 53.02
1696 91.5732 4899.39 5061.00 46.98
1697 91.6233 3849.79 3881.14 41.64
1698 91.6733 3299.06 3027.47 38.52
1699 91.7233 2787.78 2447.35 35.42
1700 91.7733 2338.22 2074.63 32.39
1701 91.8234 1978.46 1845.29 29.78
1702 91.8733 1881.67 1708.65 29.07
1703 91.9234 1757.02 1626.63 28.05
1704 91.9734 1712.36 1576.10 27.72
1705 92.0234 1608.97 1542.80 26.85
1706 92.0734 1612.04 1519.03 26.87
1707 92.1234 1607.48 1500.75 26.83
1708 92.1734 1540.60 1485.91 26.26
1709 92.2233 1498.84 1473.48 25.93
1710 92.2734 1523.37 1462.79 26.12
1711 92.3234 1500.87 1453.56 25.91
1712 92.3734 1487.36 1445.50 25.81
1713 92.4235 1452.59 1438.41 25.54
1714 92.4734 1488.07 1432.20 25.83
1715 92.5234 1450.96 1426.68 25.49
1716 92.5726 1446.41 1421.85 25.16
1717 92.6229 1457.85 1417.46 25.23
1718 92.6731 1481.60 1413.53 25.47
1719 92.7231 1429.05 1410.03 25.00
1720 92.7732 1459.91 1406.88 25.28
1721 92.8232 1422.60 1404.04 24.94
1722 92.8733 1435.70 1401.48 25.06
1723 92.9233 1404.48 1399.17 24.78
1724 92.9733 1349.61 1397.07 24.28
1725 93.0233 1427.52 1395.17 24.97
1726 93.0734 1401.86 1393.43 24.74
1727 93.1233 1403.86 1391.86 24.77
1728 93.1734 1462.78 1390.43 25.29
1729 93.2234 1400.70 1389.12 24.75
1730 93.2734 1431.62 1387.93 25.02
1731 93.3234 1378.49 1386.84 24.57
1732 93.3734 1374.19 1385.84 24.51
1733 93.4234 1389.76 1384.93 24.65
1734 93.4733 1404.33 1384.10 24.79
1735 93.5234 1373.32 1383.34 24.53
1736 93.5734 1380.26 1382.64 24.58
1737 93.6234 1364.75 1382.01 24.43
1738 93.6735 1359.92 1381.42 24.39
1739 93.7234 1409.32 1380.89 24.81
1740 93.7734 1373.72 1380.41 24.50
1741 93.8164 1455.68 1380.03 25.76
1742 93.8668 1421.45 1379.62 25.43
1743 93.9169 1418.88 1379.25 25.44
1744 93.9669 1431.91 1378.91 25.55
1745 94.0170 1370.90 1378.61 24.98
1746 94.0671 1406.86 1378.34 25.34
1747 94.1171 1377.64 1378.09 25.03
1748 94.1672 1463.05 1377.87 25.81
1749 94.2172 1445.16 1377.68 25.68
1750 94.2672 1444.40 1372.39 25.66
1751 94.3173 1449.68 1372.30 25.70
1752 94.3672 1457.43 1372.23 25.79
1753 94.4173 1477.23 1372.18 25.94
1754 94.4672 1418.43 1372.14 25.42
1755 94.5172 1470.90 1372.12 25.87
1756 94.5672 1470.12 1372.12 25.88
1757 94.6172 1486.62 1372.12 26.02
1758 94.6673 1487.65 1372.14 26.05
1759 94.7171 1488.15 1372.18 26.07
1760 94.7672 1526.50 1372.23 26.38
1761 94.8172 1530.10 1372.28 26.41
1762 94.8672 1563.78 1372.36 26.69
1763 94.9173 1601.95 1372.44 27.01
1764 94.9672 1562.05 1372.53 26.69
1765 95.0173 1646.69 1372.64 27.40
1766 95.0607 1665.96 1372.74 28.05
1767 95.1111 1569.06 1372.88 27.23
1768 95.1612 1612.28 1373.03 27.59
1769 95.2112 1617.18 1373.19 27.63
1770 95.2613 1594.54 1373.38 27.46
1771 95.3114 1565.94 1373.58 27.21
1772 95.3614 1538.29 1373.83 26.96
1773 95.4115 1549.57 1374.12 27.04
1774 95.4615 1502.30 1374.49 26.62
1775 95.5115 1545.11 1375.01 27.00
1776 95.5615 1550.21 1375.81 27.03
1777 95.6115 1493.96 1377.08 26.54
1778 95.6615 1478.17 1379.14 26.40
1779 95.7115 1469.92 1382.43 26.34
1780 95.7615 1452.46 1387.45 26.16
1781 95.8115 1392.72 1394.68 25.63
1782 95.8615 1413.84 1404.40 25.82
1783 95.9116 1357.96 1416.49 25.31
1784 95.9614 1349.37 1430.12 25.22
1785 96.0115 1435.90 1444.06 26.03
1786 96.0615 1361.06 1456.19 25.32
1787 96.1115 1359.64 1464.26 25.33
1788 96.1616 1364.85 1466.40 25.36
1789 96.2115 1392.53 1462.09 25.62
1790 96.2694 1362.07 1450.58 20.15
1791 96.3059 1318.50 1441.14 34.74
1792 96.3459 1366.43 1430.11 24.22
1793 96.3960 1360.89 1416.69 24.16
1794 96.4461 1328.03 1404.97 23.85
1795 96.4962 1330.79 1395.63 23.91
1796 96.5462 1355.37 1388.78 24.10
1797 96.5963 1362.02 1384.11 24.13
1798 96.6463 1327.85 1381.14 23.85
1799 96.6963 1395.39 1379.36 24.46
1800 96.7463 1304.28 1378.34 23.65
1801 96.7964 1340.69 1377.77 23.99
1802 96.8463 1304.74 1377.46 23.66
1803 96.8964 1357.18 1377.29 24.16
1804 96.9464 1311.05 1377.20 23.71
1805 96.9964 1345.60 1377.15 24.00
1806 97.0464 1346.41 1377.12 24.01
1807 97.0964 1338.48 1377.12 23.94
1808 97.1464 1374.01 1377.12 24.25
1809 97.1963 1316.90 1377.14 23.75
1810 97.2464 1322.41 1377.16 23.80
1811 97.2964 1366.63 1377.20 24.21
1812 97.3464 1339.58 1377.23 23.95
1813 97.3965 1337.85 1377.27 23.95
1814 97.4464 1331.93 1377.32 23.90
1815 97.4964 1306.46 1377.36 23.66
1816 97.5370 1277.88 1377.40 31.92
1817 97.5825 1354.59 1377.44 23.35
1818 97.6328 1290.02 1377.49 22.79
1819 97.6830 1302.12 1377.54 22.87
1820 97.7330 1289.35 1377.59 22.77
1821 97.7831 1307.60 1377.64 22.93
1822 97.8332 1311.40 1377.69 22.97
1823 97.8832 1302.19 1377.74 22.89
1824 97.9332 1291.90 1377.79 22.80
1825 97.9832 1314.83 1377.83 23.00
1826 98.0333 1283.82 1377.88 22.73
1827 98.0832 1295.03 1377.92 22.82
1828 98.1333 1303.85 1377.97 22.91
1829 98.1833 1310.17 1378.01 22.96
1830 98.2333 1345.94 1378.05 23.28
1831 98.2833 1341.83 1378.08 23.24
1832 98.3333 1312.61 1378.12 22.98
1833 98.3833 1339.90 1378.15 23.23
1834 98.4333 1301.43 1378.19 22.89
1835 98.4833 1303.23 1378.22 22.91
1836 98.5333 1296.34 1378.24 22.84
1837 98.5833 1297.49 1378.27 22.85
1838 98.6334 1288.39 1378.29 22.77
1839 98.6833 1315.01 1378.31 23.01
1840 98.7333 1302.98 1378.33 22.90
1841 98.7797 1336.12 1378.35 32.91
1842 98.8254 1309.88 1378.36 23.55
1843 98.8758 1316.63 1376.27 23.61
1844 98.9259 1270.11 1376.31 23.21
1845 98.9760 1302.15 1376.35 23.47
1846 99.0260 1283.65 1376.38 23.30
1847 99.0761 1285.58 1376.41 23.33
1848 99.1261 1309.59 1376.43 23.55
1849 99.1762 1302.12 1376.45 23.48
1850 99.2262 1326.73 1376.47 23.71
1851 99.2762 1323.61 1376.49 23.68
1852 99.3263 1282.52 1376.50 23.27
1853 99.3762 1275.12 1376.51 23.23
1854 99.4263 1276.50 1376.52 23.28
1855 99.4762 1286.16 1376.52 23.34
1856 99.5262 1284.69 1376.53 23.32
1857 99.5762 1323.95 1376.52 23.70
1858 99.6263 1300.23 1376.52 23.47
1859 99.6763 1270.59 1376.51 23.20
1860 99.7261 1300.92 1376.50 23.50
1861 99.7763 1304.69 1376.49 23.50
1862 99.8262 1303.21 1376.47 23.48
1863 99.8763 1259.36 1376.45 23.08
1864 99.9263 1278.46 1376.43 23.26
1865 99.9762 1288.37 1376.41 23.34
1866 100.0263 1293.90 1376.38 23.41
1867 100.0692 1264.12 1376.36 24.13
1868 100.1196 1283.74 1376.32 24.32
1869 100.1697 1286.65 1376.29 24.35
1870 100.2197 1319.43 1376.25 24.64
1871 100.2698 1301.84 1376.22 24.52
1872 100.3199 1348.90 1376.18 24.93
1873 100.3699 1314.62 1376.14 24.61
1874 100.4200 1294.21 1376.10 24.42
1875 100.4699 1323.34 1376.06 24.68
1876 100.5200 1379.31 1376.03 25.23
1877 100.5700 1330.00 1376.02 24.76
1878 100.6199 1382.48 1376.05 25.25
1879 100.6700 1340.83 1376.14 24.85
1880 100.7200 1348.24 1376.32 24.92
1881 100.7700 1392.84 1376.62 25.34
1882 100.8200 1349.48 1377.06 24.94
1883 100.8700 1332.25 1377.64 24.76
1884 100.9200 1349.71 1378.31 24.95
1885 100.9699 1403.77 1379.01 25.45
1886 101.0200 1389.79 1379.60 25.31
1887 101.0700 1359.43 1379.94 25.04
1888 101.1200 1423.06 1379.92 25.61
1889 101.1701 1376.31 1379.52 25.18
1890 101.2200 1318.72 1378.82 24.67
1891 101.2700 1348.93 1377.95 24.93
1892 101.3147 1319.30 1377.15 23.97
1893 101.3651 1283.65 1376.32 23.68
1894 101.4152 1363.89 1375.61 24.37
1895 101.4652 1308.92 1375.05 23.84
1896 101.5153 1283.22 1374.62 23.65
1897 101.5654 1317.47 1374.29 23.92
1898 101.6154 1255.32 1374.04 23.34
1899 101.6655 1294.07 1373.84 23.69
1900 101.7155 1298.92 1373.67 23.79
1901 101.7655 1283.08 1373.50 23.63
1902 101.8156 1264.20 1373.35 23.49
1903 101.8655 1285.01 1373.20 23.62
1904 101.9156 1244.02 1373.04 23.27
1905 101.9655 1262.99 1372.89 23.46
1906 102.0155 1250.18 1372.73 23.32
1907 102.0655 1278.87 1372.58 23.58
1908 102.1155 1260.55 1372.42 23.37
1909 102.1656 1266.81 1372.25 23.52
1910 102.2154 1268.58 1372.09 23.50
1911 102.2655 1259.43 1371.92 23.44
1912 102.3155 1235.36 1371.75 23.20
1913 102.3655 1266.06 1371.58 23.46
1914 102.4156 1278.04 1371.41 23.53
1915 102.4655 1223.61 1371.23 23.09
1916 102.5156 1254.19 1371.05 23.29
1917 102.5600 1282.85 1370.89 25.16
1918 102.6104 1306.81 1370.70 25.35
1919 102.6605 1278.18 1370.52 24.97
1920 102.7105 1328.44 1370.33 25.54
1921 102.7606 1272.52 1370.14 25.03
1922 102.8107 1317.92 1369.94 25.46
1923 102.8607 1301.19 1369.74 25.20
1924 102.9108 1293.79 1369.55 25.33
1925 102.9608 1295.72 1369.34 25.19
1926 103.0108 1297.13 1369.14 25.29
1927 103.0609 1285.95 1368.93 25.18
1928 103.1108 1323.43 1368.72 25.50
1929 103.1608 1320.58 1368.51 25.52
1930 103.2108 1353.36 1368.29 25.81
1931 103.2608 1282.21 1368.08 25.20
1932 103.3108 1286.83 1367.86 25.18
1933 103.3608 1300.02 1367.63 25.33
1934 103.4109 1299.42 1367.39 25.29
1935 103.4607 1337.81 1367.16 25.68
1936 103.5108 1315.52 1366.93 25.45
1937 103.5608 1310.79 1366.70 25.51
1938 103.6108 1226.66 1366.47 24.52
1939 103.6609 1321.70 1366.23 25.50
1940 103.7108 1302.85 1365.99 25.30
1941 103.7608 1329.06 1365.75 25.54
1942 103.8117 1336.20 1365.50 27.60
1943 103.8620 1319.05 1365.25 27.43
1944 103.9121 1315.75 1365.00 27.41
1945 103.9622 1335.97 1364.75 27.60
1946 104.0123 1305.26 1364.49 27.28
1947 104.0623 1357.31 1364.24 27.79
1948 104.1123 1285.58 1363.98 27.07
1949 104.1624 1314.46 1363.71 27.40
1950 104.2124 1359.56 1363.45 27.82
1951 104.2624 1347.72 1363.18 27.73
1952 104.3125 1338.21 1362.92 27.60
1953 104.3624 1330.05 1362.65 27.53
1954 104.4125 1328.12 1362.37 27.51
1955 104.4625 1318.30 1362.10 27.42
1956 104.5125 1352.38 1361.82 27.73
1957 104.5625 1333.96 1361.54 27.54
1958 104.6125 1311.75 1361.26 27.30
1959 104.6625 1311.80 1360.97 27.36
1960 104.7124 1326.47 1360.69 27.51
1961 104.7625 1318.25 1360.40 27.41
1962 104.8125 1325.21 1360.11 27.50
1963 104.8625 1310.82 1359.82 27.32
1964 104.9126 1349.95 1359.52 27.71
1965 104.9624 1330.91 1359.22 27.52
1966 105.0187 1344.60 1358.89 22.37
1967 105.0745 1281.27 1358.55 26.30
1968 105.1247 1345.74 1358.25 26.94
1969 105.1747 1294.97 1357.94 26.42
1970 105.2248 1323.19 1357.63 26.71
1971 105.2748 1273.00 1357.32 26.21
1972 105.3248 1294.41 1357.01 26.44
1973 105.3749 1333.19 1356.70 26.81
1974 105.4250 1320.42 1359.48 26.71
1975 105.4749 1308.70 1359.22 26.58
1976 105.5249 1309.31 1358.95 26.59
1977 105.5751 1217.03 1358.69 25.63
1978 105.6250 1343.77 1358.42 26.92
1979 105.6750 1284.53 1358.15 26.32
1980 105.7250 1327.82 1357.89 26.79
1981 105.7750 1337.73 1357.62 26.86
1982 105.8250 1285.23 1357.35 26.32
1983 105.8750 1351.75 1357.09 27.00
1984 105.9249 1312.78 1356.82 26.61
1985 105.9749 1333.53 1356.56 26.81
1986 106.0250 1314.78 1356.29 26.63
1987 106.0750 1362.33 1356.02 27.13
1988 106.1250 1299.15 1355.76 26.47
1989 106.1750 1383.78 1355.49 27.35
1990 106.2250 1356.45 1355.23 27.05
1991 106.2750 1327.02 1354.97 26.77
1992 106.3301 1296.45 1354.68 25.69
1993 106.3805 1276.99 1354.41 25.45
1994 106.4307 1322.28 1354.15 25.92
1995 106.4807 1337.27 1353.89 26.07
1996 106.5308 1301.85 1353.64 25.71
1997 106.5808 1358.45 1353.38 26.25
1998 106.6309 1303.52 1353.12 25.71
1999 106.6809 1289.50 1352.87 25.58
2000 106.7309 1305.95 1352.62 25.79
2001 106.7810 1325.90 1352.37 25.93
2002 106.8309 1276.69 1352.13 25.46
2003 106.8810 1270.40 1351.88 25.39
2004 106.9310 1305.20 1351.64 25.73
2005 106.9810 1376.72 1351.40 26.42
2006 107.0310 1381.92 1351.17 26.52
2007 107.0810 1302.09 1350.94 25.72
2008 107.1310 1340.58 1350.71 26.10
2009 107.1809 1348.63 1350.49 26.19
2010 107.2309 1331.92 1350.27 26.00
2011 107.2810 1368.77 1350.05 26.37
2012 107.3310 1318.99 1349.84 25.90
2013 107.3811 1364.22 1349.64 26.31
2014 107.4310 1341.31 1349.44 26.11
2015 107.4810 1368.20 1349.25 26.33
2016 107.5429 1456.60 1349.02 26.74
2017 107.5933 1410.71 1348.84 26.32
2018 107.6435 1399.25 1348.66 26.23
2019 107.6934 1392.06 1348.50 26.14
2020 107.7436 1409.83 1348.34 26.29
2021 107.7936 1401.71 1348.20 26.23
2022 107.8436 1380.03 1348.06 26.01
2023 107.8937 1436.56 1347.93 26.59
2024 107.9437 1334.70 1347.82 25.61
2025 107.9937 1352.76 1347.71 25.77
2026 108.0437 1334.41 1347.62 25.62
2027 108.0938 1382.77 1347.54 26.10
2028 108.1437 1316.27 1347.47 25.42
2029 108.1938 1340.89 1347.42 25.68
2030 108.2438 1345.89 1347.39 25.76
2031 108.2938 1343.11 1347.37 25.67
2032 108.3438 1331.76 1347.37 25.57
2033 108.3938 1335.89 1347.39 25.65
2034 108.4437 1358.04 1347.43 25.81
2035 108.4937 1349.66 1347.50 25.75
2036 108.5438 1376.20 1347.59 26.04
2037 108.5938 1367.04 1347.70 25.92
2038 108.6438 1379.27 1347.85 26.05
2039 108.6938 1341.64 1348.02 25.69
2040 108.7437 1347.94 1348.23 25.71
2041 108.7963 1384.02 1348.49 21.64
2042 108.8553 1339.74 1348.83 26.38
2043 108.9054 1361.61 1349.16 26.60
2044 108.9554 1336.68 1349.55 26.35
2045 109.0055 1350.56 1349.98 26.47
2046 109.0556 1305.59 1350.47 26.03
2047 109.1056 1322.77 1351.02 26.22
2048 109.1557 1311.66 1351.64 26.06
2049 109.2057 1341.36 1352.32 26.41
2050 109.2557 1290.01 1353.09 25.87
2051 109.3057 1349.77 1353.95 26.48
2052 109.3557 1338.01 1354.90 26.32
2053 109.4057 1313.23 1355.96 26.15
2054 109.4557 1335.96 1357.14 26.36
2055 109.5057 1338.18 1358.45 26.37
2056 109.5557 1337.65 1359.91 26.33
2057 109.6057 1348.25 1361.53 26.49
2058 109.6558 1302.40 1363.34 26.03
2059 109.7056 1361.91 1365.35 26.57
2060 109.7557 1378.83 1367.60 26.76
2061 109.8057 1354.87 1370.11 26.52
2062 109.8557 1357.03 1372.93 26.53
2063 109.9058 1422.30 1376.09 27.17
2064 109.9557 1322.70 1379.64 26.21
2065 110.0058 1373.76 1383.65 26.71
2066 110.0501 1367.49 1387.64 26.89
2067 110.1005 1362.81 1392.76 26.85
2068 110.1506 1360.67 1398.56 26.82
2069 110.2007 1395.64 1405.19 27.18
2070 110.2507 1383.95 1412.81 27.09
2071 110.3008 1381.15 1421.61 27.06
2072 110.3508 1437.67 1431.83 27.60
2073 110.4009 1408.89 1443.80 27.29
2074 110.4509 1420.67 1457.87 27.45
2075 110.5009 1483.01 1474.58 28.01
2076 110.5510 1505.67 1494.69 28.24
2077 110.6009 1500.15 1519.18 28.17
2078 110.6510 1500.55 1550.15 28.14
2079 110.7010 1547.44 1591.20 28.59
2080 110.7510 1634.50 1650.20 29.42
2081 110.8009 1640.11 1742.75 29.46
2082 110.8510 1753.79 1899.24 30.51
2083 110.9010 2017.19 2168.50 32.75
2084 110.9509 2632.06 2620.08 37.46
2085 111.0010 3455.70 3339.22 42.91
2086 111.0510 4892.69 4388.62 51.09
2087 111.1010 6636.78 5778.61 59.39
2088 111.1511 8407.64 7419.04 66.87
2089 111.2009 9945.36 9060.28 72.73
2090 111.2510 10767.20 10362.10 75.63
2091 111.2989 10213.30 10958.10 103.21
2092 111.3406 10026.00 10845.20 73.04
2093 111.3909 8851.84 9984.33 68.68
2094 111.4411 7674.81 8567.12 64.03
2095 111.4911 6416.85 6933.64 58.64
2096 111.5413 5304.69 5376.55 53.43
2097 111.5913 4435.04 4096.38 48.98
2098 111.6413 3787.97 3148.16 45.26
2099 111.6914 3155.65 2504.64 41.40
2100 111.7414 2766.23 2100.06 38.77
2101 111.7914 2329.64 1857.51 35.56
2102 111.8413 2081.94 1714.65 33.57
2103 111.8914 1899.70 1627.72 31.96
2104 111.9414 1748.32 1571.47 30.63
2105 111.9914 1640.15 1531.70 29.58
2106 112.0414 1570.31 1501.40 28.93
2107 112.0914 1490.88 1477.12 28.17
2108 112.1414 1450.52 1457.07 27.77
2109 112.1914 1455.85 1440.22 27.83
2110 112.2414 1420.04 1425.89 27.45
2111 112.2914 1437.70 1413.58 27.63
2112 112.3414 1411.59 1402.93 27.37
2113 112.3915 1439.37 1393.62 27.63
2114 112.4414 1431.22 1385.47 27.55
2115 112.4914 1355.90 1378.26 26.79
2116 112.5340 1468.75 1372.76 39.76
2117 112.5872 1392.76 1366.59 27.21
2118 112.6375 1393.36 1361.37 27.25
2119 112.6877 1386.06 1356.68 27.16
2120 112.7377 1400.93 1352.45 27.29
2121 112.7878 1390.52 1348.59 27.18
2122 112.8379 1475.79 1345.06 28.01
2123 112.8879 1377.10 1341.84 27.04
2124 112.9380 1358.53 1338.87 26.86
2125 112.9879 1337.79 1336.14 26.67
2126 113.0379 1348.34 1333.60 26.77
2127 113.0880 1376.44 1331.24 27.05
2128 113.1379 1330.87 1329.05 26.56
2129 113.1880 1355.54 1327.00 26.86
2130 113.2380 1360.43 1325.08 26.89
2131 113.2880 1322.83 1323.28 26.52
2132 113.3380 1341.20 1321.59 26.68
2133 113.3880 1361.70 1319.99 26.90
2134 113.4380 1338.18 1318.48 26.63
2135 113.4879 1332.14 1317.05 26.57
2136 113.5380 1342.03 1315.70 26.71
2137 113.5880 1317.61 1314.41 26.47
2138 113.6380 1272.76 1313.18 26.02
2139 113.6881 1307.30 1312.00 26.38
2140 113.7380 1363.28 1310.89 26.89
2141 113.7918 1305.03 1309.74 21.44
2142 113.8460 1320.15 1308.63 26.28
2143 113.8962 1285.26 1307.65 25.96
2144 113.9462 1351.11 1306.71 26.58
2145 113.9963 1351.58 1305.80 26.61
2146 114.0463 1318.77 1304.93 26.28
2147 114.0963 1335.70 1304.10 26.45
2148 114.1464 1333.24 1303.28 26.41
2149 114.1964 1359.63 1302.50 26.63
2150 114.2464 1254.33 1301.75 25.60
2151 114.2964 1299.64 1301.01 26.09
2152 114.3466 1348.08 1300.30 26.57
2153 114.3964 1287.88 1299.62 25.98
2154 114.4465 1315.39 1298.95 26.23
2155 114.4965 1302.31 1298.31 26.10
2156 114.5465 1325.58 1297.68 26.34
2157 114.5965 1306.53 1297.08 26.15
2158 114.6465 1264.60 1296.49 25.75
2159 114.6964 1320.90 1295.91 26.29
2160 114.7464 1353.37 1295.36 26.60
2161 114.7965 1296.63 1294.82 26.02
2162 114.8465 1296.24 1294.29 26.04
2163 114.8965 1357.00 1293.79 26.63
2164 114.9465 1309.05 1293.29 26.16
2165 114.9965 1376.26 1292.82 26.81
2166 115.0539 1342.81 1292.29 21.44
2167 115.1102 1336.69 1291.79 26.09
2168 115.1603 1334.83 1291.36 26.05
2169 115.2103 1286.96 1290.95 25.60
2170 115.2604 1339.75 1290.56 26.11
2171 115.3105 1312.74 1290.18 25.83
2172 115.3605 1319.47 1289.83 25.91
2173 115.4106 1337.57 1289.49 26.08
2174 115.4605 1302.70 1289.18 25.74
2175 115.5106 1317.16 1288.89 25.88
2176 115.5606 1335.64 1288.63 26.06
2177 115.6106 1292.98 1288.39 25.65
2178 115.6606 1308.82 1288.20 25.80
2179 115.7106 1303.29 1288.04 25.73
2180 115.7606 1350.75 1287.93 26.21
2181 115.8106 1376.16 1287.88 26.46
2182 115.8606 1312.14 1287.89 25.84
2183 115.9107 1340.72 1288.00 26.14
2184 115.9605 1289.58 1288.20 25.65
2185 116.0106 1290.71 1288.56 25.62
2186 116.0606 1254.49 1289.10 25.26
2187 116.1106 1309.34 1289.95 25.81
2188 116.1607 1346.46 1291.33 26.16
2189 116.2106 1266.70 1293.69 25.38
2190 116.2606 1313.57 1297.99 25.86
2191 116.3106 1303.71 1305.76 25.53
2192 116.3610 1317.25 1319.27 25.66
2193 116.4111 1310.69 1340.50 25.62
2194 116.4611 1354.42 1370.44 26.03
2195 116.5112 1365.98 1407.35 26.14
2196 116.5613 1390.11 1444.77 26.38
2197 116.6113 1431.68 1472.63 26.77
2198 116.6614 1378.44 1483.47 26.27
2199 116.7113 1467.81 1476.10 27.09
2200 116.7614 1343.93 1453.63 25.95
2201 116.8114 1366.45 1421.42 26.13
2202 116.8614 1324.21 1385.99 25.73
2203 116.9114 1373.84 1353.66 26.21
2204 116.9614 1331.02 1328.18 25.79
2205 117.0114 1343.07 1310.24 25.91
2206 117.0614 1321.33 1298.62 25.71
2207 117.1114 1328.32 1288.32 25.78
2208 117.1615 1311.07 1284.09 25.58
2209 117.2113 1296.53 1281.48 25.46
2210 117.2614 1278.62 1279.73 25.29
2211 117.3114 1310.26 1278.44 25.60
2212 117.3614 1288.62 1277.42 25.40
2213 117.4115 1327.24 1276.57 25.73
2214 117.4614 1352.46 1275.86 26.03
2215 117.5114 1270.24 1275.24 25.20
2216 117.5483 1304.91 1274.83 25.34
2217 117.5987 1311.44 1274.33 25.41
2218 117.6488 1327.17 1273.88 25.54
2219 117.6989 1311.87 1273.48 25.42
2220 117.7489 1358.30 1273.11 25.86
2221 117.7990 1321.75 1272.77 25.50
2222 117.8490 1365.38 1272.46 25.91
2223 117.8991 1308.93 1272.17 25.38
2224 117.9491 1315.23 1271.90 25.43
2225 117.9991 1286.04 1271.65 25.15
2226 118.0492 1305.31 1271.41 25.35
2227 118.0991 1322.86 1271.18 25.50
2228 118.1492 1280.79 1270.97 25.09
2229 118.1991 1340.96 1270.77 25.66
2230 118.2492 1347.19 1270.57 25.75
2231 118.2991 1319.03 1270.39 25.49
2232 118.3492 1366.18 1270.22 25.91
2233 118.3992 1289.70 1270.05 25.19
2234 118.4490 1303.51 1269.89 25.32
2235 118.4992 1318.15 1269.74 25.46
2236 118.5492 1277.68 1269.59 25.07
2237 118.5992 1301.89 1269.45 25.33
2238 118.6492 1298.15 1269.32 25.27
2239 118.6991 1320.92 1269.19 25.50
2240 118.7492 1311.61 1269.07 25.41
2241 118.7966 1291.28 1268.95 27.72
2242 118.8470 1264.56 1268.84 27.31
2243 118.8971 1284.79 1268.73 27.57
2244 118.9471 1283.12 1268.63 27.51
2245 118.9972 1266.53 1268.53 27.35
2246 119.0473 1267.17 1268.44 27.20
2247 119.0973 1309.07 1268.35 27.75
2248 119.1474 1240.28 1268.27 26.90
2249 119.1974 1303.59 1268.19 27.78
2250 119.2474 1279.31 1268.12 27.33
2251 119.2975 1342.03 1268.05 28.04
2252 119.3474 1329.51 1267.98 28.09
2253 119.3975 1313.50 1267.92 27.91
2254 119.4474 1301.65 1267.86 27.69
2255 119.4974 1319.81 1267.81 27.93
2256 119.5474 1260.71 1267.76 27.19
2257 119.5974 1301.20 1267.71 27.74
2258 119.6475 1283.37 1267.67 27.57
2259 119.6973 1309.43 1267.64 27.87
2260 119.7474 1217.41 1267.60 26.71
2261 119.7974 1309.28 1267.57 27.79
2262 119.8475 1264.96 1267.55 27.49
2263 119.8975 1321.79 1267.53 27.98
2264 119.9474 1266.83 1267.51 27.34
2265 119.9975 1293.16 1267.50 27.64
2266 120.0488 1267.99 1267.49 27.20
2267 120.0992 1304.27 1267.49 27.61
2268 120.1493 1276.92 1267.49 27.31
2269 120.1994 1300.20 1267.49 27.48
2270 120.2495 1288.84 1267.50 27.35
2271 120.2995 1318.88 1267.51 27.80
2272 120.3495 1256.32 1267.52 26.94
2273 120.3996 1284.30 1267.54 27.34
2274 120.4496 1226.01 1267.56 26.66
2275 120.4996 1247.30 1267.59 26.78
2276 120.5497 1260.96 1267.62 27.03
2277 120.5996 1270.82 1267.66 27.15
2278 120.6497 1322.66 1267.70 27.62
2279 120.6997 1315.25 1267.74 27.63
2280 120.7497 1285.49 1267.78 27.33
2281 120.7997 1329.43 1267.83 28.02
2282 120.8497 1314.42 1267.89 27.64
2283 120.8997 1258.76 1267.95 26.99
2284 120.9496 1298.58 1268.01 27.47
2285 120.9997 1330.99 1268.08 27.82
2286 121.0497 1321.91 1268.15 27.77
2287 121.0997 1286.03 1268.22 27.24
2288 121.1498 1263.40 1268.30 27.11
2289 121.1996 1318.78 1268.38 27.64
2290 121.2497 1287.00 1268.47 27.38
2291 121.3027 1267.48 1268.56 24.91
2292 121.3530 1308.53 1268.66 25.33
2293 121.4031 1339.57 1268.76 25.64
2294 121.4532 1340.16 1268.86 25.66
2295 121.5033 1326.96 1268.97 25.53
2296 121.5533 1355.65 1269.08 25.78
2297 121.6033 1301.14 1269.19 25.27
2298 121.6534 1289.48 1269.22 25.13
2299 121.7034 1365.86 1269.34 25.86
2300 121.7534 1307.26 1269.48 25.28
2301 121.8035 1333.13 1269.61 25.58
2302 121.8534 1327.77 1269.76 25.49
2303 121.9035 1330.58 1269.92 25.58
2304 121.9535 1363.41 1270.09 25.80
2305 122.0035 1429.64 1270.29 26.46
2306 122.0535 1442.55 1270.53 26.59
2307 122.1035 1574.93 1270.82 27.77
2308 122.1535 1614.74 1271.15 28.10
2309 122.2034 1650.77 1271.45 28.41
2310 122.2535 1631.03 1271.68 28.24
2311 122.3035 1616.47 1271.84 28.14
2312 122.3535 1585.07 1271.95 27.87
2313 122.4036 1558.89 1272.05 27.61
2314 122.4535 1504.93 1272.12 27.19
2315 122.5035 1469.67 1272.18 26.86
2316 122.5573 1491.75 1272.26 27.59
2317 122.6077 1437.77 1272.37 27.12
2318 122.6578 1401.24 1272.51 26.73
2319 122.7078 1328.17 1272.68 26.09
2320 122.7579 1315.62 1272.87 25.90
2321 122.8080 1341.30 1273.06 26.21
2322 122.8580 1295.15 1273.27 25.70
2323 122.9081 1264.83 1273.48 25.40
2324 122.9581 1294.02 1273.70 25.68
2325 123.0081 1336.53 1273.92 26.14
2326 123.0582 1319.60 1274.14 25.96
2327 123.1081 1317.84 1274.37 25.93
2328 123.1582 1366.86 1274.61 26.42
2329 123.2081 1309.81 1274.85 25.89
2330 123.2581 1364.98 1275.09 26.39
2331 123.3081 1335.57 1275.33 26.12
2332 123.3581 1325.00 1275.59 26.02
2333 123.4082 1334.50 1275.84 26.10
2334 123.4580 1294.85 1276.10 25.68
2335 123.5081 1287.70 1276.36 25.64
2336 123.5581 1296.38 1276.63 25.73
2337 123.6081 1326.77 1276.90 26.04
2338 123.6582 1309.04 1277.17 25.85
2339 123.7081 1327.60 1277.45 26.05
2340 123.7582 1337.61 1277.73 26.13
2341 123.8003 1324.08 1277.97 25.45
2342 123.8507 1307.07 1278.27 25.26
2343 123.9008 1321.18 1278.56 25.41
2344 123.9509 1339.39 1278.86 25.58
2345 124.0009 1248.93 1279.16 24.70
2346 124.0510 1286.46 1279.46 25.08
2347 124.1010 1293.45 1279.77 25.14
2348 124.1511 1312.97 1280.08 25.35
2349 124.2011 1326.45 1310.03 25.44
2350 124.2511 1301.83 1311.09 25.23
2351 124.3012 1311.07 1312.18 25.29
2352 124.3511 1266.21 1313.30 24.89
2353 124.4012 1341.19 1314.46 25.60
2354 124.4511 1279.52 1315.65 25.01
2355 124.5012 1331.33 1316.88 25.51
2356 124.5511 1325.98 1318.15 25.47
2357 124.6012 1296.10 1319.46 25.16
2358 124.6512 1325.09 1320.82 25.47
2359 124.7011 1262.57 1322.22 24.86
2360 124.7512 1345.36 1323.67 25.65
2361 124.8012 1357.06 1325.17 25.76
2362 124.8512 1346.79 1326.73 25.66
2363 124.9013 1363.79 1328.34 25.85
2364 124.9511 1286.15 1330.01 25.08
2365 125.0012 1354.56 1331.75 25.72
2366 125.0369 1299.81 1333.03 26.42
2367 125.0873 1326.35 1334.90 26.64
2368 125.1374 1371.14 1336.83 27.17
2369 125.1875 1286.33 1338.84 26.22
2370 125.2376 1365.04 1340.93 27.04
2371 125.2876 1349.48 1343.11 26.89
2372 125.3376 1321.32 1345.39 26.60
2373 125.3877 1342.08 1347.77 26.87
2374 125.4377 1313.96 1350.25 26.55
2375 125.4877 1324.65 1352.85 26.68
2376 125.5378 1360.21 1355.58 27.04
2377 125.5877 1350.80 1358.44 26.89
2378 125.6378 1360.87 1361.44 27.03
2379 125.6878 1380.84 1364.60 27.18
2380 125.7378 1395.47 1367.92 27.36
2381 125.7878 1388.64 1371.41 27.28
2382 125.8378 1406.37 1375.11 27.51
2383 125.8878 1400.74 1379.01 27.38
2384 125.9377 1376.89 1383.13 27.23
2385 125.9878 1362.33 1387.51 26.99
2386 126.0378 1366.37 1392.15 27.10
2387 126.0878 1434.08 1397.09 27.81
2388 126.1379 1411.63 1402.35 27.56
2389 126.1877 1377.74 1407.93 27.23
2390 126.2378 1396.40 1413.94 27.40
2391 126.2821 1367.04 1419.60 26.73
2392 126.3324 1475.46 1426.47 27.70
2393 126.3826 1426.85 1433.84 27.26
2394 126.4326 1425.65 1441.75 27.26
2395 126.4827 1422.55 1450.31 27.22
2396 126.5328 1391.09 1459.58 26.94
2397 126.5828 1446.30 1469.62 27.47
2398 126.6329 1422.43 1480.57 27.22
2399 126.6828 1424.86 1492.47 27.24
2400 126.7328 1421.17 1505.52 27.14
2401 126.7829 1489.42 1519.88 27.86
2402 126.8328 1438.79 1535.65 27.40
2403 126.8829 1499.76 1553.16 27.87
2404 126.9329 1490.10 1572.56 27.82
2405 126.9829 1522.42 1594.21 28.12
2406 127.0329 1430.05 1618.46 27.38
2407 127.0829 1533.31 1645.76 28.32
2408 127.1329 1547.38 1676.66 28.37
2409 127.1828 1503.79 1711.75 28.06
2410 127.2329 1522.15 1752.13 28.16
2411 127.2829 1530.97 1798.61 28.27
2412 127.3329 1641.24 1852.63 29.27
2413 127.3830 1655.61 1916.11 29.46
2414 127.4329 1754.85 1990.91 30.23
2415 127.4829 1802.95 2080.50 30.66
2416 127.5474 1845.91 2224.65 29.42
2417 127.5977 2002.95 2367.05 30.71
2418 127.6478 2078.41 2544.75 31.24
2419 127.6979 2184.56 2771.81 32.00
2420 127.7480 2355.10 3069.71 33.27
2421 127.7980 2655.43 3476.93 35.32
2422 127.8481 3324.39 4076.99 39.61
2423 127.8981 4643.98 5041.75 46.85
2424 127.9481 7270.57 6704.85 58.65
2425 127.9981 11193.20 9565.81 72.90
2426 128.0482 16626.70 14145.80 89.22
2427 128.0831 20783.80 18393.20 137.10
2428 128.1232 25060.60 23776.10 109.89
2429 128.1732 29168.70 29236.90 119.06
2430 128.2232 31795.70 31600.00 124.71
2431 128.2732 31896.00 31400.80 125.04
2432 128.3232 30448.40 29858.90 122.18
2433 128.3732 27022.80 27707.60 114.93
2434 128.4232 22938.30 25124.90 105.72
2435 128.4731 19059.20 21950.90 96.20
2436 128.5232 15851.10 18007.60 87.78
2437 128.5732 12799.00 13671.30 78.81
2438 128.6233 10885.80 9795.16 72.79
2439 128.6732 9161.26 7008.31 66.81
2440 128.7232 7512.46 5225.96 60.48
2441 128.7633 6589.11 4322.22 82.33
2442 128.8246 5561.01 3480.94 54.27
2443 128.8750 4649.13 3058.04 49.61
2444 128.9251 3883.98 2763.12 45.34
2445 128.9751 3263.71 2543.31 41.44
2446 129.0252 2761.94 2372.55 37.94
2447 129.0753 2399.83 2236.89 35.30
2448 129.1253 2196.71 2127.50 33.66
2449 129.1754 2009.57 2037.63 32.15
2450 129.2254 1784.75 1963.13 30.25
2451 129.2754 1822.96 1900.61 30.53
2452 129.3255 1725.38 1847.55 29.70
2453 129.3754 1733.91 1802.39 29.76
2454 129.4255 1753.62 1763.37 29.95
2455 129.4754 1680.98 1729.71 29.28
2456 129.5254 1655.78 1700.32 29.05
2457 129.5754 1631.71 1674.58 28.85
2458 129.6254 1603.74 1651.93 28.66
2459 129.6755 1578.90 1631.88 28.37
2460 129.7253 1631.05 1614.21 28.84
2461 129.7755 1552.55 1598.36 28.14
2462 129.8255 1576.52 1584.28 28.41
2463 129.8754 1568.08 1571.70 28.25
2464 129.9255 1546.99 1560.38 28.08
2465 129.9754 1566.21 1550.25 28.26
2466 130.0255 1545.00 1541.11 28.06
2467 130.0802 1505.45 1532.16 29.14
2468 130.1305 1546.28 1524.78 29.58
2469 130.1806 1567.28 1518.14 29.75
2470 130.2307 1547.18 1512.16 29.60
2471 130.2808 1508.73 1506.77 29.20
2472 130.3308 1560.53 1501.92 29.73
2473 130.3808 1485.70 1497.55 28.95
2474 130.4309 1497.33 1493.62 29.09
2475 130.4809 1494.57 1490.09 29.06
2476 130.5309 1591.28 1486.94 30.03
2477 130.5810 1515.48 1484.13 29.31
2478 130.6309 1514.62 1481.65 29.25
2479 130.6810 1486.46 1479.45 28.98
2480 130.7310 1492.37 1477.53 29.05
2481 130.7810 1483.24 1475.88 28.95
2482 130.8310 1534.42 1474.46 29.47
2483 130.8810 1521.19 1473.28 29.31
2484 130.9310 1471.74 1472.31 28.80
2485 130.9809 1472.13 1471.55 28.88
2486 131.0310 1441.80 1470.99 28.50
2487 131.0810 1493.05 1470.62 29.09
2488 131.1310 1451.63 1470.43 28.64
2489 131.1811 1461.69 1470.42 28.75
2490 131.2310 1486.55 1470.58 28.97
2491 131.2864 1522.50 1470.95 24.44
2492 131.3362 1543.59 1471.46 30.95
2493 131.3864 1500.56 1472.13 30.48
2494 131.4364 1474.27 1472.96 30.22
2495 131.4865 1531.23 1473.96 30.84
2496 131.5365 1498.86 1475.11 30.50
2497 131.5865 1503.73 1476.43 30.51
2498 131.6366 1523.94 1477.91 30.74
2499 131.6866 1465.50 1479.55 30.13
2500 131.7366 1494.95 1481.36 30.44
2501 131.7866 1493.98 1483.34 30.44
2502 131.8367 1533.98 1485.51 30.86
2503 131.8866 1533.29 1487.84 30.89
2504 131.9367 1503.38 1490.38 30.51
2505 131.9867 1535.78 1493.10 30.89
2506 132.0367 1498.49 1496.03 30.48
2507 132.0867 1499.84 1499.18 30.50
2508 132.1367 1512.78 1468.61 30.63
2509 132.1866 1478.78 1473.08 30.31
2510 132.2366 1497.25 1477.78 30.50
2511 132.2867 1445.92 1482.73 29.97
2512 132.3367 1455.61 1487.92 30.04
2513 132.3867 1464.97 1493.39 30.13
2514 132.4367 1546.49 1499.16 30.97
2515 132.4867 1456.05 1505.26 30.06
2516 132.5367 1479.85 1511.71 30.31
2517 132.5563 1450.14 1514.34 41.62
2518 132.6030 1530.00 1520.86 30.69
2519 132.6532 1508.39 1528.30 30.49
2520 132.7032 1522.25 1536.18 30.62
2521 132.7533 1528.60 1544.60 30.70
2522 132.8034 1512.17 1553.60 30.50
2523 132.8534 1518.35 1563.22 30.59
2524 132.9035 1573.41 1573.56 31.13
2525 132.9534 1524.96 1584.63 30.66
2526 133.0034 1557.71 1596.58 30.92
2527 133.0535 1568.14 1609.53 31.08
2528 133.1035 1528.95 1623.52 30.70
2529 133.1535 1553.69 1638.72 30.92
2530 133.2035 1564.97 1655.27 31.02
2531 133.2535 1617.30 1673.36 31.57
2532 133.3035 1553.55 1693.18 30.94
2533 133.3535 1623.59 1714.98 31.62
2534 133.4035 1586.39 1739.04 31.25
2535 133.4534 1573.02 1765.63 31.07
2536 133.5035 1586.42 1795.34 31.27
2537 133.5535 1634.29 1828.46 31.73
2538 133.6035 1639.79 1865.66 31.79
2539 133.6536 1725.59 1907.70 32.58
2540 133.7035 1663.80 1955.22 32.00
2541 133.7535 1737.89 2009.52 32.71
2542 133.8149 1826.41 2087.43 33.01
2543 133.8653 1854.40 2162.76 33.27
2544 133.9154 1918.77 2250.40 33.87
2545 133.9654 1998.92 2353.74 34.52
2546 134.0155 2081.01 2477.84 35.22
2547 134.0656 2181.93 2629.91 36.05
2548 134.1156 2203.26 2822.37 36.25
2549 134.1657 2454.67 3078.65 38.24
2550 134.2157 2600.26 3438.14 39.40
2551 134.2657 2798.75 3968.74 40.94
2552 134.3158 3268.71 4774.24 44.22
2553 134.3657 4115.26 5985.62 49.70
2554 134.4157 6118.63 7762.24 60.66
2555 134.4657 9092.54 10234.40 74.02
2556 134.5157 13356.90 13452.00 89.95
2557 134.5657 18475.30 17290.50 106.27
2558 134.6157 23289.60 21354.90 119.84
2559 134.6658 27168.30 24992.60 129.84
2560 134.7156 29706.20 27558.80 136.09
2561 134.7657 31359.80 28857.30 139.99
2562 134.8157 31938.90 29013.10 141.32
2563 134.8657 30856.60 28301.90 138.76
2564 134.9158 28644.70 26965.50 133.42
2565 134.9657 25259.40 25178.10 125.10
2566 135.0157 21878.30 23013.20 116.24
2567 135.0648 19112.20 20558.10 102.72
2568 135.1152 15794.40 17752.10 93.24
2569 135.1653 13196.10 14811.00 85.01
2570 135.2153 11413.00 11959.60 78.94
2571 135.2654 9843.39 9434.49 73.30
2572 135.3155 8468.85 7383.02 67.95
2573 135.3655 7282.73 5829.14 62.92
2574 135.4156 6256.72 4706.33 58.28
2575 135.4656 5386.17 3928.93 54.01
2576 135.5156 4614.97 3399.33 49.87
2577 135.5657 4027.35 3036.02 46.74
2578 135.6156 3349.74 2781.49 42.47
2579 135.6656 3000.88 2593.71 40.25
2580 135.7156 2667.89 2448.90 37.91
2581 135.7656 2344.40 2332.67 35.59
2582 135.8156 2175.18 2236.67 34.27
2583 135.8656 2049.43 2155.87 33.22
2584 135.9157 1999.89 2086.85 32.92
2585 135.9655 1836.70 2027.81 31.48
2586 136.0156 1839.27 1976.31 31.45
2587 136.0656 1735.94 1931.47 30.60
2588 136.1156 1760.51 1892.09 30.89
2589 136.1657 1688.04 1857.30 30.16
2590 136.2156 1749.92 1826.57 30.82
2591 136.2657 1668.85 1799.10 30.03
2592 136.3075 1659.07 1778.44 28.83
2593 136.3578 1604.83 1755.93 28.35
2594 136.4079 1577.24 1735.77 28.16
2595 136.4580 1611.23 1717.57 28.42
2596 136.5081 1589.56 1701.09 28.25
2597 136.5581 1632.09 1686.15 28.62
2598 136.6082 1594.45 1672.53 28.29
2599 136.6582 1570.55 1660.13 28.08
2600 136.7082 1579.98 1648.79 28.18
2601 136.7582 1570.03 1638.39 28.04
2602 136.8083 1559.00 1628.83 27.96
2603 136.8582 1583.28 1620.06 28.19
2604 136.9083 1568.09 1611.96 28.05
2605 136.9583 1555.18 1604.49 27.91
2606 137.0083 1596.24 1597.59 28.30
2607 137.0583 1545.81 1591.20 27.84
2608 137.1083 1541.89 1585.28 27.81
2609 137.1583 1518.73 1579.78 27.59
2610 137.2082 1548.93 1574.69 27.87
2611 137.2583 1505.70 1569.93 27.48
2612 137.3083 1544.60 1565.51 27.83
2613 137.3583 1510.82 1561.40 27.52
2614 137.4084 1519.94 1557.55 27.61
2615 137.4583 1551.87 1553.98 27.89
2616 137.5154 1525.72 1550.18 26.21
2617 137.5695 1597.56 1546.84 35.10
2618 137.6197 1549.97 1543.95 34.38
2619 137.6697 1630.84 1541.26 35.63
2620 137.7198 1518.25 1538.74 34.25
2621 137.7698 1575.51 1536.38 34.92
2622 137.8198 1616.46 1534.17 35.41
2623 137.8699 1570.24 1532.10 34.85
2624 137.9199 1577.18 1530.16 34.96
2625 137.9699 1600.09 1528.34 35.11
2626 138.0199 1552.39 1526.64 34.36
2627 138.0700 1598.43 1525.04 34.96
2628 138.1199 1597.45 1523.55 35.15
2629 138.1700 1552.23 1522.14 34.63
2630 138.2200 1580.16 1520.83 34.73
2631 138.2700 1609.77 1519.59 35.31
2632 138.3200 1548.04 1518.44 34.79
2633 138.3700 1560.96 1517.36 34.49
2634 138.4199 1535.38 1516.35 34.16
2635 138.4699 1595.93 1515.40 35.07
2636 138.5200 1550.92 1514.52 34.62
2637 138.5700 1551.50 1513.69 34.55
2638 138.6200 1502.92 1512.92 33.75
2639 138.6700 1499.55 1512.20 34.02
2640 138.7200 1582.99 1511.53 34.86
2641 138.7668 1527.98 1510.94 27.06
2642 138.8211 1567.07 1510.31 35.65
2643 138.8713 1569.02 1509.77 35.62
2644 138.9213 1552.37 1509.27 35.69
2645 138.9714 1553.64 1508.81 35.72
2646 139.0215 1512.37 1508.39 34.91
2647 139.0715 1533.65 1508.00 35.27
2648 139.1216 1511.17 1507.64 35.07
2649 139.1715 1559.38 1507.31 35.73
2650 139.2215 1484.30 1507.01 34.89
2651 139.2716 1575.47 1506.74 35.74
2652 139.3215 1534.29 1506.50 35.59
2653 139.3716 1536.70 1506.28 35.43
2654 139.4216 1569.15 1506.09 35.60
2655 139.4716 1552.61 1505.91 35.90
2656 139.5216 1602.00 1505.77 36.25
2657 139.5716 1592.33 1505.64 36.15
2658 139.6216 1542.15 1505.53 35.48
2659 139.6715 1530.16 1505.45 35.43
2660 139.7216 1553.12 1505.38 35.50
2661 139.7716 1554.12 1505.33 35.64
2662 139.8216 1505.93 1505.30 35.02
2663 139.8717 1537.80 1505.28 35.48
2664 139.9216 1549.03 1505.28 35.44
2665 139.9716 1579.76 1505.30 35.94
2666 140.0121 1512.44 1505.33 43.02
2667 140.0574 1618.48 1505.37 30.37
2668 140.1077 1526.45 1505.43 29.57
2669 140.1579 1516.14 1505.51 29.36
2670 140.2079 1551.52 1505.60 29.77
2671 140.2580 1516.59 1505.70 29.41
2672 140.3081 1533.31 1505.83 29.57
2673 140.3581 1554.40 1505.96 29.78
2674 140.4081 1495.83 1506.11 29.16
2675 140.4581 1517.85 1506.28 29.43
2676 140.5082 1501.75 1506.47 29.24
2677 140.5581 1505.38 1506.67 29.24
2678 140.6082 1517.37 1506.88 29.40
2679 140.6582 1556.01 1507.12 29.81
2680 140.7082 1540.62 1507.38 29.65
2681 140.7582 1621.83 1507.66 30.40
2682 140.8082 1503.43 1487.62 29.20
2683 140.8582 1526.22 1488.28 29.51
2684 140.9082 1493.02 1488.97 29.19
2685 140.9581 1597.16 1489.68 30.20
2686 141.0082 1486.08 1490.43 29.09
2687 141.0582 1522.14 1491.21 29.49
2688 141.1083 1549.97 1492.03 29.67
2689 141.1582 1586.04 1492.91 30.10
2690 141.2082 1530.04 1493.86 29.56
2691 141.2545 1512.25 1494.83 39.96
2692 141.2981 1539.57 1495.85 29.03
2693 141.3484 1502.95 1497.20 28.68
2694 141.3986 1585.01 1498.83 29.43
2695 141.4486 1527.29 1500.87 28.91
2696 141.4987 1607.88 1503.53 29.66
2697 141.5488 1583.19 1507.07 29.42
2698 141.5988 1596.28 1511.79 29.55
2699 141.6488 1618.26 1518.04 29.78
2700 141.6988 1593.91 1526.16 29.54
2701 141.7488 1666.60 1536.38 30.20
2702 141.7989 1637.14 1548.80 29.90
2703 141.8488 1624.94 1563.11 29.78
2704 141.8989 1694.84 1578.79 30.43
2705 141.9489 1670.59 1594.61 30.19
2706 141.9989 1653.80 1609.09 30.06
2707 142.0489 1726.01 1620.81 30.72
2708 142.0989 1692.13 1628.94 30.43
2709 142.1489 1675.03 1633.38 30.25
2710 142.1988 1706.94 1634.54 30.56
2711 142.2489 1713.92 1632.99 30.62
2712 142.2989 1671.56 1629.30 30.21
2713 142.3489 1731.89 1623.93 30.81
2714 142.3990 1651.78 1617.18 30.06
2715 142.4489 1692.41 1609.31 30.44
2716 142.4989 1600.21 1600.38 29.60
2717 142.5479 1613.49 1590.72 29.46
2718 142.5983 1610.71 1580.04 29.47
2719 142.6484 1536.20 1569.02 28.74
2720 142.6984 1534.67 1558.15 28.77
2721 142.7485 1537.33 1547.95 28.77
2722 142.7986 1586.18 1538.90 29.22
2723 142.8486 1536.57 1531.28 28.81
2724 142.8987 1508.23 1525.11 28.53
2725 142.9487 1539.98 1520.31 28.82
2726 142.9987 1470.62 1516.69 28.16
2727 143.0488 1494.30 1514.04 28.34
2728 143.0987 1467.08 1512.16 28.12
2729 143.1487 1477.16 1510.85 28.21
2730 143.1987 1501.71 1509.93 28.40
2731 143.2487 1478.28 1509.30 28.19
2732 143.2987 1423.43 1508.87 27.70
2733 143.3487 1492.55 1508.57 28.36
2734 143.3988 1408.16 1508.36 27.54
2735 143.4486 1509.11 1508.23 28.51
2736 143.4987 1471.81 1508.14 28.20
2737 143.5488 1467.84 1508.10 28.09
2738 143.5988 1483.99 1508.09 28.25
2739 143.6488 1473.88 1508.10 28.16
2740 143.6987 1460.64 1508.14 28.03
2741 143.7488 1451.95 1508.19 27.94
2742 143.8016 1416.14 1508.27 26.83
2743 143.8520 1445.62 1508.35 27.13
2744 143.9021 1496.17 1508.45 27.63
2745 143.9522 1433.38 1508.55 27.00
2746 144.0022 1465.18 1508.66 27.31
2747 144.0523 1490.05 1508.78 27.52
2748 144.1023 1500.20 1508.90 27.63
2749 144.1524 1493.92 1509.03 27.54
2750 144.2024 1489.84 1509.16 27.55
2751 144.2524 1464.10 1509.30 27.32
2752 144.3025 1439.97 1509.43 27.07
2753 144.3524 1448.52 1509.57 27.14
2754 144.4025 1421.11 1509.71 26.88
2755 144.4524 1440.14 1509.84 27.07
2756 144.5025 1474.51 1509.98 27.36
2757 144.5524 1474.55 1510.12 27.36
2758 144.6025 1486.17 1510.26 27.51
2759 144.6525 1450.93 1510.40 27.18
2760 144.7023 1430.50 1510.54 26.96
2761 144.7525 1482.12 1510.67 27.43
2762 144.8025 1438.23 1510.81 27.05
2763 144.8525 1478.30 1510.94 27.43
2764 144.9025 1403.69 1511.07 26.73
2765 144.9524 1468.33 1511.20 27.33
2766 145.0025 1433.51 1511.33 27.02
2767 145.0638 1440.51 1511.49 27.83
2768 145.1141 1450.57 1511.62 27.98
2769 145.1642 1521.37 1511.74 28.58
2770 145.2143 1497.50 1511.86 28.38
2771 145.2644 1484.56 1511.98 28.23
2772 145.3144 1485.37 1512.09 28.30
2773 145.3645 1479.42 1512.21 28.23
2774 145.4145 1474.59 1512.32 28.15
2775 145.4645 1497.98 1512.43 28.40
2776 145.5145 1471.48 1512.54 28.16
2777 145.5646 1469.38 1512.64 28.17
2778 145.6145 1461.00 1512.74 28.04
2779 145.6646 1406.52 1512.84 27.53
2780 145.7146 1492.68 1512.94 28.33
2781 145.7646 1453.75 1513.03 28.02
2782 145.8146 1480.29 1513.13 28.26
2783 145.8646 1496.91 1513.21 28.42
2784 145.9146 1441.75 1513.30 27.91
2785 145.9645 1475.85 1513.39 28.19
2786 146.0146 1454.65 1513.47 27.97
2787 146.0646 1447.01 1513.55 27.94
2788 146.1146 1469.92 1513.62 28.13
2789 146.1647 1465.01 1513.70 28.14
2790 146.2146 1484.14 1513.77 28.28
2791 146.2646 1417.08 1513.84 27.61
2792 146.2948 1582.78 1513.88 40.21
2793 146.3370 1494.34 1513.93 28.39
2794 146.3871 1491.66 1513.99 28.40
2795 146.4371 1467.37 1514.05 28.14
2796 146.4872 1508.98 1514.11 28.54
2797 146.5373 1511.81 1514.17 28.62
2798 146.5873 1455.98 1514.22 28.01
2799 146.6374 1501.72 1514.27 28.44
2800 146.6874 1484.41 1514.32 28.28
2801 146.7374 1482.20 1514.36 28.29
2802 146.7874 1517.87 1514.40 28.62
2803 146.8375 1499.40 1514.44 28.44
2804 146.8874 1518.22 1514.48 28.65
2805 146.9374 1505.15 1514.51 28.47
2806 146.9874 1574.04 1514.55 29.17
2807 147.0374 1494.77 1514.58 28.38
2808 147.0874 1511.52 1514.60 28.54
2809 147.1375 1554.90 1514.63 28.94
2810 147.1874 1507.14 1514.65 28.51
2811 147.2374 1552.86 1514.67 28.95
2812 147.2875 1547.04 1514.69 28.93
2813 147.3375 1504.46 1514.71 28.45
2814 147.3875 1496.05 1514.72 28.42
2815 147.4375 1559.35 1514.73 29.05
2816 147.4874 1598.23 1514.74 29.41
2817 147.5443 1565.02 1514.75 23.53
2818 147.6027 1541.60 1514.76 28.16
2819 147.6528 1507.76 1514.76 27.82
2820 147.7028 1530.16 1514.76 28.03
2821 147.7529 1481.14 1514.76 27.57
2822 147.8030 1562.38 1514.76 28.32
2823 147.8530 1546.97 1514.75 28.17
2824 147.9031 1512.05 1514.74 27.86
2825 147.9531 1560.33 1514.74 28.31
2826 148.0031 1489.88 1514.72 27.65
2827 148.0531 1576.86 1514.71 28.50
2828 148.1031 1486.77 1514.70 27.63
2829 148.1532 1542.51 1514.68 28.13
2830 148.2031 1541.73 1514.66 28.16
2831 148.2531 1477.34 1514.64 27.56
2832 148.3031 1504.44 1514.62 27.77
2833 148.3531 1468.62 1514.59 27.44
2834 148.4032 1536.18 1514.57 28.08
2835 148.4530 1480.34 1514.54 27.53
2836 148.5031 1549.45 1514.51 28.23
2837 148.5531 1505.26 1514.48 27.79
2838 148.6031 1525.01 1514.45 27.98
2839 148.6532 1498.99 1514.42 27.77
2840 148.7031 1556.88 1514.38 28.28
2841 148.7531 1527.56 1514.35 28.03
2842 148.8022 1524.90 1514.31 28.73
2843 148.8525 1490.65 1514.27 28.42
2844 148.9027 1525.21 1514.23 28.79
2845 148.9527 1536.29 1514.19 28.88
2846 149.0028 1563.95 1514.15 29.12
2847 149.0529 1540.50 1514.10 28.92
2848 149.1029 1496.69 1514.06 28.45
2849 149.1530 1519.26 1514.01 28.75
2850 149.2029 1545.80 1513.97 28.97
2851 149.2529 1549.70 1513.92 28.99
2852 149.3030 1526.16 1513.87 28.75
2853 149.3529 1496.49 1513.82 28.49
2854 149.4030 1512.12 1513.76 28.64
2855 149.4530 1512.97 1513.71 28.64
2856 149.5030 1590.12 1513.66 29.39
2857 149.5530 1607.11 1513.60 29.52
2858 149.6030 1558.91 1513.55 29.12
2859 149.6530 1547.81 1513.49 28.93
2860 149.7029 1576.01 1513.44 29.21
2861 149.7530 1551.89 1513.38 29.02
2862 149.8030 1596.49 1513.32 29.44
2863 149.8530 1566.99 1513.26 29.16
2864 149.9031 1504.96 1513.20 28.56
2865 149.9530 1509.17 1513.14 28.64
2866 150.0030 1533.55 1513.08 28.85
2867 150.0386 1559.71 1513.04 28.43
2868 150.0890 1557.25 1512.88 28.34
2869 150.1391 1622.71 1512.82 28.97
2870 150.1892 1577.95 1512.76 28.57
2871 150.2392 1558.09 1512.70 28.42
2872 150.2893 1592.74 1512.64 28.69
2873 150.3393 1622.18 1512.58 28.97
2874 150.3894 1577.77 1512.51 28.59
2875 150.4394 1576.58 1512.45 28.59
2876 150.4894 1545.38 1512.39 28.26
2877 150.5395 1578.13 1512.33 28.57
2878 150.5894 1605.93 1512.27 28.89
2879 150.6395 1576.08 1512.20 28.54
2880 150.6894 1639.15 1512.14 29.12
2881 150.7395 1588.49 1512.08 28.59
2882 150.7894 1549.99 1512.02 28.32
2883 150.8395 1602.96 1511.95 28.75
2884 150.8895 1593.95 1511.89 28.75
2885 150.9393 1609.44 1511.83 28.87
2886 150.9895 1686.81 1511.76 29.55
2887 151.0395 1629.00 1511.70 29.01
2888 151.0895 1637.10 1511.64 29.15
2889 151.1396 1607.61 1511.58 28.85
2890 151.1894 1635.31 1511.51 29.10
2891 151.2395 1654.44 1511.45 29.27
2892 151.2914 1656.58 1511.39 28.90
2893 151.3418 1621.91 1511.32 28.55
2894 151.3919 1587.78 1511.26 28.31
2895 151.4420 1624.95 1511.20 28.60
2896 151.4921 1632.13 1511.14 28.66
2897 151.5421 1627.72 1511.08 28.65
2898 151.5921 1580.72 1511.02 28.22
2899 151.6422 1614.07 1510.96 28.50
2900 151.6922 1588.44 1510.91 28.29
2901 151.7422 1614.96 1510.85 28.52
2902 151.7923 1591.88 1510.79 28.33
2903 151.8422 1594.52 1510.74 28.33
2904 151.8923 1570.93 1510.68 28.07
2905 151.9423 1595.78 1510.63 28.28
2906 151.9923 1553.06 1510.57 27.94
2907 152.0423 1603.07 1510.52 28.38
2908 152.0923 1590.00 1510.47 28.30
2909 152.1423 1567.00 1510.42 28.04
2910 152.1922 1552.90 1510.37 27.95
2911 152.2423 1571.57 1510.32 28.11
2912 152.2923 1579.24 1510.27 28.19
2913 152.3423 1581.89 1510.23 28.19
2914 152.3924 1555.86 1510.18 27.95
2915 152.4422 1580.89 1510.14 28.19
2916 152.4923 1607.99 1510.10 28.47
2917 152.5456 1565.27 1510.05 28.77
2918 152.5959 1548.16 1510.01 28.61
2919 152.6461 1560.93 1509.97 28.73
2920 152.6961 1549.38 1509.94 28.64
2921 152.7462 1574.09 1509.90 28.86
2922 152.7962 1530.41 1509.86 28.45
2923 152.8463 1531.04 1509.83 28.48
2924 152.8964 1517.49 1509.80 28.29
2925 152.9463 1488.77 1509.77 28.06
2926 152.9963 1531.06 1509.74 28.45
2927 153.0464 1478.32 1509.71 27.96
2928 153.0963 1555.26 1509.68 28.67
2929 153.1464 1499.13 1509.66 28.16
2930 153.1964 1456.05 1509.63 27.75
2931 153.2464 1540.96 1509.61 28.52
2932 153.2964 1551.77 1509.59 28.67
2933 153.3464 1488.09 1509.57 28.06
2934 153.3964 1489.55 1509.56 28.04
2935 153.4463 1505.99 1509.54 28.22
2936 153.4964 1482.62 1509.53 28.01
2937 153.5464 1502.90 1509.51 28.19
2938 153.5964 1547.09 1509.50 28.60
2939 153.6465 1499.70 1509.49 28.18
2940 153.6964 1529.74 1509.49 28.43
2941 153.7464 1488.44 1509.48 28.08
2942 153.7926 1458.14 1509.48 27.54
2943 153.8430 1529.21 1509.47 28.20
2944 153.8931 1467.79 1509.47 27.64
2945 153.9432 1491.32 1509.48 27.88
2946 153.9932 1483.46 1509.48 27.78
2947 154.0433 1459.54 1509.48 27.57
2948 154.0933 1508.83 1509.49 28.02
2949 154.1434 1469.16 1509.50 27.69
2950 154.1934 1510.40 1509.51 28.06
2951 154.2434 1474.21 1509.52 27.69
2952 154.2935 1517.22 1509.53 28.13
2953 154.3434 1485.03 1509.55 27.80
2954 154.3935 1468.16 1509.57 27.68
2955 154.4434 1506.45 1509.59 27.99
2956 154.4935 1479.36 1509.61 27.80
2957 154.5434 1474.29 1509.63 27.71
2958 154.5935 1437.48 1509.66 27.35
2959 154.6435 1449.91 1509.68 27.48
2960 154.6933 1429.69 1509.71 27.28
2961 154.7435 1525.96 1509.74 28.23
2962 154.7935 1520.17 1509.77 28.15
2963 154.8435 1524.07 1509.81 28.21
2964 154.8936 1437.90 1509.84 27.39
2965 154.9434 1490.71 1509.88 27.87
2966 154.9935 1490.33 1509.92 27.88
2967 155.0479 1504.76 1509.96 27.94
2968 155.0982 1513.57 1510.01 28.06
2969 155.1483 1487.05 1510.05 27.78
2970 155.1984 1498.51 1510.10 27.85
2971 155.2485 1512.17 1510.15 28.01
2972 155.2986 1471.56 1510.20 27.56
2973 155.3486 1437.75 1510.25 27.34
2974 155.3987 1451.27 1510.30 27.44
2975 155.4486 1482.19 1510.36 27.72
2976 155.4986 1523.21 1510.41 28.14
2977 155.5487 1509.74 1510.47 27.98
2978 155.5986 1512.72 1510.53 28.02
2979 155.6487 1468.02 1510.59 27.61
2980 155.6987 1522.53 1510.66 28.13
2981 155.7487 1482.66 1510.72 27.73
2982 155.7987 1478.73 1510.79 27.70
2983 155.8487 1486.93 1510.86 27.78
2984 155.8987 1510.69 1510.92 27.98
2985 155.9486 1523.17 1510.99 28.12
2986 155.9987 1506.69 1511.07 27.99
2987 156.0487 1526.68 1511.14 28.17
2988 156.0987 1460.96 1511.21 27.54
2989 156.1488 1500.68 1511.29 27.90
2990 156.1987 1484.22 1511.37 27.75
2991 156.2487 1500.74 1511.44 27.91
2992 156.2996 1508.79 1511.52 27.76
2993 156.3500 1522.51 1511.61 27.88
2994 156.4001 1521.42 1511.69 27.88
2995 156.4501 1471.88 1511.77 27.46
2996 156.5002 1521.12 1511.85 27.88
2997 156.5503 1524.87 1511.94 27.90
2998 156.6003 1498.25 1512.02 27.67
2999 156.6504 1515.24 1512.11 27.84
3000 156.7004 1443.29 1512.19 27.14
3001 156.7504 1466.55 1512.28 27.41
3002 156.8005 1490.42 1512.37 27.62
3003 156.8504 1504.90 1512.46 27.74
3004 156.9005 1501.88 1512.54 27.71
3005 156.9504 1543.97 1512.63 28.10
3006 157.0004 1498.98 1512.72 27.69
3007 157.0504 1488.99 1512.81 27.55
3008 157.1004 1516.41 1512.90 27.84
3009 157.1505 1482.28 1512.99 27.53
3010 157.2003 1481.35 1513.08 27.51
3011 157.2504 1479.78 1513.17 27.50
3012 157.3004 1455.00 1513.26 27.28
3013 157.3504 1481.77 1513.35 27.51
3014 157.4005 1536.65 1513.43 28.03
3015 157.4504 1522.69 1513.52 27.88
3016 157.5005 1495.32 1513.61 27.64
3017 157.5406 1487.03 1513.68 28.74
3018 157.5909 1488.95 1513.77 28.81
3019 157.6411 1473.31 1513.85 28.63
3020 157.6911 1472.81 1513.94 28.57
3021 157.7412 1485.29 1514.02 28.78
3022 157.7913 1517.38 1514.10 29.07
3023 157.8413 1495.51 1514.18 28.86
3024 157.8914 1502.52 1514.26 28.95
3025 157.9413 1462.24 1514.34 28.48
3026 157.9913 1456.54 1514.42 28.45
3027 158.0414 1478.49 1514.49 28.66
3028 158.0914 1463.44 1514.57 28.54
3029 158.1414 1490.54 1514.64 28.84
3030 158.1914 1436.45 1514.71 28.32
3031 158.2414 1494.76 1514.78 28.85
3032 158.2914 1462.76 1514.84 28.54
3033 158.3414 1492.68 1514.90 28.83
3034 158.3914 1505.57 1514.96 28.92
3035 158.4413 1471.41 1515.02 28.63
3036 158.4914 1436.69 1515.07 28.25
3037 158.5414 1464.99 1515.12 28.57
3038 158.5914 1471.57 1515.17 28.63
3039 158.6415 1491.90 1515.22 28.82
3040 158.6914 1397.16 1515.26 27.88
3041 158.7414 1493.28 1515.30 28.81
3042 158.7908 1429.27 1515.33 28.68
3043 158.8411 1446.51 1515.36 28.87
3044 158.8912 1432.07 1515.38 28.74
3045 158.9413 1512.82 1515.41 29.55
3046 158.9914 1474.68 1515.42 29.16
3047 159.0414 1448.63 1515.43 28.88
3048 159.0914 1424.70 1515.44 28.61
3049 159.1415 1421.72 1515.44 28.59
3050 159.1915 1472.04 1515.44 29.10
3051 159.2415 1455.80 1515.43 29.00
3052 159.2916 1478.28 1515.42 29.18
3053 159.3415 1463.82 1515.40 29.09
3054 159.3916 1467.96 1515.37 29.12
3055 159.4416 1526.78 1515.34 29.66
3056 159.4916 1475.64 1515.30 29.17
3057 159.5416 1469.28 1515.26 29.15
3058 159.5916 1510.92 1515.20 29.54
3059 159.6416 1471.45 1515.15 29.10
3060 159.6915 1464.76 1515.08 29.01
3061 159.7416 1465.52 1515.01 29.02
3062 159.7916 1444.93 1514.92 28.84
3063 159.8416 1406.43 1514.83 28.44
3064 159.8917 1521.97 1514.74 29.60
3065 159.9415 1513.58 1514.63 29.47
3066 159.9916 1455.77 1514.52 28.95
3067 160.0629 1537.01 1514.34 28.88
3068 160.1132 1528.96 1514.20 28.85
3069 160.1633 1542.14 1514.05 28.96
3070 160.2134 1504.72 1513.89 28.63
3071 160.2635 1562.87 1513.73 29.18
3072 160.3135 1487.60 1513.55 28.41
3073 160.3636 1538.30 1513.36 28.92
3074 160.4136 1482.52 1513.16 28.32
3075 160.4636 1448.52 1512.95 28.07
3076 160.5136 1536.92 1512.73 28.91
3077 160.5637 1506.58 1512.50 28.63
3078 160.6136 1441.12 1512.25 27.96
3079 160.6637 1506.03 1512.00 28.60
3080 160.7137 1502.81 1511.72 28.57
3081 160.7637 1527.93 1511.44 28.88
3082 160.8137 1469.65 1511.14 28.25
3083 160.8637 1537.34 1510.83 28.95
3084 160.9137 1476.19 1510.51 28.35
3085 160.9636 1494.29 1510.17 28.49
3086 161.0137 1528.68 1509.82 28.84
3087 161.0637 1478.16 1509.45 28.37
3088 161.1137 1544.56 1509.06 29.03
3089 161.1638 1570.82 1508.66 29.21
3090 161.2137 1494.43 1508.25 28.50
3091 161.2637 1490.07 1507.82 28.45
3092 161.3214 1499.26 1507.30 28.68
3093 161.3718 1486.92 1506.82 28.55
3094 161.4219 1532.51 1506.34 28.97
3095 161.4719 1530.63 1505.83 29.03
3096 161.5220 1495.69 1505.31 28.62
3097 161.5721 1513.40 1504.77 28.83
3098 161.6221 1483.06 1504.21 28.51
3099 161.6722 1484.28 1503.62 28.52
3100 161.7222 1538.16 1503.02 29.06
3101 161.7722 1551.47 1502.40 29.21
3102 161.8222 1516.90 1501.76 28.89
3103 161.8721 1529.24 1501.10 29.00
3104 161.9222 1534.63 1500.41 29.01
3105 161.9722 1474.56 1499.71 28.43
3106 162.0222 1522.63 1498.98 28.87
3107 162.0722 1546.38 1498.23 29.11
3108 162.1222 1564.51 1497.45 29.29
3109 162.1722 1522.85 1496.65 28.91
3110 162.2221 1518.81 1495.83 28.89
3111 162.2722 1510.53 1494.98 28.76
3112 162.3222 1498.49 1494.11 28.70
3113 162.3722 1501.54 1493.21 28.70
3114 162.4223 1529.11 1492.28 29.00
3115 162.4722 1541.33 1491.33 29.11
3116 162.5222 1474.80 1490.35 28.44
3117 162.5669 1517.41 1489.45 41.19
3118 162.6169 1550.54 1488.42 41.71
3119 162.6669 1481.98 1487.35 40.70
3120 162.7169 1456.16 1486.26 40.34
3121 162.7668 1500.38 1485.14 40.99
3122 162.8169 1484.17 1483.99 40.73
3123 162.8669 1576.83 1482.81 42.00
3124 162.9170 1547.33 1481.59 41.59
3125 162.9670 1512.18 1480.34 41.11
3126 163.0170 1590.18 1479.07 42.16
3127 163.0671 1520.73 1477.75 41.32
3128 163.1169 1522.71 1476.41 41.26
3129 163.1669 1546.96 1475.03 41.57
3130 163.2169 1561.45 1473.62 41.77
3131 163.2669 1506.86 1472.17 41.08
3132 163.3169 1587.46 1470.68 42.16
3133 163.3669 1470.32 1469.16 40.51
3134 163.4169 1568.68 1467.59 41.92
3135 163.4668 1560.77 1466.00 41.80
3136 163.5169 1440.75 1464.36 40.11
3137 163.5669 1539.98 1462.68 41.49
3138 163.6169 1542.71 1460.96 41.59
3139 163.6670 1561.47 1459.20 41.74
3140 163.7168 1505.08 1457.41 40.96
3141 163.7669 1575.01 1455.56 41.98
loop_
_pd_proc_info_excluded_regions
'from 3.997 to 8.155'
loop_
_refln_index_h
_refln_index_k
_refln_index_l
_refln_F_squared_calc
_refln_F_squared_meas
_refln_F_squared_sigma
_refln_observed_status
_refln_d_spacing
0 0 1 0.91 1.54 0.15 o 3.930759
1 0 1 0.26 0.00 0.00 < 2.779466
1 1 1 469.50 469.04 9.41 o 2.269425
0 0 2 523.88 523.11 10.51 o 1.965379
1 0 2 0.96 0.56 0.08 o 1.757889
1 1 2 0.15 0.09 0.11 < 1.604725
2 0 2 485.25 478.79 9.63 o 1.389733
0 0 3 1.00 1.09 0.11 o 1.310253
2 1 2 1.00 1.09 0.11 o 1.310253
1 0 3 0.07 0.02 0.04 < 1.243015
1 1 3 406.05 403.67 8.10 o 1.185168
2 2 2 449.54 446.78 9.03 o 1.134712
2 0 3 1.04 0.16 0.15 < 1.090196
2 1 3 0.03 0.02 0.04 < 1.050539
0 0 4 416.52 411.89 8.41 o 0.982690
2 2 3 1.07 0.71 0.07 o 0.953349
1 0 4 1.07 0.71 0.07 o 0.953349
1 1 4 0.01 2.63 0.42 o 0.926489
3 0 3 0.01 2.63 0.42 o 0.926489
3 1 3 351.21 349.50 7.02 o 0.901778
2 0 4 385.97 385.87 7.75 o 0.878944
2 1 4 1.10 1.51 0.13 o 0.857762
3 2 3 0.00 1.87 0.69 < 0.838041
