#------------------------------------------------------------------------------
#$Date: 2017-05-25 04:58:28 +0300 (Thu, 25 May 2017) $
#$Revision: 196960 $
#$URL: file:///home/coder/svn-repositories/cod/cif/7/04/31/7043104.cif $
#------------------------------------------------------------------------------
#
# This file is available in the Crystallography Open Database (COD),
# http://www.crystallography.net/
#
# All data on this site have been placed in the public domain by the
# contributors.
#
data_7043104
loop_
_publ_author_name
'Whittle, Thomas A.'
'Brant, William R.'
'Hester, James R.'
'Gu, Qinfen'
'Schmid, Siegbert'
_publ_section_title
;
 Tailoring phase transition temperatures in perovskites via A-site vacancy
 generation
;
_journal_name_full               'Dalton Trans.'
_journal_paper_doi               10.1039/C7DT00352H
_journal_year                    2017
_chemical_formula_sum            'Nb0.4 O3 Sr0.8 Ti0.54 Zr0.06'
_chemical_formula_weight         186.6
_chemical_name_systematic        ' ?'
_space_group_IT_number           221
_symmetry_cell_setting           cubic
_symmetry_Int_Tables_number      221
_symmetry_space_group_name_Hall  '-P 4 2 3'
_symmetry_space_group_name_H-M   'P m -3 m'
_cell_angle_alpha                90
_cell_angle_beta                 90
_cell_angle_gamma                90
_cell_formula_units_Z            1
_cell_length_a                   3.942582(3)
_cell_length_b                   3.942582(3)
_cell_length_c                   3.942582(3)
_cell_measurement_temperature    293
_cell_volume                     61.28331(8)
_diffrn_ambient_temperature      293
_diffrn_radiation_probe          x-ray
_diffrn_radiation_wavelength     0.82538
_exptl_absorpt_coefficient_mu    9.481
_exptl_crystal_density_diffrn    5.0557
_exptl_crystal_F_000             85
_pd_instr_location               ' ?'
_pd_meas_2theta_range_max        82.000
_pd_meas_2theta_range_min        2.179
_pd_meas_number_of_points        21228
_pd_proc_2theta_range_max        82
_pd_proc_2theta_range_min        3.84
_pd_proc_ls_background_function  '12 Legendre polynoms'
_pd_proc_ls_pref_orient_corr     none
_pd_proc_ls_profile_function     Pseudo-Voigt
_pd_proc_ls_prof_R_factor        0.0471
_pd_proc_ls_prof_wR_expected     0.0224
_pd_proc_ls_prof_wR_factor       0.0568
_refine_ls_goodness_of_fit_all   2.54
_refine_ls_number_constraints    0
_refine_ls_number_parameters     21
_refine_ls_number_restraints     0
_refine_ls_R_factor_all          0.0146
_refine_ls_R_factor_gt           0.0143
_refine_ls_shift/su_max          0.0049
_refine_ls_shift/su_mean         0.0012
_refine_ls_weighting_scheme      sigma
_refine_ls_wR_factor_all         0.0249
_refine_ls_wR_factor_gt          0.0249
_cod_data_source_file            c7dt00352h5.cif
_cod_data_source_block           I
_cod_depositor_comments
;
The following automatic conversions were performed:

'_diffrn_radiation_probe' value 'X-ray' changed to 'x-ray' according
to
/home/data/users/saulius/crontab/automatic-downloads/rss-feeds/RSC/lib/dictionaries/cif_core.dic
dictionary named 'cif_core.dic' version 2.4.2 from 2011-04-26.

Automatic conversion script
Id: cif_fix_values 4973 2017-02-22 13:04:09Z antanas 
;
_cod_original_cell_volume        61.28333(8)
_cod_original_sg_symbol_Hall     '-P 4;2;3'
_cod_database_code               7043104
loop_
_space_group_symop_id
_space_group_symop_operation_xyz
1 x,y,z
2 -x,-y,z
3 -x,y,-z
4 x,-y,-z
5 z,x,y
6 z,-x,-y
7 -z,-x,y
8 -z,x,-y
9 y,z,x
10 -y,z,-x
11 y,-z,-x
12 -y,-z,x
13 y,x,-z
14 -y,-x,-z
15 y,-x,z
16 -y,x,z
17 x,z,-y
18 -x,z,y
19 -x,-z,-y
20 x,-z,y
21 z,y,-x
22 z,-y,x
23 -z,y,x
24 -z,-y,-x
25 -x,-y,-z
26 x,y,-z
27 x,-y,z
28 -x,y,z
29 -z,-x,-y
30 -z,x,y
31 z,x,-y
32 z,-x,y
33 -y,-z,-x
34 y,-z,x
35 -y,z,x
36 y,z,-x
37 -y,-x,z
38 y,x,z
39 -y,x,-z
40 y,-x,-z
41 -x,-z,y
42 x,-z,-y
43 x,z,y
44 -x,z,-y
45 -z,-y,x
46 -z,y,-x
47 z,-y,-x
48 z,y,x
loop_
_atom_site_label
_atom_site_type_symbol
_atom_site_fract_x
_atom_site_fract_y
_atom_site_fract_z
_atom_site_adp_type
_atom_site_U_iso_or_equiv
_atom_site_site_symmetry_multiplicity
_atom_site_occupancy
_atom_site_calc_flag
Sr Sr 0.5 0.5 0.5 Uiso 0.00871(8) 1 0.8 d
Ti Ti 0 0 0 Uiso 0.00892(7) 1 0.54 d
Zr Zr 0 0 0 Uiso 0.00892(7) 1 0.06 d
Nb Nb 0 0 0 Uiso 0.00892(7) 1 0.4 d
O O 0 0 0.5 Uiso 0.0125(2) 3 1 d
loop_
_atom_type_symbol
_atom_type_scat_dispersion_real
_atom_type_scat_dispersion_imag
_atom_type_scat_source
Nb -1.2589 0.8323 'International Tables Vol C tables 4.2.6.8 and 6.1.1.1'
O 0.0160 0.0087 'International Tables Vol C tables 4.2.6.8 and 6.1.1.1'
Sr -2.2526 0.6045 'International Tables Vol C tables 4.2.6.8 and 6.1.1.1'
Ti 0.3250 0.5982 'International Tables Vol C tables 4.2.6.8 and 6.1.1.1'
Zr -1.4610 0.7509 'International Tables Vol C tables 4.2.6.8 and 6.1.1.1'
loop_
_geom_angle_atom_site_label_1
_geom_angle_atom_site_label_2
_geom_angle_atom_site_label_3
_geom_angle_site_symmetry_1
_geom_angle_site_symmetry_3
_geom_angle
O Sr O . 1_565 90
O Sr O . 1_655 90
O Sr O . 1_665 180.0(5)
O Sr O . 5_555 60
O Sr O . 5_556 60
O Sr O . 5_565 120
O Sr O . 5_566 120
O Sr O . 9_555 60
O Sr O . 9_556 60
O Sr O . 9_655 120
O Sr O . 9_656 120
O Sr O 1_565 1_655 180.0(5)
O Sr O 1_565 1_665 90
O Sr O 1_565 5_555 120
O Sr O 1_565 5_556 120
O Sr O 1_565 5_565 60
O Sr O 1_565 5_566 60
O Sr O 1_565 9_555 60
O Sr O 1_565 9_556 60
O Sr O 1_565 9_655 120
O Sr O 1_565 9_656 120
O Sr O 1_655 1_665 90
O Sr O 1_655 5_555 60
O Sr O 1_655 5_556 60
O Sr O 1_655 5_565 120
O Sr O 1_655 5_566 120
O Sr O 1_655 9_555 120
O Sr O 1_655 9_556 120
O Sr O 1_655 9_655 60
O Sr O 1_655 9_656 60
O Sr O 1_665 5_555 120
O Sr O 1_665 5_556 120
O Sr O 1_665 5_565 60
O Sr O 1_665 5_566 60
O Sr O 1_665 9_555 120
O Sr O 1_665 9_556 120
O Sr O 1_665 9_655 60
O Sr O 1_665 9_656 60
O Sr O 5_555 5_556 90
O Sr O 5_555 5_565 90
O Sr O 5_555 5_566 180.0(5)
O Sr O 5_555 9_555 60
O Sr O 5_555 9_556 120
O Sr O 5_555 9_655 60
O Sr O 5_555 9_656 120
O Sr O 5_556 5_565 180.0(5)
O Sr O 5_556 5_566 90
O Sr O 5_556 9_555 120
O Sr O 5_556 9_556 60
O Sr O 5_556 9_655 120
O Sr O 5_556 9_656 60
O Sr O 5_565 5_566 90
O Sr O 5_565 9_555 60
O Sr O 5_565 9_556 120
O Sr O 5_565 9_655 60
O Sr O 5_565 9_656 120
O Sr O 5_566 9_555 120
O Sr O 5_566 9_556 60
O Sr O 5_566 9_655 120
O Sr O 5_566 9_656 60
O Sr O 9_555 9_556 90
O Sr O 9_555 9_655 90
O Sr O 9_555 9_656 180.0(5)
O Sr O 9_556 9_655 180.0(5)
O Sr O 9_556 9_656 90
O Sr O 9_655 9_656 90
O Ti O 1_554 . 180.0(5)
O Ti O 1_554 5_455 90
O Ti O 1_554 5_555 90
O Ti O 1_554 9_545 90
O Ti O 1_554 9_555 90
O Ti O . 5_455 90
O Ti O . 5_555 90
O Ti O . 9_545 90
O Ti O . 9_555 90
O Ti O 5_455 5_555 180.0(5)
O Ti O 5_455 9_545 90
O Ti O 5_455 9_555 90
O Ti O 5_555 9_545 90
O Ti O 5_555 9_555 90
O Ti O 9_545 9_555 180.0(5)
O Zr O 1_554 . 180.0(5)
O Zr O 1_554 5_455 90
O Zr O 1_554 5_555 90
O Zr O 1_554 9_545 90
O Zr O 1_554 9_555 90
O Zr O . 5_455 90
O Zr O . 5_555 90
O Zr O . 9_545 90
O Zr O . 9_555 90
O Zr O 5_455 5_555 180.0(5)
O Zr O 5_455 9_545 90
O Zr O 5_455 9_555 90
O Zr O 5_555 9_545 90
O Zr O 5_555 9_555 90
O Zr O 9_545 9_555 180.0(5)
O Nb O 1_554 . 180.0(5)
O Nb O 1_554 5_455 90
O Nb O 1_554 5_555 90
O Nb O 1_554 9_545 90
O Nb O 1_554 9_555 90
O Nb O . 5_455 90
O Nb O . 5_555 90
O Nb O . 9_545 90
O Nb O . 9_555 90
O Nb O 5_455 5_555 180.0(5)
O Nb O 5_455 9_545 90
O Nb O 5_455 9_555 90
O Nb O 5_555 9_545 90
O Nb O 5_555 9_555 90
O Nb O 9_545 9_555 180.0(5)
loop_
_geom_bond_atom_site_label_1
_geom_bond_atom_site_label_2
_geom_bond_site_symmetry_2
_geom_bond_distance
Sr O . 2.7878
Sr O 1_565 2.7878
Sr O 1_655 2.7878
Sr O 1_665 2.7878
Sr O 5_555 2.7878
Sr O 5_556 2.7878
Sr O 5_565 2.7878
Sr O 5_566 2.7878
Sr O 9_555 2.7878
Sr O 9_556 2.7878
Sr O 9_655 2.7878
Sr O 9_656 2.7878
Ti O 1_554 1.9713
Ti O . 1.9713
Ti O 5_455 1.9713
Ti O 5_555 1.9713
Ti O 9_545 1.9713
Ti O 9_555 1.9713
Zr O 1_554 1.9713
Zr O . 1.9713
Zr O 5_455 1.9713
Zr O 5_555 1.9713
Zr O 9_545 1.9713
Zr O 9_555 1.9713
Nb O 1_554 1.9713
Nb O . 1.9713
Nb O 5_455 1.9713
Nb O 5_555 1.9713
Nb O 9_545 1.9713
Nb O 9_555 1.9713
loop_
_pd_proc_point_id
_pd_proc_2theta_corrected
_pd_proc_intensity_net
_pd_calc_intensity_net
_pd_proc_ls_weight
1 3.8505 4121.70 4326.49 69.80
2 3.8543 4013.90 4324.76 68.70
3 3.8581 4099.90 4323.04 69.60
4 3.8618 3954.20 4321.33 67.70
5 3.8656 3986.40 4319.63 69.00
6 3.8693 4013.00 4317.93 69.20
7 3.8731 3944.20 4316.24 68.60
8 3.8768 4003.20 4314.55 68.20
9 3.8806 4024.70 4312.88 69.40
10 3.8844 3855.90 4311.21 68.20
11 3.8881 4083.40 4309.54 69.70
12 3.8919 3996.70 4307.89 69.00
13 3.8956 4030.00 4306.24 68.60
14 3.8994 3996.70 4304.60 68.70
15 3.9032 4050.60 4302.96 69.80
16 3.9069 3894.60 4301.33 68.10
17 3.9107 4026.90 4299.71 69.60
18 3.9144 4020.50 4298.10 68.90
19 3.9182 3996.00 4296.49 68.70
20 3.9220 4033.00 4294.89 69.40
21 3.9257 3981.60 4293.29 69.20
22 3.9295 3934.10 4291.71 68.60
23 3.9332 4203.30 4290.13 70.40
24 3.9370 4076.20 4288.55 69.60
25 3.9408 4055.80 4286.99 68.50
26 3.9445 3967.20 4285.43 68.60
27 3.9483 4015.90 4283.87 69.70
28 3.9520 3934.20 4282.33 68.70
29 3.9558 4001.90 4280.79 68.80
30 3.9596 4123.20 4279.25 71.30
31 3.9633 3979.90 4277.73 68.80
32 3.9671 4018.00 4276.21 68.80
33 3.9709 4140.20 4274.69 69.90
34 3.9746 3981.40 4273.19 69.30
35 3.9784 4118.30 4271.68 70.10
36 3.9821 4045.90 4270.20 70.00
37 3.9859 4000.20 4268.71 68.20
38 3.9897 3937.40 4267.23 68.90
39 3.9934 3969.50 4265.75 68.60
40 3.9972 3982.60 4264.29 69.90
41 4.0009 4059.00 4262.82 69.90
42 4.0047 4079.20 4261.37 69.60
43 4.0085 4060.30 4259.92 68.90
44 4.0122 3984.70 4258.48 68.90
45 4.0160 4051.40 4257.05 69.60
46 4.0197 4067.20 4255.62 70.00
47 4.0235 4139.80 4254.20 71.30
48 4.0273 3872.60 4252.79 67.90
49 4.0310 4144.90 4251.38 71.10
50 4.0348 4071.50 4249.98 69.60
51 4.0385 4271.30 4248.58 71.90
52 4.0423 3930.60 4247.19 68.60
53 4.0461 4054.10 4245.81 69.20
54 4.0498 3973.30 4244.43 69.60
55 4.0536 4089.60 4243.06 69.90
56 4.0573 4031.20 4241.70 69.90
57 4.0611 4102.50 4240.34 70.30
58 4.0649 3984.60 4238.99 68.70
59 4.0686 4155.30 4237.65 69.50
60 4.0724 3974.80 4236.31 68.70
61 4.0761 4107.00 4234.98 69.90
62 4.0799 3908.00 4233.65 68.50
63 4.0837 4168.20 4232.33 70.40
64 4.0874 4014.90 4231.02 69.10
65 4.0912 4125.00 4229.71 68.90
66 4.0949 3923.20 4228.41 67.50
67 4.0987 4045.00 4227.11 69.40
68 4.1025 3988.00 4225.83 68.90
69 4.1062 4232.30 4224.54 71.70
70 4.1100 4038.00 4223.27 70.40
71 4.1137 4064.30 4222.00 68.60
72 4.1175 4093.90 4220.73 68.40
73 4.1213 4084.90 4219.47 68.30
74 4.1250 4071.30 4218.22 68.10
75 4.1288 4124.20 4216.97 67.90
76 4.1325 3960.70 4215.74 67.00
77 4.1363 4134.00 4214.50 68.40
78 4.1401 4036.90 4213.27 67.70
79 4.1438 4177.50 4212.05 68.30
80 4.1476 4085.90 4210.84 68.10
81 4.1514 4190.00 4209.63 69.30
82 4.1551 3965.20 4208.42 67.30
83 4.1589 4114.90 4207.23 68.30
84 4.1626 4058.00 4206.04 68.20
85 4.1664 4045.90 4204.85 67.70
86 4.1701 4042.10 4203.67 67.80
87 4.1739 4116.10 4202.50 68.50
88 4.1777 4035.70 4201.33 68.20
89 4.1814 4195.40 4200.17 69.10
90 4.1852 4053.90 4199.01 67.40
91 4.1890 4111.10 4197.86 68.20
92 4.1927 4030.90 4196.72 68.30
93 4.1965 4151.10 4195.58 69.30
94 4.2002 4119.30 4194.45 68.90
95 4.2040 4103.90 4193.32 68.00
96 4.2078 4072.20 4192.20 68.50
97 4.2115 4228.40 4191.08 69.30
98 4.2153 4124.00 4189.97 68.60
99 4.2190 4180.60 4188.87 69.90
100 4.2228 4068.30 4187.77 67.70
101 4.2266 4160.10 4186.68 68.90
102 4.2303 3998.10 4185.59 67.50
103 4.2341 4191.70 4184.51 69.20
104 4.2378 4038.00 4183.44 66.80
105 4.2416 4136.50 4182.37 68.80
106 4.2454 4208.80 4181.30 69.20
107 4.2491 3951.80 4180.24 67.40
108 4.2529 4057.70 4179.19 68.10
109 4.2566 4051.10 4178.15 67.80
110 4.2604 3992.50 4177.10 67.50
111 4.2642 4123.80 4176.07 69.10
112 4.2679 4123.30 4175.04 68.90
113 4.2717 4182.40 4174.02 69.40
114 4.2754 3954.20 4173.00 67.40
115 4.2792 4150.40 4171.98 68.80
116 4.2830 4036.00 4170.98 67.80
117 4.2867 4135.70 4169.97 68.20
118 4.2905 4135.90 4168.98 69.30
119 4.2942 4129.50 4167.99 68.60
120 4.2980 3911.30 4167.00 67.10
121 4.3018 4148.80 4166.02 68.50
122 4.3055 4100.00 4165.04 69.20
123 4.3093 4173.90 4164.08 69.80
124 4.3130 4046.50 4163.11 68.00
125 4.3168 4074.10 4162.15 68.40
126 4.3206 3946.60 4161.20 65.80
127 4.3243 4191.50 4160.25 68.50
128 4.3281 4049.30 4159.31 68.10
129 4.3319 4080.50 4158.38 68.20
130 4.3356 4113.60 4157.44 69.10
131 4.3394 4165.90 4156.52 68.90
132 4.3431 4150.20 4155.60 68.20
133 4.3469 4146.00 4154.68 69.20
134 4.3506 3987.30 4153.77 67.80
135 4.3544 4064.50 4152.87 68.20
136 4.3582 4037.10 4151.97 67.90
137 4.3619 4145.90 4151.08 68.70
138 4.3657 4051.60 4150.19 68.40
139 4.3695 4237.00 4149.30 70.40
140 4.3732 4169.80 4148.42 69.60
141 4.3770 4170.10 4147.55 69.70
142 4.3807 4125.70 4146.68 68.80
143 4.3845 4186.90 4145.82 69.50
144 4.3883 4048.70 4144.96 68.40
145 4.3920 4109.50 4144.11 68.80
146 4.3958 4110.80 4143.27 69.20
147 4.3995 4151.40 4142.42 69.60
148 4.4033 4073.70 4141.59 68.50
149 4.4071 4181.90 4140.76 69.30
150 4.4108 4018.30 4139.93 67.90
151 4.4146 4190.00 4139.11 69.50
152 4.4183 4086.60 4138.29 68.60
153 4.4221 4026.60 4137.48 68.50
154 4.4259 4048.60 4136.68 68.30
155 4.4296 4196.80 4135.87 69.40
156 4.4334 4087.60 4135.08 69.00
157 4.4372 4148.10 4134.29 69.20
158 4.4409 4090.40 4133.50 68.30
159 4.4447 4280.80 4132.72 70.80
160 4.4484 4100.60 4131.95 68.90
161 4.4522 4206.00 4131.17 69.70
162 4.4559 4076.20 4130.41 69.50
163 4.4597 4313.40 4129.65 70.90
164 4.4635 4083.00 4128.89 68.50
165 4.4672 4210.30 4128.14 69.70
166 4.4710 4076.10 4127.40 68.70
167 4.4748 4130.40 4126.66 69.30
168 4.4785 4007.00 4125.92 67.20
169 4.4823 4128.20 4125.19 69.40
170 4.4860 4041.80 4124.46 68.30
171 4.4898 4128.70 4123.74 69.30
172 4.4936 4120.10 4123.02 68.90
173 4.4973 4076.30 4122.31 68.30
174 4.5011 4033.50 4121.60 68.80
175 4.5048 4264.70 4120.90 69.20
176 4.5086 4105.90 4120.21 68.90
177 4.5124 4254.20 4119.51 70.30
178 4.5161 4126.70 4118.83 69.40
179 4.5199 4118.60 4118.14 68.70
180 4.5236 4138.30 4117.47 69.50
181 4.5274 4104.50 4116.79 68.50
182 4.5312 4137.70 4116.12 68.80
183 4.5349 4174.50 4115.46 69.20
184 4.5387 4033.10 4114.80 68.00
185 4.5424 4096.30 4114.15 67.70
186 4.5462 4081.70 4113.50 68.10
187 4.5500 4157.70 4112.85 69.40
188 4.5537 4131.90 4112.21 68.60
189 4.5575 4116.70 4111.58 68.60
190 4.5613 4092.40 4110.94 69.10
191 4.5650 4177.50 4110.32 70.50
192 4.5688 3954.10 4109.70 67.50
193 4.5725 4163.10 4109.08 69.50
194 4.5763 4053.70 4108.47 69.30
195 4.5800 4248.00 4107.86 69.80
196 4.5838 3959.90 4107.26 67.20
197 4.5876 4263.40 4106.66 70.60
198 4.5913 4116.00 4106.06 70.20
199 4.5951 4091.10 4105.48 69.10
200 4.5988 4107.10 4104.89 68.90
201 4.6026 4191.60 4104.31 69.10
202 4.6064 4087.30 4103.73 67.50
203 4.6101 4268.40 4103.16 70.40
204 4.6139 4080.50 4102.59 68.90
205 4.6177 4115.70 4102.03 69.10
206 4.6214 4092.30 4101.47 68.60
207 4.6252 4229.40 4100.92 69.40
208 4.6289 4172.00 4100.37 68.90
209 4.6327 4220.40 4099.83 70.00
210 4.6365 4129.10 4099.29 68.40
211 4.6402 4158.90 4098.75 68.70
212 4.6440 4083.30 4098.22 68.00
213 4.6477 4307.10 4097.69 70.30
214 4.6515 4138.90 4097.17 69.50
215 4.6553 4113.40 4096.65 68.60
216 4.6590 4100.20 4096.14 68.80
217 4.6628 4136.90 4095.63 68.60
218 4.6665 4146.10 4095.13 69.40
219 4.6703 4077.00 4094.62 68.80
220 4.6741 4180.10 4094.13 69.20
221 4.6778 4167.00 4093.63 69.30
222 4.6816 4023.00 4093.15 67.30
223 4.6853 4098.80 4092.66 68.60
224 4.6891 4111.50 4092.18 69.00
225 4.6929 4136.20 4091.71 69.50
226 4.6966 4095.90 4091.24 68.80
227 4.7004 4245.50 4090.77 70.30
228 4.7042 4048.00 4090.31 68.60
229 4.7079 4273.30 4089.85 69.80
230 4.7117 4124.70 4089.40 67.50
231 4.7154 4190.10 4088.95 69.60
232 4.7192 4095.00 4088.50 67.10
233 4.7229 4226.20 4088.06 70.30
234 4.7267 4198.20 4087.63 68.90
235 4.7342 4168.90 4086.76 69.70
236 4.7418 4043.80 4085.92 68.50
237 4.7455 4310.30 4085.50 71.40
238 4.7493 4205.60 4085.09 69.70
239 4.7530 4314.10 4084.68 71.10
240 4.7568 4049.80 4084.28 67.80
241 4.7606 4280.20 4083.88 70.80
242 4.7643 4122.60 4083.48 69.40
243 4.7681 4281.30 4083.09 70.60
244 4.7718 4185.40 4082.70 69.70
245 4.7756 4237.30 4082.32 70.30
246 4.7794 4255.80 4081.94 70.50
247 4.7831 4269.60 4081.56 70.70
248 4.7869 4177.60 4081.19 69.20
249 4.7906 4223.30 4080.82 69.90
250 4.7944 4203.70 4080.46 69.60
251 4.7982 4154.20 4080.10 69.80
252 4.8019 4170.20 4079.74 69.50
253 4.8057 4260.10 4079.39 71.50
254 4.8095 4247.00 4079.04 70.70
255 4.8132 4314.70 4078.70 71.70
256 4.8170 4138.30 4078.36 69.10
257 4.8207 4189.50 4078.02 69.70
258 4.8245 4055.70 4077.69 69.00
259 4.8282 4162.10 4077.36 69.60
260 4.8320 4221.30 4077.04 70.70
261 4.8358 4120.20 4076.72 70.20
262 4.8395 4082.90 4076.40 69.10
263 4.8433 4317.00 4076.09 70.30
264 4.8471 4165.40 4075.78 69.80
265 4.8508 4300.70 4075.47 71.00
266 4.8546 4122.40 4075.17 69.10
267 4.8583 4152.10 4074.87 69.60
268 4.8621 4116.30 4074.58 69.50
269 4.8658 4313.80 4074.29 70.80
270 4.8696 4040.30 4074.00 68.70
271 4.8734 4281.60 4073.72 70.20
272 4.8771 4113.80 4073.44 68.80
273 4.8809 4203.80 4073.17 69.30
274 4.8847 4154.10 4072.89 70.30
275 4.8884 4208.80 4072.63 69.50
276 4.8922 4034.20 4072.36 68.50
277 4.8959 4149.20 4072.10 69.80
278 4.8997 4122.70 4071.85 69.80
279 4.9035 4300.50 4071.59 70.70
280 4.9072 4237.50 4071.34 70.60
281 4.9110 4197.00 4071.10 69.20
282 4.9147 4101.10 4070.86 68.70
283 4.9185 4258.50 4070.62 69.30
284 4.9223 4098.60 4070.38 69.30
285 4.9260 4271.90 4070.15 70.40
286 4.9298 4149.80 4069.93 69.60
287 4.9335 4259.90 4069.70 71.00
288 4.9373 4244.50 4069.48 70.30
289 4.9411 4174.00 4069.27 69.80
290 4.9448 4142.40 4069.05 69.10
291 4.9486 4191.40 4068.84 70.20
292 4.9523 4133.20 4068.64 69.20
293 4.9561 4232.40 4068.43 70.30
294 4.9599 4077.10 4068.23 68.80
295 4.9636 4226.50 4068.04 70.70
296 4.9674 4231.70 4067.85 69.80
297 4.9711 4216.50 4067.66 69.70
298 4.9749 4227.50 4067.47 70.00
299 4.9787 4149.10 4067.29 69.30
300 4.9824 4179.00 4067.12 69.00
301 4.9862 4308.80 4066.94 70.80
302 4.9900 4131.20 4066.77 69.40
303 4.9937 4072.70 4066.60 69.00
304 4.9975 4075.50 4066.44 69.20
305 5.0012 4285.10 4066.28 70.90
306 5.0050 4232.00 4066.12 70.20
307 5.0087 4317.90 4065.97 72.10
308 5.0125 4288.90 4065.82 71.00
309 5.0163 4316.10 4065.67 71.40
310 5.0200 4174.20 4065.53 69.60
311 5.0238 4238.30 4065.39 70.60
312 5.0276 4071.00 4065.25 69.40
313 5.0313 4330.50 4065.12 71.60
314 5.0351 4160.70 4064.99 70.00
315 5.0388 4244.40 4064.86 70.40
316 5.0426 4084.40 4064.73 69.50
317 5.0464 4182.00 4064.61 70.70
318 5.0501 4163.10 4064.50 70.00
319 5.0539 4241.20 4064.38 70.20
320 5.0576 4134.50 4064.27 69.30
321 5.0614 4302.60 4064.17 70.60
322 5.0652 3944.50 4064.06 67.80
323 5.0689 4300.50 4063.96 71.20
324 5.0727 4221.70 4063.86 70.40
325 5.0764 4260.10 4063.77 71.70
326 5.0802 4203.40 4063.68 70.30
327 5.0840 4244.70 4063.59 70.80
328 5.0877 4130.70 4063.51 69.40
329 5.0915 4260.30 4063.43 69.80
330 5.0952 4197.80 4063.35 71.20
331 5.0990 4359.20 4063.27 72.20
332 5.1028 4202.30 4063.20 71.50
333 5.1065 4366.50 4063.13 71.50
334 5.1103 4111.30 4063.07 69.30
335 5.1140 4088.50 4063.00 69.70
336 5.1178 4238.80 4062.95 70.00
337 5.1216 4218.60 4062.89 70.60
338 5.1253 4157.00 4062.84 70.30
339 5.1291 4263.00 4062.79 71.80
340 5.1328 4202.30 4062.74 70.70
341 5.1366 4214.00 4062.70 69.90
342 5.1404 4254.10 4062.66 70.20
343 5.1441 4300.60 4062.62 71.20
344 5.1479 3928.80 4062.58 68.60
345 5.1516 4246.60 4062.55 71.30
346 5.1554 4313.80 4062.52 71.50
347 5.1592 4239.70 4062.50 70.60
348 5.1629 4228.30 4062.48 71.60
349 5.1667 4232.90 4062.46 71.40
350 5.1705 4091.10 4062.44 68.60
351 5.1742 4305.70 4062.43 72.20
352 5.1780 4192.60 4062.42 71.10
353 5.1817 4217.80 4062.41 71.10
354 5.1855 4309.40 4062.41 71.80
355 5.1892 4275.80 4062.40 72.20
356 5.1930 4145.60 4062.41 69.90
357 5.1968 4292.70 4062.41 72.40
358 5.2005 4117.40 4062.42 69.60
359 5.2043 4180.40 4062.43 70.10
360 5.2080 4265.90 4062.44 70.60
361 5.2118 4286.30 4062.46 71.50
362 5.2156 4189.50 4062.48 70.20
363 5.2193 4190.10 4062.50 70.40
364 5.2231 4262.70 4062.52 70.80
365 5.2269 4314.40 4062.55 71.80
366 5.2306 4182.10 4062.58 70.80
367 5.2344 4293.40 4062.62 69.80
368 5.2381 4097.40 4062.65 68.20
369 5.2419 4250.40 4062.69 71.10
370 5.2456 4181.20 4062.73 70.30
371 5.2494 4330.00 4062.78 70.60
372 5.2532 4234.40 4062.83 70.60
373 5.2569 4286.40 4062.88 71.60
374 5.2607 4082.10 4062.93 69.30
375 5.2645 4206.80 4062.98 70.10
376 5.2682 4138.60 4063.04 69.90
377 5.2720 4333.80 4063.11 71.40
378 5.2757 4222.00 4063.17 70.30
379 5.2795 4352.00 4063.24 71.70
380 5.2832 4099.10 4063.31 70.20
381 5.2870 4304.40 4063.38 69.70
382 5.2908 4268.40 4063.45 70.90
383 5.2945 4292.80 4063.53 71.20
384 5.2983 4119.90 4063.61 69.60
385 5.3021 4179.50 4063.70 69.20
386 5.3058 4208.10 4063.78 69.80
387 5.3096 4360.80 4063.87 71.80
388 5.3133 4174.50 4063.96 69.50
389 5.3171 4229.50 4064.06 70.30
390 5.3208 4189.50 4064.15 70.30
391 5.3246 4338.50 4064.25 70.30
392 5.3284 4163.80 4064.35 69.60
393 5.3321 4386.60 4064.46 72.00
394 5.3359 4175.60 4064.57 70.50
395 5.3397 4326.10 4064.68 71.80
396 5.3434 4178.30 4064.79 70.60
397 5.3472 4288.40 4064.90 70.70
398 5.3509 4251.70 4065.02 70.60
399 5.3547 4314.90 4065.14 71.70
400 5.3584 4095.40 4065.26 69.30
401 5.3622 4253.30 4065.39 70.50
402 5.3660 4253.10 4065.52 71.30
403 5.3697 4365.20 4065.65 72.60
404 5.3735 4068.10 4065.78 69.80
405 5.3773 4127.70 4065.92 70.30
406 5.3810 4336.50 4066.05 72.00
407 5.3848 4222.00 4066.20 69.80
408 5.3885 4193.10 4066.34 69.80
409 5.3923 4223.90 4066.48 72.10
410 5.3960 4086.90 4066.63 70.10
411 5.3998 4342.20 4066.78 71.50
412 5.4036 4112.30 4066.94 69.10
413 5.4073 4310.20 4067.09 70.50
414 5.4111 4157.20 4067.25 70.00
415 5.4149 4311.80 4067.41 72.10
416 5.4186 4195.80 4067.57 70.20
417 5.4224 4258.20 4067.74 71.20
418 5.4261 4114.20 4067.91 68.50
419 5.4299 4332.50 4068.08 69.70
420 5.4337 4171.00 4068.25 70.20
421 5.4374 4205.90 4068.42 69.90
422 5.4412 4257.70 4068.60 71.80
423 5.4449 4254.90 4068.78 70.20
424 5.4487 4056.60 4068.96 68.70
425 5.4524 4203.90 4069.15 70.70
426 5.4562 4225.20 4069.33 71.00
427 5.4600 4464.10 4069.52 72.90
428 5.4637 4214.60 4069.71 70.40
429 5.4675 4228.10 4069.91 71.10
430 5.4712 4134.70 4070.10 69.80
431 5.4750 4203.10 4070.30 69.80
432 5.4788 4159.60 4070.50 70.40
433 5.4825 4202.70 4070.71 70.30
434 5.4863 4278.70 4070.91 70.30
435 5.4900 4343.30 4071.12 72.90
436 5.4938 4180.70 4071.33 70.10
437 5.4976 4200.70 4071.54 69.60
438 5.5013 4254.90 4071.76 71.50
439 5.5051 4309.70 4071.97 70.50
440 5.5088 4266.00 4072.19 71.00
441 5.5126 4200.40 4072.41 71.00
442 5.5164 4141.60 4072.64 69.20
443 5.5201 4346.30 4072.86 72.30
444 5.5239 4078.80 4073.09 70.10
445 5.5276 4382.60 4073.32 72.20
446 5.5314 4073.30 4073.55 69.30
447 5.5352 4257.10 4073.79 71.30
448 5.5389 4099.60 4074.02 68.60
449 5.5427 4229.80 4074.26 70.00
450 5.5464 4107.80 4074.50 69.30
451 5.5502 4201.70 4074.75 70.80
452 5.5540 4263.70 4074.99 71.40
453 5.5577 4372.00 4075.24 71.30
454 5.5615 4123.00 4075.49 69.30
455 5.5652 4295.10 4075.74 69.60
456 5.5690 4111.40 4075.99 68.90
457 5.5728 4195.60 4076.25 69.50
458 5.5765 4195.30 4076.51 70.20
459 5.5803 4254.10 4076.77 69.90
460 5.5840 4185.00 4077.03 69.20
461 5.5878 4362.60 4077.30 70.60
462 5.5915 4279.60 4077.56 70.10
463 5.5953 4275.80 4077.83 70.00
464 5.5991 4241.90 4078.10 69.90
465 5.6028 4286.90 4078.37 69.50
466 5.6066 4266.70 4078.65 70.10
467 5.6104 4317.60 4078.93 70.50
468 5.6141 4250.90 4079.20 70.30
469 5.6179 4370.50 4079.49 71.00
470 5.6216 4289.30 4079.77 70.30
471 5.6254 4414.90 4080.05 71.10
472 5.6291 4020.00 4080.34 68.00
473 5.6329 4336.10 4080.63 70.80
474 5.6367 4165.40 4080.92 69.60
475 5.6404 4303.70 4081.21 70.60
476 5.6442 4248.70 4081.51 69.60
477 5.6479 4319.90 4081.80 70.60
478 5.6517 4168.10 4082.10 68.70
479 5.6555 4289.70 4082.40 70.60
480 5.6592 4144.20 4082.71 69.00
481 5.6630 4293.90 4083.01 70.50
482 5.6667 4314.10 4083.32 70.50
483 5.6705 4246.60 4083.62 70.70
484 5.6743 4207.80 4083.94 70.30
485 5.6780 4278.30 4084.25 70.00
486 5.6818 4149.80 4084.56 69.40
487 5.6855 4378.40 4084.88 71.20
488 5.6893 4328.30 4085.20 71.90
489 5.6930 4240.10 4085.51 70.50
490 5.6968 4172.20 4085.84 69.50
491 5.7006 4210.90 4086.16 68.90
492 5.7043 4211.40 4086.49 69.40
493 5.7081 4189.00 4086.81 69.10
494 5.7119 4164.20 4087.14 70.30
495 5.7156 4227.00 4087.47 70.30
496 5.7194 4364.00 4087.81 71.50
497 5.7231 4299.10 4088.14 70.80
498 5.7269 4229.80 4088.48 70.20
499 5.7306 4396.40 4088.81 70.00
500 5.7344 4029.00 4089.15 68.90
501 5.7382 4371.50 4089.50 71.10
502 5.7419 4268.10 4089.84 70.40
503 5.7457 4272.60 4090.19 69.40
504 5.7494 4123.00 4090.53 68.30
505 5.7532 4332.90 4090.88 71.00
506 5.7570 4241.90 4091.23 70.20
507 5.7607 4300.20 4091.58 71.20
508 5.7645 4207.70 4091.94 70.70
509 5.7682 4327.50 4092.29 71.20
510 5.7720 4189.70 4092.65 70.50
511 5.7758 4348.30 4093.01 71.20
512 5.7795 4178.90 4093.37 68.90
513 5.7833 4211.20 4093.73 69.90
514 5.7870 4177.50 4094.10 70.20
515 5.7908 4215.00 4094.47 70.30
516 5.7945 4133.90 4094.83 69.20
517 5.7983 4447.40 4095.20 71.60
518 5.8021 4179.60 4095.57 69.70
519 5.8058 4325.90 4095.95 70.80
520 5.8096 4171.30 4096.32 70.20
521 5.8133 4290.00 4096.70 70.60
522 5.8171 4230.10 4097.07 70.80
523 5.8209 4313.40 4097.45 70.70
524 5.8246 4160.70 4097.84 70.00
525 5.8284 4299.50 4098.22 69.70
526 5.8321 4199.70 4098.60 69.30
527 5.8359 4390.00 4098.99 71.80
528 5.8397 4171.00 4099.38 70.40
529 5.8434 4499.70 4099.76 73.50
530 5.8472 4302.60 4100.16 71.70
531 5.8509 4367.70 4100.55 72.10
532 5.8547 4188.50 4100.94 69.80
533 5.8584 4215.60 4101.34 69.80
534 5.8622 4239.80 4101.73 69.60
535 5.8660 4486.30 4102.13 73.00
536 5.8697 4303.20 4102.53 69.60
537 5.8735 4183.30 4102.93 69.50
538 5.8772 4168.60 4103.34 70.20
539 5.8810 4438.20 4103.74 72.20
540 5.8848 4201.50 4104.15 70.00
541 5.8885 4397.70 4104.56 71.80
542 5.8923 4228.90 4104.97 70.20
543 5.8960 4268.00 4105.38 70.80
544 5.8998 4133.40 4105.79 70.40
545 5.9036 4222.90 4106.20 69.40
546 5.9073 4180.40 4106.62 70.30
547 5.9111 4440.80 4107.04 72.00
548 5.9148 4177.50 4107.45 70.30
549 5.9186 4411.70 4107.87 71.90
550 5.9223 4179.40 4108.29 69.30
551 5.9261 4352.90 4108.72 71.40
552 5.9299 4186.40 4109.14 69.90
553 5.9336 4301.10 4109.57 70.90
554 5.9374 4150.40 4109.99 70.00
555 5.9411 4289.30 4110.42 70.90
556 5.9449 4070.50 4110.85 69.10
557 5.9487 4243.10 4111.28 70.90
558 5.9524 4164.00 4111.72 69.50
559 5.9562 4213.50 4112.15 69.80
560 5.9599 4283.80 4112.58 70.80
561 5.9637 4279.00 4113.02 70.00
562 5.9675 4104.40 4113.46 69.90
563 5.9712 4168.70 4113.90 70.00
564 5.9750 4083.60 4114.34 68.80
565 5.9787 4232.10 4114.78 70.30
566 5.9825 4278.90 4115.23 71.30
567 5.9862 4406.90 4115.67 72.20
568 5.9900 4220.10 4116.12 71.10
569 5.9938 4253.40 4116.57 69.80
570 5.9975 4327.10 4117.01 71.20
571 6.0013 4350.70 4117.46 71.70
572 6.0050 4264.00 4117.92 71.60
573 6.0088 4292.70 4118.37 70.90
574 6.0125 4322.80 4118.82 72.30
575 6.0163 4384.50 4119.28 72.80
576 6.0201 4275.80 4119.74 71.60
577 6.0238 4282.80 4120.19 71.20
578 6.0276 4230.30 4120.65 69.80
579 6.0313 4349.20 4121.11 71.50
580 6.0351 4242.50 4121.58 71.20
581 6.0389 4362.50 4122.04 71.50
582 6.0426 4273.70 4122.50 69.50
583 6.0464 4329.40 4122.97 69.10
584 6.0501 4209.00 4123.44 69.60
585 6.0539 4352.30 4123.90 71.30
586 6.0577 4220.30 4124.37 69.50
587 6.0614 4488.30 4124.84 72.50
588 6.0652 4157.70 4125.32 68.90
589 6.0689 4382.30 4125.79 71.30
590 6.0727 4321.70 4126.26 70.90
591 6.0764 4389.10 4126.74 71.10
592 6.0802 4142.90 4127.22 68.80
593 6.0840 4261.50 4127.69 71.00
594 6.0877 4210.60 4128.17 69.40
595 6.0915 4315.60 4128.65 70.60
596 6.0952 4254.30 4129.13 70.90
597 6.0990 4310.00 4129.62 70.70
598 6.1027 4219.00 4130.10 69.20
599 6.1065 4316.40 4130.58 71.00
600 6.1103 4180.40 4131.07 70.00
601 6.1140 4343.20 4131.56 70.50
602 6.1178 4256.70 4132.05 70.70
603 6.1215 4334.90 4132.54 70.60
604 6.1253 4233.30 4133.03 70.60
605 6.1290 4295.80 4133.52 70.70
606 6.1328 4149.00 4134.01 69.30
607 6.1366 4369.70 4134.51 70.40
608 6.1403 4131.60 4135.00 68.90
609 6.1441 4390.10 4135.50 71.30
610 6.1478 4228.90 4135.99 70.30
611 6.1516 4264.40 4136.49 70.00
612 6.1554 4236.50 4136.99 69.80
613 6.1591 4397.00 4137.49 71.30
614 6.1629 4267.90 4137.99 70.80
615 6.1666 4342.80 4138.50 69.90
616 6.1704 4209.00 4139.00 70.70
617 6.1741 4286.30 4139.50 70.40
618 6.1779 4174.60 4140.01 69.20
619 6.1817 4346.90 4140.52 70.60
620 6.1854 4121.30 4141.02 70.00
621 6.1892 4415.00 4141.53 72.30
622 6.1929 4316.60 4142.04 70.70
623 6.1967 4282.60 4142.55 70.90
624 6.2004 4208.90 4143.06 69.30
625 6.2042 4245.90 4143.58 69.70
626 6.2080 4326.10 4144.09 70.10
627 6.2117 4325.20 4144.61 72.30
628 6.2155 4306.00 4145.12 71.60
629 6.2192 4341.20 4145.64 70.60
630 6.2230 4240.90 4146.16 70.50
631 6.2267 4385.60 4146.67 71.20
632 6.2305 4153.90 4147.19 69.50
633 6.2343 4316.60 4147.71 71.20
634 6.2380 4257.80 4148.24 70.80
635 6.2418 4339.50 4148.76 70.60
636 6.2455 4277.90 4149.28 70.40
637 6.2493 4190.90 4149.81 69.10
638 6.2530 4314.80 4150.33 71.50
639 6.2568 4243.90 4150.86 70.30
640 6.2606 4146.50 4151.39 69.50
641 6.2643 4306.70 4151.91 70.80
642 6.2681 4322.60 4152.44 71.20
643 6.2718 4278.30 4152.97 70.70
644 6.2756 4114.40 4153.50 69.00
645 6.2794 4244.40 4154.03 69.80
646 6.2831 4278.60 4154.57 70.70
647 6.2869 4366.90 4155.10 71.30
648 6.2906 4191.80 4155.63 69.70
649 6.2944 4375.20 4156.17 72.00
650 6.2981 4267.20 4156.70 70.30
651 6.3019 4289.30 4157.24 70.70
652 6.3057 4177.90 4157.78 69.60
653 6.3094 4285.90 4158.32 70.30
654 6.3132 4202.50 4158.86 69.90
655 6.3169 4330.70 4159.40 70.90
656 6.3207 4202.50 4159.94 70.40
657 6.3244 4340.20 4160.48 70.30
658 6.3282 4318.70 4161.02 71.30
659 6.3320 4351.80 4161.57 71.20
660 6.3357 4265.90 4162.11 70.30
661 6.3395 4397.80 4162.65 70.90
662 6.3432 4239.90 4163.20 70.10
663 6.3470 4424.10 4163.75 71.50
664 6.3507 4324.90 4164.29 71.00
665 6.3545 4445.50 4164.84 72.10
666 6.3583 4195.10 4165.39 70.30
667 6.3620 4492.60 4165.94 73.10
668 6.3658 4279.50 4166.49 70.80
669 6.3695 4255.10 4167.04 70.50
670 6.3733 4184.30 4167.60 69.50
671 6.3770 4425.40 4168.15 72.30
672 6.3808 4306.00 4168.70 70.90
673 6.3846 4347.00 4169.26 71.30
674 6.3883 4284.20 4169.81 70.70
675 6.3921 4366.80 4170.37 71.40
676 6.3958 4146.60 4170.92 69.20
677 6.3996 4342.90 4171.48 71.90
678 6.4033 4173.10 4172.04 69.90
679 6.4071 4466.60 4172.60 72.70
680 6.4109 4192.70 4173.16 69.90
681 6.4146 4294.30 4173.72 69.40
682 6.4184 4314.30 4174.28 71.10
683 6.4221 4227.90 4174.84 70.70
684 6.4259 4225.30 4175.40 70.60
685 6.4296 4344.90 4175.96 71.10
686 6.4334 4248.70 4176.53 70.70
687 6.4372 4326.20 4177.09 71.30
688 6.4409 4278.00 4177.66 70.40
689 6.4447 4400.40 4178.22 71.40
690 6.4484 4300.70 4178.79 71.20
691 6.4522 4303.70 4179.35 71.20
692 6.4559 4339.20 4179.92 71.30
693 6.4597 4340.60 4180.49 71.50
694 6.4634 4289.50 4181.06 70.70
695 6.4672 4337.50 4181.62 71.30
696 6.4710 4207.10 4182.19 70.50
697 6.4747 4242.80 4182.77 70.50
698 6.4785 4160.30 4183.34 69.60
699 6.4822 4424.40 4183.91 72.30
700 6.4860 4213.60 4184.48 70.10
701 6.4897 4301.50 4185.05 70.70
702 6.4935 4270.30 4185.63 70.90
703 6.4973 4289.50 4186.20 70.30
704 6.5010 4313.20 4186.77 70.90
705 6.5048 4196.50 4187.35 69.60
706 6.5085 4307.90 4187.92 71.50
707 6.5123 4345.60 4188.50 71.00
708 6.5160 4196.70 4189.08 70.40
709 6.5198 4374.70 4189.66 70.60
710 6.5236 4299.90 4190.23 70.90
711 6.5273 4376.00 4190.81 71.30
712 6.5311 4306.30 4191.39 70.90
713 6.5348 4318.20 4191.97 70.40
714 6.5386 4109.90 4192.55 68.80
715 6.5423 4273.20 4193.13 70.50
716 6.5461 4322.90 4193.71 71.10
717 6.5498 4417.20 4194.29 71.70
718 6.5536 4118.80 4194.88 68.90
719 6.5574 4311.50 4195.46 71.20
720 6.5611 4207.60 4196.04 69.50
721 6.5649 4387.50 4196.63 71.20
722 6.5686 4298.40 4197.21 70.60
723 6.5724 4308.90 4197.79 70.70
724 6.5761 4228.70 4198.38 70.10
725 6.5799 4384.70 4198.96 72.00
726 6.5837 4409.80 4199.55 71.60
727 6.5874 4291.30 4200.14 70.60
728 6.5912 4260.00 4200.72 70.10
729 6.5949 4286.10 4201.31 70.80
730 6.5987 4249.80 4201.90 70.50
731 6.6024 4277.00 4202.49 69.90
732 6.6062 4148.00 4203.08 69.50
733 6.6099 4285.40 4203.67 70.80
734 6.6137 4241.20 4204.26 70.30
735 6.6175 4342.80 4204.85 70.60
736 6.6212 4141.70 4205.44 69.80
737 6.6250 4344.90 4206.03 70.80
738 6.6287 4297.40 4206.62 70.60
739 6.6325 4292.50 4207.21 70.40
740 6.6362 4271.40 4207.80 70.80
741 6.6400 4377.70 4208.40 71.70
742 6.6438 4280.50 4208.99 70.90
743 6.6475 4322.00 4209.58 70.40
744 6.6513 4209.70 4210.18 70.10
745 6.6550 4392.40 4210.77 71.60
746 6.6588 4359.40 4211.36 71.00
747 6.6625 4239.10 4211.96 71.30
748 6.6700 4420.00 4213.15 71.40
749 6.6738 4245.70 4213.75 69.80
750 6.6775 4312.20 4214.34 70.50
751 6.6813 4263.50 4214.94 70.90
752 6.6851 4389.10 4215.54 71.50
753 6.6888 4185.10 4216.13 70.10
754 6.6926 4326.70 4216.73 71.10
755 6.6963 4190.40 4217.33 69.60
756 6.7001 4229.50 4217.93 70.20
757 6.7038 4267.90 4218.53 70.10
758 6.7076 4432.20 4219.12 71.60
759 6.7113 4212.90 4219.73 70.10
760 6.7151 4320.00 4220.32 70.90
761 6.7189 4261.10 4220.92 70.60
762 6.7226 4297.60 4221.52 70.90
763 6.7264 4125.40 4222.12 69.30
764 6.7301 4258.70 4222.73 69.60
765 6.7339 4141.90 4223.33 69.60
766 6.7376 4346.80 4223.93 71.20
767 6.7414 4304.00 4224.53 70.80
768 6.7451 4424.30 4225.13 72.00
769 6.7489 4307.80 4225.73 71.70
770 6.7527 4395.00 4226.34 72.10
771 6.7564 4251.00 4226.94 69.90
772 6.7602 4358.90 4227.54 71.50
773 6.7639 4175.80 4228.15 69.40
774 6.7677 4339.60 4228.75 71.30
775 6.7714 4255.70 4229.35 71.00
776 6.7752 4330.80 4229.96 71.80
777 6.7789 4320.00 4230.56 71.30
778 6.7827 4246.60 4231.17 68.60
779 6.7864 4145.90 4231.77 69.70
780 6.7902 4317.70 4232.38 71.00
781 6.7940 4201.30 4232.98 69.10
782 6.7977 4353.10 4233.59 71.10
783 6.8015 4204.30 4234.19 69.30
784 6.8052 4338.70 4234.80 71.20
785 6.8090 4229.80 4235.40 71.10
786 6.8127 4230.00 4236.01 70.30
787 6.8165 4257.70 4236.62 70.80
788 6.8203 4285.20 4237.22 70.70
789 6.8240 4257.60 4237.83 70.90
790 6.8278 4294.20 4238.44 70.60
791 6.8315 4099.10 4239.04 69.00
792 6.8353 4288.10 4239.65 71.20
793 6.8390 4236.70 4240.26 69.40
794 6.8428 4212.90 4240.87 70.90
795 6.8465 4271.50 4241.47 71.30
796 6.8503 4268.80 4242.08 69.10
797 6.8540 4275.40 4242.69 70.60
798 6.8578 4416.90 4243.30 71.80
799 6.8615 4228.00 4243.91 70.50
800 6.8653 4239.70 4244.52 69.40
801 6.8691 4201.20 4245.12 70.80
802 6.8728 4366.80 4245.73 72.30
803 6.8766 4179.90 4246.34 70.60
804 6.8803 4461.70 4246.95 73.00
805 6.8841 4258.30 4247.56 70.30
806 6.8878 4348.90 4248.17 71.20
807 6.8916 4242.10 4248.78 70.90
808 6.8953 4363.90 4249.39 71.20
809 6.8991 4137.80 4250.00 69.20
810 6.9029 4337.90 4250.61 71.20
811 6.9066 4172.00 4251.22 70.30
812 6.9104 4307.00 4251.83 69.90
813 6.9141 4238.60 4252.44 70.90
814 6.9179 4204.30 4253.05 70.70
815 6.9216 4287.50 4253.66 71.80
816 6.9254 4401.40 4254.27 72.20
817 6.9291 4261.50 4254.88 70.60
818 6.9329 4256.00 4255.49 70.10
819 6.9366 4207.00 4256.10 71.20
820 6.9404 4275.20 4256.71 71.50
821 6.9479 4350.70 4257.93 72.30
822 6.9554 4255.80 4259.15 70.80
823 6.9592 4100.10 4259.77 69.50
824 6.9629 4225.40 4260.38 70.40
825 6.9667 4128.30 4260.99 69.20
826 6.9704 4312.80 4261.60 70.20
827 6.9742 4350.10 4262.21 71.60
828 6.9772 4475.70 4262.71 72.80
829 6.9810 4277.60 4263.32 70.70
830 6.9847 4235.00 4263.93 70.10
831 6.9885 4321.50 4264.54 71.40
832 6.9923 4185.40 4265.15 69.40
833 6.9960 4246.40 4265.76 70.30
834 6.9998 4335.20 4266.38 70.80
835 7.0035 4239.90 4266.99 70.90
836 7.0073 4398.90 4267.60 71.40
837 7.0110 4236.80 4268.21 70.80
838 7.0148 4197.90 4268.82 69.00
839 7.0185 4131.40 4269.43 69.40
840 7.0223 4248.00 4270.04 70.20
841 7.0261 4202.00 4270.66 70.00
842 7.0298 4360.10 4271.27 70.70
843 7.0336 4162.10 4271.88 69.30
844 7.0373 4340.90 4272.49 71.10
845 7.0411 4220.50 4273.10 70.20
846 7.0448 4367.70 4273.71 71.30
847 7.0486 4237.20 4274.32 69.90
848 7.0524 4348.30 4274.93 71.60
849 7.0561 4256.50 4275.55 69.90
850 7.0599 4284.10 4276.16 70.30
851 7.0636 4197.60 4276.77 69.70
852 7.0674 4160.90 4277.38 69.40
853 7.0711 4242.80 4277.99 70.20
854 7.0749 4363.20 4278.60 71.80
855 7.0786 4281.70 4279.21 70.50
856 7.0824 4327.60 4279.82 70.90
857 7.0862 4321.30 4280.43 70.70
858 7.0899 4296.30 4281.04 70.90
859 7.0937 4204.10 4281.65 70.10
860 7.0974 4268.10 4282.26 69.90
861 7.1012 4259.60 4282.87 70.50
862 7.1049 4403.40 4283.48 71.90
863 7.1087 4168.20 4284.09 69.70
864 7.1125 4225.20 4284.70 69.60
865 7.1162 4199.20 4285.31 70.40
866 7.1200 4321.90 4285.92 70.60
867 7.1237 4383.20 4286.53 71.40
868 7.1275 4352.70 4287.14 70.90
869 7.1312 4295.90 4287.75 71.10
870 7.1350 4261.40 4288.36 70.70
871 7.1388 4254.00 4288.97 70.70
872 7.1425 4209.60 4289.58 69.40
873 7.1463 4193.40 4290.19 70.00
874 7.1500 4356.90 4290.79 71.30
875 7.1538 4244.10 4291.40 70.00
876 7.1575 4321.40 4292.01 72.00
877 7.1650 4348.00 4293.23 70.80
878 7.1688 4148.00 4293.83 68.90
879 7.1726 4281.20 4294.44 70.20
880 7.1763 4305.60 4295.05 71.30
881 7.1801 4248.80 4295.66 70.30
882 7.1838 4159.60 4296.26 69.80
883 7.1876 4369.30 4296.87 71.50
884 7.1913 4208.50 4297.48 69.80
885 7.1951 4257.90 4298.08 70.50
886 7.1988 4195.90 4298.69 69.40
887 7.2026 4390.00 4299.30 71.30
888 7.2063 4189.50 4299.90 69.90
889 7.2101 4349.30 4300.51 71.10
890 7.2127 4358.80 4300.92 71.40
891 7.2164 4256.90 4301.53 71.60
892 7.2202 4229.00 4302.13 70.60
893 7.2239 4363.00 4302.74 72.60
894 7.2277 4255.50 4303.34 70.10
895 7.2314 4313.60 4303.95 71.70
896 7.2352 4251.70 4304.55 71.10
897 7.2389 4324.20 4305.15 71.60
898 7.2427 4272.50 4305.76 71.50
899 7.2465 4241.10 4306.36 70.50
900 7.2502 4299.60 4306.96 70.80
901 7.2540 4433.40 4307.57 72.70
902 7.2577 4217.70 4308.17 71.20
903 7.2615 4300.40 4308.77 71.20
904 7.2652 4170.70 4309.38 70.90
905 7.2690 4448.00 4309.98 73.10
906 7.2727 4264.10 4310.58 71.10
907 7.2765 4243.00 4311.18 71.30
908 7.2803 4279.20 4311.78 71.80
909 7.2840 4330.70 4312.38 71.00
910 7.2878 4193.00 4312.99 70.00
911 7.2915 4249.20 4313.58 71.30
912 7.2953 4174.80 4314.19 70.40
913 7.2990 4272.80 4314.79 70.20
914 7.3028 4194.30 4315.39 71.30
915 7.3065 4392.50 4315.98 72.40
916 7.3103 4166.20 4316.58 70.20
917 7.3140 4387.80 4317.18 72.10
918 7.3178 4287.40 4317.78 71.70
919 7.3215 4316.10 4318.38 71.00
920 7.3253 4316.40 4318.98 70.80
921 7.3291 4286.90 4319.58 71.30
922 7.3328 4200.20 4320.17 70.70
923 7.3366 4284.80 4320.77 71.20
924 7.3403 4321.10 4321.37 71.50
925 7.3441 4263.30 4321.96 70.70
926 7.3478 4178.10 4322.56 70.70
927 7.3516 4275.20 4323.16 71.30
928 7.3553 4283.20 4323.75 72.40
929 7.3591 4278.50 4324.35 71.40
930 7.3629 4254.20 4324.94 71.80
931 7.3666 4311.60 4325.54 71.90
932 7.3704 4223.70 4326.13 69.30
933 7.3741 4315.80 4326.73 71.40
934 7.3779 4342.20 4327.32 71.10
935 7.3816 4435.80 4327.91 73.30
936 7.3854 4252.30 4328.51 71.10
937 7.3891 4424.40 4329.10 72.70
938 7.3929 4202.10 4329.69 69.50
939 7.3966 4385.10 4330.28 71.80
940 7.4004 4284.50 4330.87 71.00
941 7.4042 4369.70 4331.47 71.90
942 7.4079 4303.40 4332.06 71.60
943 7.4117 4431.80 4332.65 72.90
944 7.4154 4167.90 4333.24 70.80
945 7.4192 4373.80 4333.83 71.90
946 7.4229 4234.10 4334.42 70.70
947 7.4267 4336.50 4335.01 70.70
948 7.4304 4204.60 4335.59 71.70
949 7.4342 4327.90 4336.18 70.40
950 7.4380 4260.90 4336.77 70.60
951 7.4417 4292.70 4337.36 71.60
952 7.4455 4311.30 4337.95 71.20
953 7.4492 4368.80 4338.53 71.90
954 7.4530 4257.10 4339.12 71.20
955 7.4567 4362.90 4339.70 71.50
956 7.4605 4233.30 4340.29 71.50
957 7.4642 4344.70 4340.87 69.40
958 7.4680 4353.20 4341.46 72.10
959 7.4718 4343.20 4342.04 70.90
960 7.4755 4237.30 4342.63 71.20
961 7.4793 4270.80 4343.21 70.40
962 7.4830 4165.80 4343.79 69.00
963 7.4868 4198.60 4344.38 70.60
964 7.4905 4219.90 4344.96 69.60
965 7.4943 4386.00 4345.54 72.40
966 7.4980 4126.60 4346.12 69.40
967 7.5018 4371.80 4346.70 71.80
968 7.5055 4248.00 4347.28 70.00
969 7.5093 4243.40 4347.86 70.90
970 7.5131 4209.30 4348.45 70.70
971 7.5168 4385.50 4349.02 71.30
972 7.5206 4303.10 4349.60 70.70
973 7.5243 4289.10 4350.18 71.10
974 7.5281 4227.50 4350.76 70.90
975 7.5318 4262.70 4351.34 71.00
976 7.5356 4231.60 4351.91 71.10
977 7.5394 4382.90 4352.49 72.00
978 7.5431 4295.00 4353.07 71.60
979 7.5469 4283.90 4353.64 71.70
980 7.5506 4238.00 4354.22 70.80
981 7.5544 4306.40 4354.79 71.90
982 7.5581 4287.40 4355.37 70.90
983 7.5619 4330.50 4355.94 71.80
984 7.5656 4286.20 4356.51 71.10
985 7.5694 4321.80 4357.08 71.50
986 7.5732 4276.70 4357.66 70.80
987 7.5769 4391.20 4358.23 72.30
988 7.5807 4296.50 4358.80 72.10
989 7.5844 4197.40 4359.37 71.20
990 7.5882 4178.30 4359.94 70.30
991 7.5919 4314.10 4360.51 72.30
992 7.5957 4222.00 4361.08 70.40
993 7.5995 4342.30 4361.65 71.20
994 7.6032 4380.80 4362.22 72.60
995 7.6070 4397.70 4362.79 72.70
996 7.6107 4230.30 4363.35 71.30
997 7.6145 4308.30 4363.92 71.50
998 7.6182 4274.30 4364.49 71.70
999 7.6220 4357.90 4365.05 71.50
1000 7.6257 4197.60 4365.62 70.70
1001 7.6295 4289.30 4366.18 71.90
1002 7.6333 4200.30 4366.75 70.50
1003 7.6370 4440.50 4367.31 72.70
1004 7.6408 4129.30 4367.87 69.40
1005 7.6445 4302.80 4368.44 71.70
1006 7.6483 4183.50 4369.00 69.70
1007 7.6520 4305.90 4369.56 71.50
1008 7.6558 4227.80 4370.12 70.90
1009 7.6596 4270.60 4370.68 72.60
1010 7.6633 4223.00 4371.24 70.50
1011 7.6671 4362.50 4371.80 71.40
1012 7.6708 4262.50 4372.36 71.90
1013 7.6746 4307.40 4372.92 71.80
1014 7.6783 4193.20 4373.47 70.10
1015 7.6821 4340.70 4374.03 71.90
1016 7.6859 4068.90 4374.59 68.70
1017 7.6896 4314.40 4375.14 70.70
1018 7.6934 4320.00 4375.70 70.90
1019 7.6971 4361.90 4376.25 71.70
1020 7.7009 4188.90 4376.81 70.00
1021 7.7046 4166.80 4377.36 69.20
1022 7.7084 4175.90 4377.92 71.20
1023 7.7121 4361.70 4378.47 70.70
1024 7.7159 4225.20 4379.02 69.80
1025 7.7197 4154.20 4379.57 69.90
1026 7.7234 4204.60 4380.12 69.30
1027 7.7272 4374.50 4380.67 71.50
1028 7.7309 4170.70 4381.22 69.90
1029 7.7347 4261.60 4381.77 70.10
1030 7.7384 4259.30 4382.32 71.10
1031 7.7422 4383.40 4382.87 71.40
1032 7.7460 4281.60 4383.41 70.20
1033 7.7497 4255.80 4383.96 71.00
1034 7.7535 4223.20 4384.51 70.10
1035 7.7572 4346.00 4385.05 71.50
1036 7.7610 4340.40 4385.60 71.10
1037 7.7647 4239.00 4386.14 70.40
1038 7.7685 4335.40 4386.68 71.50
1039 7.7723 4369.20 4387.23 71.30
1040 7.7760 4349.60 4387.77 71.50
1041 7.7798 4299.90 4388.31 71.30
1042 7.7835 4267.40 4388.85 70.60
1043 7.7873 4270.00 4389.39 71.10
1044 7.7910 4411.30 4389.93 71.90
1045 7.7948 4375.20 4390.47 71.80
1046 7.7986 4306.50 4391.01 71.20
1047 7.8023 4361.10 4391.55 71.60
1048 7.8061 4291.20 4392.09 71.60
1049 7.8098 4358.10 4392.62 71.50
1050 7.8136 4327.40 4393.16 71.50
1051 7.8173 4279.30 4393.69 70.40
1052 7.8211 4211.70 4394.23 70.40
1053 7.8249 4360.10 4394.76 70.50
1054 7.8286 4099.80 4395.30 69.60
1055 7.8324 4365.00 4395.83 72.30
1056 7.8361 4286.90 4396.36 71.20
1057 7.8399 4313.70 4396.89 71.10
1058 7.8436 4288.00 4397.42 71.40
1059 7.8474 4292.40 4397.95 71.20
1060 7.8512 4281.20 4398.48 71.00
1061 7.8549 4415.60 4399.01 72.30
1062 7.8587 4359.60 4399.54 71.20
1063 7.8624 4399.40 4400.07 71.50
1064 7.8662 4339.80 4400.60 71.70
1065 7.8699 4273.60 4401.12 71.00
1066 7.8737 4251.30 4401.65 70.50
1067 7.8774 4428.80 4402.17 72.60
1068 7.8812 4231.30 4402.70 70.20
1069 7.8850 4428.40 4403.22 72.50
1070 7.8887 4224.40 4403.74 70.20
1071 7.8925 4451.70 4404.26 72.70
1072 7.8962 4204.90 4404.79 70.40
1073 7.9000 4270.90 4405.31 70.70
1074 7.9037 4291.40 4405.83 71.40
1075 7.9075 4156.30 4406.35 69.80
1076 7.9113 4208.90 4406.86 70.50
1077 7.9150 4313.20 4407.38 71.40
1078 7.9188 4118.90 4407.90 68.80
1079 7.9225 4286.10 4408.42 71.70
1080 7.9263 4104.10 4408.93 70.00
1081 7.9300 4254.70 4409.44 70.00
1082 7.9338 4170.90 4409.96 69.60
1083 7.9376 4392.20 4410.47 71.60
1084 7.9413 4173.00 4410.99 69.90
1085 7.9451 4348.60 4411.50 71.10
1086 7.9488 4218.50 4412.01 71.00
1087 7.9526 4433.00 4412.52 73.30
1088 7.9564 4225.20 4413.03 70.20
1089 7.9601 4321.80 4413.54 71.60
1090 7.9639 4320.00 4414.05 71.20
1091 7.9676 4306.40 4414.56 70.20
1092 7.9714 4303.50 4415.06 71.50
1093 7.9751 4440.60 4415.57 72.50
1094 7.9789 4251.80 4416.07 71.10
1095 7.9827 4456.20 4416.58 72.00
1096 7.9864 4243.10 4417.08 70.50
1097 7.9902 4271.60 4417.59 70.90
1098 7.9939 4402.40 4418.09 72.50
1099 7.9977 4413.00 4418.59 72.20
1100 8.0014 4174.00 4419.09 70.60
1101 8.0052 4357.20 4419.59 71.40
1102 8.0090 4345.00 4420.09 71.40
1103 8.0127 4256.80 4420.59 71.80
1104 8.0165 4210.00 4421.09 70.60
1105 8.0202 4255.60 4421.59 71.10
1106 8.0240 4385.20 4422.08 71.90
1107 8.0278 4438.10 4422.58 72.40
1108 8.0315 4400.40 4423.07 72.30
1109 8.0353 4251.90 4423.57 69.70
1110 8.0390 4241.00 4424.06 71.20
1111 8.0428 4249.20 4424.55 71.00
1112 8.0465 4247.10 4425.05 70.30
1113 8.0503 4380.20 4425.54 71.30
1114 8.0541 4201.30 4426.03 70.40
1115 8.0578 4338.40 4426.52 72.20
1116 8.0616 4222.60 4427.01 70.80
1117 8.0653 4427.30 4427.49 72.30
1118 8.0691 4298.00 4427.98 71.80
1119 8.0729 4287.80 4428.47 69.60
1120 8.0766 4355.60 4428.95 72.40
1121 8.0804 4429.50 4429.44 73.10
1122 8.0841 4301.10 4429.92 71.20
1123 8.0879 4344.00 4430.41 72.20
1124 8.0916 4171.10 4430.89 70.40
1125 8.0954 4239.10 4431.37 70.00
1126 8.0991 4227.80 4431.85 70.90
1127 8.1029 4288.60 4432.33 71.10
1128 8.1067 4232.10 4432.81 70.80
1129 8.1104 4310.00 4433.29 71.70
1130 8.1142 4148.90 4433.77 70.50
1131 8.1179 4366.80 4434.24 71.90
1132 8.1217 4286.50 4434.72 71.50
1133 8.1255 4306.90 4435.20 70.30
1134 8.1292 4327.20 4435.67 71.10
1135 8.1330 4337.70 4436.14 71.80
1136 8.1367 4286.10 4436.62 70.80
1137 8.1405 4458.20 4437.09 73.90
1138 8.1442 4223.00 4437.56 70.50
1139 8.1480 4310.70 4438.03 72.20
1140 8.1518 4263.10 4438.50 72.60
1141 8.1555 4327.00 4438.97 68.80
1142 8.1593 4287.80 4439.44 68.80
1143 8.1630 4369.60 4439.90 69.90
1144 8.1668 4239.70 4440.37 69.20
1145 8.1706 4267.50 4440.83 68.90
1146 8.1743 4202.60 4441.30 67.90
1147 8.1781 4369.70 4441.76 68.50
1148 8.1818 4306.70 4442.23 68.40
1149 8.1856 4309.10 4442.69 69.60
1150 8.1894 4299.80 4443.15 69.30
1151 8.1931 4435.50 4443.61 69.50
1152 8.1969 4279.40 4444.07 68.10
1153 8.2006 4312.30 4444.53 69.20
1154 8.2044 4308.70 4444.98 68.10
1155 8.2081 4455.20 4445.44 69.30
1156 8.2119 4205.10 4445.90 68.50
1157 8.2157 4391.20 4446.35 69.80
1158 8.2194 4181.00 4446.81 67.60
1159 8.2232 4329.50 4447.26 69.00
1160 8.2269 4344.20 4447.71 68.70
1161 8.2307 4306.90 4448.17 68.30
1162 8.2345 4309.90 4448.62 68.60
1163 8.2382 4351.50 4449.07 69.50
1164 8.2420 4256.90 4449.52 69.00
1165 8.2457 4254.10 4449.96 68.60
1166 8.2495 4339.30 4450.41 69.10
1167 8.2533 4268.60 4450.86 68.60
1168 8.2570 4211.40 4451.30 67.20
1169 8.2608 4383.80 4451.75 68.90
1170 8.2645 4312.50 4452.19 68.80
1171 8.2683 4333.60 4452.64 69.60
1172 8.2720 4360.50 4453.08 69.80
1173 8.2758 4334.80 4453.52 69.40
1174 8.2796 4324.60 4453.96 68.80
1175 8.2833 4394.80 4454.40 69.70
1176 8.2871 4347.90 4454.84 69.80
1177 8.2908 4336.10 4455.28 69.30
1178 8.2946 4286.00 4455.71 68.70
1179 8.2984 4275.40 4456.15 68.80
1180 8.3021 4343.80 4456.58 69.90
1181 8.3059 4318.40 4457.02 68.50
1182 8.3096 4193.20 4457.45 67.30
1183 8.3134 4301.30 4457.88 69.60
1184 8.3171 4183.80 4458.31 68.10
1185 8.3209 4342.70 4458.75 69.50
1186 8.3247 4189.80 4459.18 68.70
1187 8.3284 4316.60 4459.60 69.20
1188 8.3322 4341.90 4460.03 69.80
1189 8.3359 4219.50 4460.46 68.20
1190 8.3397 4291.00 4460.89 69.30
1191 8.3435 4419.60 4461.31 70.60
1192 8.3472 4246.90 4461.73 68.20
1193 8.3510 4297.60 4462.16 69.50
1194 8.3547 4344.60 4462.58 68.80
1195 8.3585 4377.90 4463.00 69.50
1196 8.3623 4308.90 4463.42 68.60
1197 8.3660 4374.20 4463.84 69.00
1198 8.3698 4315.10 4464.26 68.90
1199 8.3735 4444.50 4464.68 70.70
1200 8.3773 4291.80 4465.10 69.30
1201 8.3810 4359.80 4465.51 70.50
1202 8.3848 4271.90 4465.93 69.20
1203 8.3886 4301.50 4466.34 69.40
1204 8.3923 4302.90 4466.76 69.60
1205 8.3961 4445.80 4467.17 69.90
1206 8.3998 4272.30 4467.58 69.40
1207 8.4036 4366.30 4467.99 69.50
1208 8.4074 4350.50 4468.40 69.70
1209 8.4111 4327.70 4468.81 69.10
1210 8.4149 4369.20 4469.22 70.00
1211 8.4186 4300.50 4469.62 69.40
1212 8.4224 4252.10 4470.03 69.30
1213 8.4262 4465.00 4470.43 70.50
1214 8.4299 4361.10 4470.84 70.30
1215 8.4337 4245.10 4471.24 68.90
1216 8.4374 4262.70 4471.64 69.20
1217 8.4412 4357.60 4472.04 69.90
1218 8.4450 4207.50 4472.44 68.70
1219 8.4487 4346.80 4472.84 70.20
1220 8.4525 4226.80 4473.24 67.90
1221 8.4562 4339.60 4473.64 69.00
1222 8.4600 4397.70 4474.03 69.80
1223 8.4637 4362.20 4474.43 69.80
1224 8.4675 4144.30 4474.82 67.50
1225 8.4713 4284.90 4475.22 69.50
1226 8.4750 4257.20 4475.61 67.80
1227 8.4788 4262.00 4476.00 70.00
1228 8.4825 4160.00 4476.39 67.60
1229 8.4863 4274.20 4476.78 69.10
1230 8.4901 4314.60 4477.17 69.80
1231 8.4938 4387.50 4477.56 70.70
1232 8.4976 4310.00 4477.94 69.90
1233 8.5013 4340.50 4478.33 70.50
1234 8.5051 4386.20 4478.71 69.90
1235 8.5089 4356.00 4479.10 70.30
1236 8.5126 4114.40 4479.48 66.70
1237 8.5164 4356.00 4479.86 69.20
1238 8.5201 4257.20 4480.24 69.30
1239 8.5239 4242.60 4480.62 67.90
1240 8.5276 4183.10 4481.00 68.10
1241 8.5314 4299.40 4481.38 69.00
1242 8.5352 4260.20 4481.76 68.10
1243 8.5389 4409.00 4482.13 70.50
1244 8.5427 4226.70 4482.51 69.00
1245 8.5464 4256.20 4482.88 68.10
1246 8.5502 4330.20 4483.25 69.80
1247 8.5540 4434.50 4483.63 70.70
1248 8.5577 4265.00 4484.00 69.10
1249 8.5615 4296.10 4484.37 69.40
1250 8.5653 4321.90 4484.74 69.50
1251 8.5690 4339.40 4485.11 69.50
1252 8.5728 4223.90 4485.47 69.00
1253 8.5765 4502.50 4485.84 70.80
1254 8.5803 4250.90 4486.20 69.00
1255 8.5840 4450.00 4486.57 71.40
1256 8.5878 4222.70 4486.93 68.30
1257 8.5916 4258.70 4487.29 69.10
1258 8.5953 4237.70 4487.65 68.90
1259 8.5991 4233.30 4488.01 68.60
1260 8.6028 4284.30 4488.37 69.00
1261 8.6066 4372.20 4488.73 70.00
1262 8.6104 4141.20 4489.09 68.10
1263 8.6141 4134.00 4489.44 68.90
1264 8.6179 4206.30 4489.80 68.90
1265 8.6216 4237.40 4490.15 68.70
1266 8.6254 4203.60 4490.51 68.90
1267 8.6292 4455.60 4490.86 71.10
1268 8.6329 4178.60 4491.21 69.50
1269 8.6367 4328.20 4491.56 70.30
1270 8.6404 4337.20 4491.91 69.60
1271 8.6442 4453.30 4492.26 70.70
1272 8.6480 4245.40 4492.60 69.30
1273 8.6517 4331.90 4492.95 70.00
1274 8.6555 4296.20 4493.29 69.40
1275 8.6592 4329.10 4493.64 70.20
1276 8.6630 4193.90 4493.98 69.40
1277 8.6667 4320.80 4494.32 70.20
1278 8.6705 4295.90 4494.66 70.20
1279 8.6743 4313.50 4495.00 69.50
1280 8.6780 4305.40 4495.34 70.50
1281 8.6818 4373.90 4495.68 70.30
1282 8.6855 4433.30 4496.02 72.50
1283 8.6893 4368.30 4496.35 70.50
1284 8.6931 4237.30 4496.69 69.00
1285 8.6968 4347.70 4497.02 69.60
1286 8.7006 4200.40 4497.35 68.50
1287 8.7044 4463.10 4497.68 71.50
1288 8.7081 4260.90 4498.02 68.20
1289 8.7119 4232.60 4498.34 68.80
1290 8.7156 4266.30 4498.67 69.60
1291 8.7194 4229.20 4499.00 69.10
1292 8.7232 4254.00 4499.33 70.40
1293 8.7269 4318.90 4499.65 69.20
1294 8.7307 4348.40 4499.98 70.10
1295 8.7344 4360.30 4500.30 69.90
1296 8.7382 4186.70 4500.62 69.30
1297 8.7420 4387.20 4500.94 70.70
1298 8.7457 4212.10 4501.26 67.70
1299 8.7495 4193.30 4501.58 69.00
1300 8.7532 4302.90 4501.90 69.00
1301 8.7570 4326.00 4502.22 69.80
1302 8.7607 4212.80 4502.53 69.50
1303 8.7645 4312.60 4502.85 70.00
1304 8.7683 4215.90 4503.16 69.40
1305 8.7720 4421.40 4503.48 71.00
1306 8.7758 4248.20 4503.79 69.10
1307 8.7795 4336.00 4504.10 70.00
1308 8.7833 4153.90 4504.41 68.80
1309 8.7871 4343.70 4504.72 69.70
1310 8.7908 4290.20 4505.02 70.10
1311 8.7946 4446.90 4505.33 70.90
1312 8.7984 4162.80 4505.64 68.80
1313 8.8021 4439.90 4505.94 71.70
1314 8.8059 4204.30 4506.24 68.10
1315 8.8096 4193.60 4506.55 69.60
1316 8.8134 4284.70 4506.85 70.20
1317 8.8172 4216.60 4507.15 69.30
1318 8.8209 4317.80 4507.45 69.70
1319 8.8247 4227.40 4507.74 69.20
1320 8.8284 4324.00 4508.04 69.60
1321 8.8322 4334.40 4508.34 69.70
1322 8.8359 4357.60 4508.63 70.50
1323 8.8397 4292.20 4508.93 70.00
1324 8.8435 4288.20 4509.22 69.50
1325 8.8472 4369.10 4509.51 70.30
1326 8.8510 4346.50 4509.80 70.00
1327 8.8547 4282.30 4510.09 69.60
1328 8.8585 4171.30 4510.38 68.50
1329 8.8623 4313.10 4510.67 69.50
1330 8.8660 4187.10 4510.95 68.40
1331 8.8698 4424.80 4511.24 71.30
1332 8.8736 4289.30 4511.52 69.30
1333 8.8773 4430.50 4511.80 70.20
1334 8.8811 4328.70 4512.09 70.10
1335 8.8848 4316.00 4512.37 69.70
1336 8.8886 4196.40 4512.65 68.80
1337 8.8924 4507.90 4512.93 71.60
1338 8.8961 4260.50 4513.20 69.10
1339 8.8999 4349.30 4513.48 69.70
1340 8.9036 4239.20 4513.75 68.70
1341 8.9074 4407.20 4514.03 69.90
1342 8.9111 4150.50 4514.30 68.70
1343 8.9149 4329.60 4514.57 69.30
1344 8.9187 4306.50 4514.85 69.20
1345 8.9224 4307.70 4515.12 70.10
1346 8.9262 4311.80 4515.38 69.40
1347 8.9299 4314.80 4515.65 69.40
1348 8.9337 4238.20 4515.92 68.20
1349 8.9375 4356.40 4516.18 69.20
1350 8.9412 4164.00 4516.45 68.00
1351 8.9450 4355.60 4516.71 69.10
1352 8.9487 4269.60 4516.98 68.60
1353 8.9525 4479.00 4517.24 70.30
1354 8.9563 4213.90 4517.50 67.90
1355 8.9600 4234.80 4517.76 68.50
1356 8.9638 4299.50 4518.01 68.80
1357 8.9676 4394.50 4518.27 69.90
1358 8.9713 4267.50 4518.53 68.20
1359 8.9751 4294.20 4518.78 69.00
1360 8.9788 4271.10 4519.03 68.70
1361 8.9826 4317.40 4519.29 70.10
1362 8.9864 4250.30 4519.54 68.90
1363 8.9901 4281.80 4519.79 70.20
1364 8.9939 4427.20 4520.04 71.50
1365 8.9976 4238.50 4520.29 67.80
1366 9.0014 4300.80 4520.53 68.80
1367 9.0051 4348.40 4520.78 69.10
1368 9.0089 4372.00 4521.02 69.70
1369 9.0127 4218.30 4521.27 67.90
1370 9.0164 4336.20 4521.51 69.00
1371 9.0202 4385.20 4521.75 69.40
1372 9.0240 4210.10 4521.99 68.20
1373 9.0277 4332.90 4522.23 69.30
1374 9.0315 4422.50 4522.47 70.80
1375 9.0352 4197.80 4522.71 68.50
1376 9.0390 4267.60 4522.94 68.70
1377 9.0428 4290.60 4523.18 69.10
1378 9.0465 4262.40 4523.41 68.70
1379 9.0503 4282.20 4523.64 68.70
1380 9.0540 4258.30 4523.88 69.30
1381 9.0578 4349.30 4524.11 69.50
1382 9.0728 4326.80 4525.02 70.20
1383 9.0766 4182.50 4525.24 68.70
1384 9.0804 4426.70 4525.46 70.70
1385 9.0841 4189.70 4525.69 68.30
1386 9.0879 4390.10 4525.91 70.10
1387 9.0916 4268.30 4526.13 69.10
1388 9.0954 4335.60 4526.35 69.80
1389 9.0992 4210.80 4526.57 68.70
1390 9.1029 4390.10 4526.78 69.90
1391 9.1067 4357.80 4527.00 70.10
1392 9.1104 4352.60 4527.21 70.40
1393 9.1142 4091.30 4527.43 68.50
1394 9.1180 4298.80 4527.64 71.00
1395 9.1217 4193.80 4527.85 68.40
1396 9.1255 4336.00 4528.06 69.80
1397 9.1292 4335.80 4528.27 70.10
1398 9.1330 4428.00 4528.48 69.70
1399 9.1368 4242.10 4528.68 68.80
1400 9.1405 4318.90 4528.89 69.60
1401 9.1443 4198.40 4529.09 68.10
1402 9.1481 4329.00 4529.30 70.00
1403 9.1518 4173.10 4529.50 68.50
1404 9.1556 4250.90 4529.70 69.30
1405 9.1593 4218.00 4529.90 68.50
1406 9.1631 4371.70 4530.10 70.30
1407 9.1669 4218.60 4530.30 68.50
1408 9.1706 4295.10 4530.49 69.60
1409 9.1744 4227.90 4530.69 68.70
1410 9.1781 4397.20 4530.88 70.40
1411 9.1819 4188.50 4531.08 68.30
1412 9.1856 4408.40 4531.27 70.20
1413 9.1894 4245.30 4531.46 69.40
1414 9.1932 4402.40 4531.65 70.90
1415 9.1969 4232.30 4531.84 69.10
1416 9.2007 4498.70 4532.03 71.90
1417 9.2044 4165.60 4532.21 67.80
1418 9.2082 4399.60 4532.40 70.10
1419 9.2120 4210.00 4532.58 68.80
1420 9.2157 4390.50 4532.77 70.60
1421 9.2195 4231.20 4532.95 68.10
1422 9.2233 4424.20 4533.13 70.30
1423 9.2270 4209.40 4533.31 69.00
1424 9.2308 4454.10 4533.49 70.50
1425 9.2345 4198.00 4533.66 68.30
1426 9.2383 4359.80 4533.84 69.50
1427 9.2421 4250.00 4534.01 68.80
1428 9.2458 4419.90 4534.19 70.90
1429 9.2496 4388.90 4534.36 70.10
1430 9.2533 4400.20 4534.53 69.70
1431 9.2571 4274.70 4534.70 69.00
1432 9.2609 4476.50 4534.87 70.90
1433 9.2646 4267.30 4535.04 68.70
1434 9.2684 4357.30 4535.21 70.90
1435 9.2721 4357.70 4535.37 71.00
1436 9.2759 4491.70 4535.54 71.20
1437 9.2797 4168.00 4535.70 68.30
1438 9.2834 4198.90 4535.86 69.00
1439 9.2872 4412.80 4536.02 71.10
1440 9.2909 4405.20 4536.19 70.90
1441 9.2947 4261.30 4536.34 69.50
1442 9.2985 4281.10 4536.50 69.60
1443 9.3022 4326.10 4536.66 69.90
1444 9.3060 4446.60 4536.81 70.70
1445 9.3097 4316.30 4536.97 70.00
1446 9.3135 4416.40 4537.12 70.40
1447 9.3173 4385.40 4537.27 70.70
1448 9.3210 4361.20 4537.42 70.80
1449 9.3248 4306.00 4537.57 69.50
1450 9.3286 4377.40 4537.72 70.10
1451 9.3323 4281.40 4537.87 69.80
1452 9.3361 4342.90 4538.02 70.00
1453 9.3398 4302.70 4538.16 70.20
1454 9.3436 4366.10 4538.30 70.10
1455 9.3474 4226.90 4538.45 68.90
1456 9.3511 4295.40 4538.59 69.90
1457 9.3549 4327.40 4538.73 70.50
1458 9.3586 4288.20 4538.87 68.90
1459 9.3624 4322.50 4539.01 70.10
1460 9.3662 4527.20 4539.14 71.50
1461 9.3699 4317.10 4539.28 70.30
1462 9.3737 4270.10 4539.42 69.20
1463 9.3774 4299.90 4539.55 70.40
1464 9.3812 4308.60 4539.68 70.00
1465 9.3850 4412.80 4539.81 71.20
1466 9.3887 4370.90 4539.94 71.90
1467 9.3925 4327.40 4540.07 70.00
1468 9.3962 4537.40 4540.20 72.20
1469 9.4000 4453.20 4540.33 71.80
1470 9.4038 4359.20 4540.45 70.90
1471 9.4075 4340.40 4540.58 69.10
1472 9.4113 4429.20 4540.70 71.30
1473 9.4150 4369.30 4540.82 71.20
1474 9.4188 4418.50 4540.94 70.80
1475 9.4226 4337.60 4541.06 70.40
1476 9.4263 4411.60 4541.18 70.60
1477 9.4301 4178.80 4541.30 68.40
1478 9.4339 4412.20 4541.41 71.00
1479 9.4376 4235.60 4541.53 68.60
1480 9.4414 4230.80 4541.64 69.50
1481 9.4451 4297.80 4541.75 69.80
1482 9.4489 4370.60 4541.86 70.30
1483 9.4527 4236.60 4541.97 69.50
1484 9.4564 4308.60 4542.08 69.90
1485 9.4602 4309.40 4542.19 70.10
1486 9.4639 4317.90 4542.30 70.00
1487 9.4677 4429.70 4542.40 71.10
1488 9.4715 4378.50 4542.51 69.50
1489 9.4752 4275.90 4542.61 69.10
1490 9.4790 4516.70 4542.71 72.90
1491 9.4827 4270.00 4542.81 69.70
1492 9.4865 4500.10 4542.92 71.80
1493 9.4903 4157.60 4543.01 69.00
1494 9.4940 4306.20 4543.11 70.50
1495 9.4978 4336.40 4543.21 70.30
1496 9.5015 4324.20 4543.30 70.40
1497 9.5053 4274.10 4543.40 69.40
1498 9.5091 4302.60 4543.49 70.80
1499 9.5128 4250.50 4543.58 69.70
1500 9.5166 4360.00 4543.67 70.50
1501 9.5203 4258.30 4543.76 70.30
1502 9.5241 4375.50 4543.85 71.00
1503 9.5279 4397.80 4543.94 70.70
1504 9.5316 4297.90 4544.02 70.10
1505 9.5354 4290.00 4544.11 70.50
1506 9.5392 4220.10 4544.19 69.10
1507 9.5429 4247.30 4544.27 69.50
1508 9.5467 4307.30 4544.35 69.80
1509 9.5504 4179.40 4544.43 69.00
1510 9.5542 4339.70 4544.51 70.30
1511 9.5580 4210.80 4544.59 69.70
1512 9.5617 4402.70 4544.66 71.20
1513 9.5655 4304.50 4544.74 69.90
1514 9.5692 4389.00 4544.81 70.60
1515 9.5730 4292.50 4544.89 69.70
1516 9.5767 4437.40 4544.96 71.00
1517 9.5805 4366.70 4545.03 71.00
1518 9.5843 4448.80 4545.10 71.30
1519 9.5880 4250.10 4545.17 69.80
1520 9.5918 4339.60 4545.23 70.00
1521 9.5956 4197.20 4545.30 69.40
1522 9.5993 4506.40 4545.36 74.80
1523 9.6031 4375.20 4545.43 71.60
1524 9.6068 4432.20 4545.49 71.80
1525 9.6106 4317.50 4545.55 73.20
1526 9.6144 4447.10 4545.61 73.50
1527 9.6181 4456.20 4545.67 72.70
1528 9.6219 4359.20 4545.73 71.90
1529 9.6256 4318.50 4545.78 72.20
1530 9.6294 4342.40 4545.84 72.50
1531 9.6332 4374.30 4545.89 72.20
1532 9.6369 4332.90 4545.94 71.30
1533 9.6407 4204.90 4546.00 71.20
1534 9.6445 4405.10 4546.05 71.90
1535 9.6482 4263.60 4546.10 71.10
1536 9.6520 4318.80 4546.14 71.10
1537 9.6557 4304.10 4546.19 71.70
1538 9.6595 4358.10 4546.24 71.80
1539 9.6632 4291.80 4546.28 71.00
1540 9.6670 4322.90 4546.32 70.10
1541 9.6708 4438.50 4546.37 72.50
1542 9.6745 4335.70 4546.41 71.50
1543 9.6783 4314.40 4546.45 73.10
1544 9.6820 4404.60 4546.49 71.10
1545 9.6858 4344.00 4546.52 71.50
1546 9.6896 4244.00 4546.56 69.70
1547 9.6933 4269.90 4546.59 71.90
1548 9.6971 4357.60 4546.63 71.60
1549 9.7009 4361.90 4546.66 72.70
1550 9.7046 4432.20 4546.69 73.20
1551 9.7084 4337.30 4546.72 71.60
1552 9.7121 4407.80 4546.75 72.40
1553 9.7159 4425.90 4546.78 72.70
1554 9.7197 4425.00 4546.81 73.40
1555 9.7234 4311.30 4546.83 72.20
1556 9.7272 4476.90 4546.86 72.90
1557 9.7309 4204.50 4546.88 70.30
1558 9.7347 4315.90 4546.90 72.00
1559 9.7385 4307.70 4546.92 72.00
1560 9.7422 4366.60 4546.94 71.80
1561 9.7460 4274.50 4546.96 71.00
1562 9.7498 4568.60 4546.98 74.00
1563 9.7535 4289.10 4547.00 71.20
1564 9.7573 4324.80 4547.01 70.70
1565 9.7610 4242.90 4547.03 71.10
1566 9.7648 4362.20 4547.04 71.80
1567 9.7685 4230.10 4547.05 71.60
1568 9.7723 4463.00 4547.06 73.10
1569 9.7761 4276.80 4547.07 70.90
1570 9.7798 4488.60 4547.08 72.10
1571 9.7836 4222.40 4547.08 71.30
1572 9.7873 4501.30 4547.09 72.30
1573 9.7911 4305.50 4547.09 71.50
1574 9.7949 4414.00 4547.10 72.60
1575 9.7986 4224.10 4547.10 70.40
1576 9.8024 4398.40 4547.10 73.20
1577 9.8062 4217.70 4547.10 70.60
1578 9.8099 4475.60 4547.10 72.70
1579 9.8137 4358.70 4547.10 72.20
1580 9.8174 4445.60 4547.09 72.00
1581 9.8212 4224.80 4547.09 70.00
1582 9.8250 4377.20 4547.08 71.60
1583 9.8287 4350.40 4547.07 72.50
1584 9.8325 4321.70 4547.06 71.80
1585 9.8362 4213.40 4547.05 69.50
1586 9.8400 4402.20 4547.04 72.70
1587 9.8438 4354.70 4547.03 72.40
1588 9.8475 4339.40 4547.02 72.30
1589 9.8513 4272.10 4547.00 70.30
1590 9.8550 4356.10 4546.99 71.70
1591 9.8588 4351.80 4546.97 71.90
1592 9.8626 4417.90 4546.95 72.60
1593 9.8663 4392.40 4546.93 73.20
1594 9.8701 4386.70 4546.91 72.60
1595 9.8738 4351.20 4546.89 71.70
1596 9.8776 4446.60 4546.87 72.00
1597 9.8814 4351.10 4546.85 71.40
1598 9.8851 4398.70 4546.82 71.60
1599 9.8889 4284.50 4546.79 71.60
1600 9.8926 4377.70 4546.77 71.90
1601 9.8964 4373.50 4546.74 71.90
1602 9.9002 4526.10 4546.71 74.10
1603 9.9039 4298.60 4546.68 71.60
1604 9.9077 4464.20 4546.64 71.90
1605 9.9115 4333.40 4546.61 72.20
1606 9.9152 4237.90 4546.58 69.90
1607 9.9190 4435.30 4546.54 72.80
1608 9.9227 4408.80 4546.50 72.80
1609 9.9265 4287.30 4546.47 71.20
1610 9.9303 4504.10 4546.43 73.70
1611 9.9340 4271.10 4546.39 72.40
1612 9.9378 4366.30 4546.34 71.90
1613 9.9415 4353.40 4546.30 71.80
1614 9.9453 4358.90 4546.26 72.30
1615 9.9491 4230.40 4546.21 70.40
1616 9.9528 4461.70 4546.17 72.60
1617 9.9566 4321.60 4546.12 71.60
1618 9.9603 4334.90 4546.07 72.10
1619 9.9641 4459.50 4546.02 73.20
1620 9.9679 4270.20 4545.97 71.40
1621 9.9716 4286.30 4545.92 70.80
1622 9.9754 4427.70 4545.86 72.50
1623 9.9791 4407.70 4545.81 72.40
1624 9.9829 4477.40 4545.75 72.80
1625 9.9867 4149.90 4545.70 70.70
1626 9.9904 4409.30 4545.64 73.60
1627 9.9942 4276.20 4545.58 70.50
1628 9.9979 4391.30 4545.52 72.60
1629 10.0017 4249.00 4545.46 70.70
1630 10.0055 4387.50 4545.39 72.00
1631 10.0092 4227.60 4545.33 71.40
1632 10.0130 4294.10 4545.26 71.70
1633 10.0167 4208.10 4545.20 70.30
1634 10.0205 4432.40 4545.13 71.40
1635 10.0243 4367.00 4545.06 72.10
1636 10.0280 4376.80 4544.99 71.60
1637 10.0318 4308.90 4544.92 71.90
1638 10.0356 4280.70 4544.85 71.10
1639 10.0393 4258.40 4544.77 72.20
1640 10.0431 4446.10 4544.70 72.60
1641 10.0468 4289.50 4544.62 71.00
1642 10.0506 4388.30 4544.55 71.10
1643 10.0543 4343.10 4544.47 71.60
1644 10.0581 4387.20 4544.39 73.10
1645 10.0619 4370.70 4544.31 71.00
1646 10.0656 4359.50 4544.23 71.90
1647 10.0694 4184.70 4544.14 70.40
1648 10.0731 4464.60 4544.06 74.10
1649 10.0769 4379.00 4543.97 73.60
1650 10.0807 4332.40 4543.89 71.80
1651 10.0844 4232.00 4543.80 71.30
1652 10.0882 4382.80 4543.71 72.80
1653 10.0920 4341.00 4543.62 71.30
1654 10.0957 4378.60 4543.53 72.00
1655 10.0995 4336.90 4543.44 71.80
1656 10.1032 4465.50 4543.34 73.70
1657 10.1070 4134.40 4543.25 70.20
1658 10.1108 4494.80 4543.15 73.40
1659 10.1145 4266.30 4543.05 70.40
1660 10.1183 4295.10 4542.96 71.70
1661 10.1220 4291.00 4542.86 71.90
1662 10.1258 4364.20 4542.76 72.70
1663 10.1296 4321.00 4542.65 71.20
1664 10.1333 4502.90 4542.55 73.00
1665 10.1371 4318.50 4542.45 71.00
1666 10.1408 4364.80 4542.34 72.50
1667 10.1446 4363.00 4542.24 72.50
1668 10.1484 4352.60 4542.13 72.30
1669 10.1521 4355.90 4542.02 72.00
1670 10.1559 4505.00 4541.91 74.70
1671 10.1596 4522.00 4541.80 74.30
1672 10.1634 4484.90 4541.69 72.70
1673 10.1672 4383.50 4541.57 72.60
1674 10.1709 4414.10 4541.46 72.90
1675 10.1747 4332.00 4541.34 73.00
1676 10.1784 4510.60 4541.22 74.00
1677 10.1822 4167.00 4541.11 70.40
1678 10.1860 4379.50 4540.99 72.20
1679 10.1897 4441.10 4540.87 73.00
1680 10.1935 4423.90 4540.75 72.70
1681 10.1972 4247.90 4540.62 71.00
1682 10.2010 4395.80 4540.50 72.50
1683 10.2048 4412.70 4540.37 73.20
1684 10.2085 4492.10 4540.25 73.50
1685 10.2123 4245.90 4540.12 71.50
1686 10.2160 4343.40 4539.99 72.20
1687 10.2198 4356.50 4539.86 72.90
1688 10.2236 4368.70 4539.73 72.20
1689 10.2273 4321.10 4539.60 71.10
1690 10.2311 4513.50 4539.46 74.30
1691 10.2348 4422.10 4539.33 72.00
1692 10.2386 4351.50 4539.19 72.60
1693 10.2424 4313.60 4539.06 71.40
1694 10.2461 4443.10 4538.92 72.30
1695 10.2499 4368.10 4538.78 73.40
1696 10.2536 4378.10 4538.64 71.80
1697 10.2574 4319.10 4538.50 70.70
1698 10.2612 4488.80 4538.35 73.90
1699 10.2649 4337.50 4538.21 71.10
1700 10.2687 4406.00 4538.06 72.60
1701 10.2725 4285.90 4537.92 71.80
1702 10.2762 4384.20 4537.77 70.80
1703 10.2800 4486.70 4537.62 73.10
1704 10.2837 4445.90 4537.47 73.60
1705 10.2875 4390.80 4537.32 73.40
1706 10.2913 4469.60 4537.17 72.90
1707 10.2950 4440.70 4537.02 73.60
1708 10.2988 4482.20 4536.86 73.90
1709 10.3025 4325.00 4536.71 70.50
1710 10.3063 4442.50 4536.55 72.80
1711 10.3101 4409.20 4536.39 73.00
1712 10.3138 4375.50 4536.23 72.50
1713 10.3176 4311.30 4536.07 71.50
1714 10.3213 4453.80 4535.91 73.30
1715 10.3251 4396.00 4535.75 73.20
1716 10.3288 4589.70 4535.58 75.00
1717 10.3326 4418.00 4535.42 72.60
1718 10.3364 4435.80 4535.25 73.80
1719 10.3401 4424.80 4535.09 73.10
1720 10.3439 4419.50 4534.92 73.80
1721 10.3476 4277.50 4534.75 71.60
1722 10.3514 4407.70 4534.58 72.80
1723 10.3552 4299.90 4534.41 71.80
1724 10.3589 4445.10 4534.23 74.20
1725 10.3627 4364.80 4534.06 72.40
1726 10.3665 4449.70 4533.88 73.20
1727 10.3702 4404.60 4533.71 71.60
1728 10.3740 4486.10 4533.53 74.20
1729 10.3777 4440.70 4533.35 73.50
1730 10.3815 4415.30 4533.17 73.40
1731 10.3853 4367.40 4532.99 72.80
1732 10.3890 4456.00 4532.81 73.40
1733 10.3928 4292.90 4532.62 73.10
1734 10.3965 4456.30 4532.44 73.70
1735 10.4003 4496.00 4532.25 74.70
1736 10.4040 4489.80 4532.07 73.80
1737 10.4078 4345.30 4531.88 72.30
1738 10.4116 4318.70 4531.69 72.10
1739 10.4153 4537.90 4531.50 74.90
1740 10.4191 4443.40 4531.31 73.20
1741 10.4228 4466.50 4531.11 73.70
1742 10.4266 4391.50 4530.92 73.40
1743 10.4304 4348.50 4530.72 73.30
1744 10.4341 4340.70 4530.53 71.20
1745 10.4379 4447.90 4530.33 73.60
1746 10.4417 4287.40 4530.13 72.60
1747 10.4454 4284.40 4529.93 71.20
1748 10.4492 4503.40 4529.73 73.00
1749 10.4529 4271.30 4529.53 72.30
1750 10.4567 4455.40 4529.33 74.50
1751 10.4604 4354.90 4529.12 71.80
1752 10.4642 4423.20 4528.92 73.30
1753 10.4680 4396.40 4528.71 73.10
1754 10.4717 4492.40 4528.50 74.20
1755 10.4755 4328.40 4528.30 72.10
1756 10.4792 4430.90 4528.09 73.20
1757 10.4830 4354.10 4527.87 73.30
1758 10.4868 4459.10 4527.66 73.40
1759 10.4905 4280.60 4527.45 72.10
1760 10.4943 4537.50 4527.23 75.60
1761 10.4980 4424.30 4527.02 74.00
1762 10.5018 4446.80 4526.80 73.10
1763 10.5056 4302.60 4526.58 73.80
1764 10.5093 4413.80 4526.36 73.30
1765 10.5131 4332.20 4526.14 71.90
1766 10.5168 4487.40 4525.92 74.50
1767 10.5206 4320.10 4525.70 71.90
1768 10.5244 4478.90 4525.48 73.00
1769 10.5281 4343.10 4525.25 73.80
1770 10.5319 4449.70 4525.03 74.80
1771 10.5356 4348.40 4524.80 72.70
1772 10.5394 4383.80 4524.57 73.70
1773 10.5432 4371.10 4524.34 74.30
1774 10.5469 4470.30 4524.11 74.10
1775 10.5507 4379.70 4523.88 72.00
1776 10.5544 4383.20 4523.65 73.50
1777 10.5582 4232.80 4523.41 72.10
1778 10.5620 4497.60 4523.18 72.50
1779 10.5657 4418.60 4522.94 71.30
1780 10.5695 4363.30 4522.70 71.20
1781 10.5732 4297.10 4522.46 70.80
1782 10.5770 4443.90 4522.23 71.80
1783 10.5808 4241.60 4521.98 69.90
1784 10.5845 4353.00 4521.74 71.40
1785 10.5883 4418.30 4521.50 71.80
1786 10.5920 4517.20 4521.25 72.10
1787 10.5958 4431.20 4521.01 72.00
1788 10.5996 4505.60 4520.76 71.80
1789 10.6033 4323.20 4520.52 69.80
1790 10.6071 4374.40 4520.27 71.80
1791 10.6108 4423.00 4520.02 70.40
1792 10.6146 4484.20 4519.77 72.40
1793 10.6184 4302.90 4519.51 70.40
1794 10.6221 4480.70 4519.26 73.20
1795 10.6259 4269.60 4519.01 70.10
1796 10.6296 4326.40 4518.75 71.00
1797 10.6334 4393.60 4518.49 72.30
1798 10.6371 4450.70 4518.24 72.20
1799 10.6409 4309.60 4517.98 70.90
1800 10.6447 4467.60 4517.72 72.80
1801 10.6484 4336.10 4517.46 71.10
1802 10.6522 4534.20 4517.19 72.50
1803 10.6559 4344.50 4516.93 71.00
1804 10.6597 4560.00 4516.67 72.90
1805 10.6635 4329.00 4516.40 70.80
1806 10.6672 4410.50 4516.13 72.10
1807 10.6710 4345.90 4515.86 71.10
1808 10.6747 4459.00 4515.60 70.70
1809 10.6785 4377.90 4515.33 70.10
1810 10.6823 4409.80 4515.05 70.90
1811 10.6860 4306.90 4514.78 71.20
1812 10.6898 4366.20 4514.51 70.70
1813 10.6935 4326.10 4514.23 71.20
1814 10.6973 4427.90 4513.96 71.20
1815 10.7011 4336.90 4513.68 71.00
1816 10.7048 4445.50 4513.40 71.20
1817 10.7086 4384.30 4513.12 71.50
1818 10.7123 4435.80 4512.84 71.70
1819 10.7161 4503.20 4512.56 72.70
1820 10.7198 4438.10 4512.28 71.80
1821 10.7236 4479.90 4512.00 72.40
1822 10.7274 4478.20 4511.71 72.60
1823 10.7311 4430.00 4511.42 71.20
1824 10.7349 4473.90 4511.14 72.00
1825 10.7387 4298.40 4510.85 71.00
1826 10.7424 4324.90 4510.56 70.60
1827 10.7462 4392.90 4510.27 71.30
1828 10.7499 4507.20 4509.98 72.20
1829 10.7537 4362.90 4509.69 71.30
1830 10.7574 4483.80 4509.39 71.30
1831 10.7612 4409.10 4509.10 72.70
1832 10.7650 4406.10 4508.80 71.40
1833 10.7687 4365.40 4508.50 72.90
1834 10.7725 4367.80 4508.21 71.10
1835 10.7762 4301.40 4507.91 71.00
1836 10.7800 4470.70 4507.61 71.60
1837 10.7838 4356.40 4507.30 70.80
1838 10.7875 4442.50 4507.00 71.70
1839 10.7913 4376.30 4506.70 69.60
1840 10.7950 4418.60 4506.39 71.90
1841 10.7988 4461.10 4506.09 71.80
1842 10.8026 4442.50 4505.78 71.70
1843 10.8063 4354.10 4505.47 72.00
1844 10.8101 4447.10 4505.16 73.20
1845 10.8138 4364.20 4504.85 70.10
1846 10.8176 4511.00 4504.54 73.20
1847 10.8214 4395.80 4504.23 71.30
1848 10.8251 4405.90 4503.92 71.90
1849 10.8289 4457.90 4503.60 72.00
1850 10.8326 4410.70 4503.28 71.80
1851 10.8364 4299.90 4502.97 70.40
1852 10.8401 4358.50 4502.65 70.50
1853 10.8439 4254.70 4502.33 69.90
1854 10.8477 4366.80 4502.01 70.40
1855 10.8514 4386.50 4501.69 71.90
1856 10.8552 4516.10 4501.37 72.50
1857 10.8589 4417.70 4501.04 71.50
1858 10.8627 4477.70 4500.72 71.50
1859 10.8665 4397.40 4500.39 71.50
1860 10.8702 4421.40 4500.06 71.90
1861 10.8740 4372.30 4499.74 71.80
1862 10.8777 4446.40 4499.41 71.80
1863 10.8815 4396.50 4499.08 70.50
1864 10.8853 4403.60 4498.75 72.00
1865 10.8890 4313.90 4498.41 71.30
1866 10.8928 4342.90 4498.08 71.20
1867 10.8965 4343.80 4497.75 70.60
1868 10.9003 4457.40 4497.41 72.90
1869 10.9040 4436.40 4497.07 72.10
1870 10.9078 4456.20 4496.74 72.80
1871 10.9116 4366.30 4496.40 70.80
1872 10.9153 4525.40 4496.06 73.20
1873 10.9191 4310.60 4495.71 70.80
1874 10.9228 4504.60 4495.37 73.10
1875 10.9266 4393.20 4495.03 71.20
1876 10.9304 4440.00 4494.69 72.00
1877 10.9341 4269.80 4494.34 70.40
1878 10.9379 4502.60 4493.99 72.70
1879 10.9416 4379.70 4493.65 71.30
1880 10.9454 4490.70 4493.30 72.00
1881 10.9492 4430.30 4492.95 72.60
1882 10.9529 4376.00 4492.60 71.70
1883 10.9567 4434.60 4492.24 72.70
1884 10.9604 4401.40 4491.89 72.30
1885 10.9642 4350.50 4491.54 71.10
1886 10.9679 4483.30 4491.18 72.40
1887 10.9717 4357.90 4490.82 71.60
1888 10.9755 4407.20 4490.47 72.60
1889 10.9792 4307.40 4490.11 71.80
1890 10.9830 4507.80 4489.75 71.60
1891 10.9867 4432.50 4489.39 73.10
1892 10.9905 4442.60 4489.03 72.70
1893 10.9943 4436.30 4488.66 72.50
1894 10.9980 4490.40 4488.30 72.10
1895 11.0018 4325.40 4487.94 72.10
1896 11.0055 4480.10 4487.57 74.10
1897 11.0093 4419.80 4487.20 72.80
1898 11.0130 4553.60 4486.83 73.60
1899 11.0168 4383.70 4486.46 72.10
1900 11.0206 4409.30 4486.09 71.80
1901 11.0243 4358.70 4485.72 71.80
1902 11.0281 4451.10 4485.35 72.70
1903 11.0318 4390.40 4484.98 71.40
1904 11.0356 4425.90 4484.60 72.80
1905 11.0393 4340.90 4484.23 72.70
1906 11.0431 4621.80 4483.85 73.10
1907 11.0469 4452.50 4483.47 71.80
1908 11.0506 4461.30 4483.09 71.80
1909 11.0544 4392.70 4482.71 71.40
1910 11.0581 4527.30 4482.33 71.90
1911 11.0619 4330.90 4481.95 71.40
1912 11.0656 4411.20 4481.57 71.30
1913 11.0694 4473.90 4481.18 71.70
1914 11.0732 4451.80 4480.80 71.40
1915 11.0769 4369.30 4480.41 71.10
1916 11.0807 4557.80 4480.02 71.70
1917 11.0844 4349.00 4479.63 71.30
1918 11.0882 4490.70 4479.25 72.20
1919 11.0920 4504.50 4478.85 73.10
1920 11.0957 4481.10 4478.46 72.50
1921 11.0995 4309.90 4478.07 71.20
1922 11.1032 4459.10 4477.68 73.40
1923 11.1070 4387.70 4477.28 71.90
1924 11.1108 4413.90 4476.89 71.40
1925 11.1145 4487.70 4476.49 72.80
1926 11.1183 4539.80 4476.09 72.30
1927 11.1220 4439.10 4475.69 69.90
1928 11.1258 4563.50 4475.29 74.50
1929 11.1295 4397.90 4474.89 71.90
1930 11.1333 4529.10 4474.49 72.70
1931 11.1371 4411.30 4474.08 72.40
1932 11.1408 4433.10 4473.68 72.70
1933 11.1446 4559.00 4473.27 73.20
1934 11.1483 4468.40 4472.87 71.90
1935 11.1521 4287.20 4472.46 70.70
1936 11.1559 4619.80 4472.05 73.20
1937 11.1596 4366.40 4471.64 72.00
1938 11.1634 4535.20 4471.23 72.50
1939 11.1671 4309.80 4470.82 71.90
1940 11.1709 4381.90 4470.41 71.60
1941 11.1746 4347.90 4469.99 71.70
1942 11.1784 4527.90 4469.58 73.10
1943 11.1821 4400.10 4469.16 71.90
1944 11.1859 4554.50 4468.74 73.60
1945 11.1897 4385.40 4468.33 71.10
1946 11.1934 4547.40 4467.91 73.70
1947 11.1972 4335.20 4467.49 71.50
1948 11.2009 4572.30 4467.07 73.60
1949 11.2047 4367.60 4466.64 70.80
1950 11.2085 4437.20 4466.22 72.20
1951 11.2122 4525.90 4465.80 73.30
1952 11.2160 4485.00 4465.37 72.50
1953 11.2197 4415.20 4464.94 71.80
1954 11.2235 4369.80 4464.52 71.30
1955 11.2273 4531.00 4464.09 73.00
1956 11.2310 4469.80 4463.66 72.40
1957 11.2348 4355.20 4463.23 72.30
1958 11.2385 4569.80 4462.80 74.50
1959 11.2423 4341.20 4462.36 71.10
1960 11.2460 4408.20 4461.93 72.50
1961 11.2498 4517.50 4461.50 73.10
1962 11.2535 4536.20 4461.06 73.80
1963 11.2573 4465.80 4460.62 73.10
1964 11.2611 4422.70 4460.19 72.60
1965 11.2648 4470.10 4459.75 73.50
1966 11.2686 4484.10 4459.31 73.60
1967 11.2723 4350.60 4458.87 71.50
1968 11.2761 4416.60 4458.43 72.40
1969 11.2799 4384.60 4457.98 71.70
1970 11.2836 4438.40 4457.54 72.30
1971 11.2874 4510.70 4457.09 73.50
1972 11.2911 4510.00 4456.65 73.60
1973 11.2949 4471.60 4456.20 72.70
1974 11.2986 4608.00 4455.75 73.50
1975 11.3024 4428.60 4455.30 72.90
1976 11.3062 4624.70 4454.85 74.10
1977 11.3099 4396.80 4454.40 72.20
1978 11.3137 4530.90 4453.95 74.30
1979 11.3174 4367.30 4453.50 72.40
1980 11.3212 4537.30 4453.04 73.40
1981 11.3249 4430.40 4452.59 72.90
1982 11.3287 4527.50 4452.13 73.50
1983 11.3324 4464.70 4451.67 73.10
1984 11.3362 4624.20 4451.22 73.20
1985 11.3400 4517.90 4450.76 73.00
1986 11.3437 4509.30 4450.30 73.20
1987 11.3475 4374.80 4449.84 72.60
1988 11.3512 4363.40 4449.37 71.70
1989 11.3550 4290.90 4448.91 71.20
1990 11.3588 4525.50 4448.45 73.70
1991 11.3625 4464.50 4447.98 72.30
1992 11.3663 4466.50 4447.51 73.20
1993 11.3700 4427.50 4447.05 72.30
1994 11.3738 4542.60 4446.58 72.80
1995 11.3775 4426.90 4446.11 72.50
1996 11.3813 4467.60 4445.64 72.30
1997 11.3850 4455.60 4445.17 72.50
1998 11.3888 4468.60 4444.69 72.30
1999 11.3926 4390.60 4444.22 72.90
2000 11.3963 4351.30 4443.75 70.20
2001 11.4001 4591.00 4443.27 74.20
2002 11.4038 4522.00 4442.79 72.90
2003 11.4076 4337.90 4442.32 71.70
2004 11.4114 4331.80 4441.84 71.70
2005 11.4151 4476.60 4441.36 73.70
2006 11.4189 4449.40 4440.88 72.30
2007 11.4226 4415.10 4440.40 73.00
2008 11.4264 4384.20 4439.91 71.90
2009 11.4301 4459.00 4439.43 72.70
2010 11.4339 4593.10 4438.95 73.50
2011 11.4376 4355.50 4438.46 71.30
2012 11.4414 4579.40 4437.97 74.30
2013 11.4452 4450.70 4437.49 72.40
2014 11.4489 4547.60 4437.00 73.20
2015 11.4527 4462.50 4436.51 72.40
2016 11.4564 4459.00 4436.02 72.80
2017 11.4602 4364.40 4435.53 71.60
2018 11.4639 4486.90 4435.04 73.20
2019 11.4677 4465.60 4434.54 73.50
2020 11.4715 4555.70 4434.05 74.20
2021 11.4752 4331.00 4433.55 72.40
2022 11.4790 4518.30 4433.06 72.60
2023 11.4827 4351.10 4432.56 72.30
2024 11.4865 4483.50 4432.06 73.10
2025 11.4902 4457.20 4431.56 73.00
2026 11.4940 4378.40 4431.06 69.50
2027 11.4978 4549.80 4430.56 74.70
2028 11.5015 4365.90 4430.06 70.70
2029 11.5053 4332.20 4429.55 71.90
2030 11.5090 4549.90 4429.05 74.70
2031 11.5128 4485.70 4428.55 73.40
2032 11.5165 4605.80 4428.04 74.50
2033 11.5203 4454.80 4427.53 79.30
2034 11.5240 4407.90 4427.02 70.50
2035 11.5278 4418.30 4426.51 70.60
2036 11.5316 4508.40 4426.00 72.40
2037 11.5353 4352.90 4425.49 69.50
2038 11.5391 4432.60 4424.98 71.90
2039 11.5428 4414.50 4424.47 70.10
2040 11.5466 4485.40 4423.95 72.20
2041 11.5503 4553.90 4423.44 71.70
2042 11.5541 4483.20 4422.92 70.50
2043 11.5579 4478.30 4422.41 70.80
2044 11.5616 4484.60 4421.89 72.20
2045 11.5654 4438.20 4421.37 70.20
2046 11.5691 4590.70 4420.85 71.60
2047 11.5729 4380.20 4420.33 70.60
2048 11.5766 4412.50 4419.81 71.40
2049 11.5804 4359.20 4419.29 70.60
2050 11.5842 4467.60 4418.76 71.00
2051 11.5879 4396.50 4418.24 71.00
2052 11.5917 4511.50 4417.71 72.10
2053 11.5954 4347.30 4417.18 70.50
2054 11.5992 4461.70 4416.66 70.80
2055 11.6029 4467.00 4416.13 71.00
2056 11.6067 4410.20 4415.60 71.60
2057 11.6104 4492.30 4415.07 72.30
2058 11.6142 4479.50 4414.54 70.70
2059 11.6180 4409.50 4414.00 70.40
2060 11.6217 4553.50 4413.47 72.40
2061 11.6255 4589.40 4412.94 72.50
2062 11.6292 4455.60 4412.40 71.20
2063 11.6330 4379.30 4411.87 70.90
2064 11.6367 4547.50 4411.33 72.60
2065 11.6405 4433.00 4410.79 71.50
2066 11.6442 4416.20 4410.25 71.40
2067 11.6480 4553.70 4409.71 72.40
2068 11.6518 4391.00 4409.17 70.60
2069 11.6555 4418.20 4408.63 70.70
2070 11.6593 4581.00 4408.09 73.40
2071 11.6630 4321.60 4407.54 70.80
2072 11.6668 4417.70 4407.00 71.40
2073 11.6705 4446.90 4406.45 71.40
2074 11.6743 4614.40 4405.91 73.00
2075 11.6781 4577.30 4405.36 73.10
2076 11.6818 4547.40 4404.81 72.70
2077 11.6856 4484.90 4404.26 72.00
2078 11.6893 4507.80 4403.71 71.90
2079 11.6931 4551.50 4403.16 72.50
2080 11.6968 4483.00 4402.60 71.60
2081 11.7006 4413.30 4402.05 71.50
2082 11.7043 4546.70 4401.50 72.40
2083 11.7081 4412.90 4400.94 71.50
2084 11.7119 4577.90 4400.39 72.80
2085 11.7156 4391.80 4399.83 71.80
2086 11.7194 4586.10 4399.27 72.50
2087 11.7231 4398.70 4398.71 71.50
2088 11.7269 4466.10 4398.15 71.70
2089 11.7306 4460.60 4397.59 71.20
2090 11.7344 4644.10 4397.03 73.20
2091 11.7381 4530.90 4396.47 72.20
2092 11.7419 4466.40 4395.91 72.10
2093 11.7457 4349.60 4395.34 70.30
2094 11.7494 4481.80 4394.78 71.10
2095 11.7532 4404.40 4394.21 71.30
2096 11.7569 4524.10 4393.64 71.60
2097 11.7607 4476.40 4400.78 71.60
2098 11.7644 4459.70 4400.44 71.60
2099 11.7682 4502.70 4400.11 72.50
2100 11.7719 4406.70 4399.79 71.10
2101 11.7757 4421.00 4399.49 70.30
2102 11.7795 4522.00 4399.19 72.60
2103 11.7832 4373.10 4398.91 70.50
2104 11.7870 4540.80 4398.64 72.20
2105 11.7907 4394.90 4398.38 71.30
2106 11.7945 4749.40 4398.14 73.60
2107 11.7982 4541.40 4397.92 72.80
2108 11.8020 4526.90 4397.71 72.00
2109 11.8057 4476.60 4397.52 71.30
2110 11.8095 4420.20 4397.36 70.30
2111 11.8132 4441.90 4397.21 71.40
2112 11.8170 4501.60 4397.09 71.50
2113 11.8208 4376.90 4397.00 70.80
2114 11.8245 4410.90 4396.93 70.80
2115 11.8283 4416.40 4396.90 70.80
2116 11.8320 4486.40 4396.89 71.90
2117 11.8358 4484.80 4396.92 71.70
2118 11.8395 4542.60 4396.99 72.90
2119 11.8433 4440.20 4397.11 71.00
2120 11.8470 4579.10 4397.26 72.40
2121 11.8508 4429.30 4397.47 71.10
2122 11.8546 4736.70 4397.74 73.90
2123 11.8583 4483.10 4398.06 71.70
2124 11.8621 4521.40 4398.45 72.40
2125 11.8658 4393.20 4398.91 70.90
2126 11.8696 4504.10 4399.46 71.70
2127 11.8733 4407.30 4400.09 71.10
2128 11.8771 4449.10 4400.82 71.60
2129 11.8808 4417.30 4401.66 71.50
2130 11.8846 4657.70 4402.63 73.10
2131 11.8883 4345.40 4403.73 71.30
2132 11.8921 4603.10 4404.98 72.50
2133 11.8959 4562.60 4406.41 72.20
2134 11.8996 4598.80 4408.04 73.10
2135 11.9034 4365.30 4409.89 71.40
2136 11.9071 4512.40 4411.98 71.30
2137 11.9109 4419.50 4414.38 72.20
2138 11.9146 4576.70 4417.09 72.30
2139 11.9184 4363.20 4420.20 70.00
2140 11.9221 4417.70 4423.74 71.00
2141 11.9259 4569.60 4427.80 73.30
2142 11.9296 4572.80 4432.48 72.40
2143 11.9334 4607.80 4437.87 73.00
2144 11.9372 4692.10 4444.12 73.50
2145 11.9409 4606.60 4451.38 72.40
2146 11.9447 4641.20 4459.90 73.40
2147 11.9484 4538.10 4469.90 71.80
2148 11.9522 4614.70 4481.75 73.10
2149 11.9559 4644.20 4495.97 73.10
2150 11.9597 4726.50 4513.06 73.50
2151 11.9634 4597.10 4533.94 72.60
2152 11.9672 4972.80 4559.63 75.40
2153 11.9709 4741.90 4591.82 74.10
2154 11.9747 4841.00 4632.59 75.00
2155 11.9784 4907.90 4685.46 75.00
2156 11.9822 5069.10 4755.33 75.90
2157 11.9852 5154.70 4830.90 78.90
2158 11.9890 5480.40 4967.45 78.40
2159 11.9928 6017.30 5223.00 86.80
2160 11.9965 6803.40 5840.96 89.80
2161 12.0003 8173.90 7460.03 101.20
2162 12.0040 12947.70 11165.60 132.10
2163 12.0078 21298.60 17752.10 173.10
2164 12.0115 30892.50 26223.10 214.50
2165 12.0153 33118.80 32575.90 242.00
2166 12.0190 29491.50 31906.40 202.30
2167 12.0228 21870.70 24815.40 170.20
2168 12.0266 14332.00 16457.20 136.10
2169 12.0303 9034.80 10351.30 103.10
2170 12.0341 6879.30 7073.03 91.10
2171 12.0378 5830.40 5685.19 81.30
2172 12.0416 5564.80 5157.05 81.00
2173 12.0454 5241.50 4930.05 77.40
2174 12.0491 5246.50 4802.98 76.70
2175 12.0529 4752.00 4715.95 73.10
2176 12.0566 4860.90 4651.55 75.40
2177 12.0604 4753.60 4602.31 72.80
2178 12.0641 4783.80 4563.57 73.20
2179 12.0679 4615.30 4532.64 72.60
2180 12.0716 4800.60 4507.59 74.70
2181 12.0754 4524.20 4486.90 72.10
2182 12.0792 4725.90 4469.68 73.20
2183 12.0829 4595.40 4455.10 72.70
2184 12.0867 4575.40 4442.66 72.70
2185 12.0904 4470.20 4431.98 71.50
2186 12.0942 4666.20 4422.68 72.50
2187 12.0979 4543.30 4414.55 71.70
2188 12.1017 4593.70 4407.37 73.20
2189 12.1054 4675.90 4400.98 73.90
2190 12.1092 4645.70 4395.29 72.10
2191 12.1130 4503.20 4390.15 71.20
2192 12.1167 4606.20 4385.52 72.80
2193 12.1205 4503.10 4381.30 71.80
2194 12.1242 4416.10 4377.44 70.90
2195 12.1280 4618.00 4373.91 72.90
2196 12.1317 4604.70 4370.64 73.10
2197 12.1355 4527.00 4367.62 72.30
2198 12.1392 4544.20 4364.81 72.50
2199 12.1430 4576.60 4362.18 72.60
2200 12.1468 4428.40 4359.73 70.90
2201 12.1505 4423.20 4357.42 70.80
2202 12.1543 4542.40 4355.24 73.10
2203 12.1580 4385.10 4353.18 71.30
2204 12.1618 4580.00 4351.23 72.80
2205 12.1655 4412.10 4349.37 71.10
2206 12.1693 4611.40 4347.60 72.90
2207 12.1730 4560.20 4345.91 73.00
2208 12.1768 4633.90 4344.28 73.40
2209 12.1806 4490.90 4342.72 72.10
2210 12.1843 4662.90 4341.22 73.20
2211 12.1881 4578.40 4339.77 72.70
2212 12.1918 4666.20 4338.37 73.10
2213 12.1956 4401.30 4337.02 71.40
2214 12.1993 4520.80 4335.70 72.10
2215 12.2031 4386.80 4334.43 71.30
2216 12.2069 4517.90 4333.19 72.20
2217 12.2106 4425.40 4331.97 72.10
2218 12.2139 4447.20 4330.95 71.00
2219 12.2176 4582.10 4329.79 71.00
2220 12.2214 4505.80 4328.66 71.50
2221 12.2251 4567.30 4327.55 72.70
2222 12.2289 4418.20 4326.47 70.90
2223 12.2326 4413.10 4325.40 71.00
2224 12.2364 4354.40 4324.36 70.40
2225 12.2402 4516.40 4323.33 72.20
2226 12.2439 4492.00 4322.31 71.80
2227 12.2477 4658.00 4321.32 72.50
2228 12.2514 4563.30 4320.33 72.70
2229 12.2552 4437.00 4319.36 71.10
2230 12.2589 4512.50 4318.41 71.30
2231 12.2627 4602.40 4317.46 73.50
2232 12.2664 4337.70 4316.52 69.80
2233 12.2702 4494.00 4315.60 72.00
2234 12.2739 4558.20 4314.68 72.30
2235 12.2777 4402.70 4306.34 70.90
2236 12.2815 4512.00 4305.65 71.60
2237 12.2852 4584.30 4304.96 70.30
2238 12.2890 4467.10 4304.27 71.60
2239 12.2927 4464.80 4303.58 71.60
2240 12.2965 4508.90 4302.89 72.20
2241 12.3002 4526.90 4302.20 73.00
2242 12.3040 4370.50 4301.50 70.60
2243 12.3077 4562.80 4300.81 72.00
2244 12.3115 4525.20 4300.11 72.20
2245 12.3152 4545.80 4299.42 72.10
2246 12.3190 4481.70 4298.72 71.20
2247 12.3228 4398.50 4298.02 70.70
2248 12.3265 4286.60 4297.32 71.00
2249 12.3303 4496.80 4296.62 72.00
2250 12.3340 4559.30 4295.92 73.30
2251 12.3378 4576.40 4295.22 71.70
2252 12.3415 4443.20 4294.52 71.30
2253 12.3453 4648.70 4293.82 73.40
2254 12.3490 4434.80 4293.12 71.80
2255 12.3528 4544.30 4292.41 72.10
2256 12.3566 4490.10 4291.71 71.40
2257 12.3603 4442.00 4291.00 71.50
2258 12.3641 4562.50 4290.29 72.40
2259 12.3678 4514.10 4289.59 70.30
2260 12.3716 4422.90 4288.88 71.20
2261 12.3753 4532.90 4288.17 71.90
2262 12.3791 4471.90 4287.46 71.60
2263 12.3828 4567.00 4286.75 72.90
2264 12.3866 4389.60 4286.04 70.90
2265 12.3904 4588.60 4285.33 72.00
2266 12.3941 4420.50 4284.61 71.20
2267 12.3979 4466.50 4283.90 71.50
2268 12.4016 4445.70 4283.19 71.70
2269 12.4054 4509.30 4282.47 72.60
2270 12.4091 4442.50 4281.75 71.10
2271 12.4129 4531.00 4281.04 71.60
2272 12.4166 4417.10 4280.32 71.50
2273 12.4204 4513.00 4279.60 71.80
2274 12.4242 4509.20 4278.88 72.10
2275 12.4279 4655.10 4278.16 73.30
2276 12.4317 4412.70 4277.44 71.10
2277 12.4354 4530.10 4276.72 72.20
2278 12.4392 4483.50 4276.00 72.10
2279 12.4429 4558.40 4275.28 72.10
2280 12.4467 4385.90 4274.55 70.00
2281 12.4504 4472.30 4273.83 71.50
2282 12.4542 4370.30 4273.10 71.00
2283 12.4579 4557.70 4272.38 72.40
2284 12.4617 4410.80 4271.65 71.20
2285 12.4655 4476.30 4270.92 72.10
2286 12.4692 4316.10 4270.19 71.00
2287 12.4730 4587.30 4269.47 73.00
2288 12.4767 4387.40 4268.73 70.80
2289 12.4805 4382.90 4268.01 70.50
2290 12.4842 4461.30 4267.27 72.20
2291 12.4880 4428.30 4266.54 71.70
2292 12.4917 4463.80 4265.81 71.80
2293 12.4955 4499.50 4265.07 71.80
2294 12.4993 4509.60 4264.34 73.00
2295 12.5030 4529.10 4263.60 73.30
2296 12.5068 4430.90 4262.87 71.30
2297 12.5105 4563.70 4262.13 73.20
2298 12.5143 4381.70 4261.39 70.90
2299 12.5180 4460.20 4260.66 71.70
2300 12.5218 4303.80 4259.92 70.80
2301 12.5256 4591.20 4259.18 72.70
2302 12.5293 4524.30 4258.44 72.80
2303 12.5331 4535.70 4257.70 71.90
2304 12.5368 4464.40 4256.96 72.10
2305 12.5406 4601.30 4256.21 73.20
2306 12.5443 4410.70 4255.47 71.60
2307 12.5481 4419.50 4254.72 71.90
2308 12.5519 4488.70 4253.98 72.60
2309 12.5556 4495.30 4253.23 72.20
2310 12.5594 4471.90 4252.49 71.90
2311 12.5631 4520.60 4251.74 72.50
2312 12.5669 4534.00 4250.99 72.80
2313 12.5706 4590.30 4250.24 73.30
2314 12.5744 4491.20 4249.49 72.20
2315 12.5781 4574.70 4248.74 73.40
2316 12.5819 4460.50 4247.99 72.10
2317 12.5857 4477.10 4247.24 71.90
2318 12.5894 4449.10 4246.49 72.00
2319 12.5932 4487.60 4245.73 72.30
2320 12.5969 4411.40 4244.98 71.50
2321 12.6007 4500.10 4244.23 71.90
2322 12.6044 4356.80 4243.47 71.30
2323 12.6082 4610.80 4242.72 72.90
2324 12.6119 4410.40 4241.96 71.40
2325 12.6157 4650.70 4241.20 73.60
2326 12.6195 4451.00 4240.44 71.60
2327 12.6232 4483.40 4239.68 72.70
2328 12.6270 4377.60 4238.92 71.40
2329 12.6307 4456.30 4238.16 72.20
2330 12.6345 4506.70 4237.40 72.20
2331 12.6383 4544.40 4236.64 72.70
2332 12.6420 4375.30 4235.88 71.60
2333 12.6458 4487.80 4235.11 72.10
2334 12.6495 4381.90 4234.35 71.60
2335 12.6533 4600.40 4233.59 73.00
2336 12.6570 4493.70 4232.82 71.50
2337 12.6608 4443.20 4232.05 71.20
2338 12.6645 4395.70 4231.29 70.50
2339 12.6683 4500.20 4230.52 71.90
2340 12.6721 4391.70 4229.75 71.30
2341 12.6758 4433.10 4228.98 72.30
2342 12.6796 4382.30 4228.21 70.40
2343 12.6833 4419.10 4227.44 70.60
2344 12.6871 4523.70 4226.67 73.80
2345 12.6908 4466.60 4225.90 71.90
2346 12.6946 4403.60 4225.12 70.90
2347 12.6983 4539.20 4224.35 72.40
2348 12.7021 4371.80 4223.58 71.60
2349 12.7059 4502.80 4222.80 72.10
2350 12.7096 4335.50 4222.03 71.50
2351 12.7134 4589.00 4221.25 73.30
2352 12.7171 4352.40 4220.47 70.50
2353 12.7209 4487.90 4219.70 73.10
2354 12.7247 4354.80 4218.92 69.90
2355 12.7284 4374.00 4218.14 71.50
2356 12.7322 4386.90 4217.36 71.80
2357 12.7359 4479.80 4216.58 73.40
2358 12.7397 4466.90 4215.80 72.70
2359 12.7434 4506.30 4215.02 71.80
2360 12.7472 4333.40 4214.23 71.90
2361 12.7509 4484.90 4213.45 72.60
2362 12.7547 4508.00 4212.67 73.00
2363 12.7585 4591.40 4211.88 73.70
2364 12.7622 4525.20 4211.10 72.50
2365 12.7660 4626.80 4210.31 74.40
2366 12.7697 4386.10 4209.52 71.60
2367 12.7735 4557.10 4208.74 71.60
2368 12.7773 4414.30 4207.95 71.50
2369 12.7810 4411.30 4207.16 72.30
2370 12.7848 4450.90 4206.37 71.20
2371 12.7885 4415.90 4205.58 71.70
2372 12.7923 4428.40 4204.79 70.50
2373 12.7960 4486.50 4204.00 73.10
2374 12.7998 4382.30 4203.20 72.10
2375 12.8035 4535.10 4202.41 73.00
2376 12.8073 4397.60 4201.62 71.40
2377 12.8111 4520.70 4200.82 72.90
2378 12.8148 4448.80 4200.03 71.70
2379 12.8186 4516.10 4199.23 73.00
2380 12.8223 4290.70 4198.44 71.10
2381 12.8261 4530.40 4197.64 72.80
2382 12.8299 4470.20 4196.84 72.60
2383 12.8336 4484.30 4196.05 73.30
2384 12.8374 4349.20 4195.25 72.10
2385 12.8411 4551.50 4194.45 73.30
2386 12.8449 4378.70 4193.65 70.80
2387 12.8486 4416.70 4192.85 72.40
2388 12.8524 4501.50 4192.04 72.70
2389 12.8562 4584.60 4191.24 73.70
2390 12.8599 4430.60 4190.44 71.40
2391 12.8637 4374.00 4189.63 71.80
2392 12.8674 4469.30 4188.83 72.00
2393 12.8712 4562.50 4188.02 73.30
2394 12.8750 4431.60 4187.22 72.00
2395 12.8787 4369.50 4186.41 71.50
2396 12.8825 4505.40 4185.61 73.30
2397 12.8862 4499.70 4184.80 72.70
2398 12.8900 4488.60 4183.99 72.70
2399 12.8937 4397.00 4183.18 72.30
2400 12.8975 4432.30 4182.37 72.20
2401 12.9012 4570.20 4181.56 73.20
2402 12.9050 4382.50 4180.75 70.90
2403 12.9088 4536.70 4179.94 72.50
2404 12.9125 4361.40 4179.13 71.80
2405 12.9163 4619.10 4178.31 74.00
2406 12.9200 4574.50 4177.50 72.90
2407 12.9238 4486.30 4176.68 71.80
2408 12.9276 4411.50 4175.87 72.80
2409 12.9313 4417.80 4175.06 71.70
2410 12.9351 4455.30 4174.24 72.10
2411 12.9388 4381.20 4173.42 71.10
2412 12.9426 4411.20 4172.60 72.10
2413 12.9463 4422.30 4171.79 72.80
2414 12.9501 4501.90 4170.97 73.50
2415 12.9539 4383.50 4170.15 71.60
2416 12.9576 4566.00 4169.33 73.20
2417 12.9614 4492.40 4168.51 72.60
2418 12.9651 4422.40 4167.69 72.20
2419 12.9689 4447.00 4166.86 71.30
2420 12.9726 4371.50 4166.04 70.90
2421 12.9764 4615.40 4165.22 73.40
2422 12.9802 4402.60 4164.39 71.10
2423 12.9839 4419.70 4163.57 71.90
2424 12.9877 4364.10 4162.74 71.30
2425 12.9914 4528.20 4161.92 72.40
2426 12.9952 4423.50 4161.09 71.40
2427 12.9990 4556.40 4160.27 72.30
2428 13.0027 4319.80 4159.44 69.80
2429 13.0065 4472.50 4158.61 70.00
2430 13.0102 4300.20 4157.78 70.60
2431 13.0140 4469.40 4156.95 72.40
2432 13.0177 4485.80 4156.12 73.60
2433 13.0215 4544.40 4155.29 71.90
2434 13.0253 4355.80 4154.46 70.80
2435 13.0290 4468.40 4153.62 71.50
2436 13.0328 4339.00 4152.79 70.20
2437 13.0365 4405.70 4151.96 70.30
2438 13.0403 4465.00 4151.13 71.90
2439 13.0441 4219.70 4150.29 70.00
2440 13.0478 4358.00 4149.46 70.70
2441 13.0516 4411.00 4148.62 71.40
2442 13.0553 4306.70 4147.78 71.00
2443 13.0591 4436.80 4146.94 71.80
2444 13.0628 4400.60 4146.11 71.80
2445 13.0666 4426.20 4145.27 71.70
2446 13.0704 4404.20 4144.43 72.10
2447 13.0741 4461.50 4143.59 73.10
2448 13.0779 4246.10 4142.75 71.30
2449 13.0816 4499.50 4141.91 72.80
2450 13.0854 4378.10 4141.07 71.10
2451 13.0892 4539.50 4140.23 73.10
2452 13.0929 4314.70 4139.38 71.70
2453 13.0967 4443.90 4138.54 72.70
2454 13.1004 4469.50 4137.70 72.40
2455 13.1042 4375.00 4136.85 71.50
2456 13.1079 4404.80 4136.01 71.50
2457 13.1117 4582.50 4135.16 74.40
2458 13.1155 4376.40 4134.31 71.70
2459 13.1192 4541.70 4133.47 73.10
2460 13.1230 4409.80 4132.62 71.80
2461 13.1267 4479.90 4131.77 72.20
2462 13.1305 4366.30 4130.92 71.20
2463 13.1342 4415.60 4130.08 72.10
2464 13.1380 4424.60 4129.23 71.90
2465 13.1418 4448.10 4128.37 72.10
2466 13.1455 4345.70 4127.52 71.10
2467 13.1493 4447.10 4126.67 71.60
2468 13.1531 4221.10 4125.82 73.90
2469 13.1568 4396.80 4124.96 71.00
2470 13.1606 4446.70 4124.11 70.20
2471 13.1643 4520.10 4123.26 70.80
2472 13.1681 4267.00 4122.40 69.10
2473 13.1718 4404.70 4121.55 70.70
2474 13.1756 4459.50 4120.69 70.80
2475 13.1794 4425.20 4119.84 70.70
2476 13.1831 4336.70 4118.98 69.70
2477 13.1869 4446.40 4118.12 70.50
2478 13.1906 4379.70 4117.26 69.40
2479 13.1944 4365.70 4116.41 69.70
2480 13.1981 4382.90 4115.55 70.00
2481 13.2019 4423.80 4114.69 70.00
2482 13.2057 4378.70 4113.82 69.00
2483 13.2094 4422.90 4112.96 70.40
2484 13.2132 4238.10 4112.10 68.50
2485 13.2170 4513.30 4111.24 70.90
2486 13.2207 4397.40 4110.38 70.40
2487 13.2245 4380.70 4109.52 70.10
2488 13.2282 4402.00 4108.65 70.40
2489 13.2320 4434.60 4107.79 70.00
2490 13.2357 4316.20 4106.92 68.90
2491 13.2395 4440.00 4106.05 70.60
2492 13.2433 4305.50 4105.19 70.00
2493 13.2470 4530.20 4104.32 71.80
2494 13.2508 4332.30 4103.45 69.70
2495 13.2545 4474.40 4102.59 71.30
2496 13.2583 4384.90 4101.72 70.40
2497 13.2620 4440.70 4100.85 70.80
2498 13.2658 4366.20 4099.98 69.10
2499 13.2696 4342.50 4099.11 69.50
2500 13.2733 4317.90 4098.24 70.20
2501 13.2771 4504.60 4097.37 71.50
2502 13.2809 4357.30 4096.49 70.30
2503 13.2846 4426.60 4095.62 70.50
2504 13.2884 4372.40 4094.75 69.40
2505 13.2921 4332.50 4093.88 70.30
2506 13.2959 4401.50 4093.00 70.20
2507 13.2996 4423.40 4092.13 70.50
2508 13.3034 4352.10 4091.25 70.30
2509 13.3072 4290.10 4090.38 68.70
2510 13.3109 4288.70 4089.50 69.90
2511 13.3147 4335.50 4088.62 69.70
2512 13.3184 4329.50 4087.75 69.90
2513 13.3222 4379.80 4086.87 70.10
2514 13.3260 4295.30 4085.99 69.10
2515 13.3297 4495.20 4085.11 71.40
2516 13.3335 4299.10 4084.23 70.10
2517 13.3372 4438.10 4083.35 70.60
2518 13.3410 4475.80 4082.47 72.60
2519 13.3448 4510.80 4081.59 71.50
2520 13.3485 4425.20 4080.71 70.90
2521 13.3523 4421.90 4079.82 70.40
2522 13.3560 4230.60 4078.94 68.40
2523 13.3598 4441.40 4078.06 70.50
2524 13.3636 4353.00 4077.17 70.00
2525 13.3673 4506.20 4076.29 70.60
2526 13.3711 4398.80 4075.40 71.20
2527 13.3748 4317.90 4074.52 69.00
2528 13.3786 4353.40 4073.63 70.30
2529 13.3823 4401.50 4072.74 71.30
2530 13.3861 4286.10 4071.86 69.30
2531 13.3899 4432.60 4070.97 69.60
2532 13.3936 4369.30 4070.08 70.40
2533 13.3974 4504.80 4069.19 71.50
2534 13.4011 4403.80 4068.30 71.30
2535 13.4049 4332.50 4067.41 70.40
2536 13.4087 4419.00 4066.52 72.00
2537 13.4124 4477.30 4065.63 71.80
2538 13.4162 4261.30 4064.74 69.80
2539 13.4199 4373.20 4063.85 70.00
2540 13.4237 4380.40 4062.96 70.70
2541 13.4275 4417.30 4062.06 70.90
2542 13.4312 4379.70 4061.17 70.20
2543 13.4350 4376.90 4060.28 71.10
2544 13.4387 4378.90 4059.38 70.10
2545 13.4425 4354.10 4058.49 70.60
2546 13.4462 4307.90 4057.59 69.90
2547 13.4500 4412.70 4056.70 70.40
2548 13.4538 4318.80 4055.80 70.20
2549 13.4575 4415.70 4054.90 71.10
2550 13.4613 4270.70 4054.00 68.90
2551 13.4650 4600.10 4053.11 72.70
2552 13.4688 4352.30 4052.21 70.50
2553 13.4726 4270.60 4051.31 69.70
2554 13.4763 4476.00 4050.41 71.20
2555 13.4801 4491.30 4049.51 71.40
2556 13.4838 4334.80 4048.61 70.00
2557 13.4876 4518.10 4047.70 72.30
2558 13.4914 4244.40 4046.80 69.70
2559 13.4951 4500.50 4045.90 71.90
2560 13.4989 4387.30 4045.00 71.10
2561 13.5027 4448.20 4044.09 70.60
2562 13.5064 4320.50 4043.19 70.00
2563 13.5102 4365.90 4042.29 71.10
2564 13.5139 4229.30 4041.38 68.80
2565 13.5177 4343.70 4040.48 70.00
2566 13.5215 4331.40 4039.57 71.10
2567 13.5252 4309.80 4038.66 69.70
2568 13.5290 4305.70 4037.76 69.70
2569 13.5327 4297.60 4036.85 70.30
2570 13.5365 4231.10 4035.94 69.10
2571 13.5402 4476.00 4035.03 72.80
2572 13.5440 4316.00 4034.13 70.10
2573 13.5478 4394.70 4033.22 71.30
2574 13.5515 4267.70 4032.31 69.70
2575 13.5553 4390.50 4031.40 69.80
2576 13.5590 4280.00 4030.49 69.00
2577 13.5628 4367.50 4029.57 70.80
2578 13.5666 4368.40 4028.66 71.30
2579 13.5703 4332.00 4027.75 70.40
2580 13.5741 4458.90 4026.84 71.50
2581 13.5778 4275.80 4025.92 69.60
2582 13.5816 4230.00 4025.01 69.10
2583 13.5854 4303.60 4024.10 70.30
2584 13.5891 4362.80 4023.18 71.70
2585 13.5929 4347.40 4022.27 70.30
2586 13.5966 4361.80 4021.35 70.90
2587 13.6004 4377.50 4020.44 71.10
2588 13.6042 4345.70 4019.52 71.00
2589 13.6079 4438.60 4018.60 71.50
2590 13.6117 4410.60 4017.68 71.30
2591 13.6154 4328.60 4016.77 69.70
2592 13.6192 4339.40 4015.85 70.70
2593 13.6230 4284.10 4014.93 70.60
2594 13.6267 4316.70 4014.01 70.70
2595 13.6305 4278.60 4013.09 70.20
2596 13.6342 4260.00 4012.17 70.40
2597 13.6380 4328.60 4011.25 70.90
2598 13.6418 4432.80 4010.33 72.20
2599 13.6455 4356.60 4009.41 71.00
2600 13.6493 4325.00 4008.48 70.70
2601 13.6530 4366.40 4007.56 71.10
2602 13.6568 4297.40 4006.64 70.70
2603 13.6606 4345.40 4005.71 71.20
2604 13.6643 4338.70 4004.79 71.20
2605 13.6681 4322.20 4003.86 71.50
2606 13.6718 4123.60 4002.94 69.20
2607 13.6756 4295.60 4002.01 70.90
2608 13.6794 4256.80 4001.09 70.80
2609 13.6831 4418.00 4000.16 71.70
2610 13.6869 4258.00 3999.24 70.60
2611 13.6906 4234.00 3998.31 69.50
2612 13.6944 4216.80 3997.38 69.90
2613 13.6982 4321.20 3996.45 71.30
2614 13.7019 4298.10 3995.52 69.60
2615 13.7057 4296.60 3994.59 71.80
2616 13.7094 4325.70 3993.67 71.00
2617 13.7132 4382.50 3992.74 71.30
2618 13.7170 4283.70 3991.80 71.40
2619 13.7207 4297.70 3990.87 70.40
2620 13.7245 4244.20 3989.94 71.00
2621 13.7282 4443.20 3989.01 73.60
2622 13.7320 4427.20 3988.08 72.50
2623 13.7358 4423.00 3987.15 72.50
2624 13.7395 4262.20 3986.21 70.90
2625 13.7433 4248.40 3985.28 70.30
2626 13.7470 4305.40 3984.35 70.90
2627 13.7508 4216.20 3983.41 70.00
2628 13.7546 4259.30 3982.48 70.60
2629 13.7583 4371.70 3981.54 72.10
2630 13.7621 4129.00 3980.61 68.30
2631 13.7658 4218.00 3979.67 69.20
2632 13.7696 4113.70 3978.73 69.90
2633 13.7734 4483.70 3977.79 73.60
2634 13.7771 4319.50 3976.86 71.20
2635 13.7809 4269.60 3975.92 69.60
2636 13.7846 4253.40 3974.98 70.70
2637 13.7884 4444.70 3974.04 72.80
2638 13.7922 4270.90 3973.10 70.70
2639 13.7959 4265.90 3972.16 70.10
2640 13.7997 4334.10 3971.22 72.40
2641 13.8034 4239.30 3970.28 71.70
2642 13.8072 4159.70 3969.34 69.50
2643 13.8110 4261.20 3968.40 71.70
2644 13.8147 4146.30 3967.46 69.80
2645 13.8185 4342.60 3966.52 71.70
2646 13.8223 4211.60 3965.57 70.60
2647 13.8260 4225.40 3964.63 70.40
2648 13.8298 4313.40 3963.69 71.70
2649 13.8335 4327.00 3962.74 71.40
2650 13.8373 4231.90 3961.80 71.50
2651 13.8411 4258.00 3960.85 71.10
2652 13.8448 4243.10 3959.91 70.50
2653 13.8486 4328.90 3958.96 71.10
2654 13.8523 4109.10 3958.02 69.40
2655 13.8561 4270.80 3957.07 71.30
2656 13.8598 4243.30 3956.12 72.10
2657 13.8636 4202.80 3955.18 69.80
2658 13.8674 4251.70 3954.23 71.00
2659 13.8711 4334.10 3953.28 71.80
2660 13.8749 4145.80 3952.33 70.00
2661 13.8786 4301.40 3951.38 71.90
2662 13.8824 4199.10 3950.44 70.30
2663 13.8862 4318.50 3949.49 71.10
2664 13.8899 4415.90 3948.54 72.60
2665 13.8937 4292.20 3947.58 71.40
2666 13.8975 4246.80 3946.63 71.30
2667 13.9012 4391.80 3945.68 72.20
2668 13.9050 4147.00 3944.73 70.40
2669 13.9087 4366.90 3943.78 71.90
2670 13.9125 4113.80 3942.82 69.70
2671 13.9163 4207.60 3941.87 70.30
2672 13.9200 4066.50 3940.92 69.10
2673 13.9238 4298.40 3939.97 71.30
2674 13.9275 4150.70 3939.01 70.30
2675 13.9313 4310.50 3938.06 72.20
2676 13.9351 4292.10 3937.10 71.40
2677 13.9388 4173.20 3936.15 69.00
2678 13.9426 4333.00 3935.19 72.30
2679 13.9463 4268.80 3934.24 71.10
2680 13.9501 4109.10 3933.28 70.50
2681 13.9539 4334.90 3932.32 71.20
2682 13.9576 4096.50 3931.37 69.50
2683 13.9614 4264.40 3930.41 70.60
2684 13.9651 4235.80 3929.45 71.40
2685 13.9689 4358.60 3928.49 72.00
2686 13.9727 4196.50 3927.53 70.50
2687 13.9764 4335.20 3926.57 73.10
2688 13.9802 4177.30 3925.61 70.60
2689 13.9839 4283.70 3924.65 71.50
2690 13.9877 4129.00 3923.69 70.50
2691 13.9915 4327.40 3922.73 71.20
2692 13.9952 4248.70 3921.77 71.20
2693 13.9990 4196.90 3920.81 70.40
2694 14.0028 4118.90 3919.85 70.00
2695 14.0065 4152.60 3918.89 69.60
2696 14.0103 4040.90 3917.92 69.80
2697 14.0140 4260.50 3916.96 71.00
2698 14.0178 4226.60 3916.00 70.70
2699 14.0216 4221.50 3915.03 70.50
2700 14.0253 4121.60 3914.07 69.60
2701 14.0291 4243.80 3913.11 71.80
2702 14.0328 4181.20 3912.14 71.70
2703 14.0366 4267.90 3911.17 72.00
2704 14.0404 4309.30 3910.21 70.90
2705 14.0441 4206.60 3909.24 70.40
2706 14.0479 4080.90 3908.28 69.40
2707 14.0516 4230.70 3907.31 69.50
2708 14.0554 4126.30 3906.34 69.30
2709 14.0592 4180.10 3905.38 70.00
2710 14.0629 4162.30 3904.41 70.50
2711 14.0667 4193.20 3903.44 70.70
2712 14.0704 4097.80 3902.47 70.10
2713 14.0742 4135.10 3901.50 69.60
2714 14.0780 4134.70 3900.54 68.70
2715 14.0817 4255.70 3899.57 71.30
2716 14.0855 4159.70 3898.59 69.90
2717 14.0892 4125.60 3897.62 69.60
2718 14.0930 4079.80 3896.65 69.60
2719 14.0968 4254.90 3895.68 71.10
2720 14.1005 4017.20 3894.71 69.20
2721 14.1043 4354.80 3893.74 72.40
2722 14.1081 4107.80 3892.77 69.90
2723 14.1118 4274.90 3891.80 71.00
2724 14.1156 4065.50 3890.82 70.10
2725 14.1193 4281.70 3889.85 72.00
2726 14.1231 4128.50 3888.88 70.20
2727 14.1269 4154.10 3887.90 71.50
2728 14.1306 4084.30 3886.93 70.00
2729 14.1344 4142.60 3885.96 70.10
2730 14.1381 4144.20 3884.98 70.50
2731 14.1419 4096.40 3884.00 69.60
2732 14.1457 4156.00 3883.03 69.60
2733 14.1494 4183.30 3882.05 70.00
2734 14.1532 4217.30 3881.08 71.70
2735 14.1569 4181.80 3880.10 69.30
2736 14.1607 4104.50 3879.12 70.90
2737 14.1645 4281.20 3878.15 71.60
2738 14.1682 4197.70 3877.17 71.80
2739 14.1720 4281.00 3876.19 72.00
2740 14.1757 4081.80 3875.21 70.50
2741 14.1795 4176.50 3874.24 71.20
2742 14.1833 4132.20 3873.26 69.60
2743 14.1870 4178.00 3872.28 71.40
2744 14.1908 4076.10 3871.30 69.80
2745 14.1945 4296.20 3870.32 71.60
2746 14.1983 4178.40 3869.34 71.00
2747 14.2021 4151.30 3868.36 70.80
2748 14.2058 4105.10 3867.38 70.40
2749 14.2096 4191.20 3866.40 70.40
2750 14.2134 4203.30 3865.42 71.20
2751 14.2171 4209.40 3864.43 71.30
2752 14.2209 4012.00 3863.45 69.60
2753 14.2246 4135.20 3862.47 71.30
2754 14.2284 4127.20 3861.48 69.80
2755 14.2322 4242.70 3860.50 71.60
2756 14.2359 4138.10 3859.52 71.40
2757 14.2397 4232.00 3858.53 71.90
2758 14.2434 4014.80 3857.55 69.20
2759 14.2472 4124.90 3856.57 70.50
2760 14.2510 4105.00 3855.58 69.20
2761 14.2547 4286.50 3854.60 71.90
2762 14.2585 4081.00 3853.61 70.20
2763 14.2622 4095.90 3852.63 70.30
2764 14.2660 4147.10 3851.64 70.70
2765 14.2698 4105.80 3850.65 70.60
2766 14.2735 4143.50 3849.67 71.30
2767 14.2773 4162.50 3848.68 70.80
2768 14.2810 4121.10 3847.69 71.70
2769 14.2848 4116.90 3846.71 69.40
2770 14.2886 3921.60 3845.72 67.90
2771 14.2923 4084.80 3844.73 69.80
2772 14.2961 4126.40 3843.74 71.50
2773 14.2999 4092.20 3842.75 69.50
2774 14.3036 4119.60 3841.77 69.60
2775 14.3074 4187.80 3840.78 70.70
2776 14.3111 4123.10 3839.79 70.40
2777 14.3149 4159.90 3838.80 70.00
2778 14.3187 4057.10 3837.81 69.80
2779 14.3224 4227.60 3836.82 71.30
2780 14.3262 4113.40 3835.83 70.40
2781 14.3299 3973.80 3834.83 69.20
2782 14.3337 4110.70 3833.84 71.00
2783 14.3375 4044.90 3832.85 69.70
2784 14.3412 4079.40 3831.86 71.10
2785 14.3450 4103.80 3830.87 70.10
2786 14.3487 3999.20 3829.88 69.20
2787 14.3525 4133.40 3828.88 70.90
2788 14.3563 4040.10 3827.89 69.50
2789 14.3600 4041.90 3826.90 69.50
2790 14.3638 3983.70 3825.90 69.60
2791 14.3675 4018.20 3824.91 69.20
2792 14.3713 4068.80 3823.91 70.60
2793 14.3751 4110.10 3822.92 70.10
2794 14.3788 4053.30 3821.93 68.90
2795 14.3826 3974.30 3820.93 69.10
2796 14.3863 4031.20 3819.94 69.90
2797 14.3901 4057.90 3818.94 69.70
2798 14.3939 4000.80 3817.94 68.90
2799 14.3976 4055.60 3816.95 70.30
2800 14.4014 4045.30 3815.95 69.20
2801 14.4052 4106.60 3814.95 70.40
2802 14.4089 4048.20 3813.96 69.40
2803 14.4127 4097.40 3812.96 71.50
2804 14.4164 4059.70 3811.96 70.00
2805 14.4202 4075.70 3810.96 69.90
2806 14.4240 3988.90 3809.97 69.60
2807 14.4277 4082.30 3808.97 69.90
2808 14.4315 3924.30 3807.97 68.90
2809 14.4353 4178.50 3806.97 71.00
2810 14.4390 4077.00 3805.97 70.00
2811 14.4428 4026.70 3804.97 70.10
2812 14.4465 4013.50 3803.97 70.10
2813 14.4503 4079.20 3802.97 70.30
2814 14.4541 3964.20 3801.97 68.60
2815 14.4578 4052.80 3800.97 69.80
2816 14.4616 3891.50 3799.97 68.40
2817 14.4653 4033.70 3798.97 71.00
2818 14.4691 3996.90 3797.97 70.30
2819 14.4729 4059.30 3796.96 69.90
2820 14.4766 4068.40 3795.96 69.90
2821 14.4804 4042.20 3794.96 69.70
2822 14.4841 4040.20 3793.96 70.20
2823 14.4879 4048.70 3792.96 69.60
2824 14.4917 4029.10 3791.95 69.90
2825 14.4954 4109.70 3790.95 70.20
2826 14.4992 3895.50 3789.95 69.20
2827 14.5029 4024.30 3788.94 69.90
2828 14.5067 4063.10 3787.94 70.40
2829 14.5105 4025.40 3786.93 68.70
2830 14.5142 3948.00 3785.93 69.80
2831 14.5180 4095.50 3784.93 70.50
2832 14.5218 3843.70 3783.92 68.40
2833 14.5255 4141.20 3782.92 71.00
2834 14.5293 3977.80 3781.91 69.60
2835 14.5330 3984.90 3780.91 68.90
2836 14.5368 3958.30 3779.90 68.10
2837 14.5406 4167.20 3778.89 71.80
2838 14.5443 3945.40 3777.89 68.50
2839 14.5481 3996.30 3776.88 69.40
2840 14.5518 3998.40 3775.87 69.60
2841 14.5556 4045.70 3774.86 70.30
2842 14.5594 4013.20 3773.86 70.30
2843 14.5631 3994.30 3772.85 69.50
2844 14.5669 3943.30 3771.84 69.00
2845 14.5706 4070.50 3770.84 69.00
2846 14.5744 3931.70 3769.83 68.50
2847 14.5782 3960.10 3768.82 68.80
2848 14.5819 3858.40 3767.81 68.20
2849 14.5857 4010.10 3766.80 70.10
2850 14.5894 3935.10 3765.79 69.40
2851 14.5932 4031.00 3764.78 69.80
2852 14.5970 3879.90 3763.77 70.20
2853 14.6007 4059.40 3762.76 68.40
2854 14.6045 3982.80 3761.75 67.70
2855 14.6082 3962.30 3760.74 68.60
2856 14.6120 4005.80 3759.73 68.10
2857 14.6158 4028.60 3758.72 68.40
2858 14.6195 3918.10 3757.71 67.60
2859 14.6233 4026.10 3756.70 68.40
2860 14.6271 3976.50 3755.68 68.00
2861 14.6308 4021.90 3754.67 68.00
2862 14.6346 4035.60 3753.66 68.20
2863 14.6383 4135.00 3752.65 70.10
2864 14.6421 4044.30 3751.64 69.00
2865 14.6459 4044.80 3750.63 68.70
2866 14.6496 3869.20 3749.61 67.10
2867 14.6534 4041.80 3748.60 68.70
2868 14.6572 3954.30 3747.58 67.80
2869 14.6609 4106.90 3746.57 69.70
2870 14.6647 3851.60 3745.56 66.40
2871 14.6684 4029.40 3744.54 68.40
2872 14.6722 3911.90 3743.53 67.50
2873 14.6760 4038.20 3742.52 68.70
2874 14.6797 3847.60 3741.50 67.20
2875 14.6835 4048.10 3740.49 69.70
2876 14.6872 3857.70 3739.47 66.90
2877 14.6910 3946.60 3738.46 67.10
2878 14.6948 3867.40 3737.44 66.70
2879 14.6985 3919.00 3736.42 68.20
2880 14.7023 3806.00 3735.41 66.00
2881 14.7060 3964.30 3734.39 68.20
2882 14.7098 3929.30 3733.38 66.60
2883 14.7136 4020.50 3732.36 68.00
2884 14.7173 3998.30 3731.34 68.50
2885 14.7211 3921.40 3730.33 67.60
2886 14.7248 3963.80 3729.31 67.50
2887 14.7286 3873.30 3728.29 67.10
2888 14.7324 3905.40 3727.28 68.10
2889 14.7399 3920.20 3725.24 68.00
2890 14.7474 3933.40 3723.20 67.90
2891 14.7512 4047.80 3722.19 69.00
2892 14.7549 3866.70 3721.17 68.10
2893 14.7587 3868.10 3720.15 65.70
2894 14.7625 3727.30 3719.13 66.40
2895 14.7662 3871.70 3718.11 67.30
2896 14.7700 3936.30 3717.09 68.70
2897 14.7737 3891.60 3716.07 66.50
2898 14.7775 3776.90 3715.05 66.20
2899 14.7813 3936.70 3714.03 67.50
2900 14.7850 3823.00 3713.01 65.90
2901 14.7888 3962.30 3711.99 67.10
2902 14.7925 3857.20 3710.97 66.60
2903 14.7963 3849.20 3709.95 67.00
2904 14.8001 3760.90 3708.93 66.20
2905 14.8038 4052.10 3707.91 69.10
2906 14.8076 3852.30 3706.89 67.70
2907 14.8113 3831.90 3705.86 67.30
2908 14.8151 3968.70 3704.84 68.30
2909 14.8189 3923.20 3703.82 67.60
2910 14.8226 3870.70 3702.80 67.30
2911 14.8264 3995.00 3701.78 68.90
2912 14.8301 3888.80 3700.75 66.20
2913 14.8339 3816.20 3699.73 66.70
2914 14.8377 4029.00 3698.71 69.00
2915 14.8414 3887.10 3697.69 67.20
2916 14.8452 3903.50 3696.66 67.90
2917 14.8490 3912.00 3695.64 68.00
2918 14.8527 3915.20 3694.61 67.30
2919 14.8565 3864.40 3693.59 67.40
2920 14.8602 3914.70 3692.57 67.40
2921 14.8640 3906.20 3691.54 67.30
2922 14.8678 3780.90 3690.52 66.20
2923 14.8715 4010.80 3689.50 68.70
2924 14.8753 3842.20 3688.47 67.40
2925 14.8790 3890.60 3687.45 67.30
2926 14.8828 3880.90 3686.42 67.30
2927 14.8866 4005.60 3685.40 69.00
2928 14.8903 3790.40 3684.37 65.90
2929 14.8941 4042.40 3683.35 69.40
2930 14.8979 3961.40 3682.32 68.70
2931 14.9016 3874.60 3681.30 67.10
2932 14.9054 3899.60 3680.27 67.20
2933 14.9091 3855.40 3679.24 67.10
2934 14.9129 3873.30 3678.22 66.90
2935 14.9166 3931.80 3677.19 67.50
2936 14.9204 3697.20 3676.17 65.10
2937 14.9242 3800.50 3675.14 66.70
2938 14.9279 3858.30 3674.11 66.10
2939 14.9317 3932.20 3673.08 67.80
2940 14.9355 3870.90 3672.06 67.00
2941 14.9392 3890.50 3671.03 67.40
2942 14.9430 3845.60 3670.00 66.70
2943 14.9467 3926.40 3668.98 67.00
2944 14.9505 3820.60 3667.95 66.20
2945 14.9543 3963.60 3666.92 68.00
2946 14.9580 3867.10 3665.89 67.00
2947 14.9618 3851.10 3664.87 66.80
2948 14.9655 3870.30 3663.84 67.40
2949 14.9693 3934.30 3662.81 67.60
2950 14.9731 3838.70 3661.78 67.50
2951 14.9768 3790.70 3660.75 66.50
2952 14.9806 3702.10 3659.72 65.70
2953 14.9844 3973.70 3658.69 68.00
2954 14.9881 3730.10 3657.66 65.80
2955 14.9919 3849.30 3656.64 66.80
2956 14.9956 3698.60 3655.61 65.40
2957 14.9994 3841.10 3654.58 67.00
2958 15.0031 3773.90 3653.55 67.30
2959 15.0069 3884.20 3652.52 67.50
2960 15.0107 3682.90 3651.49 65.30
2961 15.0144 3788.00 3650.46 66.90
2962 15.0182 3685.10 3649.43 65.20
2963 15.0220 3874.60 3648.40 67.60
2964 15.0257 3845.40 3647.37 68.00
2965 15.0295 3886.20 3646.34 66.80
2966 15.0332 3802.40 3645.31 67.40
2967 15.0370 3982.70 3644.28 67.60
2968 15.0408 3818.60 3643.24 66.90
2969 15.0445 3855.10 3642.21 66.90
2970 15.0483 3829.80 3641.18 66.80
2971 15.0520 3831.60 3640.15 66.70
2972 15.0558 3644.20 3639.12 65.00
2973 15.0596 3894.50 3638.09 67.70
2974 15.0633 3833.40 3637.06 66.40
2975 15.0671 3745.10 3636.03 66.50
2976 15.0709 3745.90 3634.99 64.50
2977 15.0746 3815.70 3633.96 66.40
2978 15.0784 3787.10 3632.93 67.10
2979 15.0821 3869.60 3631.89 67.40
2980 15.0859 3818.30 3630.86 65.70
2981 15.0897 3756.10 3629.83 66.50
2982 15.0934 3758.80 3628.80 66.40
2983 15.0972 3779.50 3627.77 65.60
2984 15.1009 3776.50 3626.73 66.60
2985 15.1047 3784.00 3625.70 66.60
2986 15.1084 3805.10 3624.67 66.40
2987 15.1122 3875.20 3623.63 67.70
2988 15.1160 3843.40 3622.60 67.80
2989 15.1197 3865.70 3621.57 67.00
2990 15.1235 3803.00 3620.53 65.70
2991 15.1273 3874.40 3619.50 66.60
2992 15.1310 3715.80 3618.46 66.20
2993 15.1348 3803.60 3617.43 66.40
2994 15.1385 3748.90 3616.40 66.10
2995 15.1423 3742.50 3615.36 66.00
2996 15.1461 3770.50 3614.33 66.10
2997 15.1498 3789.80 3613.29 67.40
2998 15.1536 3614.90 3612.26 65.00
2999 15.1573 3857.00 3611.23 67.40
3000 15.1611 3668.40 3610.19 65.40
3001 15.1649 3723.40 3609.16 63.80
3002 15.1686 3684.50 3608.12 65.70
3003 15.1724 3834.50 3607.09 66.80
3004 15.1761 3649.00 3606.05 65.20
3005 15.1799 3830.10 3605.01 66.50
3006 15.1837 3680.10 3603.98 66.20
3007 15.1874 3844.80 3602.94 67.90
3008 15.1912 3748.60 3601.91 66.40
3009 15.1950 3689.00 3600.87 65.90
3010 15.1987 3732.20 3599.84 67.10
3011 15.2025 3768.30 3598.80 67.10
3012 15.2062 3652.80 3597.77 64.70
3013 15.2100 3675.40 3596.73 65.60
3014 15.2137 3645.50 3595.70 65.20
3015 15.2175 3860.50 3594.66 67.60
3016 15.2213 3572.30 3593.62 65.30
3017 15.2250 3733.50 3592.59 66.80
3018 15.2288 3697.00 3591.55 65.80
3019 15.2325 3711.60 3590.51 65.10
3020 15.2363 3672.70 3589.48 65.90
3021 15.2401 3835.50 3588.44 67.60
3022 15.2438 3703.90 3587.40 65.70
3023 15.2476 3793.80 3586.37 67.70
3024 15.2514 3807.50 3585.33 67.70
3025 15.2551 3817.80 3584.29 66.80
3026 15.2589 3939.80 3583.25 68.60
3027 15.2626 3843.80 3582.22 67.40
3028 15.2664 3683.10 3581.18 65.70
3029 15.2702 3681.80 3580.14 65.90
3030 15.2739 3734.50 3579.11 65.90
3031 15.2777 3764.00 3578.07 67.50
3032 15.2814 3494.20 3577.03 64.60
3033 15.2852 3818.00 3575.99 66.70
3034 15.2890 3651.70 3574.96 65.80
3035 15.2927 3770.00 3573.92 67.10
3036 15.2965 3664.10 3572.88 66.00
3037 15.3002 3723.40 3571.84 65.80
3038 15.3040 3664.00 3570.81 65.90
3039 15.3078 3592.10 3569.77 64.40
3040 15.3115 3610.70 3568.73 65.90
3041 15.3153 3758.80 3567.69 65.90
3042 15.3190 3685.80 3566.65 66.20
3043 15.3228 3633.40 3565.61 65.10
3044 15.3266 3709.20 3564.57 67.10
3045 15.3303 3692.60 3563.54 66.00
3046 15.3341 3537.40 3562.50 64.80
3047 15.3378 3804.80 3561.46 67.30
3048 15.3416 3692.60 3560.42 65.20
3049 15.3454 3704.00 3559.38 66.70
3050 15.3491 3666.70 3558.34 64.90
3051 15.3529 3836.60 3557.30 67.70
3052 15.3567 3544.30 3556.27 63.80
3053 15.3604 3614.60 3555.23 65.40
3054 15.3642 3576.20 3554.19 65.90
3055 15.3679 3800.10 3553.15 66.40
3056 15.3717 3727.00 3552.11 66.50
3057 15.3755 3689.70 3551.07 66.60
3058 15.3792 3599.20 3550.03 65.20
3059 15.3830 3744.90 3548.99 67.10
3060 15.3867 3656.40 3547.95 66.20
3061 15.3905 3688.70 3546.91 66.10
3062 15.3942 3568.10 3545.87 64.70
3063 15.3980 3653.70 3544.83 65.30
3064 15.4018 3662.80 3543.79 66.20
3065 15.4055 3705.80 3542.76 66.20
3066 15.4093 3613.50 3541.72 63.80
3067 15.4130 3637.60 3540.68 65.70
3068 15.4168 3574.70 3539.64 64.30
3069 15.4206 3637.50 3538.60 65.90
3070 15.4243 3758.50 3537.56 66.70
3071 15.4281 3652.10 3536.52 66.40
3072 15.4319 3642.00 3535.48 65.60
3073 15.4356 3736.00 3534.44 67.00
3074 15.4394 3504.60 3533.40 63.80
3075 15.4431 3680.30 3532.36 66.00
3076 15.4469 3668.80 3531.32 65.50
3077 15.4507 3681.90 3530.27 66.90
3078 15.4544 3566.00 3529.23 64.90
3079 15.4582 3681.60 3528.19 66.80
3080 15.4619 3506.60 3527.15 64.50
3081 15.4657 3765.40 3526.12 67.70
3082 15.4695 3495.70 3525.07 63.40
3083 15.4732 3696.90 3524.03 66.40
3084 15.4770 3611.10 3522.99 64.90
3085 15.4807 3622.50 3521.95 65.40
3086 15.4845 3524.50 3520.91 64.70
3087 15.4883 3597.40 3519.87 65.60
3088 15.4920 3582.20 3518.83 65.50
3089 15.4958 3644.50 3517.79 65.60
3090 15.4995 3653.60 3516.75 65.40
3091 15.5033 3530.50 3515.71 64.20
3092 15.5071 3668.40 3514.67 65.40
3093 15.5108 3595.90 3513.63 64.90
3094 15.5146 3594.10 3512.59 63.80
3095 15.5183 3743.80 3511.54 66.70
3096 15.5221 3610.10 3510.50 66.20
3097 15.5259 3636.60 3509.46 65.80
3098 15.5296 3537.00 3508.42 65.10
3099 15.5334 3710.70 3507.38 66.00
3100 15.5371 3625.90 3506.34 66.40
3101 15.5409 3618.60 3505.30 66.00
3102 15.5447 3666.00 3504.26 66.60
3103 15.5484 3561.60 3503.22 64.40
3104 15.5522 3544.30 3502.18 65.50
3105 15.5559 3683.70 3501.14 66.50
3106 15.5597 3517.70 3500.09 64.90
3107 15.5635 3665.10 3499.05 63.90
3108 15.5672 3537.00 3498.01 62.90
3109 15.5710 3729.50 3496.97 63.90
3110 15.5747 3573.40 3495.93 63.20
3111 15.5785 3591.00 3494.89 63.80
3112 15.5823 3550.50 3493.85 62.80
3113 15.5860 3634.70 3492.81 64.00
3114 15.5898 3572.90 3491.76 63.00
3115 15.5935 3707.10 3490.72 64.50
3116 15.5973 3614.60 3489.68 63.00
3117 15.6011 3606.10 3488.64 63.90
3118 15.6048 3587.50 3487.60 63.30
3119 15.6086 3708.00 3486.56 65.10
3120 15.6123 3684.70 3485.52 64.10
3121 15.6161 3616.80 3484.48 64.00
3122 15.6199 3684.10 3483.43 64.20
3123 15.6236 3667.00 3482.40 64.00
3124 15.6274 3578.60 3481.35 62.60
3125 15.6311 3596.20 3480.31 63.10
3126 15.6349 3629.50 3479.27 63.40
3127 15.6386 3557.30 3478.23 63.40
3128 15.6424 3697.50 3477.19 64.40
3129 15.6462 3630.40 3476.15 63.50
3130 15.6499 3539.20 3475.11 62.90
3131 15.6537 3634.60 3474.06 64.00
3132 15.6574 3568.90 3473.02 63.00
3133 15.6612 3720.90 3471.98 64.70
3134 15.6650 3536.20 3470.94 62.40
3135 15.6687 3544.20 3469.90 62.90
3136 15.6725 3615.60 3468.86 63.30
3137 15.6763 3564.10 3467.82 62.50
3138 15.6800 3513.80 3466.77 62.80
3139 15.6838 3471.70 3465.73 62.10
3140 15.6875 3739.50 3464.69 65.30
3141 15.6913 3629.00 3463.65 64.20
3142 15.6951 3498.90 3462.61 62.90
3143 15.6988 3598.60 3461.57 63.60
3144 15.7026 3552.70 3460.53 63.50
3145 15.7063 3555.60 3459.49 62.90
3146 15.7101 3452.00 3458.44 61.80
3147 15.7139 3546.40 3457.40 64.10
3148 15.7176 3555.70 3456.36 62.90
3149 15.7214 3649.50 3455.32 64.10
3150 15.7251 3391.40 3454.28 60.70
3151 15.7289 3453.20 3453.24 62.50
3152 15.7326 3600.40 3452.20 64.40
3153 15.7364 3520.70 3451.16 62.60
3154 15.7402 3511.10 3450.12 63.30
3155 15.7439 3537.70 3449.07 62.90
3156 15.7477 3365.50 3448.03 61.50
3157 15.7514 3618.10 3446.99 63.40
3158 15.7552 3581.90 3445.95 63.20
3159 15.7590 3526.70 3444.91 62.40
3160 15.7627 3503.20 3443.87 62.70
3161 15.7665 3470.40 3442.83 63.40
3162 15.7702 3514.80 3441.79 63.00
3163 15.7740 3615.20 3440.75 64.00
3164 15.7778 3577.70 3439.70 64.00
3165 15.7815 3570.50 3438.66 63.80
3166 15.7853 3597.30 3437.62 64.10
3167 15.7890 3612.30 3436.58 64.30
3168 15.7928 3454.70 3435.54 62.80
3169 15.7966 3601.40 3434.50 63.40
3170 15.8003 3575.90 3433.46 63.50
3171 15.8041 3591.90 3432.42 63.50
3172 15.8078 3471.60 3431.38 62.40
3173 15.8116 3545.30 3430.34 63.50
3174 15.8153 3527.40 3429.30 63.10
3175 15.8191 3542.00 3428.26 62.80
3176 15.8229 3489.90 3427.22 63.30
3177 15.8266 3521.30 3426.18 63.30
3178 15.8304 3465.20 3425.14 62.50
3179 15.8342 3442.50 3424.09 62.30
3180 15.8379 3603.80 3423.05 64.00
3181 15.8417 3489.20 3422.01 62.80
3182 15.8454 3467.50 3420.97 63.00
3183 15.8492 3590.30 3419.93 63.10
3184 15.8530 3532.50 3418.89 63.10
3185 15.8567 3520.80 3417.85 63.10
3186 15.8605 3458.00 3416.81 62.10
3187 15.8642 3514.50 3415.77 62.70
3188 15.8680 3492.60 3414.73 62.60
3189 15.8717 3677.10 3413.69 64.90
3190 15.8755 3432.90 3412.65 62.30
3191 15.8793 3456.90 3411.61 62.20
3192 15.8830 3545.20 3410.57 63.40
3193 15.8868 3482.40 3409.53 62.50
3194 15.8905 3317.90 3408.49 61.70
3195 15.8943 3582.80 3407.45 63.40
3196 15.8981 3497.40 3406.41 63.40
3197 15.9018 3616.80 3405.37 63.50
3198 15.9056 3571.80 3404.33 64.10
3199 15.9093 3464.60 3403.29 63.10
3200 15.9131 3442.40 3402.25 62.80
3201 15.9169 3470.20 3401.21 63.10
3202 15.9206 3358.80 3400.18 61.90
3203 15.9244 3463.40 3399.13 62.30
3204 15.9281 3516.50 3398.10 63.20
3205 15.9319 3572.90 3397.06 63.90
3206 15.9356 3407.30 3396.02 61.50
3207 15.9394 3599.70 3394.98 64.30
3208 15.9432 3449.90 3393.94 62.40
3209 15.9469 3502.90 3392.90 63.20
3210 15.9507 3367.90 3391.86 62.20
3211 15.9544 3513.10 3390.82 63.20
3212 15.9582 3337.70 3389.78 61.70
3213 15.9620 3447.90 3388.74 62.90
3214 15.9657 3490.70 3387.70 62.50
3215 15.9695 3399.00 3386.67 62.50
3216 15.9732 3392.40 3385.63 62.10
3217 15.9770 3468.80 3384.59 62.50
3218 15.9808 3537.80 3383.55 63.40
3219 15.9845 3417.60 3382.51 62.60
3220 15.9883 3394.00 3381.47 61.70
3221 15.9920 3474.80 3380.43 62.80
3222 15.9958 3471.90 3379.40 63.30
3223 15.9995 3370.10 3378.36 62.10
3224 16.0033 3463.90 3377.32 62.90
3225 16.0071 3441.20 3376.28 62.50
3226 16.0108 3423.00 3375.24 62.60
3227 16.0146 3409.70 3374.21 62.60
3228 16.0183 3395.90 3373.17 61.20
3229 16.0221 3523.20 3372.13 63.90
3230 16.0259 3397.40 3371.09 61.80
3231 16.0296 3428.10 3370.06 62.70
3232 16.0334 3364.20 3369.02 61.90
3233 16.0371 3393.80 3367.98 62.30
3234 16.0409 3497.30 3366.94 65.80
3235 16.0446 3339.00 3365.90 60.90
3236 16.0484 3356.20 3364.87 61.70
3237 16.0522 3381.30 3363.83 61.00
3238 16.0559 3409.50 3362.79 62.10
3239 16.0597 3487.60 3361.76 63.30
3240 16.0634 3447.80 3360.72 62.20
3241 16.0672 3464.30 3359.68 61.80
3242 16.0710 3281.10 3358.65 60.10
3243 16.0747 3423.20 3357.61 62.00
3244 16.0785 3457.50 3356.57 63.30
3245 16.0822 3408.20 3355.54 62.60
3246 16.0860 3436.90 3354.50 62.30
3247 16.0898 3431.50 3353.46 62.20
3248 16.0935 3329.20 3352.43 61.30
3249 16.0973 3455.80 3351.39 62.60
3250 16.1010 3376.10 3350.35 62.00
3251 16.1048 3510.90 3349.31 63.40
3252 16.1085 3348.30 3348.28 61.10
3253 16.1123 3406.80 3347.25 62.10
3254 16.1161 3259.40 3346.21 61.10
3255 16.1198 3359.70 3345.17 61.40
3256 16.1236 3402.70 3344.14 62.90
3257 16.1273 3386.50 3343.10 62.20
3258 16.1311 3324.80 3342.06 61.90
3259 16.1348 3471.90 3341.03 63.00
3260 16.1386 3370.80 3340.00 61.60
3261 16.1424 3414.20 3338.96 62.60
3262 16.1461 3470.40 3337.92 63.00
3263 16.1499 3392.30 3336.89 62.20
3264 16.1536 3484.20 3335.86 63.70
3265 16.1574 3398.20 3334.82 62.20
3266 16.1612 3184.40 3333.79 60.10
3267 16.1649 3512.20 3332.75 64.10
3268 16.1687 3220.70 3331.72 60.50
3269 16.1724 3457.50 3330.68 62.60
3270 16.1762 3336.40 3329.65 62.10
3271 16.1800 3301.90 3328.61 60.80
3272 16.1837 3400.20 3327.58 62.00
3273 16.1875 3402.50 3326.54 61.90
3274 16.1912 3358.60 3325.51 62.00
3275 16.1950 3504.10 3324.48 64.00
3276 16.1987 3400.40 3323.44 62.40
3277 16.2025 3288.10 3322.41 61.20
3278 16.2063 3402.30 3321.37 62.90
3279 16.2100 3459.00 3320.34 62.80
3280 16.2138 3280.00 3319.31 60.90
3281 16.2175 3372.50 3318.28 62.40
3282 16.2213 3414.10 3317.24 62.70
3283 16.2250 3353.60 3316.21 61.80
3284 16.2288 3295.50 3315.17 61.00
3285 16.2326 3443.10 3314.14 62.50
3286 16.2363 3376.50 3313.11 61.90
3287 16.2401 3386.10 3312.08 62.50
3288 16.2438 3324.90 3311.04 61.30
3289 16.2476 3233.90 3310.01 60.60
3290 16.2514 3311.90 3308.98 61.70
3291 16.2551 3405.90 3307.95 62.70
3292 16.2589 3385.50 3306.92 62.40
3293 16.2626 3445.00 3305.88 62.00
3294 16.2664 3384.80 3304.85 62.00
3295 16.2701 3387.10 3303.82 62.70
3296 16.2739 3381.10 3302.79 61.40
3297 16.2777 3392.50 3301.76 62.00
3298 16.2814 3257.50 3300.72 61.00
3299 16.2852 3390.60 3299.69 62.10
3300 16.2889 3304.90 3298.66 61.40
3301 16.2927 3405.60 3297.63 61.60
3302 16.2964 3326.70 3296.60 62.00
3303 16.3002 3358.50 3295.57 61.50
3304 16.3040 3310.30 3294.54 62.40
3305 16.3077 3333.60 3293.51 61.20
3306 16.3115 3345.40 3292.48 62.20
3307 16.3152 3451.20 3291.45 61.90
3308 16.3190 3299.80 3290.42 61.30
3309 16.3228 3290.10 3289.39 60.90
3310 16.3265 3243.80 3288.36 60.80
3311 16.3303 3447.40 3287.33 63.20
3312 16.3340 3272.10 3286.30 61.00
3313 16.3378 3374.50 3285.27 61.90
3314 16.3415 3264.00 3284.24 60.60
3315 16.3453 3372.10 3283.21 61.80
3316 16.3491 3236.20 3282.18 61.00
3317 16.3528 3216.50 3281.15 60.10
3318 16.3566 3275.50 3280.12 61.30
3319 16.3603 3399.60 3279.09 61.60
3320 16.3641 3327.50 3278.07 61.70
3321 16.3678 3359.00 3277.04 62.30
3322 16.3716 3278.50 3276.01 60.70
3323 16.3754 3249.00 3274.98 60.80
3324 16.3791 3248.30 3273.95 60.60
3325 16.3829 3415.90 3272.92 62.70
3326 16.3866 3315.00 3271.89 60.70
3327 16.3904 3367.20 3270.87 62.20
3328 16.3941 3331.30 3269.84 61.60
3329 16.3979 3369.40 3268.81 61.80
3330 16.4017 3379.50 3267.78 62.50
3331 16.4054 3346.00 3266.76 61.30
3332 16.4092 3276.30 3265.73 60.70
3333 16.4129 3326.60 3264.70 62.10
3334 16.4167 3389.20 3263.67 62.10
3335 16.4204 3308.70 3262.65 61.50
3336 16.4242 3291.70 3261.62 60.70
3337 16.4280 3516.60 3260.60 64.20
3338 16.4317 3269.90 3259.57 60.70
3339 16.4355 3323.90 3258.54 62.00
3340 16.4392 3267.60 3257.52 60.40
3341 16.4430 3413.70 3256.49 62.40
3342 16.4467 3161.80 3255.47 59.70
3343 16.4505 3258.00 3254.44 60.20
3344 16.4543 3222.30 3253.41 60.60
3345 16.4580 3323.10 3252.39 61.60
3346 16.4618 3286.30 3251.37 61.50
3347 16.4655 3331.60 3250.34 61.20
3348 16.4693 3304.60 3249.31 60.50
3349 16.4730 3272.40 3248.29 61.20
3350 16.4768 3306.30 3247.27 61.70
3351 16.4806 3341.00 3246.24 61.60
3352 16.4843 3227.00 3245.22 60.90
3353 16.4881 3209.60 3244.19 60.60
3354 16.4918 3165.20 3243.17 59.80
3355 16.4956 3354.30 3242.15 61.40
3356 16.4993 3246.00 3241.12 60.50
3357 16.5031 3463.60 3240.10 62.40
3358 16.5068 3178.10 3239.08 60.10
3359 16.5106 3305.30 3238.05 61.60
3360 16.5144 3357.10 3237.03 62.40
3361 16.5181 3252.60 3236.01 61.10
3362 16.5219 3196.30 3234.98 60.40
3363 16.5256 3343.60 3233.96 63.20
3364 16.5294 3347.20 3232.94 62.80
3365 16.5331 3264.20 3231.92 60.80
3366 16.5369 3390.70 3230.89 63.10
3367 16.5407 3308.50 3229.87 61.90
3368 16.5444 3286.70 3228.85 61.80
3369 16.5482 3294.20 3227.83 62.10
3370 16.5519 3295.70 3226.81 62.20
3371 16.5557 3445.90 3225.79 63.00
3372 16.5595 3236.20 3224.76 61.20
3373 16.5632 3271.00 3223.75 60.10
3374 16.5670 3305.40 3222.72 61.90
3375 16.5707 3406.40 3221.70 63.60
3376 16.5745 3405.80 3220.68 63.00
3377 16.5782 3355.50 3219.66 61.80
3378 16.5820 3346.30 3218.64 62.50
3379 16.5857 3301.70 3217.62 61.90
3380 16.5895 3211.40 3216.60 61.30
3381 16.5933 3275.50 3215.58 61.30
3382 16.5970 3246.70 3214.56 61.60
3383 16.6008 3341.10 3213.54 62.60
3384 16.6045 3297.80 3212.52 62.20
3385 16.6083 3302.60 3211.51 62.60
3386 16.6120 3324.50 3210.49 62.50
3387 16.6158 3385.10 3209.47 62.70
3388 16.6196 3294.70 3208.45 62.20
3389 16.6233 3248.60 3207.43 61.70
3390 16.6271 3275.50 3206.41 62.10
3391 16.6308 3350.50 3205.39 62.50
3392 16.6346 3273.20 3204.38 62.20
3393 16.6383 3410.80 3203.36 62.90
3394 16.6421 3315.50 3202.34 62.90
3395 16.6458 3458.50 3201.33 63.00
3396 16.6496 3321.90 3200.31 62.30
3397 16.6534 3348.70 3199.29 63.10
3398 16.6571 3338.70 3198.28 61.80
3399 16.6609 3351.80 3197.26 62.60
3400 16.6646 3288.70 3196.24 62.20
3401 16.6684 3352.40 3195.23 63.00
3402 16.6721 3209.20 3194.21 61.50
3403 16.6759 3303.80 3193.19 61.90
3404 16.6796 3231.40 3192.18 62.40
3405 16.6834 3330.50 3191.16 62.10
3406 16.6872 3360.00 3190.15 62.90
3407 16.6909 3362.50 3189.13 61.90
3408 16.6947 3269.10 3188.12 61.80
3409 16.6984 3362.60 3187.10 62.40
3410 16.7022 3308.50 3186.09 60.70
3411 16.7059 3384.00 3185.07 63.10
3412 16.7097 3337.60 3184.06 61.60
3413 16.7134 3299.80 3183.05 61.60
3414 16.7172 3309.70 3182.03 62.50
3415 16.7210 3498.70 3181.02 63.30
3416 16.7247 3362.30 3180.00 63.30
3417 16.7285 3317.60 3178.99 62.70
3418 16.7322 3244.30 3177.98 61.30
3419 16.7360 3385.30 3176.96 63.70
3420 16.7397 3339.50 3175.95 61.90
3421 16.7435 3512.30 3174.94 64.50
3422 16.7473 3326.20 3173.93 62.40
3423 16.7510 3385.50 3172.92 62.50
3424 16.7548 3386.80 3406.18 62.80
3425 16.7585 3344.30 3411.78 62.40
3426 16.7623 3387.30 3417.68 63.60
3427 16.7660 3442.80 3423.87 63.80
3428 16.7698 3393.00 3430.39 63.60
3429 16.7736 3359.00 3437.25 63.20
3430 16.7773 3503.30 3444.45 64.10
3431 16.7811 3460.30 3452.06 63.90
3432 16.7848 3495.20 3460.04 64.60
3433 16.7886 3474.10 3468.47 64.00
3434 16.7923 3539.00 3477.35 64.30
3435 16.7961 3561.30 3486.73 64.40
3436 16.7998 3459.00 3496.61 63.70
3437 16.8036 3596.60 3507.08 64.60
3438 16.8074 3406.10 3518.14 63.10
3439 16.8111 3530.60 3529.80 64.20
3440 16.8149 3484.80 3542.18 63.70
3441 16.8186 3459.70 3555.26 63.40
3442 16.8224 3488.00 3569.16 63.40
3443 16.8261 3600.30 3583.87 65.00
3444 16.8299 3676.90 3599.53 66.90
3445 16.8336 3567.70 3616.13 64.90
3446 16.8374 3540.70 3633.83 64.70
3447 16.8411 3581.50 3652.64 65.10
3448 16.8449 3544.60 3672.73 64.60
3449 16.8486 3765.70 3694.12 66.00
3450 16.8524 3617.80 3717.05 65.60
3451 16.8562 3681.40 3741.51 66.30
3452 16.8599 3764.30 3767.78 67.20
3453 16.8637 3820.40 3795.95 68.30
3454 16.8674 3763.50 3826.14 66.30
3455 16.8712 3997.80 3858.62 69.20
3456 16.8749 3963.60 3893.70 69.00
3457 16.8787 3981.80 3931.58 68.80
3458 16.8825 3894.80 3972.42 68.20
3459 16.8862 4065.30 4016.66 70.20
3460 16.8900 4075.60 4064.83 69.20
3461 16.8937 4226.40 4117.07 70.50
3462 16.8975 4131.00 4174.14 70.40
3463 16.9012 4274.30 4236.57 71.90
3464 16.9050 4415.00 4304.74 73.00
3465 16.9087 4457.60 4379.61 70.90
3466 16.9125 4726.70 4462.30 76.10
3467 16.9162 4712.20 4553.41 76.50
3468 16.9200 4703.70 4654.64 75.10
3469 16.9237 5018.60 4766.97 77.60
3470 16.9275 5089.40 4892.79 79.00
3471 16.9313 5521.10 5033.39 82.80
3472 16.9350 5578.00 5192.11 81.00
3473 16.9388 5769.10 5371.15 82.70
3474 16.9425 5790.90 5575.35 83.80
3475 16.9463 6479.60 5808.05 90.10
3476 16.9500 6614.40 6076.28 90.90
3477 16.9538 7028.60 6386.10 94.20
3478 16.9576 7450.10 6748.39 96.60
3479 16.9613 8044.90 7173.32 100.10
3480 16.9651 8697.90 7678.48 105.30
3481 16.9688 9436.30 8281.93 108.60
3482 16.9726 10239.90 9014.47 114.40
3483 16.9763 11339.80 9910.81 122.00
3484 16.9801 12931.30 11025.50 129.80
3485 16.9838 14602.20 12439.40 139.70
3486 16.9868 16257.20 13853.20 145.60
3487 16.9906 19638.40 16127.20 161.40
3488 16.9943 23759.10 19243.20 180.30
3489 16.9981 29942.50 23990.00 205.30
3490 17.0019 39649.70 32710.50 244.00
3491 17.0056 59482.60 51959.60 312.00
3492 17.0094 98695.30 96246.60 428.80
3493 17.0131 191991.00 186261.00 657.10
3494 17.0169 357456.00 333090.00 1000.40
3495 17.0206 548447.00 512694.00 1387.60
3496 17.0244 614138.00 642838.00 1496.50
3497 17.0282 571454.00 623768.00 1392.50
3498 17.0319 433583.00 472547.00 1161.80
3499 17.0357 264521.00 295275.00 817.60
3500 17.0394 133487.00 160938.00 520.70
3501 17.0432 73379.00 82988.60 358.60
3502 17.0469 46599.90 46052.10 272.70
3503 17.0507 33683.40 30132.70 222.80
3504 17.0544 25063.90 22678.40 188.40
3505 17.0582 20264.90 18418.80 163.00
3506 17.0620 16790.20 15526.40 150.10
3507 17.0657 15041.30 13400.10 142.60
3508 17.0695 12875.20 11768.10 129.60
3509 17.0732 11483.90 10493.90 120.10
3510 17.0770 10399.00 9476.05 115.30
3511 17.0807 9415.30 8651.73 108.80
3512 17.0845 8452.40 7977.68 103.00
3513 17.0883 7956.10 7416.55 98.70
3514 17.0920 7294.20 6946.02 95.00
3515 17.0958 7089.40 6548.15 93.70
3516 17.0995 6490.90 6207.43 89.40
3517 17.1033 6145.60 5914.09 87.30
3518 17.1070 5900.00 5660.40 84.90
3519 17.1108 5703.30 5438.36 82.80
3520 17.1145 5477.70 5243.86 81.60
3521 17.1183 5174.00 5071.84 79.10
3522 17.1221 5070.30 4919.17 78.40
3523 17.1258 4811.50 4783.46 75.80
3524 17.1296 4705.60 4661.57 75.50
3525 17.1333 4647.60 4552.13 74.10
3526 17.1371 4487.50 4453.61 73.90
3527 17.1409 4452.60 4364.17 72.10
3528 17.1446 4269.50 4283.14 71.20
3529 17.1484 4205.00 4209.07 71.30
3530 17.1521 4138.60 4141.45 69.20
3531 17.1559 4049.40 4079.62 69.20
3532 17.1596 3943.20 4022.63 68.50
3533 17.1634 3998.00 3970.30 69.20
3534 17.1671 3791.70 3921.86 67.20
3535 17.1709 3762.40 3877.07 66.40
3536 17.1747 3784.40 3835.62 67.80
3537 17.1784 3897.40 3796.99 67.50
3538 17.1822 3708.00 3761.05 66.30
3539 17.1859 3667.20 3727.62 64.80
3540 17.1897 3540.80 3696.31 64.50
3541 17.1934 3653.70 3667.07 65.20
3542 17.1972 3497.10 3639.59 62.50
3543 17.2010 3575.90 3613.80 65.00
3544 17.2047 3518.60 3589.61 63.40
3545 17.2085 3459.50 3566.76 63.20
3546 17.2122 3440.20 3545.29 63.80
3547 17.2160 3432.20 3524.97 62.60
3548 17.2184 3372.00 3512.47 61.50
3549 17.2221 3421.30 3493.97 62.30
3550 17.2259 3283.60 3476.40 60.20
3551 17.2297 3295.90 3459.77 61.00
3552 17.2334 3184.30 3443.95 59.80
3553 17.2372 3248.90 3428.95 60.80
3554 17.2409 3233.10 3414.67 60.30
3555 17.2447 3334.50 3401.03 61.40
3556 17.2484 3164.70 3388.07 60.20
3557 17.2522 3241.80 3375.66 60.40
3558 17.2559 3166.70 3363.83 59.60
3559 17.2597 3184.10 3352.49 60.00
3560 17.2634 3145.50 3341.67 59.60
3561 17.2672 3126.70 3331.28 59.20
3562 17.2710 3098.80 3321.34 58.80
3563 17.2747 3192.50 3311.77 60.40
3564 17.2785 3129.30 3302.61 58.90
3565 17.2822 3157.10 3293.79 58.80
3566 17.2860 3044.90 3285.32 59.00
3567 17.2897 3133.60 3277.15 59.50
3568 17.2935 3163.50 3269.30 59.40
3569 17.2972 3195.20 3261.73 60.10
3570 17.3010 3070.60 3026.99 59.30
3571 17.3047 3104.10 3026.02 58.10
3572 17.3085 3043.70 3025.04 58.50
3573 17.3123 3104.50 3024.06 58.70
3574 17.3160 3026.50 3023.08 58.10
3575 17.3198 3077.00 3022.10 59.40
3576 17.3235 3017.20 3021.12 58.50
3577 17.3273 3073.80 3020.15 58.80
3578 17.3310 3064.70 3019.17 58.70
3579 17.3348 3010.60 3018.19 59.00
3580 17.3385 2943.60 3017.22 57.50
3581 17.3423 3063.20 3016.24 59.00
3582 17.3461 2875.90 3015.27 57.30
3583 17.3498 2980.80 3014.29 58.00
3584 17.3536 3077.80 3013.31 59.20
3585 17.3573 2953.60 3012.34 58.50
3586 17.3611 2947.90 3011.36 57.70
3587 17.3648 2981.30 3010.39 58.70
3588 17.3686 2980.30 3009.42 58.50
3589 17.3723 3031.90 3008.44 58.40
3590 17.3761 2924.00 3007.47 57.60
3591 17.3799 3063.60 3006.49 59.00
3592 17.3836 2960.30 3005.52 58.30
3593 17.3874 3008.30 3004.55 58.90
3594 17.3911 2979.30 3003.58 58.00
3595 17.3949 2963.30 3002.60 58.40
3596 17.3986 2841.60 3001.63 57.50
3597 17.4024 3016.40 3000.66 58.90
3598 17.4061 2953.30 2999.69 58.30
3599 17.4099 2944.20 2998.72 57.70
3600 17.4136 2918.20 2997.75 57.40
3601 17.4174 2923.00 2996.77 57.20
3602 17.4212 2945.00 2995.80 57.80
3603 17.4249 2932.20 2994.83 57.60
3604 17.4287 2896.10 2993.86 57.50
3605 17.4324 2964.70 2992.89 57.10
3606 17.4362 2940.80 2991.92 58.20
3607 17.4399 2968.00 2990.95 58.30
3608 17.4437 2861.00 2989.98 57.40
3609 17.4474 2991.20 2989.02 58.50
3610 17.4512 2941.50 2988.05 57.70
3611 17.4550 2962.00 2987.08 58.20
3612 17.4587 2806.80 2986.11 56.60
3613 17.4625 2958.70 2985.14 58.20
3614 17.4662 2905.70 2984.18 57.50
3615 17.4700 2912.90 2983.21 57.60
3616 17.4737 2971.00 2982.24 57.90
3617 17.4775 2880.70 2981.28 56.50
3618 17.4812 2787.60 2980.31 56.70
3619 17.4850 2907.20 2979.34 58.10
3620 17.4888 2887.60 2978.38 57.50
3621 17.4925 2837.20 2977.41 56.70
3622 17.4963 2891.60 2976.45 57.90
3623 17.5000 2898.00 2975.49 57.20
3624 17.5038 2881.50 2974.52 57.20
3625 17.5075 2866.30 2973.55 57.30
3626 17.5113 2871.40 2972.59 57.50
3627 17.5151 2921.60 2971.63 58.20
3628 17.5188 2857.80 2970.67 57.00
3629 17.5226 2860.80 2969.70 57.80
3630 17.5263 2742.20 2968.74 55.90
3631 17.5301 2796.80 2967.78 56.30
3632 17.5338 2811.20 2966.81 56.70
3633 17.5376 2894.90 2965.85 57.40
3634 17.5413 2852.60 2964.89 57.20
3635 17.5451 2913.50 2963.93 57.60
3636 17.5488 2852.40 2962.97 57.40
3637 17.5526 2914.70 2962.01 57.90
3638 17.5564 2772.80 2961.05 55.90
3639 17.5601 2815.10 2960.09 56.80
3640 17.5639 2821.80 2959.13 56.50
3641 17.5676 2940.40 2958.17 58.70
3642 17.5714 2816.30 2957.21 56.50
3643 17.5751 2914.80 2956.25 57.90
3644 17.5789 2850.00 2955.29 57.40
3645 17.5827 2943.70 2954.33 58.00
3646 17.5864 2884.80 2953.37 56.90
3647 17.5902 2882.60 2952.41 56.70
3648 17.5939 2809.30 2951.46 56.80
3649 17.5977 2801.30 2950.50 57.10
3650 17.6014 2815.10 2949.54 56.70
3651 17.6052 2749.30 2948.59 56.50
3652 17.6089 2744.60 2947.63 56.10
3653 17.6127 2811.50 2946.67 56.60
3654 17.6165 2923.30 2945.72 58.00
3655 17.6202 2882.30 2944.76 57.80
3656 17.6240 2804.10 2943.81 57.00
3657 17.6277 2825.10 2942.85 57.60
3658 17.6315 2885.00 2941.90 57.80
3659 17.6353 2901.40 2940.94 58.50
3660 17.6390 2869.50 2939.99 58.40
3661 17.6428 2804.50 2939.03 56.20
3662 17.6465 2683.70 2938.08 55.50
3663 17.6503 2833.10 2937.13 57.30
3664 17.6540 2847.80 2936.17 57.50
3665 17.6578 2907.40 2935.22 58.70
3666 17.6615 2734.70 2934.27 56.40
3667 17.6653 2775.00 2933.32 57.20
3668 17.6691 2786.90 2932.37 56.90
3669 17.6728 2906.60 2931.41 58.10
3670 17.6766 2673.00 2930.46 55.80
3671 17.6803 2842.10 2929.51 56.80
3672 17.6841 2718.40 2928.56 55.20
3673 17.6878 2718.80 2927.61 55.40
3674 17.6916 2842.30 2926.66 56.90
3675 17.6954 2829.50 2925.71 56.60
3676 17.6991 2765.60 2924.76 55.70
3677 17.7029 2733.10 2923.81 55.00
3678 17.7066 2809.90 2922.86 56.10
3679 17.7104 2781.40 2921.91 55.90
3680 17.7141 2763.90 2920.97 55.90
3681 17.7179 2760.80 2920.02 56.10
3682 17.7216 2767.60 2919.07 55.90
3683 17.7254 2733.00 2918.12 55.10
3684 17.7292 2796.20 2917.18 56.20
3685 17.7329 2843.50 2916.23 57.10
3686 17.7367 2670.90 2915.28 54.40
3687 17.7404 2781.50 2914.34 56.30
3688 17.7442 2826.10 2913.39 56.90
3689 17.7479 2878.40 2912.45 56.60
3690 17.7517 2694.90 2911.50 54.90
3691 17.7555 2671.70 2910.56 54.80
3692 17.7592 2786.70 2909.61 56.00
3693 17.7630 2786.50 2908.67 56.60
3694 17.7667 2754.20 2907.73 55.50
3695 17.7705 2831.90 2906.78 56.10
3696 17.7743 2728.60 2905.84 55.60
3697 17.7780 2719.30 2904.90 56.00
3698 17.7818 2836.10 2903.95 56.80
3699 17.7855 2780.50 2903.01 55.80
3700 17.7893 2671.70 2902.07 53.90
3701 17.7930 2744.20 2901.13 55.30
3702 17.7968 2793.00 2900.19 56.40
3703 17.8006 2832.30 2899.24 56.80
3704 17.8043 2671.80 2898.30 54.20
3705 17.8081 2711.50 2897.36 55.70
3706 17.8118 2717.80 2896.42 56.00
3707 17.8156 2773.90 2895.48 56.00
3708 17.8193 2843.70 2894.54 56.90
3709 17.8231 2756.60 2893.60 55.90
3710 17.8269 2674.20 2892.67 54.90
3711 17.8306 2796.20 2891.73 55.30
3712 17.8344 2634.60 2890.79 54.40
3713 17.8381 2638.80 2889.85 55.20
3714 17.8419 2704.80 2888.91 55.70
3715 17.8456 2688.10 2887.98 55.60
3716 17.8494 2730.60 2887.04 55.80
3717 17.8531 2776.20 2886.10 55.80
3718 17.8569 2733.10 2885.17 54.80
3719 17.8607 2795.20 2884.23 56.70
3720 17.8644 2706.10 2883.30 55.50
3721 17.8682 2798.20 2882.36 56.20
3722 17.8719 2704.60 2881.43 55.30
3723 17.8757 2714.60 2880.49 55.60
3724 17.8794 2623.00 2879.56 55.20
3725 17.8832 2838.90 2878.62 56.90
3726 17.8870 2725.60 2877.69 55.80
3727 17.8907 2706.10 2876.76 55.50
3728 17.8945 2646.30 2875.82 54.60
3729 17.8982 2793.20 2874.89 55.30
3730 17.9020 2744.50 2873.96 56.00
3731 17.9058 2728.60 2873.03 55.70
3732 17.9095 2675.80 2872.09 55.00
3733 17.9133 2744.60 2871.16 55.50
3734 17.9170 2688.10 2870.23 55.10
3735 17.9208 2782.40 2869.30 55.90
3736 17.9245 2632.50 2868.37 54.70
3737 17.9283 2737.30 2867.44 55.60
3738 17.9321 2776.90 2866.51 56.10
3739 17.9358 2725.20 2865.58 55.90
3740 17.9396 2659.00 2864.65 55.00
3741 17.9433 2629.10 2863.72 54.10
3742 17.9471 2692.00 2862.79 55.10
3743 17.9508 2728.60 2861.87 55.90
3744 17.9546 2623.70 2860.94 54.60
3745 17.9584 2680.00 2860.01 54.70
3746 17.9621 2621.40 2859.08 54.70
3747 17.9659 2698.70 2858.15 55.80
3748 17.9696 2703.10 2857.23 55.00
3749 17.9734 2717.10 2856.30 55.70
3750 17.9771 2637.60 2855.38 54.20
3751 17.9809 2660.40 2854.45 55.60
3752 17.9847 2579.10 2853.52 54.20
3753 17.9884 2716.50 2852.60 55.70
3754 17.9922 2698.90 2851.68 55.50
3755 17.9959 2746.80 2850.75 56.30
3756 17.9997 2612.80 2849.83 54.60
3757 18.0035 2773.80 2848.90 56.20
3758 18.0072 2615.60 2847.98 55.30
3759 18.0110 2678.30 2847.06 55.50
3760 18.0147 2551.50 2846.14 54.20
3761 18.0185 2756.50 2845.21 56.20
3762 18.0222 2624.40 2844.29 54.10
3763 18.0260 2723.60 2843.37 55.30
3764 18.0298 2681.60 2842.45 55.30
3765 18.0335 2714.00 2841.53 56.00
3766 18.0373 2654.60 2840.61 55.00
3767 18.0410 2687.90 2839.69 55.50
3768 18.0448 2672.00 2838.77 55.50
3769 18.0485 2653.00 2837.85 55.60
3770 18.0523 2637.30 2836.93 55.10
3771 18.0561 2646.70 2836.01 53.90
3772 18.0598 2676.00 2835.09 54.50
3773 18.0636 2666.00 2834.17 55.20
3774 18.0673 2543.40 2833.26 54.20
3775 18.0711 2682.20 2832.34 55.30
3776 18.0749 2743.20 2831.42 56.20
3777 18.0786 2665.30 2830.50 55.30
3778 18.0824 2622.20 2829.59 54.80
3779 18.0861 2715.50 2828.67 56.30
3780 18.0899 2589.60 2827.76 54.10
3781 18.0937 2587.50 2826.84 54.50
3782 18.0974 2608.70 2825.92 54.60
3783 18.1012 2683.00 2825.01 54.80
3784 18.1049 2620.20 2824.10 54.20
3785 18.1087 2679.20 2823.18 55.40
3786 18.1124 2605.80 2822.27 54.50
3787 18.1162 2677.50 2821.35 55.80
3788 18.1200 2584.00 2820.44 53.90
3789 18.1237 2751.70 2819.53 56.70
3790 18.1275 2672.50 2818.62 55.00
3791 18.1312 2689.60 2817.70 55.00
3792 18.1350 2581.20 2816.79 54.30
3793 18.1388 2605.10 2815.88 55.00
3794 18.1425 2557.40 2814.97 54.00
3795 18.1463 2654.80 2814.06 55.00
3796 18.1500 2598.20 2813.15 54.10
3797 18.1538 2578.70 2812.24 54.50
3798 18.1575 2460.60 2811.33 53.80
3799 18.1613 2664.10 2810.42 55.70
3800 18.1651 2706.40 2809.51 55.10
3801 18.1688 2621.60 2808.60 54.70
3802 18.1726 2613.30 2807.69 54.30
3803 18.1763 2645.30 2806.79 55.00
3804 18.1801 2534.70 2805.88 53.30
3805 18.1838 2573.60 2804.97 53.20
3806 18.1876 2590.40 2804.07 53.90
3807 18.1914 2552.80 2803.16 52.90
3808 18.1951 2606.30 2802.25 54.40
3809 18.1989 2641.70 2801.35 54.70
3810 18.2027 2620.80 2800.44 54.60
3811 18.2064 2615.10 2799.54 54.40
3812 18.2102 2593.30 2798.63 54.40
3813 18.2139 2601.80 2797.73 54.60
3814 18.2177 2614.60 2796.82 54.60
3815 18.2214 2684.30 2795.92 55.00
3816 18.2252 2499.60 2795.02 53.20
3817 18.2290 2736.50 2794.11 55.90
3818 18.2327 2638.30 2793.21 55.20
3819 18.2365 2599.20 2792.31 54.10
3820 18.2402 2603.90 2791.41 54.60
3821 18.2440 2569.50 2790.51 53.30
3822 18.2477 2659.60 2789.60 53.90
3823 18.2515 2566.10 2788.70 54.00
3824 18.2553 2600.60 2787.80 54.30
3825 18.2590 2621.90 2786.90 54.60
3826 18.2628 2546.90 2786.00 53.60
3827 18.2666 2539.90 2785.10 53.90
3828 18.2703 2513.50 2784.21 53.30
3829 18.2741 2484.40 2783.31 53.30
3830 18.2778 2531.80 2782.41 54.00
3831 18.2816 2632.50 2781.51 53.80
3832 18.2853 2538.60 2780.61 52.60
3833 18.2891 2577.70 2779.71 54.50
3834 18.2929 2613.40 2778.82 54.40
3835 18.2966 2526.90 2777.92 53.80
3836 18.3004 2567.90 2777.03 53.80
3837 18.3041 2584.80 2776.13 54.20
3838 18.3079 2567.60 2775.23 53.60
3839 18.3116 2562.40 2774.34 53.10
3840 18.3154 2559.40 2773.44 54.10
3841 18.3192 2582.60 2772.55 54.20
3842 18.3229 2530.30 2771.66 53.50
3843 18.3267 2469.40 2770.76 52.60
3844 18.3305 2578.60 2769.87 53.70
3845 18.3342 2520.80 2768.98 53.60
3846 18.3380 2589.20 2768.08 54.70
3847 18.3417 2562.10 2767.19 53.70
3848 18.3455 2447.30 2766.30 52.40
3849 18.3492 2634.30 2765.41 54.60
3850 18.3530 2432.50 2764.52 52.20
3851 18.3568 2572.90 2763.63 53.90
3852 18.3605 2551.50 2762.74 53.60
3853 18.3643 2507.10 2761.85 52.90
3854 18.3680 2533.50 2760.96 52.50
3855 18.3718 2628.60 2760.07 53.90
3856 18.3756 2585.90 2759.18 54.20
3857 18.3793 2668.90 2758.29 55.20
3858 18.3831 2529.10 2757.40 52.20
3859 18.3868 2585.00 2756.51 54.40
3860 18.3906 2558.30 2755.63 53.80
3861 18.3944 2479.10 2754.74 52.70
3862 18.3981 2589.90 2753.85 53.70
3863 18.4019 2535.10 2752.97 53.40
3864 18.4056 2435.70 2752.08 52.00
3865 18.4094 2528.00 2751.19 53.20
3866 18.4132 2554.20 2750.31 53.60
3867 18.4169 2554.10 2749.42 53.10
3868 18.4207 2573.00 2748.54 53.20
3869 18.4244 2502.70 2747.66 53.30
3870 18.4282 2571.10 2746.77 53.80
3871 18.4319 2563.20 2745.89 54.10
3872 18.4357 2541.00 2745.01 53.70
3873 18.4395 2587.00 2744.12 53.20
3874 18.4432 2498.80 2743.24 53.10
3875 18.4470 2537.60 2742.36 53.80
3876 18.4507 2481.80 2741.48 52.90
3877 18.4545 2545.40 2740.60 53.70
3878 18.4583 2480.20 2739.72 51.90
3879 18.4620 2553.30 2738.84 53.90
3880 18.4658 2543.60 2737.96 54.00
3881 18.4695 2555.10 2737.08 53.50
3882 18.4733 2554.50 2736.20 53.90
3883 18.4771 2523.80 2735.32 53.10
3884 18.4808 2520.30 2734.44 53.90
3885 18.4846 2487.10 2733.56 52.60
3886 18.4883 2503.00 2732.68 53.10
3887 18.4921 2492.50 2731.80 53.10
3888 18.4958 2453.00 2730.93 52.80
3889 18.4996 2516.80 2730.05 53.60
3890 18.5034 2476.60 2729.18 52.70
3891 18.5071 2499.20 2728.30 52.80
3892 18.5109 2542.20 2727.43 53.30
3893 18.5147 2455.70 2726.55 52.60
3894 18.5184 2522.40 2725.68 53.10
3895 18.5222 2568.30 2724.80 54.00
3896 18.5259 2445.00 2723.93 52.30
3897 18.5297 2510.30 2723.05 52.50
3898 18.5334 2565.60 2722.18 54.20
3899 18.5372 2505.90 2721.31 53.30
3900 18.5410 2518.90 2720.43 53.30
3901 18.5447 2563.10 2719.56 53.80
3902 18.5485 2576.80 2718.69 53.80
3903 18.5522 2501.40 2717.82 53.50
3904 18.5560 2479.90 2716.95 52.30
3905 18.5598 2488.00 2716.08 51.90
3906 18.5635 2572.50 2715.21 53.90
3907 18.5673 2450.30 2714.34 52.30
3908 18.5711 2482.10 2713.47 53.00
3909 18.5748 2518.30 2712.60 53.50
3910 18.5786 2442.70 2711.73 52.60
3911 18.5823 2511.20 2710.86 53.90
3912 18.5861 2471.30 2709.99 52.50
3913 18.5898 2492.40 2709.13 53.10
3914 18.5936 2514.90 2708.26 52.90
3915 18.5974 2530.10 2707.39 52.90
3916 18.6011 2490.70 2706.53 52.80
3917 18.6049 2470.70 2705.66 53.10
3918 18.6086 2461.30 2704.80 52.50
3919 18.6124 2495.10 2703.93 52.70
3920 18.6162 2491.30 2703.06 52.60
3921 18.6199 2510.50 2702.20 52.90
3922 18.6237 2520.20 2701.34 53.40
3923 18.6274 2515.20 2700.47 52.90
3924 18.6312 2446.70 2699.61 52.10
3925 18.6350 2433.10 2698.75 52.20
3926 18.6387 2452.90 2697.88 53.50
3927 18.6425 2515.40 2697.02 52.50
3928 18.6462 2387.00 2696.16 51.20
3929 18.6500 2535.10 2695.30 52.80
3930 18.6538 2452.30 2694.44 51.80
3931 18.6575 2420.80 2693.58 50.50
3932 18.6613 2446.80 2692.72 51.50
3933 18.6650 2411.20 2691.86 51.50
3934 18.6688 2520.00 2691.00 53.20
3935 18.6726 2435.60 2690.14 51.80
3936 18.6763 2480.30 2689.28 52.30
3937 18.6801 2441.00 2688.42 51.60
3938 18.6838 2444.00 2687.56 52.00
3939 18.6876 2442.50 2686.71 51.20
3940 18.6914 2515.90 2685.85 52.90
3941 18.6951 2498.00 2684.99 52.20
3942 18.6989 2467.80 2684.13 51.80
3943 18.7026 2490.10 2683.28 52.30
3944 18.7064 2426.70 2682.42 51.60
3945 18.7102 2486.60 2681.57 52.10
3946 18.7139 2441.80 2680.71 51.60
3947 18.7177 2601.00 2679.86 53.90
3948 18.7214 2381.80 2679.00 51.30
3949 18.7252 2422.20 2678.15 51.50
3950 18.7290 2465.10 2677.30 52.70
3951 18.7327 2460.20 2676.45 52.30
3952 18.7365 2430.50 2675.59 51.70
3953 18.7402 2446.90 2674.74 51.50
3954 18.7440 2516.50 2673.89 52.10
3955 18.7478 2420.30 2673.04 50.90
3956 18.7515 2512.90 2672.19 52.50
3957 18.7553 2477.60 2671.34 52.40
3958 18.7590 2460.60 2670.49 52.10
3959 18.7628 2482.10 2669.64 52.80
3960 18.7666 2482.90 2668.79 52.60
3961 18.7703 2420.90 2667.94 52.00
3962 18.7741 2433.30 2667.09 52.00
3963 18.7778 2442.30 2666.24 52.00
3964 18.7816 2385.20 2665.39 50.60
3965 18.7854 2500.00 2664.55 52.40
3966 18.7891 2437.30 2663.70 51.80
3967 18.7929 2375.00 2662.85 51.80
3968 18.7966 2511.70 2662.01 52.80
3969 18.8004 2437.50 2661.16 51.30
3970 18.8042 2424.40 2660.32 51.60
3971 18.8079 2414.40 2659.47 50.80
3972 18.8117 2381.30 2658.63 51.40
3973 18.8154 2410.50 2657.78 51.40
3974 18.8192 2410.60 2656.94 51.60
3975 18.8230 2487.20 2656.10 52.40
3976 18.8267 2334.90 2655.25 50.40
3977 18.8305 2524.80 2654.41 53.00
3978 18.8342 2385.90 2653.57 50.80
3979 18.8380 2424.00 2652.73 51.90
3980 18.8418 2429.40 2651.89 51.70
3981 18.8455 2400.90 2651.04 51.60
3982 18.8493 2343.30 2650.20 51.00
3983 18.8531 2477.50 2649.36 52.50
3984 18.8568 2395.40 2648.52 51.50
3985 18.8606 2364.90 2647.68 50.80
3986 18.8643 2393.20 2646.84 51.10
3987 18.8681 2387.90 2646.00 51.00
3988 18.8718 2425.90 2645.17 52.10
3989 18.8756 2455.10 2644.33 52.20
3990 18.8794 2342.40 2643.49 50.70
3991 18.8831 2495.60 2642.66 52.80
3992 18.8869 2475.10 2641.82 52.40
3993 18.8906 2416.00 2640.98 51.60
3994 18.8944 2375.80 2640.15 51.50
3995 18.8982 2449.80 2639.31 51.40
3996 18.9019 2441.00 2638.48 52.40
3997 18.9057 2494.00 2637.64 53.00
3998 18.9095 2368.80 2636.81 51.50
3999 18.9132 2351.90 2635.97 51.30
4000 18.9170 2351.70 2635.14 50.50
4001 18.9207 2440.00 2634.31 52.20
4002 18.9245 2399.40 2633.48 51.50
4003 18.9282 2435.80 2632.64 51.80
4004 18.9320 2371.30 2631.81 51.40
4005 18.9358 2389.40 2630.98 50.80
4006 18.9395 2356.00 2630.15 51.40
4007 18.9433 2354.40 2629.32 50.80
4008 18.9471 2413.40 2628.49 52.20
4009 18.9508 2422.80 2627.66 51.60
4010 18.9546 2426.60 2626.83 52.20
4011 18.9583 2453.50 2626.00 52.50
4012 18.9621 2407.70 2625.17 51.80
4013 18.9659 2486.40 2624.34 52.80
4014 18.9696 2420.60 2623.52 51.90
4015 18.9734 2313.90 2622.69 50.50
4016 18.9771 2376.30 2621.86 51.60
4017 18.9809 2409.50 2621.03 51.80
4018 18.9847 2398.40 2620.21 51.30
4019 18.9884 2436.00 2619.38 51.80
4020 18.9922 2387.00 2618.56 51.60
4021 18.9959 2459.90 2617.73 52.30
4022 18.9997 2354.50 2616.91 50.90
4023 19.0035 2330.90 2616.09 50.90
4024 19.0072 2381.70 2615.26 51.50
4025 19.0110 2503.20 2614.44 52.60
4026 19.0147 2365.00 2613.62 51.40
4027 19.0185 2421.40 2612.79 52.10
4028 19.0223 2454.60 2611.97 52.70
4029 19.0260 2357.90 2611.15 51.40
4030 19.0298 2261.60 2610.33 50.10
4031 19.0335 2438.20 2609.51 51.20
4032 19.0373 2280.90 2608.69 50.40
4033 19.0411 2396.90 2607.87 51.90
4034 19.0448 2376.90 2607.05 52.10
4035 19.0486 2445.70 2606.23 52.30
4036 19.0523 2332.30 2605.41 50.90
4037 19.0561 2443.40 2604.59 51.90
4038 19.0599 2284.40 2603.77 50.10
4039 19.0636 2319.60 2602.96 51.00
4040 19.0674 2347.00 2602.14 51.40
4041 19.0711 2384.60 2601.32 51.70
4042 19.0749 2299.90 2600.51 50.70
4043 19.0787 2359.60 2599.69 51.70
4044 19.0824 2363.40 2598.87 50.90
4045 19.0862 2409.80 2598.06 52.00
4046 19.0900 2298.80 2597.25 50.60
4047 19.0937 2392.40 2596.43 51.90
4048 19.0975 2367.00 2595.62 51.30
4049 19.1012 2317.00 2594.80 51.10
4050 19.1050 2425.80 2593.99 52.00
4051 19.1088 2338.80 2593.18 51.20
4052 19.1125 2356.60 2592.37 51.50
4053 19.1163 2416.30 2591.55 52.00
4054 19.1200 2317.90 2590.74 51.70
4055 19.1238 2411.20 2589.93 51.50
4056 19.1276 2273.20 2589.12 50.40
4057 19.1313 2300.00 2588.31 50.90
4058 19.1351 2367.70 2587.50 51.10
4059 19.1388 2366.50 2586.69 50.20
4060 19.1426 2410.70 2585.88 52.00
4061 19.1464 2410.60 2585.08 52.10
4062 19.1501 2370.50 2584.27 51.50
4063 19.1539 2398.90 2583.46 51.50
4064 19.1576 2280.00 2582.65 49.90
4065 19.1614 2360.60 2581.85 50.90
4066 19.1652 2315.60 2581.04 49.60
4067 19.1689 2376.40 2580.23 51.30
4068 19.1727 2301.40 2579.43 51.10
4069 19.1765 2326.80 2578.62 51.00
4070 19.1802 2331.20 2577.82 51.20
4071 19.1840 2420.10 2577.01 51.80
4072 19.1877 2256.30 2576.21 50.40
4073 19.1915 2399.10 2575.41 50.90
4074 19.1952 2347.30 2574.60 51.40
4075 19.1990 2351.30 2573.80 51.20
4076 19.2028 2326.40 2573.00 51.60
4077 19.2065 2374.40 2572.20 51.60
4078 19.2103 2269.10 2571.40 50.20
4079 19.2141 2325.50 2570.59 50.90
4080 19.2178 2353.60 2569.80 51.30
4081 19.2216 2333.90 2568.99 51.20
4082 19.2253 2267.40 2568.19 50.00
4083 19.2291 2348.70 2567.40 50.80
4084 19.2329 2348.90 2566.60 50.90
4085 19.2366 2440.90 2565.80 52.30
4086 19.2404 2282.60 2565.00 50.90
4087 19.2441 2385.90 2564.20 51.90
4088 19.2479 2286.20 2563.41 50.10
4089 19.2517 2338.60 2562.61 50.90
4090 19.2554 2360.80 2561.81 51.30
4091 19.2592 2336.90 2561.02 50.80
4092 19.2629 2287.20 2560.22 50.30
4093 19.2667 2312.60 2559.43 51.30
4094 19.2705 2355.80 2558.63 51.60
4095 19.2742 2362.40 2557.84 51.40
4096 19.2780 2303.00 2557.04 51.00
4097 19.2817 2207.70 2556.25 49.80
4098 19.2855 2260.10 2555.46 49.50
4099 19.2893 2372.60 2554.67 51.60
4100 19.2930 2351.00 2553.87 51.50
4101 19.2968 2292.40 2553.08 50.50
4102 19.3006 2210.00 2552.29 49.50
4103 19.3043 2352.90 2551.50 52.10
4104 19.3081 2305.80 2550.71 51.30
4105 19.3118 2338.20 2549.92 51.80
4106 19.3156 2324.70 2549.13 50.30
4107 19.3194 2413.00 2548.34 52.20
4108 19.3231 2294.50 2547.55 51.20
4109 19.3269 2393.60 2546.76 51.90
4110 19.3306 2362.00 2545.98 52.00
4111 19.3344 2304.20 2545.19 50.90
4112 19.3382 2350.90 2544.40 52.00
4113 19.3419 2312.00 2543.62 50.80
4114 19.3457 2261.00 2542.83 51.10
4115 19.3494 2404.10 2542.04 52.70
4116 19.3532 2310.40 2541.26 50.90
4117 19.3570 2262.00 2540.47 50.80
4118 19.3607 2252.30 2539.69 50.10
4119 19.3645 2257.80 2538.90 49.70
4120 19.3682 2343.60 2538.12 51.50
4121 19.3720 2407.80 2537.34 52.00
4122 19.3758 2252.80 2536.56 50.20
4123 19.3795 2372.50 2535.77 51.90
4124 19.3833 2266.30 2534.99 50.00
4125 19.3871 2311.80 2534.21 50.50
4126 19.3908 2229.60 2533.43 50.10
4127 19.3946 2345.40 2532.65 51.10
4128 19.3983 2213.40 2531.87 49.90
4129 19.4021 2363.10 2531.09 51.70
4130 19.4058 2286.40 2530.31 50.90
4131 19.4096 2285.20 2529.53 50.70
4132 19.4134 2298.40 2528.75 51.30
4133 19.4171 2268.70 2527.97 50.90
4134 19.4209 2260.60 2527.19 49.40
4135 19.4247 2388.30 2526.42 51.10
4136 19.4284 2241.10 2525.64 49.80
4137 19.4322 2246.90 2524.87 50.00
4138 19.4359 2273.50 2524.09 50.30
4139 19.4397 2337.80 2523.31 50.80
4140 19.4435 2318.80 2522.54 50.70
4141 19.4472 2274.60 2521.76 50.30
4142 19.4510 2204.50 2520.99 49.90
4143 19.4548 2338.10 2520.22 51.80
4144 19.4585 2255.10 2519.44 48.90
4145 19.4623 2290.40 2518.67 50.40
4146 19.4660 2273.30 2517.90 50.40
4147 19.4698 2258.50 2517.12 50.10
4148 19.4736 2275.70 2516.35 50.20
4149 19.4773 2317.80 2515.58 50.40
4150 19.4811 2237.20 2514.81 50.00
4151 19.4848 2218.50 2514.04 50.10
4152 19.4886 2256.60 2513.27 50.10
4153 19.4923 2244.50 2512.50 49.90
4154 19.4961 2157.10 2511.73 49.60
4155 19.4999 2246.70 2510.96 49.70
4156 19.5036 2287.90 2510.19 50.10
4157 19.5074 2198.10 2509.43 49.20
4158 19.5112 2292.40 2508.66 50.10
4159 19.5149 2197.50 2507.89 49.30
4160 19.5187 2260.70 2507.13 50.60
4161 19.5224 2269.00 2506.36 50.60
4162 19.5262 2201.20 2505.60 49.10
4163 19.5300 2399.80 2504.83 51.80
4164 19.5337 2173.40 2504.07 49.70
4165 19.5375 2200.10 2503.30 50.00
4166 19.5413 2168.60 2502.54 49.60
4167 19.5450 2294.30 2501.77 51.30
4168 19.5488 2244.30 2501.01 50.40
4169 19.5525 2264.10 2500.25 50.50
4170 19.5563 2212.00 2499.49 49.80
4171 19.5600 2230.90 2498.72 49.90
4172 19.5638 2282.10 2497.96 51.10
4173 19.5676 2265.00 2497.20 50.10
4174 19.5713 2225.70 2496.44 49.90
4175 19.5751 2297.60 2495.68 50.60
4176 19.5788 2226.00 2494.92 49.60
4177 19.5826 2220.70 2494.16 50.40
4178 19.5864 2239.20 2493.40 50.20
4179 19.5901 2353.40 2492.64 51.80
4180 19.5939 2261.80 2491.89 49.40
4181 19.5977 2242.10 2491.13 50.70
4182 19.6014 2248.70 2490.37 51.50
4183 19.6052 2279.90 2489.62 51.60
4184 19.6089 2198.70 2488.86 50.00
4185 19.6127 2303.80 2488.10 51.20
4186 19.6165 2224.40 2487.35 49.70
4187 19.6202 2349.10 2486.59 52.20
4188 19.6240 2239.10 2485.84 50.30
4189 19.6278 2266.10 2485.08 50.50
4190 19.6315 2208.80 2484.33 50.80
4191 19.6353 2330.30 2483.58 51.40
4192 19.6390 2247.80 2482.83 49.80
4193 19.6428 2259.50 2482.07 49.80
4194 19.6465 2263.70 2481.32 50.10
4195 19.6503 2258.80 2480.57 50.70
4196 19.6541 2264.00 2479.82 51.00
4197 19.6578 2247.70 2479.07 51.00
4198 19.6616 2171.60 2478.32 49.90
4199 19.6654 2242.70 2477.57 50.40
4200 19.6691 2179.90 2476.82 49.40
4201 19.6729 2372.40 2476.07 52.40
4202 19.6766 2253.10 2475.32 51.00
4203 19.6804 2410.20 2474.58 53.40
4204 19.6842 2232.40 2473.83 50.50
4205 19.6879 2268.90 2473.08 50.80
4206 19.6917 2159.20 2472.33 50.00
4207 19.6954 2294.70 2471.59 51.10
4208 19.6992 2276.60 2470.84 49.50
4209 19.7030 2230.20 2470.10 49.90
4210 19.7067 2151.90 2469.35 49.40
4211 19.7105 2329.50 2468.61 51.80
4212 19.7143 2228.60 2467.86 50.20
4213 19.7180 2234.20 2467.12 50.40
4214 19.7218 2181.10 2466.38 49.80
4215 19.7255 2234.20 2465.63 50.40
4216 19.7293 2158.00 2464.89 49.80
4217 19.7330 2257.40 2464.15 51.10
4218 19.7368 2213.90 2463.41 49.70
4219 19.7406 2207.00 2462.67 50.00
4220 19.7443 2210.20 2461.93 50.10
4221 19.7481 2233.00 2461.19 50.40
4222 19.7519 2253.60 2460.45 50.80
4223 19.7556 2245.60 2459.71 51.50
4224 19.7594 2206.30 2458.97 50.20
4225 19.7631 2294.30 2458.23 50.90
4226 19.7669 2180.90 2457.49 49.60
4227 19.7707 2254.60 2456.76 50.50
4228 19.7744 2206.10 2456.02 49.50
4229 19.7782 2246.50 2455.28 51.10
4230 19.7819 2178.80 2454.55 49.40
4231 19.7857 2228.30 2453.81 50.40
4232 19.7895 2132.20 2453.08 49.30
4233 19.7932 2229.20 2452.34 49.70
4234 19.7970 2198.90 2451.61 49.30
4235 19.8008 2260.50 2450.87 50.30
4236 19.8045 2217.20 2450.14 49.30
4237 19.8083 2203.90 2449.41 48.80
4238 19.8120 2178.60 2448.67 49.80
4239 19.8158 2265.90 2447.94 51.20
4240 19.8195 2251.60 2447.21 50.40
4241 19.8233 2197.80 2446.48 50.40
4242 19.8271 2140.10 2445.75 49.30
4243 19.8308 2212.40 2445.02 50.00
4244 19.8346 2176.30 2444.29 50.20
4245 19.8384 2093.60 2443.56 48.30
4246 19.8421 2169.70 2442.83 49.60
4247 19.8459 2209.30 2442.10 49.20
4248 19.8496 2224.20 2441.37 50.70
4249 19.8534 2237.90 2440.64 50.70
4250 19.8572 2200.40 2439.92 50.20
4251 19.8609 2253.30 2439.19 50.10
4252 19.8647 2233.00 2438.46 50.40
4253 19.8684 2236.90 2437.74 49.90
4254 19.8722 2070.20 2437.01 48.70
4255 19.8760 2258.00 2436.29 50.30
4256 19.8797 2196.90 2435.56 48.80
4257 19.8835 2289.90 2434.84 50.90
4258 19.8873 2192.30 2434.11 49.80
4259 19.8910 2246.60 2433.39 50.40
4260 19.8948 2098.90 2432.67 48.80
4261 19.8985 2292.30 2431.95 51.10
4262 19.9023 2126.70 2431.22 49.20
4263 19.9060 2200.60 2430.50 50.30
4264 19.9098 2159.80 2429.78 49.70
4265 19.9136 2331.60 2429.06 51.90
4266 19.9173 2137.60 2428.34 48.90
4267 19.9211 2197.10 2427.62 49.90
4268 19.9249 2198.40 2426.90 50.20
4269 19.9286 2175.50 2426.18 49.90
4270 19.9324 2131.80 2425.46 49.10
4271 19.9361 2258.20 2424.74 50.90
4272 19.9399 2221.90 2424.03 50.20
4273 19.9437 2174.30 2423.31 49.30
4274 19.9474 2203.00 2422.59 50.60
4275 19.9512 2140.20 2421.88 48.80
4276 19.9549 2175.10 2421.16 49.60
4277 19.9587 2196.30 2420.45 50.00
4278 19.9625 2185.40 2419.73 49.60
4279 19.9662 2192.00 2419.02 50.10
4280 19.9700 2126.30 2418.30 48.30
4281 19.9737 2151.20 2417.59 48.50
4282 19.9775 2246.50 2416.87 49.80
4283 19.9813 2231.80 2416.16 50.40
4284 19.9850 2203.70 2415.45 50.30
4285 19.9888 2200.90 2414.74 50.20
4286 19.9925 2182.20 2414.03 50.00
4287 19.9963 2193.90 2413.32 49.70
4288 20.0001 2119.90 2412.61 49.10
4289 20.0038 2264.40 2411.90 50.50
4290 20.0076 2145.00 2411.19 48.30
4291 20.0114 2271.70 2410.48 50.70
4292 20.0151 2060.40 2409.77 48.50
4293 20.0189 2103.40 2409.06 49.30
4294 20.0226 2128.40 2408.35 48.90
4295 20.0264 2223.00 2407.64 50.20
4296 20.0301 2153.50 2406.94 48.90
4297 20.0339 2185.40 2406.23 49.90
4298 20.0377 2161.20 2405.52 49.50
4299 20.0414 2104.20 2404.82 49.00
4300 20.0452 2173.50 2404.11 49.60
4301 20.0490 2152.60 2403.41 49.40
4302 20.0527 2136.00 2402.70 48.80
4303 20.0565 2204.40 2402.00 49.60
4304 20.0602 2138.80 2401.30 49.60
4305 20.0640 2193.30 2400.59 50.00
4306 20.0678 2175.50 2399.89 49.00
4307 20.0715 2183.70 2399.19 49.70
4308 20.0753 2150.10 2398.49 49.10
4309 20.0790 2235.20 2397.79 50.80
4310 20.0828 2167.90 2397.09 50.40
4311 20.0866 2230.10 2396.39 50.80
4312 20.0903 2179.50 2395.68 49.20
4313 20.0941 2216.10 2394.98 49.90
4314 20.0979 2118.70 2394.29 48.60
4315 20.1016 2262.40 2393.59 50.40
4316 20.1054 2156.80 2392.89 48.90
4317 20.1091 2128.50 2392.19 49.00
4318 20.1129 2182.20 2391.49 49.60
4319 20.1166 2258.90 2390.80 50.60
4320 20.1204 2097.40 2390.10 48.30
4321 20.1242 2213.30 2389.41 50.00
4322 20.1279 2181.00 2388.71 49.10
4323 20.1317 2217.70 2388.02 49.60
4324 20.1355 2181.90 2387.32 48.90
4325 20.1392 2265.00 2386.63 49.80
4326 20.1430 2105.40 2385.93 47.70
4327 20.1467 2201.80 2385.24 50.10
4328 20.1505 2131.10 2384.55 49.20
4329 20.1543 2179.30 2383.85 49.90
4330 20.1580 2156.50 2383.16 49.20
4331 20.1618 2132.90 2382.47 48.60
4332 20.1655 2101.20 2381.78 48.60
4333 20.1693 2212.60 2381.09 49.50
4334 20.1731 2142.50 2380.40 48.90
4335 20.1768 2134.60 2379.71 48.70
4336 20.1806 2113.00 2379.02 48.40
4337 20.1843 2177.10 2378.33 49.30
4338 20.1881 2049.00 2377.64 48.20
4339 20.1919 2174.80 2376.95 49.50
4340 20.1956 2162.80 2376.27 49.10
4341 20.1994 2140.70 2375.58 49.10
4342 20.2031 2066.50 2374.89 47.00
4343 20.2069 2238.70 2374.21 50.10
4344 20.2107 2153.40 2373.52 48.70
4345 20.2144 2193.30 2372.84 50.10
4346 20.2182 2127.40 2372.15 49.00
4347 20.2219 2198.10 2371.47 49.40
4348 20.2257 2094.70 2370.78 48.80
4349 20.2295 2245.30 2370.10 50.50
4350 20.2332 2103.60 2369.42 48.90
4351 20.2370 2095.40 2368.73 48.70
4352 20.2407 2069.20 2368.05 48.20
4353 20.2445 2208.00 2367.37 50.50
4354 20.2483 2216.40 2366.69 49.70
4355 20.2520 2229.10 2366.01 50.00
4356 20.2558 2113.20 2365.33 48.90
4357 20.2596 2281.70 2364.65 51.00
4358 20.2633 2094.90 2363.97 48.70
4359 20.2671 2224.40 2363.29 50.40
4360 20.2708 2228.80 2362.61 50.00
4361 20.2746 2182.70 2361.93 49.50
4362 20.2784 2191.30 2361.25 50.20
4363 20.2821 2270.70 2360.58 50.10
4364 20.2859 2127.90 2359.90 49.00
4365 20.2896 2185.00 2359.23 49.60
4366 20.2934 2026.70 2358.55 47.30
4367 20.2971 2132.30 2357.87 48.80
4368 20.3009 2107.50 2357.20 48.70
4369 20.3047 2242.10 2356.52 50.10
4370 20.3084 2105.40 2355.85 48.10
4371 20.3122 2195.10 2355.18 50.00
4372 20.3160 2131.80 2354.50 48.90
4373 20.3197 2107.60 2353.83 49.00
4374 20.3235 2136.00 2353.16 49.30
4375 20.3272 2131.40 2352.48 49.00
4376 20.3310 2104.30 2351.82 48.30
4377 20.3348 2195.30 2351.14 50.70
4378 20.3385 2083.80 2350.47 48.90
4379 20.3423 2278.90 2349.80 51.10
4380 20.3460 2157.20 2349.13 49.30
4381 20.3498 2132.60 2348.46 49.10
4382 20.3536 2077.30 2347.79 48.80
4383 20.3573 2128.00 2347.13 49.20
4384 20.3611 2026.40 2346.46 47.80
4385 20.3648 2135.00 2345.79 48.90
4386 20.3686 2173.20 2345.12 49.30
4387 20.3724 2160.40 2344.46 49.80
4388 20.3761 2116.30 2343.79 48.80
4389 20.3799 2190.50 2343.13 48.80
4390 20.3836 2135.20 2342.46 48.70
4391 20.3874 2103.20 2341.80 48.70
4392 20.3912 2138.80 2341.13 49.50
4393 20.3949 2107.50 2340.47 48.90
4394 20.3987 2070.30 2339.80 48.30
4395 20.4024 2189.90 2339.14 49.40
4396 20.4062 2128.80 2338.48 48.90
4397 20.4100 2219.30 2337.82 49.10
4398 20.4137 2234.80 2337.16 50.40
4399 20.4175 2121.70 2336.49 48.20
4400 20.4212 2103.40 2335.83 49.20
4401 20.4250 2164.10 2335.17 49.60
4402 20.4288 2085.00 2334.51 48.90
4403 20.4325 2241.60 2333.85 50.40
4404 20.4363 2202.30 2333.20 49.70
4405 20.4400 2067.80 2332.54 48.40
4406 20.4438 2211.70 2331.88 49.90
4407 20.4476 2168.50 2331.22 49.90
4408 20.4513 2091.80 2330.56 48.70
4409 20.4551 2127.50 2329.91 49.30
4410 20.4588 2098.00 2329.25 48.20
4411 20.4626 2167.50 2328.60 48.90
4412 20.4664 2152.90 2327.94 48.70
4413 20.4701 2135.20 2327.29 49.80
4414 20.4739 2122.10 2326.63 49.50
4415 20.4776 2176.60 2325.98 49.90
4416 20.4814 2120.50 2325.32 49.20
4417 20.4852 2136.40 2324.67 49.80
4418 20.4889 2096.60 2324.02 48.90
4419 20.4927 2117.50 2323.36 49.20
4420 20.4964 2109.10 2322.71 49.10
4421 20.5002 2159.80 2322.06 49.60
4422 20.5040 2165.70 2321.41 49.40
4423 20.5077 2189.90 2320.76 50.60
4424 20.5115 2082.50 2320.11 49.20
4425 20.5152 2182.70 2319.46 50.80
4426 20.5190 2175.60 2318.81 50.20
4427 20.5228 2138.80 2318.16 48.80
4428 20.5265 2112.40 2317.51 49.10
4429 20.5303 2253.50 2316.87 51.40
4430 20.5340 2053.30 2316.22 48.50
4431 20.5378 2147.60 2315.57 49.40
4432 20.5416 2141.00 2314.93 49.30
4433 20.5453 2152.40 2314.28 49.50
4434 20.5491 2153.50 2313.63 49.20
4435 20.5528 2170.70 2312.99 49.90
4436 20.5566 2162.50 2312.35 49.50
4437 20.5604 2077.10 2311.70 48.90
4438 20.5641 2121.80 2311.06 49.80
4439 20.5679 2211.80 2310.41 51.90
4440 20.5716 2047.10 2309.77 48.50
4441 20.5754 2235.10 2309.13 51.00
4442 20.5792 2126.60 2308.49 50.40
4443 20.5829 2142.90 2307.85 50.20
4444 20.5867 2190.80 2307.20 49.20
4445 20.5904 2161.50 2306.56 49.90
4446 20.5942 2085.00 2305.92 48.30
4447 20.5980 2229.00 2305.28 51.90
4448 20.6017 2208.80 2304.64 50.80
4449 20.6055 2157.00 2304.01 50.20
4450 20.6092 2072.30 2318.67 49.60
4451 20.6130 2075.80 2318.44 49.70
4452 20.6168 2145.10 2318.24 51.00
4453 20.6205 2136.50 2318.05 50.40
4454 20.6243 2072.60 2317.89 49.90
4455 20.6280 2144.20 2317.74 50.80
4456 20.6318 2062.50 2317.62 49.80
4457 20.6355 2241.00 2317.52 50.60
4458 20.6393 2157.00 2317.44 50.40
4459 20.6431 2119.90 2317.39 49.90
4460 20.6468 2114.90 2317.37 50.00
4461 20.6506 2157.00 2317.38 50.10
4462 20.6544 2136.90 2317.41 50.00
4463 20.6581 2204.60 2317.48 51.30
4464 20.6619 2011.60 2317.59 49.00
4465 20.6656 2104.10 2317.74 50.50
4466 20.6694 2150.40 2317.92 51.60
4467 20.6731 2176.30 2318.15 50.50
4468 20.6769 2099.90 2318.42 49.70
4469 20.6807 2177.30 2318.74 50.90
4470 20.6844 2141.60 2319.11 50.10
4471 20.6882 2158.80 2319.55 50.50
4472 20.6919 2058.90 2320.04 49.40
4473 20.6957 2179.20 2320.60 49.70
4474 20.6995 2141.50 2321.22 50.20
4475 20.7032 2206.70 2321.93 50.40
4476 20.7070 2073.30 2322.72 49.80
4477 20.7108 2137.70 2323.59 50.60
4478 20.7145 2096.60 2324.56 49.40
4479 20.7183 2144.20 2325.64 50.70
4480 20.7220 2138.90 2326.83 50.40
4481 20.7258 2207.20 2328.15 51.00
4482 20.7295 2133.50 2329.61 49.50
4483 20.7333 2140.10 2331.21 49.70
4484 20.7371 2219.30 2332.99 51.20
4485 20.7408 2208.60 2334.94 51.30
4486 20.7446 2158.00 2337.09 50.40
4487 20.7483 2145.40 2339.46 49.80
4488 20.7521 2103.10 2342.08 49.10
4489 20.7559 2193.60 2344.97 50.30
4490 20.7596 2150.90 2348.16 50.50
4491 20.7634 2199.80 2351.70 50.90
4492 20.7671 2176.10 2355.61 51.10
4493 20.7709 2229.50 2359.96 51.70
4494 20.7747 2326.40 2364.78 52.60
4495 20.7784 2270.10 2370.14 50.80
4496 20.7822 2279.00 2376.14 50.80
4497 20.7859 2250.20 2382.86 50.30
4498 20.7897 2195.60 2390.39 50.40
4499 20.7934 2303.70 2398.87 52.40
4500 20.7972 2271.20 2408.46 51.80
4501 20.8010 2327.40 2419.32 52.80
4502 20.8047 2303.50 2431.69 52.10
4503 20.8085 2341.10 2445.84 52.60
4504 20.8123 2290.00 2462.11 51.50
4505 20.8160 2374.90 2480.93 53.10
4506 20.8198 2321.20 2502.83 51.50
4507 20.8235 2534.00 2528.47 55.10
4508 20.8273 2473.70 2558.67 53.00
4509 20.8310 2654.60 2594.74 56.80
4510 20.8348 2573.40 2638.11 54.70
4511 20.8386 2669.10 2690.82 55.90
4512 20.8423 2744.80 2755.77 57.60
4513 20.8461 2846.90 2836.83 57.90
4514 20.8498 3022.20 2939.66 60.10
4515 20.8536 3111.70 3072.97 60.60
4516 20.8574 3317.00 3251.03 63.40
4517 20.8611 3561.80 3504.35 66.00
4518 20.8649 4117.50 3914.71 70.90
4519 20.8686 5032.30 4705.05 80.10
4520 20.8724 6375.00 6393.31 89.20
4521 20.8762 9818.00 9854.23 112.70
4522 20.8799 16022.20 16006.50 149.60
4523 20.8837 28538.50 24766.40 209.00
4524 20.8874 39358.70 33825.00 253.40
4525 20.8912 45004.70 38096.80 270.60
4526 20.8950 39782.70 33960.20 253.10
4527 20.8987 31031.80 24934.50 213.50
4528 20.9025 19336.90 16135.80 167.80
4529 20.9062 11380.50 9933.77 122.60
4530 20.9100 7114.30 6430.63 93.40
4531 20.9137 5388.80 4717.48 82.00
4532 20.9175 4211.40 3915.81 71.50
4533 20.9213 3654.60 3500.29 66.30
4534 20.9250 3300.20 3243.82 63.40
4535 20.9288 3187.60 3063.57 61.90
4536 20.9325 2913.10 2928.47 59.10
4537 20.9363 2873.10 2823.93 58.30
4538 20.9401 2668.70 2741.54 56.60
4539 20.9438 2737.60 2675.13 56.80
4540 20.9476 2540.00 2620.97 55.20
4541 20.9513 2548.20 2576.22 55.30
4542 20.9551 2490.70 2538.81 54.20
4543 20.9589 2508.40 2507.22 55.00
4544 20.9626 2312.30 2480.29 52.20
4545 20.9664 2353.20 2457.12 51.50
4546 20.9701 2410.30 2437.05 54.20
4547 20.9739 2418.70 2419.52 53.70
4548 20.9776 2313.40 2404.17 52.30
4549 20.9814 2222.80 2390.55 51.50
4550 20.9852 2270.10 2378.45 51.70
4551 20.9889 2353.20 2367.63 52.40
4552 20.9927 2154.10 2357.92 50.70
4553 20.9964 2325.10 2349.16 52.50
4554 21.0002 2256.00 2341.22 52.10
4555 21.0040 2239.30 2334.01 50.60
4556 21.0077 2185.40 2327.42 49.60
4557 21.0115 2258.50 2321.37 52.60
4558 21.0152 2202.10 2315.81 50.50
4559 21.0190 2215.50 2310.67 51.30
4560 21.0228 2172.60 2305.92 50.10
4561 21.0265 2234.40 2301.51 51.20
4562 21.0303 2182.70 2297.42 51.00
4563 21.0340 2215.90 2293.58 51.40
4564 21.0378 2170.30 2289.99 50.60
4565 21.0415 2097.90 2286.63 50.00
4566 21.0453 2097.00 2283.46 49.70
4567 21.0491 2221.40 2280.48 50.20
4568 21.0528 2122.70 2277.66 48.00
4569 21.0566 2167.20 2275.00 49.60
4570 21.0603 2138.20 2272.46 49.00
4571 21.0641 2150.80 2270.06 49.10
4572 21.0679 2153.30 2267.77 48.50
4573 21.0716 2192.90 2265.58 49.50
4574 21.0754 2121.60 2263.49 48.20
4575 21.0791 2139.40 2261.49 48.50
4576 21.0829 2130.10 2259.58 48.50
4577 21.0866 2219.20 2257.74 49.80
4578 21.0904 2044.10 2255.97 47.20
4579 21.0942 2151.10 2254.27 49.20
4580 21.0979 2059.20 2252.63 47.80
4581 21.1017 2170.60 2251.04 48.90
4582 21.1054 2027.80 2249.51 47.90
4583 21.1092 2065.60 2248.03 48.10
4584 21.1129 2065.40 2246.59 48.10
4585 21.1167 2191.70 2245.19 49.70
4586 21.1205 2127.70 2243.84 48.90
4587 21.1242 2114.20 2242.53 47.80
4588 21.1280 2165.70 2241.24 49.30
4589 21.1317 2131.20 2239.99 48.90
4590 21.1355 2097.20 2238.78 48.90
4591 21.1393 2141.50 2237.59 49.20
4592 21.1430 2052.40 2236.43 48.00
4593 21.1468 2140.50 2235.30 48.90
4594 21.1505 2063.70 2234.19 48.30
4595 21.1543 2111.50 2233.10 49.30
4596 21.1581 2087.00 2232.03 48.10
4597 21.1618 2211.10 2230.99 49.70
4598 21.1656 2112.40 2229.97 48.80
4599 21.1693 2187.30 2228.96 50.20
4600 21.1731 2095.40 2227.97 48.30
4601 21.1768 2095.20 2212.08 47.40
4602 21.1806 2096.30 2211.51 48.50
4603 21.1843 2112.20 2210.94 48.80
4604 21.1881 1970.10 2210.37 46.90
4605 21.1919 2103.00 2209.80 48.20
4606 21.1956 1984.20 2209.23 47.30
4607 21.1994 2145.50 2208.67 49.00
4608 21.2031 2092.00 2208.10 47.90
4609 21.2069 2202.40 2207.53 49.70
4610 21.2107 2076.50 2206.96 48.20
4611 21.2144 2069.90 2206.40 48.30
4612 21.2182 1977.50 2205.83 47.40
4613 21.2219 2138.80 2205.26 48.90
4614 21.2257 2037.50 2204.70 47.80
4615 21.2295 2159.60 2204.13 49.40
4616 21.2332 2036.30 2203.57 48.10
4617 21.2370 2091.30 2203.00 48.60
4618 21.2407 1992.90 2202.44 47.10
4619 21.2445 2089.30 2201.88 47.50
4620 21.2482 2042.50 2201.31 47.90
4621 21.2520 2100.60 2200.75 48.30
4622 21.2558 2093.80 2200.19 48.70
4623 21.2595 2053.70 2199.63 47.50
4624 21.2633 2073.80 2199.07 48.70
4625 21.2670 2103.00 2198.51 48.00
4626 21.2708 2117.10 2197.95 49.10
4627 21.2745 2116.80 2197.39 48.20
4628 21.2783 2095.70 2196.83 48.60
4629 21.2821 2168.30 2196.27 49.30
4630 21.2858 2110.90 2195.71 48.70
4631 21.2896 2154.70 2195.15 49.50
4632 21.2933 2032.90 2194.59 47.80
4633 21.2971 2083.20 2194.04 48.40
4634 21.3008 2109.20 2193.48 48.90
4635 21.3046 2038.90 2192.92 47.50
4636 21.3084 2016.60 2192.37 47.50
4637 21.3121 2160.90 2191.81 49.50
4638 21.3159 2045.30 2191.26 47.40
4639 21.3196 2015.20 2190.70 47.90
4640 21.3234 2088.10 2190.15 48.20
4641 21.3272 2089.20 2189.59 47.90
4642 21.3309 2048.00 2189.04 48.10
4643 21.3347 2100.40 2188.49 48.70
4644 21.3384 2094.70 2187.94 49.00
4645 21.3422 2167.30 2187.38 49.20
4646 21.3459 2027.70 2186.83 47.70
4647 21.3497 2103.00 2186.28 49.10
4648 21.3535 2112.60 2185.73 49.30
4649 21.3572 2119.10 2185.18 49.00
4650 21.3610 2032.80 2184.63 48.00
4651 21.3647 2116.80 2184.08 48.90
4652 21.3685 2080.90 2183.53 48.40
4653 21.3722 2163.80 2182.98 48.50
4654 21.3760 1973.80 2182.44 46.40
4655 21.3797 2100.10 2181.89 49.00
4656 21.3835 2063.60 2181.34 48.60
4657 21.3873 2056.90 2180.79 48.80
4658 21.3910 2054.40 2180.25 48.30
4659 21.3948 2108.40 2179.70 48.20
4660 21.3985 2116.40 2179.16 49.40
4661 21.4023 2084.80 2178.61 48.10
4662 21.4060 2093.40 2178.07 49.50
4663 21.4098 1985.00 2177.52 47.50
4664 21.4136 2006.00 2176.98 46.90
4665 21.4173 2097.90 2176.44 48.60
4666 21.4211 2001.20 2175.89 47.60
4667 21.4248 2125.80 2175.35 48.50
4668 21.4286 2029.40 2174.81 48.00
4669 21.4324 2047.60 2174.27 47.60
4670 21.4361 2029.20 2173.73 48.50
4671 21.4399 2110.80 2173.19 48.40
4672 21.4436 2060.70 2172.65 48.20
4673 21.4474 2063.80 2172.11 48.30
4674 21.4511 2023.90 2171.57 47.30
4675 21.4549 2103.30 2171.03 49.20
4676 21.4587 1986.70 2170.49 47.80
4677 21.4624 2138.80 2169.95 49.40
4678 21.4662 2106.80 2169.41 48.80
4679 21.4699 2101.80 2168.88 48.80
4680 21.4737 2049.50 2168.34 49.20
4681 21.4774 2021.40 2167.80 47.70
4682 21.4812 2161.90 2167.27 49.50
4683 21.4849 2137.60 2166.73 49.00
4684 21.4887 2041.70 2166.20 48.30
4685 21.4925 2128.70 2165.66 49.10
4686 21.4962 2160.30 2165.13 48.20
4687 21.5000 2101.20 2164.60 49.30
4688 21.5037 1989.60 2164.06 47.70
4689 21.5075 2123.30 2163.53 49.10
4690 21.5112 2042.80 2163.00 48.40
4691 21.5150 2062.20 2162.47 49.00
4692 21.5188 2074.20 2161.93 48.60
4693 21.5225 2144.90 2161.40 48.30
4694 21.5263 2086.00 2160.87 49.00
4695 21.5300 2151.70 2160.34 49.80
4696 21.5338 1990.50 2159.81 47.20
4697 21.5375 2079.60 2159.28 46.80
4698 21.5413 2094.60 2158.75 48.40
4699 21.5451 2086.60 2158.23 48.30
4700 21.5488 2096.10 2157.70 48.30
4701 21.5526 1976.50 2157.17 46.70
4702 21.5563 2058.90 2156.64 47.50
4703 21.5601 2089.20 2156.12 47.90
4704 21.5638 2117.60 2155.59 48.40
4705 21.5676 2084.00 2155.06 47.30
4706 21.5714 2106.90 2154.54 48.20
4707 21.5751 2144.10 2154.01 48.80
4708 21.5789 2044.70 2153.49 47.90
4709 21.5826 2057.70 2152.97 47.80
4710 21.5864 2110.90 2152.44 48.00
4711 21.5901 2120.20 2151.92 48.70
4712 21.5939 2131.90 2151.40 48.70
4713 21.5977 2092.30 2150.87 47.80
4714 21.6014 2044.30 2150.35 47.70
4715 21.6052 2055.80 2149.83 47.90
4716 21.6089 2058.50 2149.31 48.00
4717 21.6127 2068.70 2148.79 47.80
4718 21.6164 2010.20 2148.27 47.60
4719 21.6202 2148.70 2147.75 49.00
4720 21.6239 2115.80 2147.23 48.60
4721 21.6277 2103.20 2146.71 48.20
4722 21.6315 2071.90 2146.19 47.80
4723 21.6352 2201.50 2145.67 49.60
4724 21.6390 2078.00 2145.15 48.00
4725 21.6427 2128.60 2144.64 48.20
4726 21.6465 2118.20 2144.12 49.10
4727 21.6502 2035.80 2143.60 47.20
4728 21.6540 2076.40 2143.09 48.40
4729 21.6577 2119.60 2142.57 48.60
4730 21.6615 2139.40 2142.06 48.20
4731 21.6653 2037.60 2141.54 47.40
4732 21.6690 2097.60 2141.03 48.00
4733 21.6728 2097.70 2140.52 48.30
4734 21.6765 2131.70 2140.00 48.70
4735 21.6803 2143.80 2139.49 48.90
4736 21.6840 2035.90 2138.98 47.50
4737 21.6878 2110.40 2138.47 48.70
4738 21.6915 1999.90 2137.95 47.30
4739 21.6953 2092.10 2137.44 48.70
4740 21.6991 2089.30 2136.93 47.50
4741 21.7028 2101.90 2136.42 47.90
4742 21.7066 2040.80 2135.91 47.80
4743 21.7103 2122.60 2135.40 48.10
4744 21.7141 2096.50 2134.89 48.60
4745 21.7178 2051.20 2134.38 48.00
4746 21.7216 2052.20 2133.87 47.10
4747 21.7253 2128.00 2133.37 48.20
4748 21.7291 2051.70 2132.86 47.60
4749 21.7329 2105.20 2132.35 48.60
4750 21.7366 2097.00 2131.85 47.80
4751 21.7404 2069.80 2131.34 48.70
4752 21.7441 2043.30 2130.83 48.10
4753 21.7479 2113.00 2130.33 48.30
4754 21.7516 2059.40 2129.83 48.60
4755 21.7554 2097.20 2129.32 48.60
4756 21.7591 2046.30 2128.82 47.80
4757 21.7629 2123.70 2128.31 48.60
4758 21.7667 2117.60 2127.81 49.10
4759 21.7704 2076.50 2127.31 48.10
4760 21.7742 2076.80 2126.80 48.60
4761 21.7779 2017.40 2126.30 46.90
4762 21.7817 2174.30 2125.80 49.90
4763 21.7854 2069.70 2125.30 48.10
4764 21.7892 2001.10 2124.80 46.90
4765 21.7929 2187.70 2124.30 49.40
4766 21.7967 2037.80 2123.80 46.40
4767 21.8005 2113.90 2123.30 49.10
4768 21.8042 1999.80 2122.80 46.30
4769 21.8080 2094.30 2122.30 48.90
4770 21.8117 2081.60 2121.81 48.50
4771 21.8155 2091.50 2121.31 48.60
4772 21.8192 2062.40 2120.81 47.80
4773 21.8230 2173.40 2120.31 49.30
4774 21.8267 2012.30 2119.82 47.40
4775 21.8305 2108.00 2119.32 49.00
4776 21.8343 2078.20 2118.83 48.50
4777 21.8380 2036.70 2118.33 47.60
4778 21.8418 2055.70 2117.84 48.40
4779 21.8455 2121.20 2117.34 48.70
4780 21.8493 2018.70 2116.85 48.20
4781 21.8530 2126.50 2116.35 48.70
4782 21.8568 2074.50 2115.86 48.80
4783 21.8605 2084.10 2115.37 48.50
4784 21.8643 2025.50 2114.88 47.30
4785 21.8681 2033.50 2114.39 47.50
4786 21.8718 2012.20 2113.89 46.80
4787 21.8756 2049.10 2113.40 47.80
4788 21.8793 2081.40 2112.91 47.90
4789 21.8831 2170.60 2112.42 49.30
4790 21.8868 2188.50 2111.93 49.60
4791 21.8906 2134.60 2111.44 49.10
4792 21.8943 2082.20 2110.96 48.60
4793 21.8981 2070.40 2110.47 48.30
4794 21.9018 2138.50 2109.98 49.20
4795 21.9056 1994.10 2109.49 47.40
4796 21.9094 2110.90 2109.01 48.50
4797 21.9131 2032.00 2108.52 48.30
4798 21.9169 2074.30 2108.03 48.40
4799 21.9206 2120.10 2107.55 48.80
4800 21.9244 2052.90 2107.06 47.90
4801 21.9281 2126.20 2106.58 48.90
4802 21.9319 2081.60 2106.09 48.80
4803 21.9356 2073.30 2105.61 48.10
4804 21.9394 2042.40 2105.12 48.00
4805 21.9431 2085.60 2104.64 48.30
4806 21.9469 2071.50 2104.16 48.60
4807 21.9507 2042.90 2103.68 47.40
4808 21.9544 2028.30 2103.19 47.70
4809 21.9582 2160.30 2102.71 49.70
4810 21.9619 2083.70 2102.23 48.80
4811 21.9657 2122.80 2101.75 48.40
4812 21.9694 2073.20 2101.27 48.20
4813 21.9732 2097.20 2100.79 48.90
4814 21.9769 2039.50 2100.31 47.80
4815 21.9807 1994.60 2099.83 47.10
4816 21.9844 2099.20 2099.35 48.50
4817 21.9875 2148.20 2098.97 49.40
4818 21.9912 2092.30 2098.49 47.40
4819 21.9950 2102.30 2098.01 49.30
4820 21.9987 2057.20 2097.54 48.60
4821 22.0025 2175.80 2097.06 49.80
4822 22.0063 2009.60 2096.58 47.90
4823 22.0100 2150.70 2096.11 50.10
4824 22.0138 2091.80 2095.63 48.80
4825 22.0175 2064.30 2095.16 47.30
4826 22.0213 2061.00 2094.68 48.70
4827 22.0250 2063.20 2094.21 48.70
4828 22.0288 2048.30 2093.73 47.90
4829 22.0326 2156.80 2093.26 47.70
4830 22.0363 2095.70 2092.79 48.40
4831 22.0401 2006.60 2092.31 47.30
4832 22.0438 2088.00 2091.84 48.20
4833 22.0476 2074.90 2091.37 47.90
4834 22.0513 2058.90 2090.90 47.50
4835 22.0551 2058.40 2090.43 47.50
4836 22.0588 2040.30 2089.96 47.50
4837 22.0626 2175.60 2089.49 48.40
4838 22.0664 2014.10 2089.01 47.10
4839 22.0701 2033.40 2088.55 47.50
4840 22.0739 2005.10 2088.08 47.40
4841 22.0776 2093.00 2087.61 48.30
4842 22.0814 2041.60 2087.14 47.20
4843 22.0851 2056.50 2086.67 47.90
4844 22.0889 2114.80 2086.21 48.50
4845 22.0926 2117.00 2085.74 48.10
4846 22.0964 2092.60 2085.27 48.20
4847 22.1002 2163.80 2084.81 49.20
4848 22.1039 1994.60 2084.34 47.20
4849 22.1077 2162.50 2083.87 48.90
4850 22.1114 2038.80 2083.41 47.90
4851 22.1152 2138.60 2082.95 48.90
4852 22.1189 2098.60 2082.48 48.40
4853 22.1227 1993.90 2082.02 46.90
4854 22.1265 2098.80 2081.55 48.10
4855 22.1302 2071.30 2081.09 48.00
4856 22.1340 2059.90 2080.63 47.80
4857 22.1377 2061.50 2080.17 47.40
4858 22.1415 2128.50 2079.71 49.20
4859 22.1452 2088.30 2079.24 47.80
4860 22.1490 2086.70 2078.78 48.50
4861 22.1528 2064.10 2078.32 48.00
4862 22.1565 2141.30 2077.86 48.20
4863 22.1603 2052.50 2077.40 47.50
4864 22.1640 2135.40 2076.94 48.50
4865 22.1678 2063.50 2076.49 47.90
4866 22.1715 1993.10 2076.03 47.00
4867 22.1753 2121.60 2075.57 48.60
4868 22.1790 2056.00 2075.11 47.70
4869 22.1828 2130.80 2074.66 49.00
4870 22.1866 2099.40 2074.20 48.50
4871 22.1903 2035.70 2073.74 48.00
4872 22.1941 2023.70 2073.29 46.70
4873 22.1978 2137.50 2072.83 48.30
4874 22.2016 1982.00 2072.38 47.00
4875 22.2053 2119.60 2071.92 48.10
4876 22.2091 2040.30 2071.47 48.00
4877 22.2128 2013.60 2071.01 47.50
4878 22.2166 1990.50 2070.56 46.30
4879 22.2204 2118.10 2070.11 48.10
4880 22.2206 2126.10 2070.08 47.70
4881 22.2243 2070.20 2069.63 47.40
4882 22.2281 2088.80 2069.18 47.60
4883 22.2318 2117.50 2068.73 48.10
4884 22.2356 2093.00 2068.27 48.10
4885 22.2393 2052.80 2067.82 47.10
4886 22.2431 2035.40 2067.37 47.50
4887 22.2469 2112.30 2066.92 48.00
4888 22.2506 2087.80 2066.47 47.20
4889 22.2544 2158.70 2066.02 48.70
4890 22.2581 2077.90 2065.58 48.00
4891 22.2619 2159.30 2065.13 48.20
4892 22.2656 2067.10 2064.68 47.40
4893 22.2694 2114.40 2064.23 47.90
4894 22.2731 2080.00 2063.79 47.60
4895 22.2769 2085.40 2063.34 48.00
4896 22.2806 2082.10 2062.89 47.70
4897 22.2844 2183.90 2062.45 48.70
4898 22.2882 2060.30 2062.00 47.50
4899 22.2919 2126.50 2061.56 47.50
4900 22.2957 1949.00 2061.11 46.00
4901 22.2994 2125.60 2060.67 48.30
4902 22.3032 2100.00 2060.22 48.10
4903 22.3069 2008.80 2059.78 46.60
4904 22.3107 2060.30 2059.34 47.30
4905 22.3144 2121.20 2058.89 48.40
4906 22.3182 2110.60 2058.45 47.90
4907 22.3220 2113.20 2058.01 47.60
4908 22.3257 2065.30 2057.57 47.50
4909 22.3295 2104.00 2057.13 48.30
4910 22.3332 2143.20 2056.69 48.80
4911 22.3370 2146.00 2056.25 48.70
4912 22.3407 2009.70 2055.81 46.50
4913 22.3445 2110.60 2055.37 47.80
4914 22.3482 2048.40 2054.93 47.40
4915 22.3520 2080.90 2054.49 47.90
4916 22.3557 2037.90 2054.05 46.80
4917 22.3595 2132.80 2053.61 48.60
4918 22.3633 2076.60 2053.18 47.70
4919 22.3670 2076.70 2052.74 48.00
4920 22.3708 2080.50 2052.30 47.80
4921 22.3745 2135.20 2051.87 48.60
4922 22.3783 2139.80 2051.43 48.30
4923 22.3820 2084.80 2050.99 47.30
4924 22.3858 2079.30 2050.56 47.40
4925 22.3895 2079.70 2050.12 48.30
4926 22.3933 2050.70 2049.69 47.80
4927 22.3971 2103.80 2049.26 47.90
4928 22.4008 2020.30 2048.82 47.60
4929 22.4046 2148.80 2048.39 49.20
4930 22.4083 2022.00 2047.96 47.10
4931 22.4121 2087.20 2047.53 48.10
4932 22.4158 2039.40 2047.09 47.20
4933 22.4196 2175.30 2046.66 49.10
4934 22.4233 2152.40 2046.23 47.60
4935 22.4271 2105.20 2045.80 48.00
4936 22.4308 2088.10 2045.37 48.10
4937 22.4346 2154.60 2044.94 48.80
4938 22.4384 2095.20 2044.51 48.30
4939 22.4421 2028.60 2044.08 46.90
4940 22.4459 2098.30 2043.65 47.50
4941 22.4496 2062.30 2043.22 47.60
4942 22.4534 2100.60 2042.80 47.70
4943 22.4571 2121.00 2042.37 48.30
4944 22.4609 2085.90 2041.94 48.30
4945 22.4646 2094.00 2041.52 48.00
4946 22.4684 2061.10 2041.09 47.40
4947 22.4722 2171.20 2040.66 48.90
4948 22.4759 2072.90 2040.24 47.60
4949 22.4797 2078.50 2039.81 48.00
4950 22.4834 2047.30 2039.39 47.70
4951 22.4872 2131.40 2038.96 48.70
4952 22.4909 2040.50 2038.54 47.60
4953 22.4947 2091.80 2038.12 48.30
4954 22.4984 2032.30 2037.69 47.10
4955 22.5022 2067.10 2037.27 47.70
4956 22.5060 1970.60 2036.85 46.30
4957 22.5097 2117.60 2036.43 47.70
4958 22.5135 2044.90 2036.00 47.70
4959 22.5172 2174.80 2035.58 49.30
4960 22.5210 2046.80 2035.16 48.10
4961 22.5247 2060.60 2034.74 47.90
4962 22.5285 2001.50 2034.32 47.60
4963 22.5322 2131.40 2033.90 48.30
4964 22.5360 1925.20 2033.48 45.80
4965 22.5398 2178.40 2033.06 49.70
4966 22.5435 1993.60 2032.65 46.80
4967 22.5473 2017.10 2032.23 47.20
4968 22.5510 2053.00 2031.81 47.40
4969 22.5548 2069.80 2031.39 48.10
4970 22.5585 2057.30 2030.97 47.60
4971 22.5623 2104.00 2030.56 48.60
4972 22.5660 2006.40 2030.14 47.70
4973 22.5698 2107.70 2029.73 48.30
4974 22.5736 2051.80 2029.31 47.50
4975 22.5773 2120.40 2028.90 48.10
4976 22.5811 2033.50 2028.48 47.80
4977 22.5848 2153.80 2028.07 49.00
4978 22.5886 2025.00 2027.65 47.60
4979 22.5923 2112.50 2027.24 48.80
4980 22.5961 2058.90 2026.83 48.40
4981 22.5998 2024.00 2026.42 47.10
4982 22.6036 2068.30 2026.00 47.90
4983 22.6074 2113.20 2025.59 48.80
4984 22.6111 1991.90 2025.18 47.00
4985 22.6149 2143.50 2024.77 49.10
4986 22.6186 2030.60 2024.36 47.40
4987 22.6224 2098.10 2023.95 48.50
4988 22.6262 2021.20 2023.54 47.60
4989 22.6299 2032.70 2023.13 47.90
4990 22.6337 2042.30 2022.72 47.50
4991 22.6374 2078.10 2022.31 47.60
4992 22.6412 2072.60 2021.90 47.60
4993 22.6449 2110.90 2021.49 48.30
4994 22.6487 2045.60 2021.09 47.60
4995 22.6524 2110.00 2020.68 48.60
4996 22.6562 2027.50 2020.27 47.50
4997 22.6600 2046.70 2019.87 47.40
4998 22.6637 2008.50 2019.46 47.40
4999 22.6675 2091.40 2019.05 48.50
5000 22.6712 2095.20 2018.65 48.40
5001 22.6750 2093.80 2018.24 48.60
5002 22.6787 2082.00 2017.84 49.20
5003 22.6825 2032.20 2017.44 47.40
5004 22.6863 2143.40 2017.03 48.80
5005 22.6900 2113.70 2016.63 48.10
5006 22.6938 2088.40 2016.23 48.80
5007 22.6975 2055.10 2015.82 47.90
5008 22.7013 1987.70 2015.42 47.50
5009 22.7050 2119.00 2015.02 48.70
5010 22.7088 2055.70 2014.62 48.10
5011 22.7125 1999.60 2014.22 46.70
5012 22.7163 2024.30 2013.82 47.60
5013 22.7201 2011.70 2013.42 47.70
5014 22.7238 2006.00 2013.02 47.10
5015 22.7276 2068.00 2012.62 47.90
5016 22.7313 2063.40 2012.22 47.80
5017 22.7351 2136.20 2011.82 48.90
5018 22.7388 2037.70 2011.42 47.90
5019 22.7426 2068.00 2011.02 48.30
5020 22.7463 2073.90 2010.63 48.30
5021 22.7501 2010.40 2010.23 46.80
5022 22.7539 2026.10 2009.83 47.60
5023 22.7576 2079.30 2009.44 48.30
5024 22.7614 2031.80 2009.04 47.60
5025 22.7651 2114.80 2008.64 48.60
5026 22.7689 2115.80 2008.25 48.70
5027 22.7726 2032.50 2007.85 47.80
5028 22.7764 2073.00 2007.46 47.90
5029 22.7802 2075.70 2007.06 48.40
5030 22.7839 2010.50 2006.67 47.70
5031 22.7877 2013.80 2006.28 47.60
5032 22.7914 2039.80 2005.88 47.10
5033 22.7952 2035.70 2005.49 47.70
5034 22.7990 2088.80 2005.10 47.70
5035 22.8027 2147.70 2004.71 49.70
5036 22.8065 2000.50 2004.32 47.20
5037 22.8102 2120.40 2003.93 49.50
5038 22.8140 2001.30 2003.53 47.00
5039 22.8177 2138.60 2003.14 49.20
5040 22.8215 2130.00 2002.75 48.80
5041 22.8253 2069.70 2002.36 48.80
5042 22.8290 2057.80 2001.98 48.20
5043 22.8328 2125.50 2001.59 48.70
5044 22.8365 1966.80 2001.20 47.30
5045 22.8403 2016.10 2000.81 47.60
5046 22.8440 1997.10 2000.42 47.10
5047 22.8478 2091.90 2000.04 48.30
5048 22.8515 2031.50 1999.65 48.10
5049 22.8553 2066.00 1999.26 47.20
5050 22.8591 2042.30 1998.88 47.80
5051 22.8628 2026.10 1998.49 46.90
5052 22.8666 2026.60 1998.10 47.40
5053 22.8703 2106.70 1997.72 48.30
5054 22.8741 2037.90 1997.34 48.50
5055 22.8778 2100.60 1996.95 48.70
5056 22.8816 2057.30 1996.57 47.80
5057 22.8854 2105.30 1996.18 48.80
5058 22.8891 2069.20 1995.80 48.20
5059 22.8929 1990.90 1995.42 46.80
5060 22.8966 2054.90 1995.03 47.50
5061 22.9004 2050.90 1994.65 47.60
5062 22.9042 2111.30 1994.27 48.60
5063 22.9079 2062.10 1993.89 47.80
5064 22.9117 2007.80 1993.51 47.40
5065 22.9154 2070.30 1993.13 48.30
5066 22.9192 1984.70 1992.75 47.30
5067 22.9229 2054.00 1992.37 47.60
5068 22.9267 2080.70 1991.99 48.80
5069 22.9305 2042.40 1991.61 48.10
5070 22.9342 2088.30 1991.23 48.50
5071 22.9380 2066.40 1990.85 48.40
5072 22.9417 1992.80 1990.47 46.30
5073 22.9455 2117.20 1990.10 49.10
5074 22.9492 2052.70 1989.72 47.90
5075 22.9530 2092.10 1989.34 48.80
5076 22.9568 2056.70 1988.97 48.00
5077 22.9605 2029.30 1988.59 48.00
5078 22.9643 2079.20 1988.22 48.10
5079 22.9680 2081.00 1987.84 48.50
5080 22.9718 2062.40 1987.47 48.00
5081 22.9755 2032.00 1987.09 47.80
5082 22.9793 2027.20 1986.72 47.40
5083 22.9831 2095.40 1986.34 48.90
5084 22.9868 1985.60 1985.97 47.60
5085 22.9906 2120.50 1985.60 48.50
5086 22.9943 2053.90 1985.22 48.00
5087 22.9981 2078.40 1984.85 48.50
5088 23.0019 2049.00 1984.48 47.40
5089 23.0056 2088.10 1984.11 48.30
5090 23.0094 2100.20 1983.74 48.50
5091 23.0131 2096.20 1983.37 48.90
5092 23.0169 2034.00 1983.00 47.90
5093 23.0206 2081.30 1982.63 48.30
5094 23.0244 2033.10 1982.26 47.70
5095 23.0282 2011.90 1981.89 47.70
5096 23.0319 2052.10 1981.52 47.60
5097 23.0357 2001.60 1981.15 47.40
5098 23.0394 2010.60 1980.78 48.20
5099 23.0432 2075.50 1980.41 47.70
5100 23.0469 2045.20 1980.05 47.50
5101 23.0507 2073.80 1979.68 48.20
5102 23.0545 2114.00 1979.31 48.90
5103 23.0582 2111.50 1978.94 48.90
5104 23.0620 1961.20 1978.58 46.60
5105 23.0657 2142.40 1978.21 49.30
5106 23.0695 2035.00 1977.85 48.10
5107 23.0732 2135.90 1977.48 49.20
5108 23.0770 2047.80 1977.12 47.10
5109 23.0808 2113.30 1976.75 48.70
5110 23.0845 2066.20 1976.39 48.40
5111 23.0883 2022.30 1976.03 47.40
5112 23.0920 2009.80 1975.66 47.80
5113 23.0958 2044.70 1975.30 48.40
5114 23.0996 2142.30 1974.94 49.00
5115 23.1033 2078.60 1974.58 48.30
5116 23.1071 1970.40 1974.22 47.00
5117 23.1108 2126.40 1973.85 49.70
5118 23.1146 2043.60 1973.49 47.50
5119 23.1183 2028.80 1973.13 48.00
5120 23.1221 2041.10 1972.77 48.20
5121 23.1259 2076.20 1972.41 49.00
5122 23.1296 2015.50 1972.05 47.60
5123 23.1334 2074.90 1971.69 49.10
5124 23.1371 1996.70 1971.33 47.50
5125 23.1409 2236.40 1970.98 50.80
5126 23.1446 1990.00 1970.62 47.40
5127 23.1484 2065.00 1970.26 48.70
5128 23.1522 1998.30 1969.90 47.40
5129 23.1559 2106.60 1969.55 49.00
5130 23.1597 1982.60 1969.19 47.70
5131 23.1635 2067.30 1968.83 49.10
5132 23.1672 2041.00 1968.48 48.60
5133 23.1710 2040.70 1968.12 48.40
5134 23.1747 1999.60 1967.77 48.20
5135 23.1785 2128.20 1967.41 50.10
5136 23.1822 2041.20 1967.06 48.20
5137 23.1860 2115.20 1966.70 48.10
5138 23.1898 2036.40 1966.35 48.30
5139 23.1935 2134.00 1966.00 48.70
5140 23.1973 2040.80 1965.65 48.70
5141 23.2010 2070.10 1965.29 48.50
5142 23.2048 2072.30 1964.94 48.80
5143 23.2085 2114.50 1964.59 49.20
5144 23.2123 2064.00 1964.24 47.90
5145 23.2161 2136.40 1963.89 49.90
5146 23.2198 2069.30 1963.54 48.90
5147 23.2236 2131.40 1963.18 49.50
5148 23.2273 2064.30 1962.83 48.50
5149 23.2311 2088.20 1962.48 48.90
5150 23.2349 1984.60 1962.14 47.80
5151 23.2386 2124.90 1961.79 50.30
5152 23.2424 2011.10 1961.44 48.10
5153 23.2461 2054.20 1961.09 48.60
5154 23.2499 2069.70 1960.74 48.10
5155 23.2537 2097.00 1960.39 48.70
5156 23.2574 2053.50 1960.05 48.50
5157 23.2612 2122.10 1959.70 49.60
5158 23.2649 2049.20 1959.35 49.00
5159 23.2687 2087.30 1959.01 49.50
5160 23.2724 2050.80 1958.66 48.70
5161 23.2762 2033.20 1958.32 47.30
5162 23.2800 2115.70 1957.97 49.60
5163 23.2837 2182.20 1957.63 50.60
5164 23.2875 2107.30 1957.28 49.40
5165 23.2912 2095.60 1956.94 48.60
5166 23.2950 2017.90 1956.59 48.60
5167 23.2987 2133.60 1956.25 49.70
5168 23.3025 2055.50 1955.91 48.40
5169 23.3063 2130.10 1955.57 49.00
5170 23.3100 2031.50 1955.22 47.90
5171 23.3138 2069.10 1954.88 48.70
5172 23.3176 2104.40 1954.54 49.30
5173 23.3213 2075.90 1954.20 48.90
5174 23.3251 1993.90 1953.86 48.00
5175 23.3288 2049.80 1953.52 48.50
5176 23.3326 2026.30 1953.18 47.90
5177 23.3363 2124.40 1952.84 48.40
5178 23.3401 2097.40 1952.50 48.80
5179 23.3439 2125.10 1952.16 49.10
5180 23.3476 2044.30 1951.82 48.40
5181 23.3514 2084.80 1951.48 49.10
5182 23.3551 2049.50 1951.14 48.50
5183 23.3589 2162.10 1950.81 50.30
5184 23.3626 2116.40 1950.47 49.40
5185 23.3664 2144.30 1950.13 49.60
5186 23.3702 2047.00 1949.80 48.00
5187 23.3739 2076.60 1949.46 49.20
5188 23.3777 2021.00 1949.12 48.30
5189 23.3815 2195.20 1948.79 50.30
5190 23.3852 2093.60 1948.45 49.30
5191 23.3890 2028.70 1948.12 48.50
5192 23.3927 2045.10 1947.78 48.60
5193 23.3965 2017.90 1947.45 48.40
5194 23.4002 2081.50 1947.12 49.10
5195 23.4040 2100.40 1946.78 49.20
5196 23.4078 2029.90 1946.45 48.10
5197 23.4115 2065.40 1946.12 48.40
5198 23.4153 2108.90 1945.79 49.30
5199 23.4190 2075.80 1945.45 49.10
5200 23.4228 2080.40 1945.12 48.60
5201 23.4266 2048.40 1944.79 48.60
5202 23.4303 2089.20 1944.46 49.40
5203 23.4341 2105.80 1944.13 50.00
5204 23.4378 2033.30 1943.80 49.00
5205 23.4416 2100.80 1943.47 50.00
5206 23.4454 2069.90 1943.14 48.90
5207 23.4491 2093.20 1942.81 48.90
5208 23.4529 2032.70 1942.48 48.80
5209 23.4566 2067.40 1942.15 48.80
5210 23.4604 2047.50 1941.83 48.70
5211 23.4641 2036.30 1941.50 47.80
5212 23.4679 2060.30 1941.17 48.40
5213 23.4717 2158.50 1940.84 50.00
5214 23.4754 2051.50 1940.52 48.80
5215 23.4792 2055.10 1940.19 47.40
5216 23.4830 2014.00 1939.86 47.30
5217 23.4867 2153.70 1939.54 49.90
5218 23.4905 2114.50 1939.21 48.80
5219 23.4942 2087.20 1938.89 49.30
5220 23.4980 2056.40 1938.56 48.50
5221 23.5017 1980.70 1938.24 47.20
5222 23.5055 2133.60 1937.91 48.80
5223 23.5093 2058.30 1937.59 48.30
5224 23.5130 1947.00 1937.27 47.10
5225 23.5168 2074.20 1936.94 48.80
5226 23.5205 2071.10 1936.62 48.50
5227 23.5243 2196.70 1936.30 50.50
5228 23.5281 2039.00 1935.98 48.30
5229 23.5318 2096.40 1935.66 49.80
5230 23.5356 2078.70 1935.33 48.90
5231 23.5393 2092.60 1935.01 48.90
5232 23.5431 2049.00 1934.69 48.90
5233 23.5469 2101.10 1934.37 49.40
5234 23.5506 2107.80 1934.05 49.00
5235 23.5544 2131.70 1933.73 49.00
5236 23.5581 2081.30 1933.41 48.90
5237 23.5619 2163.50 1933.10 49.70
5238 23.5657 2013.00 1932.78 48.20
5239 23.5694 2046.10 1932.46 48.70
5240 23.5732 2081.60 1932.14 48.90
5241 23.5769 2121.20 1931.82 50.00
5242 23.5807 2073.30 1931.51 48.50
5243 23.5844 2154.50 1931.19 49.10
5244 23.5882 2085.80 1930.87 49.40
5245 23.5920 2106.40 1930.56 49.70
5246 23.5957 2018.80 1930.24 48.70
5247 23.5995 2056.70 1929.92 48.60
5248 23.6033 2123.60 1929.61 49.20
5249 23.6070 2024.30 1929.29 48.20
5250 23.6108 2109.60 1928.98 49.30
5251 23.6145 2174.70 1928.67 50.20
5252 23.6183 2063.90 1928.35 48.40
5253 23.6220 2046.10 1928.04 47.30
5254 23.6258 1988.20 1927.73 47.60
5255 23.6296 2007.60 1927.41 48.30
5256 23.6333 2122.00 1927.10 49.80
5257 23.6371 2006.60 1926.79 47.90
5258 23.6409 2065.80 1926.48 48.40
5259 23.6446 2074.10 1926.17 48.20
5260 23.6484 2058.90 1925.85 47.30
5261 23.6521 2180.10 1925.54 49.20
5262 23.6559 2084.00 1925.23 48.20
5263 23.6596 2159.70 1924.92 48.70
5264 23.6634 2103.70 1924.61 48.10
5265 23.6672 2046.90 1924.30 47.20
5266 23.6709 1978.90 1923.99 46.30
5267 23.6747 2123.80 1923.69 48.60
5268 23.6784 2062.00 1923.38 48.00
5269 23.6822 2093.90 1923.07 48.20
5270 23.6860 2053.20 1922.76 47.00
5271 23.6897 2122.50 1922.45 48.70
5272 23.6935 2140.20 1922.15 48.50
5273 23.6972 2091.70 1921.84 48.50
5274 23.7010 2083.60 1921.53 47.80
5275 23.7048 2117.20 1921.23 48.50
5276 23.7085 2032.70 1920.92 47.00
5277 23.7123 2117.10 1920.62 48.30
5278 23.7160 2097.50 1920.31 48.00
5279 23.7198 2093.10 1920.01 48.10
5280 23.7236 2088.20 1919.70 48.20
5281 23.7273 2104.90 1919.40 48.80
5282 23.7311 2008.00 1919.09 46.60
5283 23.7348 2011.20 1918.79 46.60
5284 23.7386 2109.80 1918.49 48.70
5285 23.7424 2206.50 1918.19 49.80
5286 23.7461 2055.80 1917.88 48.00
5287 23.7499 2193.80 1917.58 49.30
5288 23.7536 2104.70 1917.28 48.00
5289 23.7574 2215.80 1916.98 49.80
5290 23.7612 2084.80 1916.68 48.10
5291 23.7649 2072.80 1916.38 47.60
5292 23.7687 2076.90 1916.08 47.70
5293 23.7724 2193.00 1915.78 49.40
5294 23.7762 2127.70 1915.48 48.50
5295 23.7800 2129.70 1915.18 48.30
5296 23.7837 2147.30 1914.88 48.80
5297 23.7875 2167.80 1914.58 48.50
5298 23.7912 2158.60 1914.28 49.10
5299 23.7950 2202.10 1913.98 49.80
5300 23.7988 2105.00 1913.68 48.20
5301 23.8025 2190.20 1913.39 49.70
5302 23.8063 2127.70 1913.09 48.30
5303 23.8100 2203.80 1912.79 49.70
5304 23.8138 2060.90 1912.50 48.10
5305 23.8176 2093.90 1912.20 48.30
5306 23.8213 2071.30 1911.90 48.10
5307 23.8251 2136.00 1911.61 48.90
5308 23.8288 2112.20 1911.31 48.80
5309 23.8326 2140.20 1911.02 49.20
5310 23.8364 2163.70 1910.72 49.20
5311 23.8401 2196.40 1910.43 49.50
5312 23.8439 2094.90 1910.14 48.40
5313 23.8476 2136.20 1909.84 49.10
5314 23.8514 2187.10 1909.55 49.80
5315 23.8552 2226.00 1909.26 49.90
5316 23.8589 2169.90 1908.96 49.30
5317 23.8627 2119.10 1908.67 48.50
5318 23.8664 2125.60 1908.38 48.70
5319 23.8702 2191.60 1908.09 49.50
5320 23.8740 2153.60 1907.80 48.90
5321 23.8777 2241.00 2032.72 50.70
5322 23.8815 2197.90 2035.73 49.50
5323 23.8852 2179.90 2038.87 49.00
5324 23.8890 2061.40 2042.15 47.30
5325 23.8928 2148.20 2045.58 43.20
5326 23.9003 2230.60 2052.91 45.10
5327 23.9040 2201.70 2056.83 49.40
5328 23.9078 2244.90 2060.93 50.30
5329 23.9116 2185.80 2065.23 49.40
5330 23.9153 2152.00 2069.73 48.90
5331 23.9191 2220.00 2074.45 49.90
5332 23.9228 2227.20 2079.41 50.20
5333 23.9266 2165.50 2084.61 49.20
5334 23.9304 2137.20 2090.07 48.40
5335 23.9341 2247.00 2095.81 50.20
5336 23.9379 2185.10 2101.84 49.30
5337 23.9416 2232.30 2108.20 50.20
5338 23.9454 2240.50 2114.89 50.10
5339 23.9492 2278.70 2121.94 50.70
5340 23.9529 2293.30 2129.38 50.60
5341 23.9567 2190.90 2137.23 49.40
5342 23.9604 2348.50 2145.53 51.30
5343 23.9642 2203.40 2154.30 49.70
5344 23.9680 2390.90 2163.59 51.50
5345 23.9717 2285.70 2173.43 50.20
5346 23.9755 2377.80 2183.86 51.20
5347 23.9792 2358.70 2194.97 51.60
5348 23.9830 2379.60 2206.71 51.30
5349 23.9868 2342.80 2219.24 51.80
5350 23.9905 2424.10 2232.62 51.50
5351 23.9943 2432.80 2246.82 52.40
5352 23.9981 2488.60 2262.06 52.30
5353 24.0018 2414.70 2278.32 51.90
5354 24.0056 2514.70 2295.74 53.30
5355 24.0093 2348.20 2314.41 51.10
5356 24.0131 2455.50 2334.46 52.20
5357 24.0168 2538.10 2356.06 54.30
5358 24.0206 2577.00 2379.32 53.60
5359 24.0244 2505.50 2404.43 53.10
5360 24.0281 2651.80 2431.62 55.20
5361 24.0319 2659.80 2461.08 54.90
5362 24.0357 2636.40 2493.07 54.80
5363 24.0394 2768.30 2527.93 56.60
5364 24.0432 2880.10 2565.95 56.90
5365 24.0469 2886.30 2607.54 57.30
5366 24.0507 2894.50 2653.21 57.00
5367 24.0544 2967.10 2703.43 58.80
5368 24.0582 3117.80 2758.82 59.90
5369 24.0620 3049.20 2820.21 59.20
5370 24.0657 3266.10 2888.38 61.10
5371 24.0695 3312.20 2964.36 61.00
5372 24.0732 3402.20 3049.50 62.30
5373 24.0770 3368.30 3145.19 62.20
5374 24.0808 3665.40 3253.24 65.00
5375 24.0845 3697.20 3376.02 65.50
5376 24.0883 4101.70 3516.11 69.40
5377 24.0921 4153.90 3677.38 69.90
5378 24.0958 4418.60 3862.85 71.50
5379 24.0996 4590.70 4079.93 73.00
5380 24.1033 4871.30 4333.99 75.10
5381 24.1071 5256.20 4634.83 78.70
5382 24.1109 5637.50 4994.01 81.70
5383 24.1146 6053.90 5428.07 85.10
5384 24.1184 6793.40 5959.07 90.30
5385 24.1221 7284.80 6616.70 94.90
5386 24.1259 8399.90 7445.17 98.10
5387 24.1297 9224.00 8509.28 103.40
5388 24.1334 11008.80 9912.85 113.60
5389 24.1372 12890.90 11866.80 125.50
5390 24.1409 16197.50 14884.40 139.60
5391 24.1447 21345.10 20286.30 165.80
5392 24.1485 31004.90 31101.50 205.20
5393 24.1522 47372.50 52650.20 263.00
5394 24.1560 83078.10 90978.50 371.80
5395 24.1597 139826.00 147906.00 518.90
5396 24.1635 208848.00 213245.00 669.20
5397 24.1673 241041.00 257526.00 742.90
5398 24.1710 237237.00 246813.00 730.50
5399 24.1748 193846.00 190678.00 635.00
5400 24.1786 136742.00 125914.00 509.90
5401 24.1823 78512.00 75196.00 358.40
5402 24.1861 45984.50 43377.50 257.70
5403 24.1898 29176.80 26363.50 199.70
5404 24.1936 20720.90 17954.10 163.70
5405 24.1973 15854.70 13632.30 140.00
5406 24.2011 12844.20 11085.90 125.50
5407 24.2049 10686.90 9362.19 112.70
5408 24.2086 8964.50 8094.44 101.80
5409 24.2124 7827.50 7122.84 94.90
5410 24.2162 7081.80 6360.27 90.40
5411 24.2199 6479.60 5751.03 85.70
5412 24.2237 5993.20 5256.96 82.80
5413 24.2274 5412.20 4850.97 77.30
5414 24.2312 5057.30 4513.46 74.80
5415 24.2349 4666.20 4229.95 71.40
5416 24.2387 4505.70 3989.05 70.60
5417 24.2425 4203.90 3783.99 67.90
5418 24.2462 4056.40 3606.50 66.90
5419 24.2500 3914.40 3452.89 66.10
5420 24.2538 3682.80 3318.70 63.80
5421 24.2575 3578.20 3200.95 62.80
5422 24.2613 3504.60 3096.94 62.00
5423 24.2650 3209.20 3004.61 59.10
5424 24.2688 3305.60 2922.38 58.80
5425 24.2726 3105.80 2848.74 57.90
5426 24.2763 2988.20 2782.53 56.80
5427 24.2801 2956.60 2722.86 56.80
5428 24.2838 2871.10 2668.82 55.10
5429 24.2876 2837.30 2619.73 55.50
5430 24.2914 2844.70 2575.05 55.90
5431 24.2951 2791.30 2534.23 54.90
5432 24.2989 2688.40 2496.82 53.40
5433 24.3026 2653.90 2462.50 53.50
5434 24.3064 2622.70 2430.79 52.60
5435 24.3102 2536.20 2401.66 52.10
5436 24.3139 2494.40 2374.70 51.70
5437 24.3177 2432.70 2349.72 50.60
5438 24.3214 2407.90 2326.55 50.30
5439 24.3252 2390.60 2304.99 50.70
5440 24.3290 2469.10 2284.90 51.30
5441 24.3327 2376.00 2266.16 50.50
5442 24.3365 2445.30 2248.63 51.40
5443 24.3403 2386.90 2232.23 50.90
5444 24.3440 2387.20 2216.84 50.90
5445 24.3478 2295.00 2202.40 49.10
5446 24.3515 2367.80 2188.82 50.00
5447 24.3553 2291.90 2176.03 49.80
5448 24.3591 2377.00 2163.97 50.50
5449 24.3628 2312.10 2152.56 49.80
5450 24.3666 2249.50 2141.81 48.80
5451 24.3703 2219.80 2131.64 48.70
5452 24.3741 2326.60 2122.01 49.60
5453 24.3779 2165.20 2112.87 48.20
5454 24.3816 2329.90 2104.20 49.90
5455 24.3854 2107.60 2095.97 47.60
5456 24.3891 2193.00 2088.13 48.20
5457 24.3929 2212.60 2080.68 48.60
5458 24.3967 2212.80 2073.58 48.40
5459 24.4004 2145.70 2066.80 47.90
5460 24.4042 2225.80 2060.34 48.70
5461 24.4079 2089.10 2054.17 47.60
5462 24.4117 2145.90 2048.27 48.00
5463 24.4155 2050.50 2042.63 47.00
5464 24.4192 2082.90 2037.22 46.80
5465 24.4230 2138.20 2032.03 47.90
5466 24.4268 2123.50 2027.07 47.40
5467 24.4305 2037.70 2022.31 46.00
5468 24.4343 2193.90 2017.74 48.30
5469 24.4380 2092.90 2013.35 47.50
5470 24.4418 2080.90 2009.12 47.40
5471 24.4456 2098.70 2005.06 47.20
5472 24.4493 2140.50 2001.16 47.70
5473 24.4531 2097.50 1997.39 47.20
5474 24.4568 2168.60 1993.77 48.10
5475 24.4606 2103.90 1866.17 47.50
5476 24.4643 2119.50 1865.93 47.90
5477 24.4681 2084.20 1865.69 47.10
5478 24.4719 2143.50 1865.44 47.70
5479 24.4756 2008.00 1865.20 46.20
5480 24.4794 2106.00 1864.96 47.20
5481 24.4832 2071.50 1864.72 47.30
5482 24.4869 2052.30 1864.47 46.60
5483 24.4907 2079.10 1864.23 47.40
5484 24.4944 2090.20 1863.99 47.20
5485 24.4982 2017.80 1863.75 45.90
5486 24.5020 2036.60 1863.51 47.30
5487 24.5057 2057.50 1863.27 46.80
5488 24.5095 2099.50 1863.03 47.50
5489 24.5132 2063.90 1862.79 46.90
5490 24.5170 2040.60 1862.55 46.20
5491 24.5208 1993.10 1862.31 46.30
5492 24.5245 1972.60 1862.07 46.20
5493 24.5283 2046.00 1861.84 46.90
5494 24.5320 1989.50 1861.60 46.10
5495 24.5358 1988.70 1861.36 46.20
5496 24.5396 1915.90 1861.12 45.30
5497 24.5433 1989.80 1860.88 46.00
5498 24.5471 2109.40 1860.65 47.40
5499 24.5508 1944.10 1860.41 45.40
5500 24.5546 1991.90 1860.17 46.00
5501 24.5584 1944.70 1859.94 45.20
5502 24.5621 2064.50 1859.70 47.00
5503 24.5659 1958.40 1859.47 45.80
5504 24.5697 2048.20 1859.23 46.60
5505 24.5734 2004.30 1859.00 46.00
5506 24.5772 1992.40 1858.76 46.70
5507 24.5809 1946.70 1858.53 45.20
5508 24.5847 2037.30 1858.29 46.50
5509 24.5885 2013.00 1858.06 46.60
5510 24.5922 1997.80 1857.83 46.80
5511 24.5960 1972.60 1857.59 46.00
5512 24.5997 2123.00 1857.36 47.70
5513 24.6035 1923.30 1857.13 45.50
5514 24.6073 2024.80 1856.89 48.50
5515 24.6110 1968.60 1856.66 46.80
5516 24.6148 2022.10 1856.43 47.30
5517 24.6185 2051.90 1856.20 48.10
5518 24.6223 2042.60 1855.97 47.50
5519 24.6261 2048.40 1855.74 47.20
5520 24.6298 2014.50 1855.50 47.30
5521 24.6336 2019.50 1855.27 47.00
5522 24.6374 2019.30 1855.04 46.60
5523 24.6411 2006.00 1854.81 47.10
5524 24.6449 1983.70 1854.58 46.80
5525 24.6486 1995.10 1854.35 47.00
5526 24.6524 2017.10 1854.13 47.20
5527 24.6562 2079.00 1853.90 48.30
5528 24.6599 1959.80 1853.67 46.30
5529 24.6637 1966.00 1853.44 46.50
5530 24.6674 2009.10 1853.21 47.10
5531 24.6712 1987.80 1852.98 46.60
5532 24.6749 1949.70 1852.76 46.70
5533 24.6787 1917.80 1852.53 46.00
5534 24.6825 2076.30 1852.30 48.60
5535 24.6862 1988.40 1852.07 46.80
5536 24.6900 2009.10 1851.85 47.50
5537 24.6938 1913.90 1851.62 46.10
5538 24.6975 2023.30 1851.40 47.80
5539 24.7013 1923.00 1851.17 46.30
5540 24.7050 2031.50 1850.95 47.40
5541 24.7088 1893.60 1850.72 45.40
5542 24.7126 1955.10 1850.50 46.80
5543 24.7163 2019.00 1850.27 47.20
5544 24.7201 1966.20 1850.05 46.70
5545 24.7238 1905.40 1849.82 46.20
5546 24.7276 2002.80 1849.60 47.40
5547 24.7314 1831.40 1849.38 45.00
5548 24.7351 1973.40 1849.15 46.90
5549 24.7389 2028.30 1848.93 47.50
5550 24.7426 1991.40 1848.71 47.70
5551 24.7464 1978.40 1848.48 47.30
5552 24.7502 2050.70 1848.26 48.20
5553 24.7539 1932.00 1848.04 46.80
5554 24.7577 2006.90 1847.82 47.40
5555 24.7614 1946.50 1847.60 46.10
5556 24.7652 2044.00 1847.38 47.40
5557 24.7690 1930.10 1847.16 46.10
5558 24.7727 1957.60 1846.94 46.50
5559 24.7765 1905.20 1846.72 45.40
5560 24.7803 1971.80 1846.50 46.70
5561 24.7840 1924.70 1846.28 46.40
5562 24.7878 1985.70 1846.06 46.90
5563 24.7915 1939.90 1845.84 46.70
5564 24.7953 1955.40 1845.62 46.90
5565 24.7991 1888.30 1845.40 45.40
5566 24.8028 1979.50 1845.18 46.90
5567 24.8066 2024.90 1844.96 46.90
5568 24.8103 1910.00 1844.75 45.70
5569 24.8141 1967.60 1844.53 46.70
5570 24.8179 1999.80 1844.31 47.40
5571 24.8216 1947.80 1844.09 46.80
5572 24.8254 2059.60 1843.88 47.90
5573 24.8291 1971.50 1843.66 46.50
5574 24.8329 1906.80 1843.44 45.90
5575 24.8367 1920.50 1843.23 46.00
5576 24.8404 1959.10 1843.01 46.90
5577 24.8442 1975.30 1842.80 46.80
5578 24.8479 2022.50 1842.58 47.70
5579 24.8517 1873.60 1842.37 45.60
5580 24.8555 1960.40 1842.15 46.60
5581 24.8592 1925.20 1841.94 46.20
5582 24.8630 1957.30 1841.72 46.10
5583 24.8668 1957.60 1841.51 47.40
5584 24.8705 1970.60 1841.30 46.90
5585 24.8743 2003.00 1841.08 47.10
5586 24.8780 1989.20 1840.87 46.90
5587 24.8818 1940.70 1840.66 47.10
5588 24.8855 2019.80 1840.44 47.00
5589 24.8893 1926.30 1840.23 45.80
5590 24.8931 1943.00 1840.02 46.20
5591 24.8968 1889.10 1839.81 45.90
5592 24.9006 1963.60 1839.60 46.90
5593 24.9044 1893.50 1839.39 45.30
5594 24.9081 1906.00 1839.17 45.80
5595 24.9119 1988.10 1838.96 46.60
5596 24.9156 1942.70 1838.75 46.40
5597 24.9194 1956.70 1838.54 46.40
5598 24.9232 1997.00 1838.33 47.10
5599 24.9269 1930.90 1838.12 46.60
5600 24.9307 2011.30 1837.91 46.50
5601 24.9344 1914.90 1837.71 45.70
5602 24.9382 2005.70 1837.50 47.10
5603 24.9420 1973.90 1837.29 47.00
5604 24.9457 1941.00 1837.08 46.60
5605 24.9495 1944.00 1836.87 46.30
5606 24.9532 1907.10 1836.66 45.90
5607 24.9570 1901.80 1836.46 45.90
5608 24.9608 1926.00 1836.25 46.10
5609 24.9645 1890.00 1836.04 45.40
5610 24.9683 1948.80 1835.83 46.40
5611 24.9720 1941.70 1835.63 46.10
5612 24.9758 1939.70 1835.42 46.40
5613 24.9796 1954.50 1835.22 47.30
5614 24.9833 1978.50 1835.01 46.90
5615 24.9871 2003.50 1834.80 46.90
5616 24.9909 1870.80 1834.60 45.70
5617 24.9946 1986.30 1834.39 46.60
5618 24.9984 1936.40 1834.19 46.50
5619 25.0021 1917.80 1833.98 45.80
5620 25.0059 2002.00 1833.78 47.10
5621 25.0096 1882.40 1833.58 45.20
5622 25.0134 1942.80 1833.37 46.30
5623 25.0172 1932.00 1833.17 45.80
5624 25.0209 1860.40 1832.97 45.10
5625 25.0247 1964.00 1832.76 46.10
5626 25.0285 1992.00 1832.56 46.80
5627 25.0322 1898.90 1832.36 45.70
5628 25.0360 1968.50 1832.16 47.00
5629 25.0397 1882.80 1831.95 45.40
5630 25.0435 1945.10 1831.75 46.10
5631 25.0473 1971.00 1831.55 46.90
5632 25.0510 1913.00 1831.35 45.70
5633 25.0548 1910.30 1831.15 45.80
5634 25.0585 1884.60 1830.95 45.10
5635 25.0623 1859.70 1830.75 45.10
5636 25.0661 1916.70 1830.55 46.10
5637 25.0698 1882.50 1830.35 45.90
5638 25.0736 1876.30 1830.15 45.50
5639 25.0773 1951.60 1829.95 46.20
5640 25.0811 1962.00 1829.75 46.70
5641 25.0849 1803.60 1829.55 44.40
5642 25.0886 1975.70 1829.35 46.90
5643 25.0924 1935.50 1829.15 46.00
5644 25.0961 1995.50 1828.95 46.70
5645 25.0999 1872.90 1828.76 45.20
5646 25.1037 1915.20 1828.56 45.90
5647 25.1074 1936.40 1828.36 45.70
5648 25.1112 1995.80 1828.16 46.30
5649 25.1150 1887.40 1827.97 44.80
5650 25.1187 1984.40 1827.77 46.20
5651 25.1225 1958.50 1827.57 45.10
5652 25.1262 1982.60 1827.38 46.50
5653 25.1300 1899.40 1827.18 45.60
5654 25.1338 1966.20 1826.98 46.40
5655 25.1375 1906.70 1826.79 45.90
5656 25.1413 1988.30 1826.59 46.30
5657 25.1450 1815.10 1826.40 44.60
5658 25.1488 1901.60 1826.20 45.40
5659 25.1525 1914.50 1826.01 46.00
5660 25.1563 2012.60 1825.81 45.70
5661 25.1601 1876.80 1825.62 45.10
5662 25.1638 1962.70 1825.43 46.30
5663 25.1676 1895.30 1825.23 45.70
5664 25.1714 1915.20 1825.04 45.60
5665 25.1751 1966.90 1824.85 46.50
5666 25.1789 1927.60 1824.65 46.20
5667 25.1826 1922.00 1824.46 45.90
5668 25.1864 2008.10 1824.27 47.30
5669 25.1901 1919.70 1824.08 45.80
5670 25.1939 1933.40 1823.89 46.10
5671 25.1977 1881.90 1823.69 45.40
5672 25.2014 1933.40 1823.50 46.00
5673 25.2052 1931.80 1823.31 45.80
5674 25.2090 1902.10 1823.12 45.30
5675 25.2127 1925.30 1822.93 46.10
5676 25.2165 1928.20 1822.74 46.10
5677 25.2202 1920.50 1822.55 45.70
5678 25.2240 1902.80 1822.36 45.60
5679 25.2278 1894.40 1822.17 45.80
5680 25.2315 1975.80 1821.98 46.90
5681 25.2353 1880.60 1821.79 45.20
5682 25.2390 1910.80 1821.60 45.90
5683 25.2428 1880.40 1821.41 45.30
5684 25.2466 1907.90 1821.22 45.30
5685 25.2503 1841.70 1821.04 44.70
5686 25.2541 1918.00 1820.85 45.80
5687 25.2578 1847.80 1820.66 44.50
5688 25.2616 1994.30 1820.47 46.80
5689 25.2654 1929.60 1820.28 45.90
5690 25.2691 1882.10 1820.10 45.30
5691 25.2729 1821.10 1819.91 43.70
5692 25.2766 1953.10 1819.72 46.10
5693 25.2804 1902.10 1819.54 45.90
5694 25.2842 1820.70 1819.35 44.60
5695 25.2879 1942.10 1819.17 45.90
5696 25.2917 1885.40 1818.98 45.10
5697 25.2954 1970.20 1818.79 47.10
5698 25.2992 1927.00 1818.61 45.70
5699 25.3030 1888.20 1818.42 45.30
5700 25.3067 1864.40 1818.24 44.90
5701 25.3105 1933.60 1818.06 45.90
5702 25.3142 1884.20 1817.87 45.10
5703 25.3180 1855.20 1817.69 45.00
5704 25.3218 1885.30 1817.50 45.20
5705 25.3255 1902.00 1817.32 45.50
5706 25.3293 1889.00 1817.14 45.90
5707 25.3330 1944.90 1816.95 46.00
5708 25.3368 1916.70 1816.77 45.80
5709 25.3406 1910.90 1816.59 45.70
5710 25.3443 2039.40 1816.41 47.30
5711 25.3481 1924.30 1816.22 45.70
5712 25.3518 1880.00 1816.04 45.40
5713 25.3556 1893.60 1815.86 45.20
5714 25.3594 1951.30 1815.68 45.90
5715 25.3631 2002.60 1815.50 46.70
5716 25.3669 1909.10 1815.32 45.70
5717 25.3706 1962.50 1815.14 46.00
5718 25.3744 1921.40 1814.95 45.80
5719 25.3782 1887.10 1814.77 45.30
5720 25.3819 1907.80 1814.59 45.40
5721 25.3857 1862.30 1814.41 45.20
5722 25.3894 1876.80 1814.23 45.40
5723 25.3932 1947.10 1814.06 45.80
5724 25.3970 1955.80 1813.88 46.30
5725 25.4007 1873.00 1813.70 45.20
5726 25.4045 1927.30 1813.52 46.00
5727 25.4082 1884.30 1813.34 45.40
5728 25.4120 1981.10 1813.16 47.20
5729 25.4158 1819.80 1812.98 44.40
5730 25.4195 1937.90 1812.81 46.10
5731 25.4233 1902.30 1812.63 45.40
5732 25.4270 1850.00 1812.45 44.60
5733 25.4308 1858.80 1812.27 45.00
5734 25.4346 1988.70 1812.10 46.70
5735 25.4383 1858.80 1811.92 45.40
5736 25.4421 1909.90 1811.74 45.70
5737 25.4458 1872.20 1811.57 45.40
5738 25.4496 1923.10 1811.39 45.50
5739 25.4534 1849.50 1811.22 44.70
5740 25.4571 1964.80 1811.04 46.30
5741 25.4609 1856.10 1810.87 44.50
5742 25.4646 1886.80 1810.69 45.40
5743 25.4684 1999.90 1810.52 46.60
5744 25.4722 1870.00 1810.34 45.20
5745 25.4759 1895.70 1810.17 45.40
5746 25.4797 1916.90 1809.99 45.10
5747 25.4834 1893.10 1809.82 45.40
5748 25.4872 1931.40 1809.64 45.90
5749 25.4910 1843.80 1809.47 44.70
5750 25.4947 1864.70 1809.30 45.20
5751 25.4985 1944.90 1809.12 45.60
5752 25.5022 1942.10 1808.95 46.40
5753 25.5060 1893.00 1808.78 45.10
5754 25.5098 1828.50 1808.61 44.90
5755 25.5135 1800.40 1808.43 44.00
5756 25.5173 1875.70 1808.26 45.20
5757 25.5210 1896.10 1808.09 45.40
5758 25.5248 1915.80 1807.92 45.60
5759 25.5286 1874.70 1807.75 45.10
5760 25.5323 1916.60 1807.58 45.40
5761 25.5361 1842.80 1807.41 44.80
5762 25.5398 1860.60 1807.24 44.80
5763 25.5436 1895.10 1807.06 45.30
5764 25.5474 1855.80 1806.89 44.80
5765 25.5511 1867.40 1806.72 45.10
5766 25.5549 1891.90 1806.56 45.50
5767 25.5586 1773.50 1806.39 43.90
5768 25.5624 1899.90 1806.22 45.70
5769 25.5662 1938.50 1806.05 46.10
5770 25.5699 1883.60 1805.88 46.10
5771 25.5737 1891.10 1805.71 45.90
5772 25.5774 1926.50 1805.54 46.20
5773 25.5812 1853.00 1805.37 45.30
5774 25.5849 1914.40 1805.21 45.80
5775 25.5887 1874.90 1805.04 45.60
5776 25.5925 1857.60 1804.87 45.40
5777 25.5962 1861.00 1804.70 45.70
5778 25.6000 1881.90 1804.54 45.10
5779 25.6038 1855.00 1804.37 45.50
5780 25.6075 1841.60 1804.20 45.40
5781 25.6113 1854.40 1804.04 45.80
5782 25.6150 1949.50 1803.87 46.60
5783 25.6188 1853.80 1803.70 44.40
5784 25.6225 1947.00 1803.54 46.60
5785 25.6263 1829.70 1803.37 45.00
5786 25.6301 1946.80 1803.21 46.70
5787 25.6338 1874.90 1803.04 45.50
5788 25.6376 1831.30 1802.88 45.10
5789 25.6413 1869.00 1802.71 45.70
5790 25.6451 1895.20 1802.55 46.00
5791 25.6489 1888.20 1802.38 45.70
5792 25.6526 1785.90 1802.22 44.10
5793 25.6564 1910.20 1802.05 46.70
5794 25.6601 1928.50 1801.89 45.80
5795 25.6639 1867.10 1801.73 46.00
5796 25.6677 1857.90 1801.56 45.40
5797 25.6714 1987.30 1801.40 47.30
5798 25.6752 1930.20 1801.24 46.80
5799 25.6789 1852.00 1801.07 45.20
5800 25.6827 1814.70 1800.91 45.20
5801 25.6865 1933.90 1800.75 46.10
5802 25.6902 1911.10 1800.59 46.20
5803 25.6940 1829.20 1800.43 45.40
5804 25.6977 1955.30 1800.26 47.00
5805 25.7015 1879.00 1800.10 45.10
5806 25.7053 1882.50 1799.94 46.10
5807 25.7090 1909.50 1799.78 45.80
5808 25.7128 1879.10 1799.62 45.60
5809 25.7165 1922.40 1799.46 46.20
5810 25.7203 1912.70 1799.30 46.90
5811 25.7241 1894.10 1799.14 46.00
5812 25.7278 1911.00 1798.98 46.10
5813 25.7316 1807.10 1798.82 44.80
5814 25.7353 1897.00 1798.66 46.30
5815 25.7391 1847.30 1798.50 45.20
5816 25.7428 1971.30 1798.34 46.90
5817 25.7466 1787.40 1798.18 44.30
5818 25.7504 1976.30 1798.02 47.30
5819 25.7541 1866.20 1797.87 45.80
5820 25.7579 1933.00 1797.71 47.20
5821 25.7617 1875.00 1797.55 45.20
5822 25.7654 1881.90 1797.39 45.70
5823 25.7692 1899.50 1797.23 46.00
5824 25.7729 1965.50 1797.08 46.80
5825 25.7767 1833.30 1796.92 45.30
5826 25.7804 1925.90 1796.76 46.60
5827 25.7842 1880.20 1796.61 45.50
5828 25.7880 1786.60 1796.45 44.20
5829 25.7917 1902.70 1796.29 46.00
5830 25.7955 1818.60 1796.14 44.90
5831 25.7992 1771.20 1795.98 44.50
5832 25.8030 1894.60 1795.82 46.30
5833 25.8067 1833.60 1795.67 45.20
5834 25.8105 1896.40 1795.51 46.40
5835 25.8143 1889.30 1795.36 46.30
5836 25.8180 1891.50 1795.20 46.00
5837 25.8218 1901.90 1795.05 47.10
5838 25.8256 1833.20 1794.89 45.40
5839 25.8293 1889.90 1794.74 46.10
5840 25.8331 1817.80 1794.59 44.70
5841 25.8368 1888.40 1794.43 46.10
5842 25.8406 1878.80 1794.28 45.60
5843 25.8443 1812.80 1794.12 45.00
5844 25.8481 1866.00 1793.97 46.40
5845 25.8519 1807.90 1793.82 45.00
5846 25.8556 1862.00 1793.66 45.40
5847 25.8594 1879.10 1793.51 46.40
5848 25.8631 1860.20 1793.36 45.30
5849 25.8669 1821.50 1793.21 45.00
5850 25.8707 1848.60 1793.05 45.80
5851 25.8744 1946.40 1792.90 46.70
5852 25.8782 1892.70 1792.75 46.30
5853 25.8819 1851.70 1792.60 45.50
5854 25.8857 1867.70 1792.45 45.10
5855 25.8895 1831.20 1792.30 45.00
5856 25.8932 1912.00 1792.15 46.30
5857 25.8970 1925.10 1791.99 46.90
5858 25.9007 1929.60 1791.84 46.80
5859 25.9045 1773.90 1791.69 44.20
5860 25.9082 1948.50 1791.54 47.00
5861 25.9120 1843.00 1791.39 45.30
5862 25.9158 1893.20 1791.24 46.10
5863 25.9195 1809.00 1791.09 45.40
5864 25.9233 1849.90 1790.94 45.50
5865 25.9270 1900.10 1790.80 46.00
5866 25.9308 1890.90 1790.65 46.00
5867 25.9346 1862.80 1790.50 45.90
5868 25.9383 1876.10 1790.35 45.20
5869 25.9421 1862.10 1790.20 45.40
5870 25.9458 1829.50 1790.05 45.20
5871 25.9496 1919.60 1789.90 46.50
5872 25.9534 1921.10 1789.76 46.40
5873 25.9571 1866.40 1789.61 46.00
5874 25.9609 1841.30 1789.46 45.30
5875 25.9646 1829.30 1789.31 45.20
5876 25.9684 1991.50 1789.17 47.30
5877 25.9721 1859.40 1789.02 46.60
5878 25.9759 1912.80 1788.87 46.50
5879 25.9797 1883.80 1788.73 46.20
5880 25.9834 1996.60 1788.58 48.20
5881 25.9872 1855.10 1788.43 45.40
5882 25.9909 1893.40 1788.29 46.30
5883 25.9947 1876.20 1788.14 45.80
5884 25.9984 1931.90 1788.00 47.50
5885 26.0022 1862.70 1787.85 46.00
5886 26.0060 1942.70 1787.71 47.10
5887 26.0097 1863.80 1787.56 46.10
5888 26.0135 1890.60 1787.42 46.40
5889 26.0173 1942.60 1787.27 47.30
5890 26.0210 1907.90 1787.13 47.40
5891 26.0248 1928.50 1786.98 46.80
5892 26.0285 1923.00 1786.84 46.60
5893 26.0323 1867.70 1786.70 46.10
5894 26.0360 1884.30 1786.55 46.80
5895 26.0398 1917.30 1786.41 46.70
5896 26.0436 1955.60 1786.27 47.30
5897 26.0473 1821.40 1786.12 45.60
5898 26.0511 1953.20 1785.98 46.50
5899 26.0548 1892.30 1785.84 46.00
5900 26.0586 1849.00 1785.69 44.30
5901 26.0623 1839.40 1785.55 44.50
5902 26.0661 1905.70 1785.41 46.20
5903 26.0699 1902.90 1785.27 46.10
5904 26.0736 1931.80 1785.13 46.10
5905 26.0774 1773.50 1784.98 44.70
5906 26.0811 1929.10 1784.84 46.60
5907 26.0849 1834.90 1784.70 45.20
5908 26.0886 1864.00 1784.56 45.30
5909 26.0924 1928.80 1784.42 46.20
5910 26.0962 1885.70 1784.28 45.40
5911 26.0999 1954.00 1784.14 46.40
5912 26.1037 1859.70 1784.00 45.80
5913 26.1074 1828.70 1783.86 45.00
5914 26.1112 1905.00 1783.72 46.60
5915 26.1150 1868.70 1783.58 45.10
5916 26.1187 1926.50 1783.44 46.10
5917 26.1225 1897.60 1783.30 46.00
5918 26.1262 1876.10 1783.16 45.80
5919 26.1300 1918.20 1783.02 46.70
5920 26.1338 1935.00 1782.88 46.50
5921 26.1375 1901.40 1782.74 46.20
5922 26.1413 1881.90 1782.61 45.90
5923 26.1450 1785.70 1782.47 44.30
5924 26.1488 1867.40 1782.33 45.30
5925 26.1525 1930.30 1782.19 46.40
5926 26.1563 1861.40 1782.05 44.80
5927 26.1601 1822.20 1781.92 45.10
5928 26.1638 1729.50 1781.78 43.70
5929 26.1676 1809.80 1781.64 45.00
5930 26.1713 1915.30 1781.50 46.90
5931 26.1751 1829.30 1781.37 45.20
5932 26.1789 1840.30 1781.23 45.10
5933 26.1826 1809.60 1781.10 45.20
5934 26.1864 1857.10 1780.96 45.30
5935 26.1901 1857.00 1780.82 45.40
5936 26.1939 1830.70 1780.69 44.90
5937 26.1976 1858.80 1780.55 45.90
5938 26.2014 1872.90 1780.42 45.70
5939 26.2052 1832.10 1780.28 45.20
5940 26.2089 1907.10 1780.14 46.10
5941 26.2127 1840.30 1780.01 45.90
5942 26.2164 1925.60 1779.88 46.70
5943 26.2202 1905.70 1779.74 46.90
5944 26.2239 1909.90 1779.61 46.10
5945 26.2277 1886.20 1779.47 46.30
5946 26.2314 1865.40 1779.34 45.90
5947 26.2352 1813.50 1779.20 45.40
5948 26.2390 1875.60 1779.07 46.20
5949 26.2427 1883.50 1778.94 46.00
5950 26.2465 1876.40 1778.80 45.80
5951 26.2502 1772.90 1778.67 44.60
5952 26.2540 1915.70 1778.54 46.10
5953 26.2578 1797.10 1778.40 44.60
5954 26.2615 1889.90 1778.27 45.90
5955 26.2653 1859.50 1778.14 45.50
5956 26.2690 1836.40 1778.01 45.40
5957 26.2728 1843.10 1777.87 45.50
5958 26.2766 1866.20 1777.74 44.90
5959 26.2803 1825.20 1777.61 45.40
5960 26.2841 1881.80 1777.48 46.20
5961 26.2878 1846.20 1777.35 45.00
5962 26.2916 1871.40 1777.21 45.20
5963 26.2953 1779.10 1777.08 44.90
5964 26.2991 1943.20 1776.95 47.10
5965 26.3029 1868.00 1776.82 45.50
5966 26.3066 1934.50 1776.69 46.50
5967 26.3104 1855.40 1776.56 45.60
5968 26.3141 1902.20 1776.43 46.50
5969 26.3179 1845.90 1776.30 45.50
5970 26.3216 1956.80 1776.17 46.70
5971 26.3254 1862.10 1776.04 45.20
5972 26.3291 1802.90 1775.91 45.00
5973 26.3329 1893.20 1775.78 46.20
5974 26.3367 1852.10 1775.65 45.90
5975 26.3404 1841.80 1775.52 46.00
5976 26.3442 1879.90 1775.39 46.10
5977 26.3479 1844.20 1775.27 45.30
5978 26.3517 1895.30 1775.14 46.00
5979 26.3554 1769.30 1775.01 44.90
5980 26.3592 1821.20 1774.88 45.40
5981 26.3630 1824.20 1774.75 45.20
5982 26.3667 1881.10 1774.62 46.30
5983 26.3705 1836.40 1774.50 45.70
5984 26.3742 1851.80 1774.37 45.30
5985 26.3780 1881.50 1774.24 46.30
5986 26.3818 1899.60 1774.11 46.00
5987 26.3855 1810.60 1773.99 45.10
5988 26.3893 1867.10 1773.86 46.10
5989 26.3930 1753.40 1773.73 43.90
5990 26.3968 1822.90 1773.61 45.00
5991 26.4005 1796.10 1773.48 44.60
5992 26.4043 1884.70 1773.35 45.80
5993 26.4081 1841.30 1773.23 45.60
5994 26.4118 1907.90 1773.10 46.70
5995 26.4156 1843.10 1772.98 45.30
5996 26.4193 1830.70 1772.85 45.20
5997 26.4231 1804.60 1772.73 44.40
5998 26.4268 1870.80 1772.60 46.10
5999 26.4306 1935.40 1772.48 46.90
6000 26.4343 1958.30 1772.35 47.10
6001 26.4381 1888.10 1772.23 46.40
6002 26.4419 1868.40 1772.10 46.10
6003 26.4456 1797.90 1771.98 45.10
6004 26.4494 1827.40 1771.85 45.80
6005 26.4531 1885.20 1771.73 46.90
6006 26.4569 1915.20 1771.60 46.70
6007 26.4606 1847.80 1771.48 45.30
6008 26.4644 1799.90 1771.36 45.10
6009 26.4682 1837.30 1771.23 45.60
6010 26.4719 1871.50 1771.11 45.80
6011 26.4757 1868.80 1770.99 46.00
6012 26.4794 1865.10 1770.86 45.80
6013 26.4832 1820.60 1770.74 45.30
6014 26.4869 1877.00 1770.62 46.10
6015 26.4907 1809.10 1770.50 45.10
6016 26.4945 1890.40 1770.37 46.70
6017 26.4982 1728.30 1770.25 44.40
6018 26.5020 1890.60 1770.13 46.80
6019 26.5057 1770.70 1770.01 44.70
6020 26.5095 1900.10 1769.89 46.40
6021 26.5132 1865.30 1769.76 45.20
6022 26.5170 1821.90 1769.64 45.50
6023 26.5208 1810.10 1769.52 45.30
6024 26.5245 1804.10 1769.40 45.40
6025 26.5283 1742.20 1769.28 44.90
6026 26.5320 1850.60 1769.16 46.10
6027 26.5358 1745.30 1769.04 44.20
6028 26.5395 1911.30 1768.92 46.40
6029 26.5433 1830.60 1768.80 45.00
6030 26.5471 1810.00 1768.68 44.70
6031 26.5508 1783.20 1768.56 44.50
6032 26.5546 1872.60 1768.44 45.30
6033 26.5583 1837.30 1768.32 45.40
6034 26.5621 1857.80 1768.20 45.90
6035 26.5658 1841.50 1768.08 44.80
6036 26.5696 1856.60 1767.96 45.50
6037 26.5733 1845.40 1767.84 45.20
6038 26.5771 1824.90 1767.72 45.00
6039 26.5809 1855.20 1767.60 45.50
6040 26.5846 1813.10 1767.49 45.00
6041 26.5884 1742.00 1767.37 43.80
6042 26.5921 1894.40 1767.25 45.80
6043 26.5959 1789.60 1767.13 44.60
6044 26.5996 1845.30 1767.01 45.40
6045 26.6034 1840.10 1766.90 45.60
6046 26.6071 1903.20 1766.78 45.70
6047 26.6109 1753.10 1766.66 44.60
6048 26.6147 1899.80 1766.54 45.90
6049 26.6184 1819.20 1766.43 45.40
6050 26.6222 1814.20 1766.31 45.10
6051 26.6259 1788.50 1766.19 44.50
6052 26.6297 1844.30 1766.08 45.10
6053 26.6334 1808.70 1765.96 45.30
6054 26.6372 1840.60 1765.84 45.50
6055 26.6409 1806.20 1765.73 44.80
6056 26.6447 1886.10 1765.61 46.10
6057 26.6485 1841.60 1765.49 45.40
6058 26.6522 1922.80 1765.38 46.20
6059 26.6560 1798.70 1765.26 44.60
6060 26.6597 1812.30 1765.15 45.00
6061 26.6635 1748.70 1765.03 44.20
6062 26.6672 1883.40 1764.92 45.20
6063 26.6710 1837.50 1764.80 45.30
6064 26.6748 1883.00 1764.69 45.80
6065 26.6785 1810.80 1764.57 44.90
6066 26.6823 1835.60 1764.46 45.20
6067 26.6860 1813.70 1764.34 45.30
6068 26.6898 1878.60 1764.23 46.20
6069 26.6935 1907.10 1764.12 46.20
6070 26.6973 1837.20 1764.00 45.30
6071 26.7010 1826.70 1763.89 45.00
6072 26.7048 1866.60 1763.77 45.80
6073 26.7086 1773.00 1763.66 44.70
6074 26.7123 1850.50 1763.55 45.60
6075 26.7161 1819.80 1763.43 45.40
6076 26.7198 1802.80 1763.32 44.90
6077 26.7236 1823.90 1763.21 45.20
6078 26.7273 1844.60 1763.09 45.60
6079 26.7311 1840.10 1762.98 44.80
6080 26.7348 1849.50 1762.87 45.00
6081 26.7386 1806.10 1762.76 44.80
6082 26.7424 1912.10 1762.64 46.60
6083 26.7461 1802.30 1762.53 45.00
6084 26.7499 1850.70 1762.42 45.20
6085 26.7536 1818.70 1762.31 45.00
6086 26.7574 1887.30 1762.20 46.00
6087 26.7611 1902.10 1762.09 45.80
6088 26.7649 1810.10 1761.97 45.20
6089 26.7687 1791.50 1761.86 44.90
6090 26.7724 1842.40 1764.80 45.90
6091 26.7762 1841.60 1764.76 45.00
6092 26.7799 1878.50 1764.73 45.50
6093 26.7837 1887.60 1764.71 45.90
6094 26.7874 1795.20 1764.68 44.70
6095 26.7912 1837.20 1764.66 45.30
6096 26.7949 1861.30 1764.65 45.80
6097 26.7987 1829.80 1764.64 45.80
6098 26.8024 1837.70 1764.63 45.60
6099 26.8062 1789.60 1764.62 45.30
6100 26.8099 1803.90 1764.63 45.10
6101 26.8137 1778.20 1764.63 44.60
6102 26.8175 1850.80 1764.64 45.60
6103 26.8212 1859.50 1764.66 45.50
6104 26.8250 1825.20 1764.69 45.70
6105 26.8287 1769.00 1764.72 44.30
6106 26.8325 1870.30 1764.75 45.80
6107 26.8362 1775.30 1764.80 44.50
6108 26.8400 1831.20 1764.85 45.20
6109 26.8438 1917.40 1764.91 46.50
6110 26.8475 1881.10 1764.97 45.90
6111 26.8513 1890.50 1765.05 46.10
6112 26.8550 1853.80 1765.14 45.70
6113 26.8588 1705.30 1765.23 43.80
6114 26.8625 1813.40 1765.34 44.90
6115 26.8663 1782.50 1765.46 44.30
6116 26.8700 1926.90 1765.60 46.70
6117 26.8738 1757.90 1765.74 44.30
6118 26.8775 1912.40 1765.90 46.20
6119 26.8813 1797.00 1766.08 44.70
6120 26.8850 1779.30 1766.28 44.30
6121 26.8888 1839.70 1766.49 44.60
6122 26.8926 1914.30 1766.73 45.70
6123 26.8963 1839.20 1766.98 45.20
6124 26.9001 1850.90 1767.26 45.50
6125 26.9038 1846.30 1767.57 45.30
6126 26.9076 1842.30 1767.91 45.60
6127 26.9113 1799.90 1768.27 44.80
6128 26.9151 1851.60 1768.67 45.30
6129 26.9188 1808.80 1769.11 45.10
6130 26.9226 1774.70 1769.59 44.50
6131 26.9263 1762.20 1770.12 44.20
6132 26.9301 1711.00 1770.69 43.30
6133 26.9339 1892.60 1771.32 45.00
6134 26.9376 1809.50 1772.02 44.70
6135 26.9414 1809.70 1772.78 44.90
6136 26.9451 1810.10 1773.62 45.00
6137 26.9489 1809.80 1774.55 45.20
6138 26.9526 1804.20 1775.57 44.70
6139 26.9564 1846.30 1776.71 45.60
6140 26.9601 1903.20 1777.96 45.80
6141 26.9639 1854.10 1779.37 45.50
6142 26.9676 1763.80 1780.93 44.40
6143 26.9714 1762.70 1782.69 44.50
6144 26.9752 1808.00 1784.65 45.00
6145 26.9789 1855.40 1786.88 46.00
6146 26.9827 1900.60 1789.39 45.50
6147 26.9864 1858.70 1792.24 45.50
6148 26.9902 1883.10 1795.51 45.90
6149 26.9932 1898.10 1798.50 46.60
6150 26.9970 1959.10 1802.71 47.70
6151 27.0007 1849.90 1807.60 45.70
6152 27.0045 1880.50 1813.32 46.10
6153 27.0082 1916.20 1820.05 45.90
6154 27.0120 1893.20 1828.06 46.40
6155 27.0158 1947.40 1837.68 47.00
6156 27.0195 1935.40 1849.31 47.10
6157 27.0233 2029.40 1863.63 48.60
6158 27.0270 1958.30 1881.40 47.50
6159 27.0308 1994.80 1903.95 47.40
6160 27.0345 2060.90 1933.06 48.30
6161 27.0383 1980.10 1971.87 46.90
6162 27.0420 2217.30 2027.33 49.70
6163 27.0458 2216.90 2115.72 49.90
6164 27.0496 2336.60 2275.55 50.90
6165 27.0533 2630.90 2585.95 54.80
6166 27.0571 3271.10 3165.75 61.80
6167 27.0608 4260.80 4119.40 69.80
6168 27.0646 6145.90 5435.36 85.90
6169 27.0683 7369.50 6807.89 94.40
6170 27.0721 7968.70 7524.39 98.60
6171 27.0759 7331.40 7006.85 94.60
6172 27.0796 6289.00 5691.80 87.00
6173 27.0834 4615.30 4331.95 73.30
6174 27.0871 3499.00 3303.99 63.20
6175 27.0909 2686.50 2665.21 55.20
6176 27.0946 2423.00 2315.93 52.40
6177 27.0984 2276.20 2135.76 51.00
6178 27.1021 2117.50 2038.43 48.30
6179 27.1059 2079.90 1978.50 48.70
6180 27.1097 1978.60 1937.20 46.90
6181 27.1134 1956.30 1906.43 47.10
6182 27.1172 1925.80 1882.66 46.60
6183 27.1209 1891.50 1863.95 45.80
6184 27.1247 1951.90 1848.87 46.50
6185 27.1284 1849.00 1836.62 45.80
6186 27.1322 1896.00 1826.48 46.20
6187 27.1360 1876.20 1818.02 45.70
6188 27.1397 1854.40 1810.86 45.70
6189 27.1435 1843.70 1804.77 45.40
6190 27.1472 1910.70 1799.55 46.10
6191 27.1510 1906.70 1795.03 46.00
6192 27.1547 1860.30 1791.08 45.70
6193 27.1585 1838.50 1787.62 45.40
6194 27.1623 1824.20 1784.56 44.40
6195 27.1660 1824.30 1781.86 45.10
6196 27.1698 1848.40 1779.44 45.40
6197 27.1735 1771.30 1777.27 44.30
6198 27.1773 1832.60 1775.32 45.20
6199 27.1810 1832.20 1773.55 45.50
6200 27.1848 1858.00 1771.95 45.90
6201 27.1885 1850.10 1770.49 45.50
6202 27.1923 1815.80 1769.16 45.00
6203 27.1961 1740.90 1767.94 43.90
6204 27.1998 1804.30 1766.81 45.00
6205 27.2036 1834.60 1765.77 45.50
6206 27.2073 1880.20 1764.81 46.00
6207 27.2111 1761.10 1763.92 44.60
6208 27.2148 1768.10 1763.08 44.40
6209 27.2186 1785.10 1762.31 44.70
6210 27.2217 1874.60 1761.71 45.30
6211 27.2254 1793.40 1761.02 44.30
6212 27.2292 1828.60 1760.38 44.60
6213 27.2329 1889.30 1759.77 45.60
6214 27.2367 1767.60 1759.20 44.30
6215 27.2404 1748.80 1758.66 43.70
6216 27.2442 1910.50 1758.14 46.20
6217 27.2479 1802.00 1757.66 44.10
6218 27.2517 1852.50 1757.20 45.60
6219 27.2555 1751.10 1756.76 44.00
6220 27.2592 1750.10 1756.34 44.10
6221 27.2630 1771.10 1755.94 44.20
6222 27.2667 1786.20 1755.56 44.80
6223 27.2705 1834.50 1755.19 44.90
6224 27.2742 1854.20 1754.84 45.30
6225 27.2780 1929.20 1754.51 46.10
6226 27.2817 1775.60 1754.18 44.50
6227 27.2855 1780.90 1753.87 44.40
6228 27.2892 1836.90 1753.57 44.70
6229 27.2930 1787.20 1753.28 44.70
6230 27.2967 1765.80 1753.00 44.30
6231 27.3005 1798.80 1752.73 44.50
6232 27.3043 1806.00 1752.47 44.60
6233 27.3080 1909.10 1752.22 46.10
6234 27.3118 1787.60 1751.97 44.80
6235 27.3155 1799.50 1751.73 44.80
6236 27.3193 1714.40 1751.50 44.00
6237 27.3230 1782.50 1751.27 44.70
6238 27.3268 1810.40 1751.06 44.30
6239 27.3305 1826.40 1750.84 44.70
6240 27.3343 1810.60 1750.63 44.50
6241 27.3380 1802.10 1750.43 45.00
6242 27.3418 1823.00 1750.23 44.30
6243 27.3456 1777.90 1750.03 44.50
6244 27.3493 1825.60 1749.84 45.60
6245 27.3531 1840.60 1749.66 45.30
6246 27.3568 1763.00 1749.48 44.50
6247 27.3606 1756.70 1749.30 44.10
6248 27.3643 1680.70 1749.12 42.60
6249 27.3681 1772.50 1748.95 44.20
6250 27.3718 1768.50 1748.78 44.20
6251 27.3756 1792.20 1745.63 44.40
6252 27.3793 1815.00 1745.54 45.00
6253 27.3831 1842.90 1745.45 45.40
6254 27.3869 1821.30 1745.36 44.90
6255 27.3906 1829.40 1745.27 45.70
6256 27.3944 1840.20 1745.18 45.30
6257 27.3981 1782.10 1745.09 45.10
6258 27.4019 1721.30 1745.00 44.20
6259 27.4056 1766.60 1744.91 44.50
6260 27.4094 1791.10 1744.82 44.20
6261 27.4131 1752.20 1744.73 43.90
6262 27.4169 1861.70 1744.64 46.00
6263 27.4206 1807.90 1744.55 45.20
6264 27.4244 1781.10 1744.46 45.00
6265 27.4281 1842.90 1744.37 45.80
6266 27.4319 1814.10 1744.28 45.10
6267 27.4356 1723.10 1744.20 43.90
6268 27.4394 1769.50 1744.11 44.90
6269 27.4432 1774.60 1744.02 44.10
6270 27.4469 1794.60 1743.93 44.80
6271 27.4507 1844.40 1743.84 45.40
6272 27.4544 1744.50 1743.75 44.40
6273 27.4582 1853.30 1743.66 45.80
6274 27.4619 1774.70 1743.58 44.70
6275 27.4657 1798.10 1743.49 44.70
6276 27.4694 1754.50 1743.40 43.90
6277 27.4732 1785.00 1743.31 44.70
6278 27.4769 1749.90 1743.22 44.20
6279 27.4807 1764.70 1743.14 44.10
6280 27.4845 1788.10 1743.05 44.80
6281 27.4882 1859.60 1742.96 46.10
6282 27.4920 1762.30 1742.87 44.70
6283 27.4957 1819.50 1742.79 44.90
6284 27.4995 1750.40 1742.70 44.40
6285 27.5032 1801.60 1742.61 44.90
6286 27.5070 1811.60 1742.52 45.30
6287 27.5107 1810.50 1742.44 44.50
6288 27.5145 1791.80 1742.35 44.90
6289 27.5183 1803.40 1742.26 45.30
6290 27.5220 1795.50 1742.18 44.90
6291 27.5258 1815.20 1742.09 45.00
6292 27.5295 1720.80 1742.00 44.20
6293 27.5333 1750.20 1741.92 44.20
6294 27.5370 1806.40 1741.83 44.80
6295 27.5408 1810.40 1741.75 44.60
6296 27.5445 1707.20 1741.66 43.60
6297 27.5483 1748.30 1741.57 44.50
6298 27.5520 1771.70 1741.49 44.40
6299 27.5558 1769.10 1741.40 44.70
6300 27.5596 1742.00 1741.32 44.30
6301 27.5633 1812.10 1741.23 45.30
6302 27.5671 1758.80 1741.15 44.80
6303 27.5708 1841.50 1741.06 45.20
6304 27.5746 1727.30 1740.98 43.80
6305 27.5783 1790.50 1740.89 44.50
6306 27.5821 1777.70 1740.81 44.90
6307 27.5858 1757.90 1740.72 44.40
6308 27.5896 1814.70 1740.64 45.20
6309 27.5934 1813.90 1740.55 45.20
6310 27.5971 1804.10 1740.47 45.20
6311 27.6009 1755.60 1740.38 44.70
6312 27.6046 1737.60 1740.30 44.50
6313 27.6084 1794.00 1740.21 44.80
6314 27.6121 1684.80 1740.13 43.40
6315 27.6159 1822.30 1740.04 45.50
6316 27.6196 1776.00 1739.96 44.10
6317 27.6234 1820.10 1739.88 45.40
6318 27.6272 1815.20 1739.79 45.50
6319 27.6309 1833.60 1739.71 44.80
6320 27.6347 1863.70 1739.63 45.80
6321 27.6384 1858.60 1739.54 45.70
6322 27.6422 1788.80 1739.46 45.20
6323 27.6459 1784.40 1739.38 45.20
6324 27.6497 1774.20 1739.29 43.80
6325 27.6535 1760.70 1739.21 44.30
6326 27.6572 1778.30 1739.13 45.20
6327 27.6610 1845.40 1739.04 45.70
6328 27.6647 1789.10 1738.96 44.90
6329 27.6685 1811.10 1738.88 45.00
6330 27.6722 1752.30 1738.79 44.40
6331 27.6760 1795.30 1738.71 45.30
6332 27.6797 1791.10 1738.63 45.20
6333 27.6835 1856.30 1738.55 44.90
6334 27.6873 1782.20 1738.46 44.30
6335 27.6910 1817.20 1738.38 44.10
6336 27.6948 1774.40 1738.30 44.10
6337 27.6985 1749.80 1738.22 43.60
6338 27.7023 1753.70 1738.14 43.70
6339 27.7060 1782.00 1738.05 43.90
6340 27.7098 1882.50 1737.97 45.40
6341 27.7135 1829.30 1737.89 44.80
6342 27.7173 1690.70 1737.81 42.80
6343 27.7211 1746.60 1737.73 43.60
6344 27.7248 1783.20 1737.65 43.90
6345 27.7286 1813.20 1737.56 44.80
6346 27.7323 1741.70 1737.48 43.60
6347 27.7361 1878.40 1737.40 44.80
6348 27.7398 1702.80 1737.32 43.20
6349 27.7436 1848.90 1737.24 45.00
6350 27.7473 1787.00 1737.16 44.20
6351 27.7511 1811.70 1737.08 44.90
6352 27.7549 1734.70 1737.00 44.20
6353 27.7586 1856.40 1736.92 44.80
6354 27.7624 1746.50 1736.84 43.20
6355 27.7661 1738.00 1736.76 43.70
6356 27.7699 1795.90 1736.68 44.60
6357 27.7736 1766.60 1736.60 44.00
6358 27.7774 1793.00 1736.52 44.20
6359 27.7811 1801.50 1736.44 44.80
6360 27.7849 1808.10 1736.36 44.20
6361 27.7887 1826.30 1736.28 44.80
6362 27.7924 1789.50 1736.20 44.80
6363 27.7962 1792.90 1736.12 44.60
6364 27.7999 1765.90 1736.04 44.30
6365 27.8037 1774.80 1735.96 44.30
6366 27.8074 1805.80 1735.88 44.80
6367 27.8112 1795.80 1735.80 44.20
6368 27.8150 1713.70 1735.72 43.10
6369 27.8187 1824.20 1735.64 44.60
6370 27.8225 1754.80 1735.56 43.50
6371 27.8262 1782.90 1735.48 44.10
6372 27.8300 1782.80 1735.40 44.30
6373 27.8337 1806.00 1735.32 44.50
6374 27.8375 1798.20 1735.24 44.80
6375 27.8412 1763.20 1735.17 44.30
6376 27.8450 1824.60 1735.09 44.90
6377 27.8488 1779.90 1735.01 44.30
6378 27.8525 1769.80 1734.93 44.40
6379 27.8563 1771.80 1734.85 44.70
6380 27.8600 1841.10 1734.77 44.60
6381 27.8638 1799.70 1734.70 44.20
6382 27.8675 1768.80 1734.62 44.30
6383 27.8713 1804.70 1734.54 44.50
6384 27.8750 1645.20 1734.46 42.30
6385 27.8788 1802.90 1734.38 44.50
6386 27.8826 1769.50 1734.31 44.00
6387 27.8863 1768.40 1734.23 43.90
6388 27.8901 1757.50 1734.15 44.10
6389 27.8938 1782.00 1734.07 44.50
6390 27.8976 1727.50 1733.99 43.50
6391 27.9014 1670.20 1733.92 42.80
6392 27.9051 1806.60 1733.84 45.00
6393 27.9089 1837.50 1733.76 44.90
6394 27.9126 1798.70 1733.69 44.60
6395 27.9164 1878.50 1733.61 45.80
6396 27.9201 1745.90 1733.53 44.00
6397 27.9239 1799.50 1733.45 44.50
6398 27.9277 1739.10 1733.38 43.30
6399 27.9314 1784.40 1733.30 44.60
6400 27.9352 1764.10 1733.22 44.00
6401 27.9389 1834.20 1733.15 44.80
6402 27.9427 1747.00 1733.07 44.00
6403 27.9464 1796.70 1733.00 44.70
6404 27.9502 1725.30 1732.92 43.50
6405 27.9539 1767.60 1732.84 44.00
6406 27.9577 1718.20 1732.77 43.20
6407 27.9615 1744.60 1732.69 43.60
6408 27.9652 1747.80 1732.61 43.30
6409 27.9690 1867.50 1732.54 45.40
6410 27.9727 1747.20 1732.46 43.80
6411 27.9765 1821.30 1732.39 44.80
6412 27.9802 1687.20 1732.31 43.00
6413 27.9840 1828.00 1732.24 44.80
6414 27.9877 1674.30 1732.16 42.60
6415 27.9915 1772.30 1732.08 44.20
6416 27.9953 1802.30 1732.01 44.40
6417 27.9990 1739.60 1731.93 43.50
6418 28.0028 1775.90 1731.86 44.20
6419 28.0065 1739.70 1731.78 43.70
6420 28.0103 1773.50 1731.71 44.00
6421 28.0140 1788.80 1731.63 45.00
6422 28.0178 1670.50 1731.56 42.70
6423 28.0216 1825.80 1731.48 45.10
6424 28.0253 1768.10 1731.41 43.70
6425 28.0291 1789.80 1731.33 44.40
6426 28.0328 1779.30 1731.26 44.10
6427 28.0366 1778.20 1731.18 43.60
6428 28.0403 1725.90 1731.11 43.60
6429 28.0441 1808.30 1731.04 44.70
6430 28.0479 1750.10 1730.96 43.70
6431 28.0516 1778.40 1730.89 43.90
6432 28.0554 1754.40 1730.81 43.80
6433 28.0591 1758.60 1730.74 43.90
6434 28.0629 1757.30 1730.66 44.00
6435 28.0667 1838.10 1730.59 44.60
6436 28.0704 1762.10 1730.52 44.40
6437 28.0742 1668.90 1730.44 42.50
6438 28.0779 1805.90 1730.37 44.80
6439 28.0817 1820.00 1730.30 44.70
6440 28.0854 1796.00 1730.22 44.60
6441 28.0892 1810.30 1730.15 45.20
6442 28.0930 1724.50 1730.08 43.90
6443 28.0967 1805.30 1730.00 44.40
6444 28.1005 1781.30 1729.93 44.40
6445 28.1042 1778.30 1729.86 44.80
6446 28.1080 1747.00 1729.78 44.10
6447 28.1117 1744.10 1729.71 43.60
6448 28.1155 1735.70 1729.64 43.80
6449 28.1192 1826.70 1729.56 44.90
6450 28.1230 1750.00 1729.49 43.60
6451 28.1268 1823.40 1729.42 44.80
6452 28.1305 1655.40 1729.34 42.50
6453 28.1343 1773.50 1729.27 43.80
6454 28.1380 1818.60 1729.20 44.80
6455 28.1418 1775.50 1729.13 44.30
6456 28.1456 1786.50 1729.05 44.40
6457 28.1493 1690.60 1728.98 43.10
6458 28.1531 1801.90 1728.91 44.10
6459 28.1568 1817.40 1728.84 44.80
6460 28.1606 1733.30 1728.77 44.30
6461 28.1643 1870.90 1728.69 44.90
6462 28.1681 1722.20 1728.62 43.20
6463 28.1719 1806.80 1728.55 44.10
6464 28.1756 1723.10 1728.48 43.20
6465 28.1794 1662.30 1728.41 42.80
6466 28.1831 1722.50 1728.33 43.90
6467 28.1869 1694.80 1728.26 43.30
6468 28.1907 1751.70 1728.19 43.70
6469 28.1944 1797.30 1728.12 44.20
6470 28.1982 1776.50 1728.05 44.10
6471 28.2019 1781.10 1727.98 43.50
6472 28.2057 1782.70 1727.90 44.10
6473 28.2094 1852.60 1727.83 45.20
6474 28.2132 1785.90 1727.76 43.80
6475 28.2169 1772.30 1727.69 43.80
6476 28.2207 1725.70 1727.62 43.10
6477 28.2245 1812.00 1727.55 44.40
6478 28.2282 1691.80 1727.48 42.90
6479 28.2320 1751.30 1727.41 43.80
6480 28.2357 1791.50 1727.34 43.80
6481 28.2395 1800.60 1727.27 44.40
6482 28.2432 1766.10 1727.19 44.10
6483 28.2470 1806.00 1727.12 44.20
6484 28.2508 1852.00 1727.05 44.80
6485 28.2545 1795.50 1726.98 44.80
6486 28.2583 1792.10 1726.91 44.20
6487 28.2620 1737.20 1726.84 43.60
6488 28.2658 1794.30 1726.77 44.60
6489 28.2696 1722.40 1726.70 43.50
6490 28.2733 1876.60 1726.63 45.80
6491 28.2771 1779.20 1726.56 44.10
6492 28.2808 1762.80 1726.49 44.40
6493 28.2846 1766.70 1726.42 44.20
6494 28.2883 1703.80 1726.35 43.60
6495 28.2921 1809.20 1726.28 44.60
6496 28.2959 1787.90 1726.21 44.00
6497 28.2996 1789.90 1726.14 44.10
6498 28.3034 1744.50 1726.07 43.50
6499 28.3071 1819.80 1726.00 44.70
6500 28.3109 1735.80 1725.93 43.50
6501 28.3147 1748.20 1725.86 43.60
6502 28.3184 1762.10 1725.79 43.70
6503 28.3222 1778.70 1725.72 44.30
6504 28.3259 1798.90 1725.65 44.50
6505 28.3297 1798.30 1725.59 44.30
6506 28.3335 1710.40 1725.52 43.20
6507 28.3372 1693.20 1725.45 43.00
6508 28.3410 1735.00 1725.38 43.70
6509 28.3447 1781.40 1725.31 43.90
6510 28.3485 1795.10 1725.24 44.30
6511 28.3522 1751.00 1725.17 44.00
6512 28.3560 1756.50 1725.10 43.40
6513 28.3598 1743.80 1725.03 43.70
6514 28.3635 1665.70 1724.96 42.40
6515 28.3673 1729.20 1724.90 43.20
6516 28.3710 1702.30 1724.83 42.70
6517 28.3748 1771.40 1724.76 43.80
6518 28.3785 1822.70 1724.69 44.70
6519 28.3823 1786.20 1724.62 44.10
6520 28.3861 1766.70 1724.55 44.60
6521 28.3898 1740.40 1724.49 43.50
6522 28.3936 1717.90 1724.42 43.40
6523 28.3973 1803.40 1724.35 44.00
6524 28.4011 1711.70 1724.28 43.10
6525 28.4049 1738.60 1724.21 43.70
6526 28.4086 1742.40 1724.14 43.80
6527 28.4124 1751.50 1724.08 44.10
6528 28.4161 1741.10 1724.01 43.60
6529 28.4199 1721.40 1723.94 43.80
6530 28.4236 1723.80 1723.87 43.60
6531 28.4274 1808.50 1723.81 44.20
6532 28.4312 1697.60 1723.74 43.10
6533 28.4349 1749.80 1723.67 44.10
6534 28.4387 1745.00 1723.60 43.50
6535 28.4424 1830.30 1723.54 44.40
6536 28.4462 1738.90 1723.47 43.40
6537 28.4499 1737.50 1723.40 44.00
6538 28.4537 1799.00 1723.33 44.20
6539 28.4575 1773.60 1723.27 44.40
6540 28.4612 1765.50 1723.20 44.50
6541 28.4650 1820.60 1723.13 45.00
6542 28.4687 1798.90 1723.06 44.20
6543 28.4725 1713.00 1723.00 43.60
6544 28.4763 1744.10 1722.93 43.70
6545 28.4800 1835.00 1722.86 44.80
6546 28.4838 1714.60 1722.80 43.50
6547 28.4875 1784.00 1722.73 44.40
6548 28.4913 1678.30 1722.66 43.00
6549 28.4951 1801.40 1722.60 44.70
6550 28.4988 1762.50 1722.53 43.90
6551 28.5026 1681.60 1722.46 43.30
6552 28.5063 1712.50 1722.40 43.30
6553 28.5101 1796.90 1722.33 44.20
6554 28.5138 1750.20 1722.26 43.50
6555 28.5176 1793.20 1722.20 44.70
6556 28.5214 1735.00 1722.13 43.60
6557 28.5251 1737.20 1722.06 43.40
6558 28.5289 1733.90 1722.00 43.40
6559 28.5326 1779.80 1721.93 43.80
6560 28.5364 1758.70 1721.87 44.20
6561 28.5402 1788.20 1721.80 44.60
6562 28.5439 1761.40 1721.73 44.50
6563 28.5477 1829.80 1721.67 45.20
6564 28.5514 1749.80 1721.60 43.80
6565 28.5552 1748.50 1721.54 43.70
6566 28.5590 1748.70 1721.47 43.90
6567 28.5627 1703.20 1721.40 43.00
6568 28.5665 1731.20 1721.34 43.90
6569 28.5702 1742.50 1721.27 43.80
6570 28.5740 1708.00 1721.21 43.10
6571 28.5777 1805.40 1721.14 45.00
6572 28.5815 1783.10 1721.08 44.40
6573 28.5853 1736.40 1721.01 43.60
6574 28.5890 1765.00 1720.94 43.50
6575 28.5928 1739.10 1720.88 43.20
6576 28.5965 1697.20 1720.81 42.90
6577 28.6003 1787.70 1720.75 44.20
6578 28.6040 1777.20 1720.68 44.10
6579 28.6078 1770.30 1720.62 43.90
6580 28.6116 1788.90 1720.55 44.10
6581 28.6153 1714.70 1720.49 43.60
6582 28.6191 1759.20 1720.42 44.10
6583 28.6229 1792.70 1720.36 44.50
6584 28.6266 1767.70 1720.29 43.80
6585 28.6304 1795.70 1720.23 44.60
6586 28.6341 1709.30 1720.16 43.20
6587 28.6379 1766.50 1720.10 44.20
6588 28.6416 1695.70 1720.03 43.60
6589 28.6454 1742.60 1719.97 43.50
6590 28.6492 1811.70 1719.90 43.60
6591 28.6529 1790.50 1719.84 44.00
6592 28.6567 1765.80 1719.77 43.90
6593 28.6604 1753.30 1719.71 43.40
6594 28.6642 1770.80 1719.65 43.90
6595 28.6679 1798.30 1719.58 43.80
6596 28.6717 1792.50 1719.52 43.90
6597 28.6755 1683.00 1719.45 42.80
6598 28.6792 1699.40 1719.39 43.20
6599 28.6830 1713.50 1719.32 42.60
6600 28.6868 1781.50 1719.26 43.50
6601 28.6905 1787.90 1719.19 43.90
6602 28.6943 1812.10 1719.13 44.40
6603 28.6980 1763.90 1719.07 43.30
6604 28.7018 1752.30 1719.00 43.30
6605 28.7055 1767.20 1718.94 43.50
6606 28.7093 1695.40 1718.87 42.70
6607 28.7131 1734.00 1718.81 43.40
6608 28.7168 1790.00 1718.75 44.00
6609 28.7206 1667.10 1718.68 42.60
6610 28.7243 1794.20 1718.62 44.10
6611 28.7281 1725.10 1718.56 43.10
6612 28.7319 1750.00 1718.49 43.30
6613 28.7356 1769.10 1718.43 43.90
6614 28.7394 1739.20 1718.36 43.40
6615 28.7431 1728.50 1718.30 43.30
6616 28.7469 1809.30 1718.24 44.60
6617 28.7507 1841.40 1718.17 45.00
6618 28.7544 1748.30 1718.11 43.40
6619 28.7582 1744.70 1718.05 43.30
6620 28.7619 1756.40 1717.98 43.70
6621 28.7657 1806.90 1717.92 44.10
6622 28.7694 1716.80 1717.86 42.90
6623 28.7732 1736.20 1717.79 43.40
6624 28.7770 1707.60 1717.73 43.00
6625 28.7807 1758.60 1717.67 43.90
6626 28.7845 1761.80 1717.60 44.00
6627 28.7882 1763.00 1717.54 43.80
6628 28.7920 1750.80 1717.48 43.40
6629 28.7958 1789.60 1717.42 43.70
6630 28.7995 1822.60 1717.35 44.50
6631 28.8033 1782.80 1717.29 43.90
6632 28.8070 1696.60 1717.23 43.00
6633 28.8108 1782.10 1717.16 43.90
6634 28.8146 1752.50 1717.10 43.30
6635 28.8183 1815.60 1717.04 44.40
6636 28.8221 1738.50 1716.97 43.70
6637 28.8258 1763.60 1716.91 44.10
6638 28.8296 1716.70 1716.85 43.10
6639 28.8333 1770.80 1716.79 43.60
6640 28.8371 1804.10 1716.72 44.60
6641 28.8409 1725.30 1716.66 43.30
6642 28.8446 1733.60 1716.60 43.60
6643 28.8484 1787.00 1716.54 44.30
6644 28.8521 1738.70 1716.47 43.50
6645 28.8559 1679.50 1716.41 42.60
6646 28.8597 1730.90 1716.35 43.20
6647 28.8634 1722.50 1716.29 42.50
6648 28.8672 1710.60 1716.23 42.90
6649 28.8710 1891.00 1716.16 45.80
6650 28.8747 1677.60 1716.10 42.80
6651 28.8785 1785.80 1716.04 43.60
6652 28.8822 1782.40 1715.98 44.10
6653 28.8860 1828.90 1715.91 44.90
6654 28.8897 1738.20 1715.85 43.20
6655 28.8935 1781.70 1715.79 44.00
6656 28.8973 1711.30 1715.73 43.10
6657 28.9010 1819.80 1715.67 44.70
6658 28.9048 1793.20 1715.60 43.90
6659 28.9085 1801.20 1715.54 44.50
6660 28.9123 1741.00 1715.48 43.80
6661 28.9161 1787.70 1715.42 44.30
6662 28.9198 1789.90 1715.36 44.10
6663 28.9236 1707.80 1715.30 43.00
6664 28.9273 1814.20 1715.23 44.10
6665 28.9311 1734.80 1715.17 43.90
6666 28.9349 1766.80 1715.11 44.30
6667 28.9386 1706.20 1715.05 43.30
6668 28.9424 1706.90 1714.99 43.40
6669 28.9461 1671.20 1714.93 42.50
6670 28.9499 1789.10 1714.86 44.40
6671 28.9536 1740.30 1714.80 43.40
6672 28.9574 1769.80 1714.74 44.10
6673 28.9612 1799.60 1714.68 44.50
6674 28.9649 1700.10 1714.62 42.80
6675 28.9687 1847.20 1714.56 44.80
6676 28.9725 1811.50 1714.50 44.70
6677 28.9762 1788.20 1714.44 43.80
6678 28.9800 1825.30 1714.37 45.00
6679 28.9837 1714.20 1714.31 43.10
6680 28.9875 1715.90 1714.25 43.30
6681 28.9912 1766.70 1714.19 44.30
6682 28.9950 1761.50 1714.13 44.00
6683 28.9988 1770.20 1714.07 44.70
6684 29.0025 1748.00 1714.01 43.50
6685 29.0063 1788.70 1713.95 44.40
6686 29.0100 1738.20 1713.89 43.30
6687 29.0138 1738.50 1713.82 43.50
6688 29.0176 1738.60 1713.76 43.80
6689 29.0213 1774.20 1713.70 43.80
6690 29.0251 1805.50 1713.64 45.00
6691 29.0288 1711.60 1713.58 43.10
6692 29.0326 1691.70 1713.52 43.30
6693 29.0364 1720.10 1713.46 43.30
6694 29.0401 1743.20 1713.40 43.70
6695 29.0439 1806.40 1713.34 44.70
6696 29.0476 1733.70 1713.28 43.60
6697 29.0514 1791.30 1713.22 44.60
6698 29.0552 1795.20 1713.16 44.90
6699 29.0589 1771.90 1713.10 44.10
6700 29.0627 1759.40 1713.04 44.00
6701 29.0664 1762.70 1712.97 44.30
6702 29.0702 1788.70 1712.91 44.70
6703 29.0740 1827.10 1712.85 44.60
6704 29.0777 1759.60 1712.79 44.30
6705 29.0815 1790.00 1712.73 44.10
6706 29.0852 1756.80 1712.67 43.90
6707 29.0890 1664.20 1712.61 42.90
6708 29.0928 1747.20 1712.55 43.60
6709 29.0965 1828.00 1712.49 45.10
6710 29.1003 1782.00 1712.43 44.60
6711 29.1040 1842.30 1712.37 45.00
6712 29.1078 1783.00 1712.31 44.50
6713 29.1115 1825.40 1712.25 44.80
6714 29.1153 1771.20 1712.19 44.50
6715 29.1191 1755.20 1712.13 43.60
6716 29.1228 1789.50 1712.07 44.80
6717 29.1266 1857.60 1712.01 46.00
6718 29.1304 1792.60 1711.95 44.70
6719 29.1341 1795.20 1711.89 44.90
6720 29.1379 1732.70 1711.83 43.70
6721 29.1416 1818.40 1711.77 45.10
6722 29.1454 1795.60 1711.71 45.00
6723 29.1492 1845.40 1711.65 44.70
6724 29.1529 1762.40 1711.59 44.00
6725 29.1567 1809.10 1711.53 45.00
6726 29.1604 1764.80 1711.47 44.70
6727 29.1642 1801.50 1711.41 44.20
6728 29.1679 1772.60 1711.35 44.50
6729 29.1717 1800.50 1711.29 44.20
6730 29.1755 1758.00 1711.23 44.00
6731 29.1792 1745.00 1711.17 43.20
6732 29.1830 1848.20 1711.11 45.70
6733 29.1868 1699.60 1711.05 43.10
6734 29.1905 1789.70 1710.99 44.30
6735 29.1943 1840.30 1710.93 45.10
6736 29.1980 1754.30 1710.87 44.00
6737 29.2018 1840.50 1710.81 44.10
6738 29.2055 1742.60 1710.76 43.40
6739 29.2093 1832.90 1710.70 45.40
6740 29.2131 1768.80 1710.64 44.70
6741 29.2168 1785.70 1710.58 44.70
6742 29.2206 1738.20 1710.52 44.00
6743 29.2243 1788.30 1710.46 44.70
6744 29.2281 1762.80 1710.40 44.60
6745 29.2319 1815.90 1710.34 45.30
6746 29.2356 1786.10 1710.28 44.70
6747 29.2394 1776.30 1710.22 44.70
6748 29.2431 1769.80 1710.16 44.80
6749 29.2469 1714.60 1710.10 43.70
6750 29.2507 1818.40 1710.04 44.70
6751 29.2544 1803.90 1709.98 43.90
6752 29.2582 1722.50 1709.92 44.40
6753 29.2619 1753.40 1709.87 43.80
6754 29.2657 1708.20 1709.81 43.70
6755 29.2695 1796.30 1709.75 45.10
6756 29.2732 1791.80 1709.69 44.40
6757 29.2770 1831.20 1709.63 45.80
6758 29.2807 1845.40 1709.57 45.50
6759 29.2845 1785.20 1709.51 43.80
6760 29.2883 1870.40 1709.45 46.10
6761 29.2920 1860.30 1709.39 46.00
6762 29.2958 1772.20 1709.33 44.70
6763 29.2995 1854.60 1709.27 45.40
6764 29.3033 1894.50 1709.22 46.00
6765 29.3071 1742.80 1709.16 43.70
6766 29.3108 1752.90 1709.10 44.00
6767 29.3146 1861.50 1709.04 46.20
6768 29.3183 1847.20 1708.98 45.10
6769 29.3221 1821.60 1708.92 44.90
6770 29.3259 1796.60 1708.86 44.40
6771 29.3296 1830.00 1708.80 45.30
6772 29.3334 1857.70 1708.74 46.00
6773 29.3371 1831.20 1708.69 45.20
6774 29.3409 1841.00 1708.63 44.60
6775 29.3447 1787.90 1708.57 45.00
6776 29.3484 1792.90 1708.51 43.60
6777 29.3522 1817.90 1708.45 44.10
6778 29.3559 1786.60 1708.39 44.10
6779 29.3597 1904.80 1708.33 46.90
6780 29.3635 1827.60 1708.27 44.80
6781 29.3672 1830.90 1708.22 46.00
6782 29.3710 1883.90 1708.16 45.50
6783 29.3747 1791.80 1708.10 43.90
6784 29.3785 1920.60 1708.04 45.70
6785 29.3823 1965.30 1707.98 47.20
6786 29.3860 1783.10 1707.92 45.10
6787 29.3898 1845.90 1707.86 44.60
6788 29.3935 1838.70 1707.81 45.10
6789 29.3973 1866.00 1707.75 46.10
6790 29.4011 1939.30 1707.69 47.10
6791 29.4048 1854.20 1707.63 45.60
6792 29.4086 1886.20 1840.24 45.10
6793 29.4123 1899.70 1843.52 47.10
6794 29.4161 1932.80 1846.91 47.50
6795 29.4199 1896.10 1850.46 46.50
6796 29.4236 1848.50 1854.14 45.50
6797 29.4274 1965.40 1857.95 47.40
6798 29.4311 1897.80 1861.94 45.90
6799 29.4349 1897.30 1866.09 45.40
6800 29.4387 2024.20 1870.41 48.00
6801 29.4424 1937.60 1874.91 46.40
6802 29.4462 1941.80 1879.62 45.80
6803 29.4499 1911.90 1884.52 45.90
6804 29.4537 1929.20 1889.62 46.30
6805 29.4575 1940.60 1894.97 47.70
6806 29.4612 1989.40 1900.58 47.50
6807 29.4650 2035.70 1906.42 48.80
6808 29.4687 2008.40 1912.54 47.80
6809 29.4725 1960.70 1918.96 47.30
6810 29.4762 2012.30 1925.68 47.30
6811 29.4800 2012.30 1932.74 48.40
6812 29.4838 1970.10 1940.15 47.00
6813 29.4875 2039.20 1947.93 48.00
6814 29.4913 1971.10 1956.11 46.50
6815 29.4951 2050.60 1964.73 48.70
6816 29.4988 2075.90 1973.80 48.80
6817 29.5026 2044.70 1983.36 48.10
6818 29.5063 1973.20 1993.46 47.30
6819 29.5101 2106.80 2004.12 49.00
6820 29.5138 2118.90 2015.39 49.60
6821 29.5176 2134.50 2027.31 49.50
6822 29.5214 2091.70 2039.95 49.00
6823 29.5251 2025.80 2053.35 47.50
6824 29.5289 2178.00 2067.59 50.40
6825 29.5326 2181.50 2082.72 49.50
6826 29.5364 2173.00 2098.83 49.30
6827 29.5402 2276.80 2115.99 49.70
6828 29.5439 2177.40 2134.32 49.70
6829 29.5477 2288.50 2153.90 50.70
6830 29.5515 2214.20 2174.87 50.30
6831 29.5552 2374.00 2197.34 52.90
6832 29.5590 2357.60 2221.48 51.10
6833 29.5627 2385.40 2247.44 53.20
6834 29.5665 2385.30 2275.42 52.70
6835 29.5702 2460.50 2305.62 53.60
6836 29.5740 2336.20 2338.30 50.30
6837 29.5778 2589.40 2373.72 54.80
6838 29.5815 2504.80 2412.19 53.90
6839 29.5853 2599.20 2454.10 54.90
6840 29.5891 2646.60 2499.84 56.10
6841 29.5928 2796.20 2549.90 56.40
6842 29.5966 2813.20 2604.83 57.90
6843 29.6003 2864.70 2665.31 57.40
6844 29.6041 2946.60 2732.08 59.20
6845 29.6078 3061.20 2806.04 60.00
6846 29.6116 3117.60 2888.28 60.10
6847 29.6154 3140.90 2980.06 60.20
6848 29.6191 3305.30 3082.91 61.90
6849 29.6229 3303.30 3198.67 61.70
6850 29.6266 3452.00 3329.59 63.50
6851 29.6304 3654.10 3478.43 65.20
6852 29.6342 3891.90 3648.57 66.70
6853 29.6379 4121.10 3844.26 68.50
6854 29.6417 4302.90 4070.84 70.50
6855 29.6455 4654.20 4335.12 72.60
6856 29.6492 4858.30 4645.87 75.10
6857 29.6530 5276.10 5014.52 79.60
6858 29.6567 5769.10 5456.22 83.60
6859 29.6605 6334.90 5991.34 87.70
6860 29.6642 6745.70 6647.78 90.60
6861 29.6680 7457.60 7464.52 95.60
6862 29.6718 8354.10 8497.98 102.20
6863 29.6755 9815.50 9835.53 111.80
6864 29.6793 11276.50 11632.40 118.80
6865 29.6831 14058.80 14218.50 134.30
6866 29.6868 17874.80 18367.90 154.80
6867 29.6906 24567.20 25802.10 187.50
6868 29.6943 35160.00 39713.50 229.80
6869 29.6981 56155.00 64502.30 303.90
6870 29.7019 91401.70 103661.00 413.90
6871 29.7056 148641.00 155549.00 556.60
6872 29.7094 202365.00 207224.00 678.70
6873 29.7131 230496.00 230567.00 745.40
6874 29.7169 217731.00 206443.00 711.20
6875 29.7206 179222.00 154554.00 620.20
6876 29.7244 120703.00 102826.00 488.90
6877 29.7282 71360.40 63934.40 351.50
6878 29.7319 41901.10 39380.30 252.50
6879 29.7357 28155.40 25622.50 202.10
6880 29.7395 19949.20 18270.70 166.70
6881 29.7432 15334.40 14160.80 141.30
6882 29.7470 12292.40 11593.70 127.20
6883 29.7507 10221.10 9807.11 114.30
6884 29.7545 8588.10 8477.04 104.60
6885 29.7582 7570.20 7446.94 97.40
6886 29.7620 6724.90 6633.39 91.40
6887 29.7658 6147.30 5979.85 87.00
6888 29.7695 5570.80 5445.97 82.00
6889 29.7733 5372.80 5005.62 80.20
6890 29.7771 4780.80 4638.31 75.60
6891 29.7808 4644.10 4328.07 74.10
6892 29.7846 4326.30 4064.42 71.70
6893 29.7883 4156.60 3838.51 70.70
6894 29.7921 3991.60 3643.01 69.30
6895 29.7959 3904.30 3473.17 68.20
6896 29.7996 3661.10 3324.69 65.60
6897 29.8034 3578.20 3193.82 64.50
6898 29.8071 3409.30 3078.19 62.20
6899 29.8109 3321.60 2975.52 62.10
6900 29.8146 2906.60 2884.04 57.70
6901 29.8184 2955.10 2801.52 58.40
6902 29.8222 2895.90 2727.64 57.70
6903 29.8259 2893.40 2661.04 58.40
6904 29.8297 2754.80 2600.48 55.10
6905 29.8335 2681.70 2545.41 55.80
6906 29.8372 2528.80 2495.27 52.70
6907 29.8410 2462.80 2449.60 53.40
6908 29.8447 2447.20 2407.64 52.30
6909 29.8485 2507.00 2368.99 53.90
6910 29.8522 2421.10 2333.60 51.80
6911 29.8560 2460.30 2300.84 53.90
6912 29.8598 2307.30 2270.59 51.20
6913 29.8635 2313.80 2242.50 51.50
6914 29.8673 2386.10 2216.45 51.70
6915 29.8710 2243.10 2192.24 50.60
6916 29.8748 2239.60 2169.65 50.70
6917 29.8786 2207.40 2148.59 49.50
6918 29.8823 2230.90 2128.93 51.60
6919 29.8861 2170.70 2110.49 50.10
6920 29.8898 2144.40 2093.22 48.90
6921 29.8936 2080.90 2077.03 48.30
6922 29.8974 2049.00 2061.78 49.20
6923 29.9011 2135.70 2047.44 48.40
6924 29.9049 2052.20 2033.94 47.80
6925 29.9086 2020.30 2021.20 48.30
6926 29.9124 1994.80 2009.16 48.20
6927 29.9162 2105.60 1997.79 49.40
6928 29.9199 2013.90 1987.02 48.30
6929 29.9237 2002.70 1976.81 48.00
6930 29.9274 1973.40 1967.15 47.80
6931 29.9312 1914.80 1957.96 46.20
6932 29.9350 1951.30 1949.23 47.20
6933 29.9387 1982.60 1940.95 47.40
6934 29.9425 2011.00 1933.05 47.40
6935 29.9462 1883.80 1925.53 46.10
6936 29.9500 1878.00 1918.36 45.80
6937 29.9538 1914.20 1911.53 46.10
6938 29.9575 2013.30 1904.99 47.50
6939 29.9613 1974.90 1898.76 47.10
6940 29.9650 1935.60 1892.80 46.20
6941 29.9688 2000.00 1887.09 47.00
6942 29.9726 1876.00 1881.63 46.50
6943 29.9763 1896.50 1876.40 46.40
6944 29.9801 1976.40 1871.38 47.50
6945 29.9838 1845.20 1866.57 46.20
6946 29.9876 1923.90 1861.96 46.80
6947 29.9914 1853.00 1857.52 45.80
6948 29.9951 1769.80 1853.26 43.70
6949 29.9989 1871.80 1849.17 46.00
6950 30.0026 1828.20 1845.22 45.90
6951 30.0064 1876.00 1841.44 46.30
6952 30.0102 1880.90 1837.78 45.80
6953 30.0139 1807.00 1834.26 44.40
6954 30.0177 1828.80 1830.88 45.40
6955 30.0214 1802.10 1698.16 45.50
6956 30.0252 1832.10 1698.11 45.40
6957 30.0289 1845.50 1698.05 46.00
6958 30.0327 1739.70 1697.99 44.60
6959 30.0365 1824.60 1697.93 45.70
6960 30.0402 1836.70 1697.88 45.60
6961 30.0440 1853.20 1697.82 46.10
6962 30.0478 1760.60 1697.76 44.60
6963 30.0515 1868.70 1697.70 46.40
6964 30.0553 1757.20 1697.65 45.60
6965 30.0590 1783.70 1697.59 44.60
6966 30.0628 1808.00 1697.53 45.10
6967 30.0665 1808.90 1697.47 45.70
6968 30.0703 1796.40 1697.42 45.60
6969 30.0741 1701.00 1697.36 43.10
6970 30.0778 1807.60 1697.30 45.70
6971 30.0816 1845.20 1697.24 44.90
6972 30.0854 1777.80 1697.19 45.80
6973 30.0891 1726.80 1697.13 43.60
6974 30.0929 1752.30 1697.07 43.40
6975 30.0966 1729.40 1697.01 43.30
6976 30.1004 1712.70 1696.95 43.60
6977 30.1042 1734.10 1696.90 43.50
6978 30.1079 1807.20 1696.84 44.40
6979 30.1117 1774.80 1696.78 44.10
6980 30.1154 1779.70 1696.72 44.60
6981 30.1192 1786.90 1696.67 43.80
6982 30.1229 1770.50 1696.61 43.90
6983 30.1267 1745.40 1696.55 43.50
6984 30.1305 1749.50 1696.49 43.60
6985 30.1342 1782.00 1696.44 43.90
6986 30.1380 1751.00 1696.38 43.40
6987 30.1417 1799.40 1696.32 44.50
6988 30.1455 1697.30 1696.26 43.20
6989 30.1493 1769.10 1696.20 43.40
6990 30.1530 1720.30 1696.15 43.20
6991 30.1568 1822.00 1696.09 44.20
6992 30.1605 1757.20 1696.03 44.10
6993 30.1643 1725.20 1695.97 43.00
6994 30.1681 1794.30 1695.92 43.90
6995 30.1718 1740.30 1695.86 42.60
6996 30.1756 1772.90 1695.80 44.50
6997 30.1793 1759.70 1695.74 43.80
6998 30.1831 1791.70 1695.68 43.50
6999 30.1869 1697.50 1695.63 42.50
7000 30.1906 1781.50 1695.57 43.50
7001 30.1944 1742.10 1695.51 43.20
7002 30.1981 1645.50 1695.45 41.60
7003 30.2019 1720.40 1695.40 42.90
7004 30.2057 1772.40 1695.34 44.00
7005 30.2094 1733.20 1695.28 43.30
7006 30.2132 1797.40 1695.22 44.40
7007 30.2169 1839.80 1695.16 44.90
7008 30.2207 1756.20 1695.11 43.50
7009 30.2244 1813.10 1695.05 44.60
7010 30.2282 1674.10 1694.99 43.20
7011 30.2320 1739.60 1694.93 44.00
7012 30.2357 1642.20 1694.87 42.40
7013 30.2395 1641.20 1694.82 42.40
7014 30.2432 1730.80 1694.76 43.90
7015 30.2470 1793.70 1694.70 44.60
7016 30.2508 1698.00 1694.64 42.30
7017 30.2545 1759.50 1694.58 43.90
7018 30.2583 1687.10 1694.53 42.10
7019 30.2621 1714.40 1694.47 43.10
7020 30.2658 1750.30 1694.41 44.20
7021 30.2696 1657.40 1694.35 41.60
7022 30.2733 1754.50 1694.29 44.20
7023 30.2771 1689.70 1694.24 43.20
7024 30.2808 1676.80 1694.18 42.60
7025 30.2846 1698.30 1694.12 42.80
7026 30.2884 1701.90 1694.06 42.90
7027 30.2921 1687.60 1694.00 42.80
7028 30.2959 1737.40 1693.94 43.60
7029 30.2996 1746.20 1693.89 43.50
7030 30.3034 1681.10 1693.83 42.70
7031 30.3072 1775.70 1693.77 44.00
7032 30.3109 1681.50 1693.71 42.50
7033 30.3147 1757.30 1693.65 43.40
7034 30.3184 1710.80 1693.60 43.50
7035 30.3222 1732.10 1693.54 43.30
7036 30.3260 1647.30 1693.48 42.60
7037 30.3297 1621.40 1693.42 42.20
7038 30.3335 1645.20 1693.36 42.20
7039 30.3372 1718.00 1693.30 43.20
7040 30.3410 1644.30 1693.25 42.20
7041 30.3447 1678.60 1693.19 41.60
7042 30.3485 1696.20 1693.13 42.50
7043 30.3523 1715.00 1693.07 42.80
7044 30.3560 1674.10 1693.01 42.80
7045 30.3598 1741.40 1692.95 43.90
7046 30.3636 1687.50 1692.90 42.60
7047 30.3673 1713.50 1692.84 43.10
7048 30.3711 1727.40 1692.78 43.30
7049 30.3748 1776.50 1692.72 43.50
7050 30.3786 1705.10 1692.66 43.30
7051 30.3824 1721.60 1692.60 42.80
7052 30.3861 1665.20 1692.55 41.70
7053 30.3899 1733.40 1692.49 43.10
7054 30.3936 1692.90 1692.43 42.60
7055 30.3974 1727.90 1692.37 43.00
7056 30.4011 1628.10 1692.31 42.00
7057 30.4049 1743.90 1692.25 43.30
7058 30.4087 1679.40 1692.19 42.70
7059 30.4124 1715.50 1692.14 43.30
7060 30.4162 1591.10 1692.08 41.10
7061 30.4199 1722.90 1692.02 43.60
7062 30.4237 1703.70 1691.96 42.70
7063 30.4275 1718.00 1691.90 42.80
7064 30.4312 1704.00 1691.84 43.30
7065 30.4350 1688.00 1691.78 42.30
7066 30.4387 1695.10 1691.72 42.50
7067 30.4425 1664.30 1691.67 42.60
7068 30.4463 1707.10 1691.61 42.40
7069 30.4500 1673.20 1691.55 43.60
7070 30.4538 1627.40 1691.49 41.70
7071 30.4575 1681.50 1691.43 41.50
7072 30.4613 1701.70 1691.37 43.00
7073 30.4650 1710.70 1691.31 43.10
7074 30.4688 1683.30 1691.25 43.20
7075 30.4726 1731.80 1691.20 43.30
7076 30.4763 1662.90 1691.14 42.30
7077 30.4801 1673.90 1691.08 42.10
7078 30.4838 1677.10 1691.02 42.10
7079 30.4876 1727.20 1690.96 43.60
7080 30.4914 1665.60 1690.90 42.70
7081 30.4951 1711.30 1690.84 43.20
7082 30.4989 1667.50 1690.78 42.60
7083 30.5026 1717.60 1690.72 43.10
7084 30.5064 1707.80 1690.67 42.60
7085 30.5102 1661.70 1690.61 42.60
7086 30.5139 1648.20 1690.55 42.20
7087 30.5177 1704.00 1690.49 42.50
7088 30.5214 1690.00 1690.43 42.90
7089 30.5252 1701.10 1690.37 42.60
7090 30.5289 1652.40 1690.31 42.00
7091 30.5327 1600.80 1690.25 41.70
7092 30.5365 1656.40 1690.19 42.30
7093 30.5402 1628.60 1690.13 41.90
7094 30.5440 1621.70 1690.07 42.10
7095 30.5478 1673.50 1690.02 42.80
7096 30.5515 1703.40 1689.96 43.10
7097 30.5553 1687.20 1689.90 42.10
7098 30.5590 1628.20 1689.84 42.20
7099 30.5628 1650.50 1689.78 42.70
7100 30.5665 1610.30 1689.72 42.40
7101 30.5703 1689.30 1689.66 42.80
7102 30.5741 1650.00 1689.60 41.70
7103 30.5778 1603.20 1689.54 41.20
7104 30.5816 1739.70 1689.48 43.40
7105 30.5853 1657.70 1689.42 42.00
7106 30.5891 1600.80 1689.36 41.50
7107 30.5928 1699.70 1689.30 42.30
7108 30.5966 1673.20 1689.24 42.50
7109 30.6004 1648.70 1689.18 42.50
7110 30.6041 1596.90 1689.12 41.50
7111 30.6079 1707.80 1689.07 42.90
7112 30.6117 1625.50 1689.01 41.20
7113 30.6154 1674.00 1688.95 42.20
7114 30.6192 1675.10 1688.89 42.50
7115 30.6229 1665.10 1688.83 41.40
7116 30.6267 1633.30 1688.77 41.90
7117 30.6304 1691.90 1688.71 42.80
7118 30.6342 1703.60 1688.65 42.90
7119 30.6380 1692.50 1688.59 41.80
7120 30.6417 1684.60 1688.53 43.00
7121 30.6455 1633.50 1688.47 42.00
7122 30.6492 1652.20 1688.41 42.20
7123 30.6530 1608.50 1688.35 41.00
7124 30.6567 1604.10 1688.29 41.90
7125 30.6605 1608.80 1688.23 41.70
7126 30.6643 1658.50 1688.17 42.10
7127 30.6680 1682.60 1688.11 41.90
7128 30.6718 1687.70 1688.05 42.80
7129 30.6755 1647.00 1687.99 42.10
7130 30.6793 1655.80 1687.93 42.40
7131 30.6831 1744.30 1687.87 43.70
7132 30.6868 1706.70 1687.81 43.30
7133 30.6906 1665.20 1687.75 41.90
7134 30.6943 1653.00 1687.69 42.40
7135 30.6981 1717.30 1687.63 43.50
7136 30.7019 1648.00 1687.57 42.20
7137 30.7056 1708.50 1687.51 43.20
7138 30.7094 1669.00 1687.45 43.00
7139 30.7131 1661.50 1687.39 42.20
7140 30.7169 1702.30 1687.33 43.30
7141 30.7206 1664.10 1687.27 42.40
7142 30.7244 1652.00 1687.21 42.40
7143 30.7282 1702.50 1687.15 42.80
7144 30.7319 1644.50 1687.09 42.10
7145 30.7357 1708.20 1687.03 42.80
7146 30.7394 1676.00 1686.97 42.20
7147 30.7432 1732.40 1686.91 43.00
7148 30.7470 1693.70 1686.85 42.90
7149 30.7507 1673.50 1686.79 42.90
7150 30.7545 1691.50 1686.73 41.60
7151 30.7582 1651.70 1686.67 42.40
7152 30.7620 1628.90 1686.61 42.10
7153 30.7658 1657.00 1686.55 42.40
7154 30.7695 1662.90 1686.49 42.40
7155 30.7733 1705.90 1686.43 42.40
7156 30.7770 1666.30 1686.36 41.60
7157 30.7808 1735.50 1686.30 43.00
7158 30.7845 1690.10 1686.24 42.60
7159 30.7883 1709.90 1686.18 42.70
7160 30.7921 1616.90 1686.12 41.80
7161 30.7958 1715.10 1686.06 43.10
7162 30.7996 1619.00 1686.00 41.70
7163 30.8033 1633.30 1685.94 41.20
7164 30.8071 1572.90 1685.88 40.90
7165 30.8109 1715.70 1685.82 43.10
7166 30.8146 1737.80 1685.76 43.10
7167 30.8184 1709.30 1685.70 43.50
7168 30.8221 1530.40 1685.64 40.10
7169 30.8259 1673.00 1685.58 42.50
7170 30.8296 1643.70 1685.51 42.80
7171 30.8334 1643.40 1685.45 42.30
7172 30.8372 1626.00 1685.39 41.90
7173 30.8409 1669.20 1685.33 42.40
7174 30.8447 1659.30 1685.27 42.40
7175 30.8484 1595.90 1685.21 41.60
7176 30.8522 1632.80 1685.15 42.50
7177 30.8559 1597.80 1685.09 41.30
7178 30.8597 1589.40 1685.03 41.90
7179 30.8635 1627.80 1684.97 42.10
7180 30.8672 1656.60 1684.90 42.20
7181 30.8710 1686.90 1684.84 43.10
7182 30.8747 1654.40 1684.78 42.60
7183 30.8785 1635.00 1684.72 42.60
7184 30.8822 1679.60 1684.66 42.90
7185 30.8860 1605.70 1684.60 42.00
7186 30.8898 1658.10 1684.54 41.90
7187 30.8935 1608.20 1684.48 42.00
7188 30.8973 1604.30 1684.41 42.00
7189 30.9010 1658.90 1684.35 42.00
7190 30.9048 1604.30 1684.29 41.60
7191 30.9086 1646.10 1684.23 42.10
7192 30.9123 1718.30 1684.17 43.70
7193 30.9161 1633.40 1684.11 41.90
7194 30.9198 1659.70 1684.05 42.70
7195 30.9236 1665.30 1683.98 42.10
7196 30.9273 1486.60 1683.92 39.80
7197 30.9311 1738.50 1683.86 43.80
7198 30.9349 1686.40 1683.80 42.90
7199 30.9386 1666.20 1683.74 42.50
7200 30.9424 1652.60 1683.68 42.20
7201 30.9461 1701.50 1683.61 43.00
7202 30.9499 1618.90 1683.55 42.00
7203 30.9536 1684.60 1683.49 43.10
7204 30.9574 1598.30 1683.43 41.60
7205 30.9612 1658.60 1683.37 42.60
7206 30.9649 1644.30 1683.31 42.40
7207 30.9687 1679.20 1683.24 42.30
7208 30.9724 1618.40 1683.18 41.90
7209 30.9762 1722.60 1683.12 43.30
7210 30.9800 1688.80 1683.06 42.60
7211 30.9837 1674.90 1683.00 42.50
7212 30.9875 1657.80 1682.93 42.40
7213 30.9912 1603.00 1682.87 41.80
7214 30.9950 1621.60 1682.81 42.10
7215 30.9988 1670.40 1682.75 42.90
7216 31.0025 1693.60 1682.69 43.10
7217 31.0063 1692.60 1682.62 43.40
7218 31.0100 1629.40 1682.56 42.50
7219 31.0138 1638.40 1682.50 41.90
7220 31.0175 1726.70 1682.44 43.30
7221 31.0213 1620.90 1682.37 42.20
7222 31.0250 1639.20 1682.31 42.10
7223 31.0288 1605.40 1682.25 41.30
7224 31.0326 1590.90 1682.19 41.30
7225 31.0363 1640.70 1682.12 42.60
7226 31.0401 1659.50 1682.06 42.50
7227 31.0438 1642.90 1682.00 42.30
7228 31.0476 1630.90 1681.94 42.40
7229 31.0513 1664.50 1681.87 42.50
7230 31.0551 1637.00 1681.81 41.80
7231 31.0589 1617.70 1681.75 41.90
7232 31.0626 1674.30 1681.69 41.90
7233 31.0664 1618.10 1681.62 41.50
7234 31.0701 1634.30 1681.56 41.80
7235 31.0739 1655.30 1681.50 41.90
7236 31.0777 1695.70 1681.44 43.00
7237 31.0814 1703.10 1681.37 42.90
7238 31.0852 1632.60 1681.31 41.60
7239 31.0889 1674.70 1681.25 42.30
7240 31.0927 1667.80 1681.19 42.70
7241 31.0964 1645.10 1681.12 41.80
7242 31.1002 1663.00 1681.06 42.90
7243 31.1040 1684.20 1681.00 42.30
7244 31.1077 1656.80 1680.93 42.70
7245 31.1115 1600.70 1680.87 41.30
7246 31.1152 1717.90 1680.81 42.90
7247 31.1190 1697.40 1680.74 43.00
7248 31.1227 1714.90 1680.68 42.90
7249 31.1265 1629.80 1680.62 41.80
7250 31.1303 1614.50 1680.55 41.90
7251 31.1340 1647.80 1680.49 42.00
7252 31.1378 1615.40 1680.43 41.70
7253 31.1415 1666.50 1680.36 42.60
7254 31.1453 1625.80 1680.30 41.70
7255 31.1490 1597.90 1680.24 41.30
7256 31.1528 1615.30 1680.17 41.60
7257 31.1566 1599.10 1680.11 41.20
7258 31.1603 1690.70 1680.05 42.70
7259 31.1641 1694.60 1679.98 43.20
7260 31.1678 1641.00 1679.92 42.20
7261 31.1716 1681.80 1679.86 43.10
7262 31.1753 1613.70 1679.79 41.90
7263 31.1791 1655.90 1679.73 42.00
7264 31.1829 1680.40 1679.67 42.80
7265 31.1866 1644.80 1679.60 42.70
7266 31.1904 1566.30 1679.54 40.30
7267 31.1941 1629.80 1679.48 42.10
7268 31.1979 1650.00 1679.41 41.60
7269 31.2016 1678.40 1679.35 42.70
7270 31.2054 1637.80 1679.28 42.10
7271 31.2092 1658.20 1679.22 41.80
7272 31.2129 1553.20 1679.16 40.80
7273 31.2167 1616.90 1679.09 41.40
7274 31.2204 1617.90 1679.03 41.60
7275 31.2242 1645.60 1678.96 42.00
7276 31.2279 1633.80 1678.90 42.00
7277 31.2317 1637.00 1678.84 42.40
7278 31.2355 1690.80 1678.77 42.70
7279 31.2392 1608.90 1678.71 41.50
7280 31.2430 1642.70 1678.64 42.10
7281 31.2467 1594.10 1678.58 41.60
7282 31.2505 1594.70 1678.52 41.80
7283 31.2542 1684.20 1678.45 42.40
7284 31.2580 1588.00 1678.39 41.20
7285 31.2617 1648.50 1678.32 42.80
7286 31.2655 1626.10 1678.26 41.60
7287 31.2693 1670.60 1678.19 42.90
7288 31.2730 1534.40 1678.13 40.60
7289 31.2768 1633.30 1678.07 42.00
7290 31.2805 1591.20 1678.00 41.60
7291 31.2843 1653.60 1677.94 41.90
7292 31.2880 1606.40 1677.87 41.90
7293 31.2918 1593.00 1677.81 41.80
7294 31.2956 1570.80 1677.74 40.80
7295 31.2993 1647.30 1677.68 42.40
7296 31.3031 1593.90 1677.61 41.50
7297 31.3068 1713.80 1677.55 42.80
7298 31.3106 1576.50 1677.48 41.70
7299 31.3144 1687.20 1677.42 43.10
7300 31.3181 1584.40 1677.35 41.80
7301 31.3219 1609.40 1677.29 41.50
7302 31.3256 1647.90 1677.22 42.40
7303 31.3294 1575.00 1677.16 42.00
7304 31.3331 1657.20 1677.09 42.90
7305 31.3369 1693.70 1677.03 43.10
7306 31.3406 1610.10 1676.96 41.60
7307 31.3444 1528.80 1676.90 41.20
7308 31.3482 1572.70 1676.83 41.60
7309 31.3519 1628.50 1676.77 42.30
7310 31.3557 1699.00 1676.70 42.60
7311 31.3594 1651.10 1676.64 42.70
7312 31.3632 1582.80 1676.57 41.70
7313 31.3669 1648.70 1676.51 42.30
7314 31.3707 1629.00 1676.44 42.30
7315 31.3745 1625.50 1676.38 42.40
7316 31.3782 1684.40 1676.31 43.30
7317 31.3820 1649.80 1676.25 41.60
7318 31.3857 1533.40 1676.18 41.20
7319 31.3895 1646.80 1676.11 42.20
7320 31.3932 1602.00 1676.05 41.60
7321 31.3970 1600.00 1675.98 41.70
7322 31.4007 1691.10 1675.92 43.40
7323 31.4045 1674.00 1675.85 43.40
7324 31.4083 1620.50 1675.79 42.30
7325 31.4120 1731.60 1675.72 43.40
7326 31.4158 1607.00 1675.65 41.50
7327 31.4195 1597.40 1675.59 41.30
7328 31.4233 1661.80 1675.52 43.40
7329 31.4270 1592.60 1675.46 41.60
7330 31.4308 1641.30 1675.39 42.60
7331 31.4345 1681.00 1675.33 43.10
7332 31.4383 1582.50 1675.26 42.10
7333 31.4421 1551.00 1675.19 41.20
7334 31.4458 1631.00 1675.13 42.10
7335 31.4496 1646.30 1675.06 42.30
7336 31.4533 1608.80 1674.99 42.30
7337 31.4571 1622.20 1674.93 41.80
7338 31.4608 1631.10 1674.86 42.50
7339 31.4646 1563.80 1674.80 40.40
7340 31.4683 1584.90 1674.73 41.00
7341 31.4721 1627.00 1674.66 42.50
7342 31.4759 1623.00 1674.60 42.10
7343 31.4796 1632.10 1674.53 42.10
7344 31.4834 1665.20 1674.46 42.60
7345 31.4871 1618.50 1674.40 42.10
7346 31.4909 1633.50 1674.33 41.90
7347 31.4946 1560.00 1674.26 41.20
7348 31.4984 1641.00 1674.20 42.60
7349 31.5022 1608.50 1674.13 42.10
7350 31.5059 1553.80 1674.06 40.90
7351 31.5097 1630.20 1674.00 42.00
7352 31.5134 1648.30 1673.93 42.40
7353 31.5172 1574.50 1673.86 41.90
7354 31.5209 1579.30 1673.80 41.90
7355 31.5247 1660.90 1673.73 42.70
7356 31.5285 1624.10 1673.66 43.20
7357 31.5322 1601.00 1673.60 42.40
7358 31.5360 1568.90 1673.53 41.10
7359 31.5397 1630.70 1673.46 42.00
7360 31.5435 1621.60 1673.40 42.70
7361 31.5472 1629.40 1673.33 42.50
7362 31.5510 1632.10 1673.26 41.50
7363 31.5547 1645.80 1673.19 42.90
7364 31.5585 1613.20 1673.13 41.20
7365 31.5623 1591.80 1673.06 41.80
7366 31.5660 1563.20 1672.99 41.60
7367 31.5698 1649.60 1672.92 42.20
7368 31.5735 1635.20 1672.86 42.30
7369 31.5773 1641.70 1672.79 43.20
7370 31.5810 1617.00 1672.72 42.10
7371 31.5848 1612.40 1672.66 42.80
7372 31.5885 1551.50 1672.59 41.10
7373 31.5923 1628.80 1672.52 42.10
7374 31.5961 1628.70 1672.45 42.30
7375 31.5998 1665.30 1672.38 42.90
7376 31.6036 1580.30 1672.32 41.50
7377 31.6073 1632.60 1672.25 42.30
7378 31.6111 1589.30 1672.18 41.70
7379 31.6148 1656.90 1672.11 41.90
7380 31.6186 1609.60 1672.05 42.50
7381 31.6223 1698.70 1671.98 43.80
7382 31.6261 1595.20 1671.91 42.30
7383 31.6298 1646.80 1671.84 42.80
7384 31.6336 1533.80 1671.77 41.50
7385 31.6374 1668.60 1671.71 42.30
7386 31.6411 1627.20 1671.64 42.60
7387 31.6449 1655.60 1671.57 41.90
7388 31.6486 1619.30 1671.50 42.40
7389 31.6524 1574.60 1671.43 42.00
7390 31.6561 1585.60 1671.36 41.40
7391 31.6599 1579.70 1671.30 42.10
7392 31.6636 1527.10 1671.23 41.10
7393 31.6674 1634.20 1671.16 42.10
7394 31.6712 1589.30 1671.09 41.90
7395 31.6749 1580.30 1671.02 41.80
7396 31.6787 1656.80 1670.95 42.80
7397 31.6824 1602.80 1670.89 42.40
7398 31.6862 1623.90 1670.82 42.50
7399 31.6899 1620.90 1670.75 42.70
7400 31.6937 1624.30 1670.68 42.00
7401 31.6974 1687.80 1670.61 43.40
7402 31.7012 1643.10 1670.54 42.00
7403 31.7050 1616.90 1670.47 42.60
7404 31.7087 1562.20 1670.40 41.40
7405 31.7125 1598.20 1670.34 41.70
7406 31.7162 1602.60 1670.27 42.40
7407 31.7200 1608.30 1670.20 42.30
7408 31.7237 1585.10 1670.13 42.00
7409 31.7275 1624.40 1670.06 42.50
7410 31.7312 1614.60 1669.99 42.20
7411 31.7350 1627.30 1669.92 41.80
7412 31.7387 1695.50 1669.85 43.40
7413 31.7425 1614.70 1669.78 42.50
7414 31.7463 1566.20 1669.71 41.20
7415 31.7500 1632.10 1669.64 42.60
7416 31.7538 1626.50 1669.57 42.60
7417 31.7575 1668.10 1669.51 42.90
7418 31.7613 1604.60 1669.44 42.20
7419 31.7650 1634.90 1669.37 42.80
7420 31.7688 1588.40 1669.30 42.00
7421 31.7725 1616.90 1669.23 42.60
7422 31.7763 1672.40 1669.16 42.10
7423 31.7800 1598.90 1669.09 42.20
7424 31.7838 1590.60 1669.02 42.20
7425 31.7875 1593.60 1668.95 42.20
7426 31.7913 1654.90 1668.88 41.70
7427 31.7951 1587.70 1668.81 42.20
7428 31.7988 1593.50 1668.74 41.60
7429 31.8026 1637.40 1668.67 42.60
7430 31.8063 1591.90 1668.60 41.90
7431 31.8101 1592.40 1668.53 42.00
7432 31.8138 1569.40 1668.46 41.50
7433 31.8176 1587.40 1668.39 42.10
7434 31.8213 1621.70 1668.32 42.40
7435 31.8251 1571.60 1668.25 41.30
7436 31.8288 1515.10 1668.18 40.60
7437 31.8326 1596.80 1668.11 42.20
7438 31.8363 1571.40 1668.04 41.90
7439 31.8401 1514.10 1667.97 40.90
7440 31.8439 1553.60 1667.90 41.90
7441 31.8476 1592.80 1667.83 41.70
7442 31.8514 1604.80 1667.76 41.30
7443 31.8551 1546.50 1667.69 41.70
7444 31.8589 1536.80 1667.62 40.50
7445 31.8626 1653.00 1667.55 43.20
7446 31.8664 1589.80 1667.47 41.90
7447 31.8701 1585.20 1667.40 42.30
7448 31.8739 1586.40 1667.33 41.90
7449 31.8776 1628.70 1667.26 42.10
7450 31.8814 1625.10 1667.19 42.10
7451 31.8852 1696.90 1667.12 43.50
7452 31.8889 1583.00 1667.05 41.70
7453 31.8927 1587.70 1666.98 41.10
7454 31.8964 1527.60 1666.91 40.40
7455 31.9002 1586.30 1666.84 41.80
7456 31.9039 1617.40 1666.77 41.60
7457 31.9077 1592.90 1666.69 41.40
7458 31.9114 1598.80 1666.62 41.50
7459 31.9152 1535.90 1666.55 41.20
7460 31.9189 1546.20 1666.48 41.40
7461 31.9227 1605.40 1666.41 41.60
7462 31.9265 1572.40 1666.34 42.20
7463 31.9302 1536.70 1666.27 41.30
7464 31.9340 1639.60 1666.20 42.20
7465 31.9377 1591.60 1666.12 41.90
7466 31.9415 1551.80 1666.05 41.40
7467 31.9452 1563.50 1665.98 40.60
7468 31.9490 1527.90 1665.91 40.70
7469 31.9527 1591.90 1665.84 41.60
7470 31.9565 1578.60 1665.77 41.30
7471 31.9602 1632.00 1665.69 42.70
7472 31.9640 1506.20 1665.62 40.70
7473 31.9677 1553.90 1665.55 41.40
7474 31.9715 1626.50 1665.48 42.30
7475 31.9753 1604.50 1665.41 41.90
7476 31.9790 1587.00 1665.34 41.50
7477 31.9827 1569.60 1665.26 40.80
7478 31.9865 1511.00 1665.19 40.80
7479 31.9903 1653.20 1665.12 42.10
7480 31.9934 1631.90 1665.06 42.40
7481 31.9972 1550.90 1664.99 41.30
7482 32.0009 1550.80 1664.91 40.90
7483 32.0047 1583.60 1664.84 41.40
7484 32.0084 1600.40 1664.77 41.70
7485 32.0122 1534.60 1664.70 41.40
7486 32.0159 1547.70 1664.62 41.40
7487 32.0197 1556.50 1664.55 41.30
7488 32.0234 1634.70 1664.48 43.40
7489 32.0272 1561.80 1664.41 41.90
7490 32.0310 1608.50 1664.33 41.70
7491 32.0347 1666.40 1664.26 42.50
7492 32.0385 1558.90 1664.19 41.80
7493 32.0422 1572.50 1664.12 41.70
7494 32.0460 1505.20 1664.04 39.80
7495 32.0497 1587.50 1663.97 42.10
7496 32.0535 1564.10 1663.90 40.50
7497 32.0573 1636.10 1663.82 42.40
7498 32.0610 1563.20 1663.75 41.60
7499 32.0648 1685.10 1663.68 42.60
7500 32.0685 1598.10 1663.61 41.80
7501 32.0723 1634.40 1663.53 43.10
7502 32.0760 1643.10 1663.46 42.40
7503 32.0798 1599.90 1663.39 42.70
7504 32.0835 1571.50 1663.31 41.30
7505 32.0873 1641.70 1663.24 42.30
7506 32.0910 1607.60 1663.17 42.00
7507 32.0948 1722.00 1663.09 43.70
7508 32.0986 1585.30 1663.02 41.50
7509 32.1023 1623.60 1662.95 42.10
7510 32.1061 1656.60 1662.87 42.60
7511 32.1098 1528.90 1662.80 40.20
7512 32.1136 1646.70 1662.72 43.00
7513 32.1173 1560.40 1662.65 41.90
7514 32.1211 1576.70 1662.58 42.10
7515 32.1249 1600.00 1662.50 42.20
7516 32.1286 1669.60 1662.43 43.30
7517 32.1324 1623.50 1662.36 41.70
7518 32.1361 1625.10 1662.28 42.60
7519 32.1399 1521.50 1662.21 40.10
7520 32.1436 1549.10 1662.13 41.40
7521 32.1474 1639.50 1662.06 42.90
7522 32.1511 1586.50 1661.99 41.40
7523 32.1549 1605.50 1661.91 42.50
7524 32.1586 1579.80 1661.84 41.80
7525 32.1624 1577.50 1661.76 41.40
7526 32.1661 1582.20 1661.69 41.80
7527 32.1699 1593.50 1661.61 42.00
7528 32.1737 1625.30 1661.54 42.40
7529 32.1774 1549.20 1661.47 41.70
7530 32.1812 1565.80 1661.39 41.70
7531 32.1849 1595.20 1661.32 42.30
7532 32.1887 1614.40 1661.24 41.90
7533 32.1924 1565.50 1661.17 41.70
7534 32.1962 1559.60 1661.09 40.90
7535 32.2000 1559.30 1661.02 41.80
7536 32.2037 1559.20 1660.94 41.40
7537 32.2075 1626.10 1660.87 42.10
7538 32.2112 1548.20 1660.79 41.60
7539 32.2150 1603.20 1660.72 42.20
7540 32.2187 1543.30 1660.64 41.40
7541 32.2225 1548.90 1660.57 41.50
7542 32.2242 1501.10 1660.54 40.40
7543 32.2279 1593.30 1660.46 41.60
7544 32.2317 1587.30 1660.39 41.00
7545 32.2354 1593.90 1660.31 42.10
7546 32.2392 1595.70 1660.23 42.00
7547 32.2429 1625.60 1660.16 42.20
7548 32.2467 1589.80 1660.08 42.20
7549 32.2505 1548.70 1660.01 41.20
7550 32.2542 1526.30 1659.93 40.80
7551 32.2579 1616.80 1659.86 42.20
7552 32.2617 1527.90 1659.78 41.10
7553 32.2655 1569.00 1659.71 41.50
7554 32.2692 1566.30 1659.63 41.80
7555 32.2730 1560.40 1659.56 41.50
7556 32.2767 1483.00 1659.48 40.60
7557 32.2805 1492.60 1659.40 40.40
7558 32.2842 1618.00 1659.33 42.40
7559 32.2880 1568.20 1659.25 41.60
7560 32.2917 1514.20 1659.18 41.00
7561 32.2955 1578.20 1659.10 41.90
7562 32.2992 1582.40 1659.03 42.00
7563 32.3030 1533.40 1658.95 41.10
7564 32.3068 1622.30 1658.87 42.60
7565 32.3105 1593.30 1658.80 42.10
7566 32.3143 1558.40 1658.72 41.20
7567 32.3180 1555.80 1658.64 41.10
7568 32.3218 1495.10 1658.57 40.40
7569 32.3255 1638.10 1658.49 42.90
7570 32.3293 1515.40 1658.42 41.10
7571 32.3330 1521.40 1658.34 41.40
7572 32.3368 1557.20 1658.26 41.50
7573 32.3405 1588.50 1658.19 41.40
7574 32.3443 1523.00 1658.11 41.20
7575 32.3480 1556.50 1658.03 41.70
7576 32.3518 1618.90 1657.96 42.70
7577 32.3556 1581.40 1657.88 41.80
7578 32.3593 1517.00 1657.80 40.90
7579 32.3631 1616.80 1657.73 42.50
7580 32.3668 1610.20 1657.65 42.30
7581 32.3706 1587.50 1657.57 41.90
7582 32.3743 1558.10 1657.50 41.50
7583 32.3781 1589.90 1657.42 42.00
7584 32.3818 1483.50 1657.34 40.70
7585 32.3856 1610.00 1657.26 41.90
7586 32.3894 1524.70 1657.19 41.00
7587 32.3931 1550.70 1657.11 41.70
7588 32.3969 1566.00 1657.03 41.60
7589 32.4006 1597.80 1656.96 41.90
7590 32.4044 1516.70 1656.88 41.00
7591 32.4081 1588.80 1656.80 42.10
7592 32.4119 1495.90 1656.72 40.60
7593 32.4156 1530.20 1656.65 41.10
7594 32.4194 1555.60 1656.57 41.50
7595 32.4231 1571.30 1656.49 42.30
7596 32.4269 1554.60 1656.41 41.90
7597 32.4306 1513.20 1656.34 40.60
7598 32.4344 1559.80 1656.26 41.70
7599 32.4382 1590.00 1656.18 42.30
7600 32.4419 1578.90 1656.10 42.20
7601 32.4457 1650.30 1656.02 43.00
7602 32.4494 1561.90 1655.95 42.10
7603 32.4532 1541.40 1655.87 41.60
7604 32.4569 1554.70 1655.79 40.90
7605 32.4607 1498.80 1655.71 40.80
7606 32.4644 1585.40 1655.63 41.90
7607 32.4682 1563.90 1655.56 41.60
7608 32.4720 1531.50 1655.48 41.00
7609 32.4757 1539.80 1655.40 41.40
7610 32.4795 1557.10 1655.32 42.00
7611 32.4832 1550.80 1655.24 41.50
7612 32.4870 1485.00 1655.16 40.90
7613 32.4907 1588.40 1655.09 41.90
7614 32.4945 1542.50 1655.01 41.30
7615 32.4982 1572.30 1654.93 41.20
7616 32.5020 1487.90 1654.85 41.00
7617 32.5057 1580.90 1654.77 41.40
7618 32.5095 1544.10 1654.69 41.50
7619 32.5132 1594.80 1654.61 41.90
7620 32.5170 1557.80 1654.53 41.10
7621 32.5208 1531.10 1654.46 41.10
7622 32.5245 1599.70 1654.38 42.50
7623 32.5283 1613.50 1654.30 42.60
7624 32.5320 1515.10 1654.22 40.70
7625 32.5358 1521.40 1654.14 41.40
7626 32.5395 1597.70 1654.06 42.30
7627 32.5433 1622.50 1653.98 42.40
7628 32.5471 1543.70 1653.90 41.00
7629 32.5508 1600.30 1653.82 41.50
7630 32.5546 1591.40 1653.74 42.00
7631 32.5583 1541.00 1653.66 41.20
7632 32.5621 1591.00 1653.58 42.50
7633 32.5658 1563.30 1653.51 41.40
7634 32.5696 1451.70 1653.43 40.00
7635 32.5733 1641.50 1653.35 42.50
7636 32.5771 1571.80 1653.27 41.90
7637 32.5808 1536.10 1653.19 40.80
7638 32.5846 1576.70 1653.11 41.20
7639 32.5884 1640.20 1653.03 43.20
7640 32.5921 1544.20 1652.95 41.90
7641 32.5959 1630.50 1652.87 42.40
7642 32.5996 1561.70 1652.79 42.20
7643 32.6034 1562.20 1652.71 41.80
7644 32.6071 1470.20 1652.63 40.40
7645 32.6109 1587.30 1652.55 42.10
7646 32.6146 1568.10 1652.47 41.70
7647 32.6184 1564.30 1652.39 41.90
7648 32.6222 1443.10 1652.31 40.20
7649 32.6259 1534.90 1652.23 41.20
7650 32.6297 1518.00 1652.15 40.60
7651 32.6334 1564.40 1652.07 41.80
7652 32.6372 1562.70 1651.98 42.00
7653 32.6409 1602.00 1651.90 42.40
7654 32.6447 1490.20 1651.82 40.50
7655 32.6484 1606.80 1651.74 42.20
7656 32.6522 1487.80 1651.66 40.40
7657 32.6560 1607.30 1651.58 42.30
7658 32.6597 1555.10 1651.50 42.00
7659 32.6635 1551.10 1651.42 41.60
7660 32.6672 1555.20 1651.34 42.00
7661 32.6710 1597.10 1651.26 42.50
7662 32.6747 1484.90 1651.18 40.40
7663 32.6785 1604.50 1651.10 42.10
7664 32.6822 1550.50 1651.02 42.50
7665 32.6860 1598.90 1650.93 41.90
7666 32.6898 1496.70 1650.85 40.10
7667 32.6935 1577.20 1650.77 41.30
7668 32.6973 1532.10 1650.69 40.90
7669 32.7010 1561.70 1650.61 41.00
7670 32.7048 1564.50 1650.53 40.70
7671 32.7085 1601.60 1650.45 41.80
7672 32.7123 1563.70 1650.36 41.30
7673 32.7160 1626.50 1650.28 42.00
7674 32.7198 1537.20 1650.20 40.60
7675 32.7236 1554.60 1650.12 41.20
7676 32.7273 1540.60 1650.04 40.90
7677 32.7311 1529.00 1649.96 40.80
7678 32.7348 1565.20 1649.87 41.40
7679 32.7386 1533.30 1649.79 40.10
7680 32.7423 1601.10 1649.71 41.80
7681 32.7461 1503.70 1649.63 40.40
7682 32.7499 1545.00 1649.55 41.30
7683 32.7536 1634.60 1649.46 42.50
7684 32.7574 1577.90 1649.38 42.00
7685 32.7611 1545.40 1649.30 41.00
7686 32.7649 1563.40 1649.22 40.70
7687 32.7686 1546.80 1649.14 41.00
7688 32.7724 1547.10 1649.05 41.50
7689 32.7761 1623.00 1648.97 41.70
7690 32.7799 1567.10 1648.89 41.60
7691 32.7837 1543.80 1648.81 41.30
7692 32.7874 1556.20 1648.72 41.00
7693 32.7912 1581.60 1648.64 41.60
7694 32.7949 1527.90 1648.56 40.60
7695 32.7987 1571.20 1648.48 41.00
7696 32.8024 1551.00 1648.39 41.30
7697 32.8062 1546.30 1648.31 41.00
7698 32.8100 1554.40 1648.23 41.60
7699 32.8137 1592.70 1648.14 41.80
7700 32.8175 1555.40 1648.06 41.40
7701 32.8212 1559.30 1647.98 40.90
7702 32.8250 1495.40 1647.89 40.30
7703 32.8287 1556.20 1647.81 41.10
7704 32.8325 1478.50 1647.73 40.00
7705 32.8363 1577.50 1647.64 41.70
7706 32.8400 1492.10 1647.56 40.30
7707 32.8438 1499.40 1647.48 40.40
7708 32.8475 1550.90 1647.40 41.20
7709 32.8513 1520.90 1647.31 40.50
7710 32.8550 1591.20 1647.23 41.30
7711 32.8588 1633.00 1647.14 42.00
7712 32.8625 1529.10 1647.06 40.60
7713 32.8663 1598.20 1646.98 41.70
7714 32.8701 1508.70 1646.89 40.80
7715 32.8738 1564.00 1646.81 41.40
7716 32.8776 1584.80 1646.73 41.50
7717 32.8813 1543.40 1646.64 40.80
7718 32.8851 1509.80 1646.56 40.60
7719 32.8888 1548.50 1646.47 41.30
7720 32.8926 1597.40 1646.39 41.70
7721 32.8964 1552.80 1646.31 41.60
7722 32.9001 1461.80 1646.22 40.30
7723 32.9039 1506.90 1646.14 40.20
7724 32.9076 1490.30 1646.05 39.70
7725 32.9114 1633.20 1645.97 42.20
7726 32.9151 1613.30 1645.89 42.20
7727 32.9189 1462.10 1645.80 40.00
7728 32.9226 1520.70 1645.72 40.80
7729 32.9264 1558.10 1645.63 41.60
7730 32.9302 1539.50 1645.55 41.00
7731 32.9339 1544.00 1645.46 40.90
7732 32.9377 1537.40 1645.38 40.30
7733 32.9414 1509.20 1645.29 40.40
7734 32.9452 1496.30 1645.21 40.20
7735 32.9490 1631.50 1645.12 42.10
7736 32.9527 1544.80 1645.04 41.30
7737 32.9565 1566.00 1644.95 41.30
7738 32.9602 1513.60 1644.87 40.10
7739 32.9640 1473.50 1644.78 40.30
7740 32.9677 1515.60 1644.70 40.80
7741 32.9715 1566.90 1644.61 41.70
7742 32.9753 1569.60 1644.53 41.80
7743 32.9790 1566.10 1644.44 41.10
7744 32.9828 1533.70 1644.36 41.20
7745 32.9865 1519.50 1644.27 40.90
7746 32.9903 1504.20 1644.19 41.10
7747 32.9940 1523.10 1644.10 41.00
7748 32.9978 1534.20 1644.02 40.60
7749 33.0015 1578.20 1643.93 42.10
7750 33.0053 1572.50 1643.84 42.00
7751 33.0091 1597.90 1643.76 41.80
7752 33.0128 1531.80 1643.67 41.50
7753 33.0166 1527.40 1643.59 41.10
7754 33.0203 1546.00 1643.50 41.10
7755 33.0241 1530.40 1643.42 41.30
7756 33.0278 1478.60 1643.33 40.30
7757 33.0316 1598.20 1643.24 41.70
7758 33.0354 1521.90 1643.16 40.80
7759 33.0391 1591.90 1643.07 41.80
7760 33.0429 1514.00 1642.99 41.00
7761 33.0466 1520.80 1642.90 41.00
7762 33.0504 1551.40 1642.81 41.60
7763 33.0541 1578.10 1642.73 42.10
7764 33.0579 1559.70 1642.64 41.90
7765 33.0617 1550.10 1642.55 41.50
7766 33.0654 1527.80 1642.47 41.20
7767 33.0692 1592.50 1642.38 42.10
7768 33.0729 1484.70 1642.29 40.20
7769 33.0767 1551.20 1642.21 40.90
7770 33.0804 1529.80 1642.12 41.10
7771 33.0842 1535.60 1642.03 41.20
7772 33.0880 1519.80 1641.95 41.00
7773 33.0917 1576.80 1641.86 41.00
7774 33.0955 1558.90 1641.77 42.00
7775 33.0992 1472.40 1641.69 40.10
7776 33.1030 1545.90 1641.60 41.90
7777 33.1068 1543.80 1641.51 41.60
7778 33.1105 1417.00 1641.43 39.70
7779 33.1143 1515.70 1641.34 40.70
7780 33.1180 1509.70 1641.25 40.90
7781 33.1218 1589.00 1641.16 41.90
7782 33.1255 1600.60 1641.08 42.30
7783 33.1293 1585.80 1640.99 41.60
7784 33.1330 1565.60 1640.90 41.50
7785 33.1368 1568.70 1640.81 41.60
7786 33.1406 1541.20 1640.73 40.90
7787 33.1443 1573.70 1640.64 41.50
7788 33.1481 1498.90 1640.55 40.80
7789 33.1518 1599.10 1640.46 41.90
7790 33.1556 1475.20 1640.38 40.60
7791 33.1594 1514.90 1640.29 41.10
7792 33.1631 1571.20 1640.20 42.50
7793 33.1669 1582.20 1640.11 42.20
7794 33.1706 1563.00 1640.03 42.00
7795 33.1744 1626.60 1639.94 42.00
7796 33.1781 1460.00 1639.85 40.20
7797 33.1819 1570.80 1639.76 40.70
7798 33.1857 1524.90 1639.67 41.00
7799 33.1894 1633.50 1639.58 42.60
7800 33.1932 1518.40 1639.50 41.40
7801 33.1969 1516.10 1639.41 40.70
7802 33.2007 1513.90 1639.32 41.10
7803 33.2044 1550.00 1639.23 41.60
7804 33.2082 1507.40 1639.14 41.00
7805 33.2120 1635.10 1639.05 41.60
7806 33.2157 1468.60 1638.97 39.60
7807 33.2195 1556.50 1638.88 41.50
7808 33.2232 1603.60 1638.79 41.90
7809 33.2270 1544.90 1638.70 40.90
7810 33.2308 1555.80 1638.61 41.50
7811 33.2345 1573.40 1638.52 40.80
7812 33.2383 1483.00 1638.43 40.40
7813 33.2420 1524.10 1638.34 41.50
7814 33.2458 1521.40 1638.25 40.80
7815 33.2495 1526.60 1638.17 41.00
7816 33.2533 1543.70 1638.08 41.40
7817 33.2571 1515.60 1637.99 40.80
7818 33.2608 1474.60 1637.90 40.10
7819 33.2646 1583.80 1637.81 41.80
7820 33.2683 1505.40 1637.72 40.70
7821 33.2721 1513.20 1637.63 41.10
7822 33.2758 1546.90 1637.54 40.90
7823 33.2796 1532.90 1637.45 40.80
7824 33.2834 1557.80 1637.36 41.70
7825 33.2871 1486.20 1637.27 39.60
7826 33.2909 1609.50 1637.18 42.40
7827 33.2946 1567.00 1637.09 41.20
7828 33.2984 1553.30 1637.00 41.10
7829 33.3022 1522.20 1636.91 41.00
7830 33.3059 1529.40 1636.82 41.00
7831 33.3097 1613.20 1636.73 42.40
7832 33.3134 1573.20 1636.64 41.80
7833 33.3172 1524.10 1636.55 41.00
7834 33.3209 1532.20 1636.46 41.20
7835 33.3247 1570.30 1636.37 41.80
7836 33.3285 1544.00 1636.28 41.50
7837 33.3322 1542.10 1636.19 41.10
7838 33.3360 1488.00 1636.10 40.70
7839 33.3397 1671.00 1636.01 42.90
7840 33.3435 1579.80 1635.92 42.40
7841 33.3473 1597.30 1635.83 41.60
7842 33.3510 1532.90 1635.74 41.10
7843 33.3548 1444.40 1635.65 39.80
7844 33.3585 1506.00 1635.56 41.10
7845 33.3623 1635.60 1635.47 42.50
7846 33.3660 1524.90 1635.38 41.20
7847 33.3698 1558.50 1635.29 41.70
7848 33.3736 1513.00 1635.20 40.80
7849 33.3773 1546.60 1635.10 41.30
7850 33.3811 1524.30 1635.01 41.10
7851 33.3848 1539.50 1634.92 41.30
7852 33.3886 1512.30 1634.83 40.70
7853 33.3923 1553.10 1634.74 41.40
7854 33.3961 1526.90 1634.65 41.10
7855 33.3999 1591.70 1634.56 42.30
7856 33.4036 1508.20 1634.47 40.70
7857 33.4074 1573.20 1634.38 42.00
7858 33.4111 1525.40 1634.28 41.20
7859 33.4149 1520.50 1634.19 41.20
7860 33.4187 1606.60 1634.10 42.40
7861 33.4224 1611.50 1634.01 42.00
7862 33.4262 1551.30 1633.92 41.60
7863 33.4299 1519.10 1633.83 41.10
7864 33.4337 1510.70 1633.73 40.80
7865 33.4375 1627.00 1633.64 42.30
7866 33.4412 1549.50 1633.55 41.50
7867 33.4450 1545.90 1633.46 41.50
7868 33.4487 1567.80 1633.37 41.70
7869 33.4525 1572.20 1633.28 41.80
7870 33.4562 1603.10 1633.18 42.20
7871 33.4600 1601.20 1633.09 42.60
7872 33.4638 1604.30 1633.00 42.20
7873 33.4675 1584.10 1632.91 42.20
7874 33.4713 1521.20 1632.81 41.10
7875 33.4750 1505.60 1632.72 40.60
7876 33.4788 1542.80 1632.63 41.50
7877 33.4826 1552.90 1632.54 41.10
7878 33.4863 1577.40 1632.44 41.90
7879 33.4901 1556.40 1632.35 41.00
7880 33.4938 1507.10 1632.26 41.00
7881 33.4976 1561.50 1632.17 41.60
7882 33.5014 1537.00 1632.07 40.90
7883 33.5051 1580.50 1631.98 41.70
7884 33.5089 1505.00 1631.89 40.80
7885 33.5126 1511.20 1631.80 40.60
7886 33.5164 1494.60 1631.70 41.10
7887 33.5201 1491.40 1631.61 40.50
7888 33.5239 1506.40 1631.52 40.70
7889 33.5277 1572.30 1631.42 41.70
7890 33.5314 1534.40 1631.33 41.40
7891 33.5352 1529.10 1631.24 41.50
7892 33.5389 1521.30 1631.14 40.90
7893 33.5427 1563.50 1631.05 41.30
7894 33.5465 1479.20 1630.96 40.80
7895 33.5502 1502.70 1630.86 41.10
7896 33.5540 1529.80 1630.77 40.70
7897 33.5577 1522.10 1630.68 40.70
7898 33.5615 1536.60 1630.58 41.60
7899 33.5652 1566.20 1630.49 41.30
7900 33.5690 1478.80 1630.40 40.70
7901 33.5728 1606.40 1630.30 41.80
7902 33.5765 1560.20 1630.21 41.70
7903 33.5803 1551.50 1630.12 41.50
7904 33.5840 1604.90 1630.02 42.40
7905 33.5878 1571.80 1629.93 42.00
7906 33.5916 1554.50 1629.83 41.30
7907 33.5953 1572.10 1629.74 41.40
7908 33.5991 1523.90 1629.65 40.50
7909 33.6028 1545.00 1629.55 41.80
7910 33.6066 1507.00 1629.46 41.00
7911 33.6104 1570.20 1629.36 41.70
7912 33.6141 1507.50 1629.27 40.80
7913 33.6179 1546.00 1629.17 41.60
7914 33.6216 1475.80 1629.08 40.70
7915 33.6254 1569.30 1628.99 41.70
7916 33.6292 1583.00 1628.89 41.80
7917 33.6329 1604.90 1628.80 42.40
7918 33.6367 1503.60 1628.70 40.70
7919 33.6404 1563.10 1628.61 41.50
7920 33.6442 1489.90 1628.51 41.80
7921 33.6479 1514.80 1628.42 39.00
7922 33.6517 1458.30 1628.32 38.20
7923 33.6555 1597.00 1628.23 40.60
7924 33.6592 1550.30 1628.13 40.20
7925 33.6630 1648.50 1628.04 41.30
7926 33.6667 1574.00 1627.94 39.90
7927 33.6705 1609.90 1627.85 40.30
7928 33.6743 1493.70 1627.75 39.00
7929 33.6780 1535.60 1627.66 39.70
7930 33.6818 1464.60 1627.56 38.60
7931 33.6855 1531.60 1627.47 39.70
7932 33.6893 1533.60 1627.37 39.80
7933 33.6931 1534.70 1627.28 39.80
7934 33.6968 1536.20 1627.18 39.60
7935 33.7006 1491.10 1627.09 39.30
7936 33.7043 1580.80 1626.99 40.40
7937 33.7081 1548.80 1626.89 39.90
7938 33.7118 1602.80 1626.80 40.80
7939 33.7156 1596.40 1626.70 40.50
7940 33.7194 1594.00 1626.61 40.30
7941 33.7231 1550.90 1626.51 40.00
7942 33.7269 1539.80 1626.41 39.70
7943 33.7306 1508.90 1626.32 39.50
7944 33.7344 1528.90 1626.22 39.90
7945 33.7382 1512.70 1626.13 39.50
7946 33.7419 1500.80 1626.03 39.40
7947 33.7457 1575.20 1625.93 40.50
7948 33.7494 1522.00 1625.84 39.60
7949 33.7532 1550.10 1625.74 40.20
7950 33.7570 1567.80 1625.65 40.40
7951 33.7607 1538.40 1625.55 40.10
7952 33.7645 1509.10 1625.45 39.40
7953 33.7682 1564.30 1625.36 40.30
7954 33.7720 1566.10 1625.26 40.40
7955 33.7757 1533.80 1625.16 40.00
7956 33.7795 1539.10 1625.07 39.80
7957 33.7833 1524.20 1624.97 39.80
7958 33.7870 1640.80 1624.87 41.10
7959 33.7908 1618.80 1624.78 41.10
7960 33.7945 1550.90 1624.68 40.50
7961 33.7983 1527.20 1624.58 39.80
7962 33.8021 1561.60 1624.49 40.00
7963 33.8058 1586.20 1624.39 40.70
7964 33.8096 1576.70 1624.29 40.30
7965 33.8133 1617.30 1624.19 41.30
7966 33.8171 1521.20 1624.10 39.80
7967 33.8209 1587.60 1624.00 40.50
7968 33.8246 1518.40 1623.90 39.70
7969 33.8284 1531.70 1623.80 40.00
7970 33.8321 1580.60 1623.71 40.60
7971 33.8359 1616.10 1623.61 41.20
7972 33.8397 1542.20 1623.51 39.80
7973 33.8434 1614.90 1623.41 40.90
7974 33.8472 1473.30 1623.32 39.20
7975 33.8509 1562.50 1623.22 40.50
7976 33.8547 1622.80 1623.12 41.00
7977 33.8585 1557.20 1623.02 40.40
7978 33.8622 1535.90 1622.93 39.60
7979 33.8660 1555.00 1622.83 40.10
7980 33.8697 1570.20 1622.73 40.60
7981 33.8735 1557.00 1622.63 40.50
7982 33.8773 1546.00 1622.53 40.00
7983 33.8810 1551.10 1622.44 40.00
7984 33.8848 1565.30 1622.34 40.20
7985 33.8885 1580.30 1622.24 40.70
7986 33.8923 1514.90 1622.14 39.70
7987 33.8960 1534.50 1622.04 40.00
7988 33.8998 1525.50 1621.94 39.90
7989 33.9036 1587.00 1621.85 40.50
7990 33.9073 1575.90 1621.75 40.50
7991 33.9111 1510.80 1621.65 39.60
7992 33.9148 1543.60 1621.55 40.20
7993 33.9186 1597.30 1621.45 41.00
7994 33.9224 1563.20 1621.35 39.90
7995 33.9261 1599.50 1621.26 41.20
7996 33.9299 1540.50 1621.16 39.70
7997 33.9336 1548.50 1621.06 40.30
7998 33.9374 1561.00 1620.96 40.10
7999 33.9412 1583.40 1620.86 40.80
8000 33.9449 1553.60 1620.76 40.40
8001 33.9487 1601.30 1620.66 41.20
8002 33.9524 1536.60 1620.56 40.10
8003 33.9562 1495.40 1620.46 39.50
8004 33.9600 1527.70 1620.36 39.90
8005 33.9637 1619.50 1620.26 41.70
8006 33.9675 1633.70 1620.17 41.50
8007 33.9712 1494.90 1620.07 39.50
8008 33.9750 1583.30 1619.97 40.90
8009 33.9788 1517.20 1619.87 39.70
8010 33.9825 1552.30 1619.77 40.20
8011 33.9863 1580.60 1619.67 40.50
8012 33.9900 1523.60 1619.57 40.10
8013 33.9938 1558.80 1619.47 40.50
8014 33.9976 1567.00 1619.37 40.60
8015 34.0013 1578.90 1619.27 40.70
8016 34.0051 1535.60 1619.17 40.30
8017 34.0088 1603.50 1619.07 40.60
8018 34.0126 1528.60 1618.97 40.00
8019 34.0163 1644.50 1618.87 41.70
8020 34.0201 1530.60 1618.77 40.10
8021 34.0239 1619.40 1618.67 41.40
8022 34.0276 1553.70 1618.57 40.00
8023 34.0314 1571.50 1618.47 40.40
8024 34.0351 1625.80 1618.37 41.50
8025 34.0389 1552.90 1618.27 40.60
8026 34.0427 1585.60 1618.17 40.70
8027 34.0464 1584.70 1618.07 41.20
8028 34.0502 1567.60 1617.97 40.50
8029 34.0540 1645.70 1617.87 41.30
8030 34.0577 1615.90 1617.77 41.00
8031 34.0615 1589.30 1617.67 40.90
8032 34.0652 1588.90 1617.56 40.90
8033 34.0690 1539.60 1617.46 40.50
8034 34.0728 1597.10 1617.36 40.80
8035 34.0765 1640.40 1617.26 41.50
8036 34.0803 1548.40 1617.16 40.30
8037 34.0840 1561.00 1617.06 40.70
8038 34.0878 1510.80 1616.96 39.90
8039 34.0915 1581.50 1616.86 41.00
8040 34.0953 1597.40 1616.76 40.70
8041 34.0991 1639.70 1616.66 41.90
8042 34.1028 1645.70 1616.55 41.30
8043 34.1066 1637.70 1616.45 41.50
8044 34.1104 1555.00 1616.35 41.20
8045 34.1141 1677.40 1616.25 41.90
8046 34.1179 1623.00 1616.15 41.30
8047 34.1216 1604.40 1702.96 40.90
8048 34.1254 1627.40 1704.92 41.50
8049 34.1292 1641.10 1706.97 42.10
8050 34.1329 1658.10 1709.08 42.50
8051 34.1367 1590.70 1711.29 41.50
8052 34.1404 1631.10 1713.58 42.00
8053 34.1442 1672.10 1715.95 42.40
8054 34.1479 1648.00 1718.43 42.10
8055 34.1517 1586.70 1721.00 41.30
8056 34.1555 1597.80 1723.68 41.30
8057 34.1592 1663.50 1726.47 42.50
8058 34.1630 1616.60 1729.38 42.00
8059 34.1667 1621.80 1732.41 42.00
8060 34.1705 1648.30 1735.58 42.30
8061 34.1743 1693.30 1738.88 42.70
8062 34.1780 1637.30 1742.32 41.90
8063 34.1818 1558.10 1745.92 40.90
8064 34.1855 1669.70 1749.68 42.60
8065 34.1893 1716.90 1753.62 43.10
8066 34.1931 1685.90 1757.74 42.90
8067 34.1968 1722.70 1762.05 43.00
8068 34.2006 1615.30 1766.57 42.10
8069 34.2043 1717.50 1771.31 42.90
8070 34.2081 1739.90 1776.28 43.20
8071 34.2119 1720.60 1781.51 42.00
8072 34.2156 1726.80 1787.00 43.30
8073 34.2194 1742.90 1792.77 43.40
8074 34.2231 1694.70 1798.84 43.10
8075 34.2269 1788.40 1805.25 44.00
8076 34.2307 1746.80 1811.99 43.80
8077 34.2344 1826.40 1819.11 44.20
8078 34.2382 1712.90 1826.64 43.30
8079 34.2419 1830.00 1834.58 44.60
8080 34.2457 1749.20 1842.99 43.00
8081 34.2495 1823.80 1851.92 44.90
8082 34.2532 1832.60 1861.36 45.00
8083 34.2570 1858.20 1871.40 44.50
8084 34.2607 1794.90 1882.08 44.20
8085 34.2645 1862.80 1893.42 45.50
8086 34.2683 1850.40 1905.52 45.00
8087 34.2720 1896.30 1918.44 45.50
8088 34.2758 1899.80 1932.22 45.50
8089 34.2795 1993.10 1946.97 46.40
8090 34.2833 1911.50 1962.80 45.80
8091 34.2871 1986.30 1979.76 46.30
8092 34.2908 1920.40 1998.01 46.10
8093 34.2946 2029.10 2017.68 47.20
8094 34.2983 2025.00 2038.86 46.50
8095 34.3021 2041.00 2061.78 47.70
8096 34.3059 2118.80 2086.63 48.00
8097 34.3096 2153.00 2113.56 48.40
8098 34.3134 2139.30 2142.88 48.60
8099 34.3171 2226.50 2174.89 49.00
8100 34.3209 2175.50 2209.81 48.60
8101 34.3247 2261.90 2248.13 49.70
8102 34.3284 2271.70 2290.30 49.90
8103 34.3322 2389.20 2336.71 51.20
8104 34.3359 2359.00 2388.10 51.00
8105 34.3397 2447.40 2445.19 52.20
8106 34.3435 2551.80 2508.68 53.30
8107 34.3472 2630.00 2579.76 53.60
8108 34.3510 2711.50 2659.68 54.90
8109 34.3547 2834.50 2749.71 56.00
8110 34.3585 2914.00 2851.88 56.20
8111 34.3623 3063.40 2968.49 58.80
8112 34.3660 3158.70 3101.97 59.30
8113 34.3698 3260.90 3256.16 60.60
8114 34.3735 3382.10 3435.36 61.10
8115 34.3773 3720.50 3645.22 65.30
8116 34.3811 3933.20 3893.09 67.70
8117 34.3848 4132.70 4188.59 68.50
8118 34.3886 4381.90 4544.58 70.70
8119 34.3923 4842.90 4978.46 74.70
8120 34.3961 5236.90 5514.35 77.90
8121 34.3999 5853.00 6186.61 83.00
8122 34.4036 6587.80 7047.21 88.10
8123 34.4074 7947.50 8183.96 97.10
8124 34.4111 9024.20 9769.05 104.30
8125 34.4149 11685.80 12175.10 120.30
8126 34.4187 14875.70 16189.60 138.00
8127 34.4224 21275.00 23262.30 168.40
8128 34.4262 30240.80 35498.40 205.50
8129 34.4299 48816.10 54965.80 270.60
8130 34.4337 74163.90 82067.90 351.50
8131 34.4375 107506.00 112792.00 444.60
8132 34.4412 126318.00 134948.00 494.60
8133 34.4450 133624.00 132907.00 512.80
8134 34.4487 116128.00 108385.00 466.80
8135 34.4525 89606.10 77660.50 394.10
8136 34.4563 57175.10 51581.60 303.10
8137 34.4600 35107.10 33273.30 226.10
8138 34.4638 22138.90 21945.50 172.10
8139 34.4675 15995.50 15445.30 142.40
8140 34.4713 11967.90 11741.70 122.20
8141 34.4751 9812.20 9493.53 109.10
8142 34.4788 7827.80 7991.27 96.20
8143 34.4826 6551.70 6903.09 87.00
8144 34.4863 5739.50 6074.47 81.70
8145 34.4901 5210.20 5424.89 77.20
8146 34.4939 4608.50 4905.74 72.10
8147 34.4976 4450.20 4484.48 70.50
8148 34.5014 3973.00 4138.20 66.40
8149 34.5051 3701.90 3850.24 64.80
8150 34.5089 3467.80 3608.33 62.50
8151 34.5127 3329.00 3403.20 61.00
8152 34.5164 3216.50 3227.81 59.80
8153 34.5202 3019.10 3076.70 57.70
8154 34.5239 2947.50 2945.62 57.10
8155 34.5277 2821.50 2831.19 56.20
8156 34.5315 2688.10 2730.72 53.80
8157 34.5352 2680.40 2642.03 53.70
8158 34.5390 2602.70 2563.36 53.50
8159 34.5427 2448.40 2493.25 51.40
8160 34.5465 2454.40 2430.51 51.80
8161 34.5503 2456.90 2374.15 51.70
8162 34.5540 2254.60 2323.32 49.60
8163 34.5578 2367.00 2277.33 51.10
8164 34.5615 2115.00 2235.58 47.90
8165 34.5653 2241.30 2197.57 49.10
8166 34.5691 2190.10 2162.87 48.80
8167 34.5728 2130.30 2131.09 48.10
8168 34.5766 2070.60 2101.93 47.40
8169 34.5803 2037.80 2075.09 47.20
8170 34.5841 1981.10 2050.35 46.10
8171 34.5879 2036.10 2027.48 46.80
8172 34.5916 1991.70 2006.31 46.20
8173 34.5954 2022.20 1986.66 46.80
8174 34.5991 1954.20 1968.39 45.60
8175 34.6029 1885.60 1951.39 44.70
8176 34.6067 1898.60 1935.52 45.70
8177 34.6104 1871.80 1920.70 45.40
8178 34.6142 1822.50 1906.83 44.90
8179 34.6179 1870.90 1893.85 45.30
8180 34.6217 1712.30 1881.64 43.00
8181 34.6255 1881.90 1870.18 45.60
8182 34.6292 1735.70 1859.41 43.60
8183 34.6330 1801.00 1849.24 44.60
8184 34.6367 1791.40 1839.66 44.50
8185 34.6405 1722.10 1830.61 43.40
8186 34.6443 1770.60 1822.05 43.90
8187 34.6480 1775.30 1813.95 44.00
8188 34.6518 1738.20 1806.29 43.80
8189 34.6555 1731.30 1799.01 43.50
8190 34.6593 1716.10 1792.10 42.60
8191 34.6631 1743.50 1785.54 43.70
8192 34.6668 1681.40 1779.30 42.80
8193 34.6706 1716.20 1773.36 43.10
8194 34.6743 1646.90 1767.70 42.90
8195 34.6781 1665.40 1762.30 43.00
8196 34.6819 1738.90 1757.15 43.80
8197 34.6856 1700.00 1752.23 43.10
8198 34.6894 1623.30 1747.53 41.90
8199 34.6931 1682.60 1743.03 42.80
8200 34.6969 1689.40 1738.73 43.00
8201 34.7007 1687.90 1734.61 43.00
8202 34.7044 1622.90 1730.66 42.30
8203 34.7082 1667.70 1726.87 42.70
8204 34.7119 1650.50 1723.24 42.70
8205 34.7157 1641.50 1719.74 42.60
8206 34.7195 1608.00 1716.39 42.30
8207 34.7232 1657.80 1713.16 42.80
8208 34.7270 1611.90 1710.06 41.90
8209 34.7307 1607.30 1707.08 41.80
8210 34.7345 1596.40 1704.20 41.60
8211 34.7383 1555.40 1701.43 41.60
8212 34.7420 1592.30 1698.76 42.20
8213 34.7458 1605.30 1696.18 42.30
8214 34.7495 1673.20 1693.69 42.60
8215 34.7533 1639.00 1691.29 42.50
8216 34.7571 1623.30 1688.97 42.00
8217 34.7608 1612.80 1686.73 41.90
8218 34.7646 1617.50 1684.56 42.00
8219 34.7683 1605.30 1597.83 42.30
8220 34.7721 1645.50 1597.72 42.70
8221 34.7759 1617.90 1597.61 42.20
8222 34.7796 1662.20 1597.50 42.50
8223 34.7834 1565.20 1597.39 41.50
8224 34.7871 1574.40 1597.28 41.40
8225 34.7909 1608.00 1597.17 42.40
8226 34.7947 1575.80 1597.06 41.60
8227 34.7984 1570.90 1596.95 40.60
8228 34.8022 1565.50 1596.84 41.10
8229 34.8059 1529.80 1596.73 40.80
8230 34.8097 1541.60 1596.62 41.10
8231 34.8135 1573.70 1596.51 41.70
8232 34.8172 1560.30 1596.39 41.50
8233 34.8210 1606.70 1596.28 41.60
8234 34.8247 1497.20 1596.17 40.30
8235 34.8285 1634.00 1596.06 42.50
8236 34.8323 1500.20 1595.95 41.10
8237 34.8360 1541.10 1595.84 40.40
8238 34.8398 1544.70 1595.73 41.20
8239 34.8435 1538.80 1595.62 40.90
8240 34.8473 1544.90 1595.51 41.50
8241 34.8511 1571.80 1595.40 41.50
8242 34.8548 1494.10 1595.28 40.60
8243 34.8586 1636.60 1595.17 42.60
8244 34.8623 1488.60 1595.06 41.00
8245 34.8661 1515.60 1594.95 40.90
8246 34.8699 1476.50 1594.84 40.40
8247 34.8736 1573.20 1594.73 42.20
8248 34.8774 1565.70 1594.62 41.50
8249 34.8811 1521.30 1594.50 40.10
8250 34.8849 1536.80 1594.39 41.00
8251 34.8887 1508.40 1594.28 40.70
8252 34.8924 1494.20 1594.17 40.30
8253 34.8962 1548.70 1594.06 41.40
8254 34.8999 1511.10 1593.95 40.90
8255 34.9037 1576.10 1593.83 41.10
8256 34.9075 1475.20 1593.72 40.30
8257 34.9112 1521.30 1593.61 41.00
8258 34.9150 1451.80 1593.50 40.00
8259 34.9187 1584.90 1593.39 42.00
8260 34.9225 1579.20 1593.27 41.50
8261 34.9263 1567.60 1593.16 41.60
8262 34.9300 1444.40 1593.05 39.60
8263 34.9338 1568.40 1592.94 41.20
8264 34.9375 1497.80 1592.82 40.50
8265 34.9413 1490.60 1592.71 40.40
8266 34.9451 1542.40 1592.60 41.20
8267 34.9488 1540.40 1592.49 40.40
8268 34.9526 1572.60 1592.37 41.80
8269 34.9563 1531.20 1592.26 41.00
8270 34.9601 1536.80 1592.15 41.30
8271 34.9639 1597.30 1592.04 42.10
8272 34.9676 1519.50 1591.92 40.70
8273 34.9714 1561.80 1591.81 41.30
8274 34.9751 1515.60 1591.70 40.90
8275 34.9789 1569.60 1591.59 41.60
8276 34.9827 1496.70 1591.47 40.70
8277 34.9864 1514.20 1591.36 40.90
8278 34.9902 1470.70 1591.25 40.60
8279 34.9939 1473.30 1591.13 40.40
8280 34.9977 1509.30 1591.02 40.90
8281 35.0015 1547.20 1590.91 41.80
8282 35.0052 1496.80 1590.79 40.40
8283 35.0090 1538.20 1590.68 41.10
8284 35.0127 1451.10 1590.57 39.90
8285 35.0165 1554.40 1590.45 41.80
8286 35.0203 1438.20 1590.34 40.00
8287 35.0240 1565.70 1590.23 41.60
8288 35.0278 1493.30 1590.11 40.90
8289 35.0315 1553.00 1590.00 41.40
8290 35.0353 1514.90 1589.89 40.70
8291 35.0391 1595.50 1589.77 42.60
8292 35.0428 1471.30 1589.66 40.70
8293 35.0466 1479.90 1589.55 40.50
8294 35.0503 1490.10 1589.43 40.60
8295 35.0541 1516.80 1589.32 40.80
8296 35.0578 1519.50 1589.21 41.30
8297 35.0616 1486.30 1589.09 40.70
8298 35.0654 1518.90 1588.98 41.20
8299 35.0691 1523.20 1588.86 41.10
8300 35.0729 1532.70 1588.75 40.80
8301 35.0766 1550.50 1588.64 41.30
8302 35.0804 1464.20 1588.52 40.40
8303 35.0842 1548.10 1588.41 40.80
8304 35.0879 1494.50 1588.29 40.90
8305 35.0917 1534.90 1588.18 41.30
8306 35.0955 1606.70 1588.06 42.40
8307 35.0992 1522.90 1587.95 40.90
8308 35.1030 1538.80 1587.84 40.70
8309 35.1067 1571.90 1587.72 41.20
8310 35.1105 1517.10 1587.61 40.80
8311 35.1143 1442.40 1587.49 39.30
8312 35.1180 1498.30 1587.38 40.60
8313 35.1218 1557.20 1587.26 41.30
8314 35.1255 1510.20 1587.15 40.30
8315 35.1293 1509.60 1587.03 41.00
8316 35.1330 1508.50 1586.92 41.00
8317 35.1368 1513.80 1586.80 40.40
8318 35.1406 1431.50 1586.69 39.80
8319 35.1443 1526.70 1586.58 41.10
8320 35.1481 1513.20 1586.46 40.80
8321 35.1519 1578.10 1586.35 41.90
8322 35.1556 1496.60 1586.23 40.50
8323 35.1594 1529.10 1586.12 40.90
8324 35.1631 1575.40 1586.00 42.10
8325 35.1669 1534.10 1585.89 40.50
8326 35.1707 1544.20 1585.77 41.40
8327 35.1744 1579.60 1585.66 41.70
8328 35.1782 1478.30 1585.54 40.30
8329 35.1819 1518.40 1585.42 40.60
8330 35.1857 1510.50 1585.31 40.80
8331 35.1894 1532.40 1585.19 40.80
8332 35.1932 1472.00 1585.08 40.00
8333 35.1970 1531.20 1584.96 41.30
8334 35.2007 1488.90 1584.85 40.00
8335 35.2045 1532.40 1584.73 41.50
8336 35.2082 1510.40 1584.62 41.10
8337 35.2120 1538.50 1584.50 40.70
8338 35.2158 1413.50 1584.38 39.30
8339 35.2195 1488.80 1584.27 40.60
8340 35.2233 1458.00 1584.15 39.90
8341 35.2270 1521.00 1584.04 40.60
8342 35.2308 1428.10 1583.92 39.50
8343 35.2346 1531.90 1583.81 41.30
8344 35.2383 1450.20 1583.69 39.90
8345 35.2421 1556.10 1583.57 41.30
8346 35.2458 1489.40 1583.46 40.60
8347 35.2496 1563.90 1583.34 41.10
8348 35.2534 1504.30 1583.23 41.00
8349 35.2571 1544.20 1583.11 41.00
8350 35.2609 1488.70 1582.99 40.70
8351 35.2646 1503.70 1582.88 40.70
8352 35.2684 1511.60 1582.76 41.00
8353 35.2721 1432.50 1582.64 39.80
8354 35.2759 1448.30 1582.53 40.00
8355 35.2797 1463.30 1582.41 40.40
8356 35.2834 1585.50 1582.29 42.00
8357 35.2872 1548.40 1582.18 42.00
8358 35.2910 1471.80 1582.06 40.50
8359 35.2947 1491.80 1581.94 40.70
8360 35.2985 1521.00 1581.83 41.20
8361 35.3022 1579.30 1581.71 41.80
8362 35.3060 1461.10 1581.59 40.20
8363 35.3097 1537.50 1581.48 41.00
8364 35.3135 1491.90 1581.36 40.20
8365 35.3173 1569.50 1581.24 41.90
8366 35.3210 1520.60 1581.13 41.20
8367 35.3248 1453.60 1581.01 40.20
8368 35.3285 1511.30 1580.89 40.30
8369 35.3323 1519.90 1580.78 40.30
8370 35.3361 1487.10 1580.66 41.10
8371 35.3398 1505.20 1580.54 40.50
8372 35.3436 1490.10 1580.42 40.80
8373 35.3473 1580.10 1580.31 41.70
8374 35.3511 1483.70 1580.19 41.00
8375 35.3549 1503.20 1580.07 41.00
8376 35.3586 1456.40 1579.96 40.30
8377 35.3624 1503.70 1579.84 40.50
8378 35.3661 1473.00 1579.72 40.50
8379 35.3699 1588.90 1579.60 42.10
8380 35.3737 1441.20 1579.49 39.00
8381 35.3774 1540.30 1579.37 41.20
8382 35.3812 1514.10 1579.25 41.20
8383 35.3849 1506.60 1579.13 40.70
8384 35.3887 1509.30 1579.01 40.90
8385 35.3925 1499.80 1578.90 40.80
8386 35.3962 1492.10 1578.78 41.30
8387 35.4000 1500.30 1578.66 40.90
8388 35.4037 1461.50 1578.54 40.60
8389 35.4075 1453.90 1578.43 40.80
8390 35.4113 1495.00 1578.31 41.10
8391 35.4150 1582.00 1578.19 42.00
8392 35.4188 1497.10 1578.07 41.10
8393 35.4225 1473.60 1577.95 40.60
8394 35.4263 1508.10 1577.84 41.10
8395 35.4300 1591.20 1577.72 42.50
8396 35.4338 1483.50 1577.60 40.60
8397 35.4376 1521.90 1577.48 41.10
8398 35.4413 1465.50 1577.36 40.20
8399 35.4451 1538.10 1577.24 41.60
8400 35.4488 1563.60 1577.13 41.70
8401 35.4526 1618.80 1577.01 42.90
8402 35.4564 1520.50 1576.89 41.00
8403 35.4601 1496.60 1576.77 41.50
8404 35.4639 1538.70 1576.65 41.50
8405 35.4676 1474.20 1576.53 40.70
8406 35.4714 1556.30 1576.41 42.20
8407 35.4752 1562.70 1576.30 41.70
8408 35.4789 1445.30 1576.18 39.80
8409 35.4827 1483.60 1576.06 40.90
8410 35.4864 1477.10 1575.94 40.40
8411 35.4902 1642.40 1575.82 43.20
8412 35.4940 1480.20 1575.70 40.60
8413 35.4977 1531.20 1575.58 41.60
8414 35.5015 1488.90 1575.46 41.20
8415 35.5052 1576.00 1575.35 42.00
8416 35.5090 1436.60 1575.23 39.70
8417 35.5127 1547.30 1575.11 41.90
8418 35.5165 1458.10 1574.99 40.30
8419 35.5203 1528.50 1574.87 41.40
8420 35.5240 1524.70 1574.75 41.20
8421 35.5278 1511.50 1574.63 41.00
8422 35.5316 1526.70 1574.51 41.10
8423 35.5353 1472.70 1574.39 40.60
8424 35.5391 1499.30 1574.27 41.80
8425 35.5428 1472.80 1574.15 41.00
8426 35.5466 1522.50 1574.03 41.70
8427 35.5503 1481.70 1573.91 41.30
8428 35.5541 1468.20 1573.79 40.60
8429 35.5579 1497.60 1573.67 40.80
8430 35.5616 1558.70 1573.56 41.90
8431 35.5654 1635.40 1573.44 42.80
8432 35.5691 1539.10 1573.32 41.40
8433 35.5729 1515.50 1573.20 40.80
8434 35.5767 1528.60 1573.08 40.50
8435 35.5804 1566.60 1572.96 41.10
8436 35.5842 1468.40 1572.84 39.70
8437 35.5879 1555.20 1572.72 40.90
8438 35.5917 1489.70 1572.60 40.30
8439 35.5955 1518.30 1572.48 40.30
8440 35.5992 1449.10 1572.36 39.50
8441 35.6030 1501.00 1572.24 40.50
8442 35.6067 1496.30 1572.12 40.30
8443 35.6105 1503.50 1572.00 40.60
8444 35.6143 1536.10 1571.88 41.00
8445 35.6180 1534.10 1571.76 40.80
8446 35.6218 1456.40 1571.64 40.00
8447 35.6255 1455.50 1571.52 39.90
8448 35.6293 1473.30 1571.40 40.30
8449 35.6330 1489.10 1571.27 40.30
8450 35.6368 1440.80 1571.15 40.00
8451 35.6406 1519.60 1571.03 40.70
8452 35.6443 1399.50 1570.91 39.20
8453 35.6481 1567.50 1570.79 41.30
8454 35.6518 1483.20 1570.67 40.30
8455 35.6556 1471.60 1570.55 40.10
8456 35.6594 1376.60 1570.43 38.70
8457 35.6631 1545.90 1570.31 41.10
8458 35.6669 1443.20 1570.19 39.70
8459 35.6706 1505.80 1570.07 40.40
8460 35.6744 1470.20 1569.95 40.50
8461 35.6781 1550.30 1569.83 41.30
8462 35.6819 1434.80 1569.71 39.00
8463 35.6857 1475.10 1569.59 39.90
8464 35.6894 1361.00 1569.46 38.40
8465 35.6932 1530.50 1569.34 41.10
8466 35.6969 1446.60 1569.22 39.90
8467 35.7007 1532.00 1569.10 41.10
8468 35.7045 1530.40 1568.98 41.00
8469 35.7082 1515.90 1568.86 40.50
8470 35.7120 1522.60 1568.74 41.20
8471 35.7157 1510.50 1568.62 40.60
8472 35.7195 1456.30 1568.49 39.50
8473 35.7233 1467.50 1568.37 40.20
8474 35.7270 1487.40 1568.25 40.20
8475 35.7308 1541.60 1568.13 41.40
8476 35.7345 1516.60 1568.01 41.10
8477 35.7383 1474.60 1567.89 40.40
8478 35.7420 1456.50 1567.77 40.20
8479 35.7458 1507.60 1567.64 40.60
8480 35.7496 1416.00 1567.52 39.70
8481 35.7533 1552.80 1567.40 41.20
8482 35.7571 1505.90 1567.28 40.50
8483 35.7608 1567.30 1567.16 41.60
8484 35.7646 1391.10 1567.04 39.10
8485 35.7683 1498.70 1566.91 40.50
8486 35.7721 1379.00 1566.79 38.70
8487 35.7759 1586.00 1566.67 42.20
8488 35.7796 1450.70 1566.55 39.70
8489 35.7834 1498.00 1566.43 41.00
8490 35.7871 1442.20 1566.30 40.10
8491 35.7909 1547.90 1566.18 41.00
8492 35.7947 1495.40 1566.06 40.50
8493 35.7984 1521.90 1565.94 40.90
8494 35.8022 1452.90 1565.82 39.70
8495 35.8059 1499.10 1565.69 41.00
8496 35.8097 1459.30 1565.57 40.00
8497 35.8134 1543.30 1565.45 41.20
8498 35.8172 1464.70 1565.33 40.50
8499 35.8210 1583.60 1565.21 42.10
8500 35.8247 1409.70 1565.08 39.60
8501 35.8285 1456.90 1564.96 40.00
8502 35.8322 1532.90 1564.84 41.60
8503 35.8360 1488.50 1564.72 40.40
8504 35.8398 1545.20 1564.59 41.50
8505 35.8435 1520.50 1564.47 41.40
8506 35.8473 1550.60 1564.35 41.80
8507 35.8510 1512.20 1564.23 41.10
8508 35.8548 1466.30 1564.10 40.30
8509 35.8586 1557.80 1563.98 40.90
8510 35.8623 1547.50 1563.86 41.40
8511 35.8661 1482.80 1563.73 39.60
8512 35.8698 1456.90 1563.61 39.80
8513 35.8736 1458.30 1563.49 40.30
8514 35.8773 1458.00 1563.37 40.10
8515 35.8811 1567.40 1563.24 41.40
8516 35.8849 1494.70 1563.12 40.60
8517 35.8886 1539.90 1563.00 41.50
8518 35.8924 1413.40 1562.87 39.70
8519 35.8961 1532.60 1562.75 41.20
8520 35.8999 1511.30 1562.63 41.20
8521 35.9036 1478.80 1562.50 40.20
8522 35.9074 1502.60 1562.38 41.00
8523 35.9112 1500.30 1562.26 40.90
8524 35.9149 1501.30 1562.13 39.70
8525 35.9187 1578.50 1562.01 42.30
8526 35.9224 1454.40 1561.89 40.40
8527 35.9262 1604.20 1561.76 41.80
8528 35.9300 1519.10 1561.64 41.40
8529 35.9337 1548.40 1561.52 41.70
8530 35.9375 1505.30 1561.39 41.00
8531 35.9412 1465.60 1561.27 40.00
8532 35.9450 1484.10 1561.15 40.70
8533 35.9487 1543.00 1561.02 41.60
8534 35.9525 1507.60 1560.90 40.90
8535 35.9563 1454.60 1560.78 40.60
8536 35.9600 1469.50 1560.65 40.10
8537 35.9638 1449.00 1560.53 39.90
8538 35.9675 1472.90 1560.41 40.70
8539 35.9713 1561.80 1560.28 41.30
8540 35.9751 1465.90 1560.16 39.50
8541 35.9788 1569.90 1560.03 41.90
8542 35.9826 1547.30 1559.91 42.10
8543 35.9863 1447.40 1559.79 40.20
8544 35.9901 1497.50 1559.66 40.80
8545 35.9938 1497.00 1559.54 41.00
8546 35.9976 1516.70 1559.41 41.30
8547 36.0014 1550.80 1559.29 41.10
8548 36.0051 1509.30 1559.17 40.70
8549 36.0089 1513.20 1559.04 41.00
8550 36.0126 1487.80 1558.92 41.10
8551 36.0164 1505.70 1558.79 41.10
8552 36.0201 1502.80 1558.67 40.70
8553 36.0239 1581.00 1558.54 42.10
8554 36.0277 1501.80 1558.42 40.80
8555 36.0314 1445.40 1558.30 40.20
8556 36.0352 1531.70 1558.17 41.40
8557 36.0389 1482.40 1558.05 39.80
8558 36.0427 1469.50 1557.92 40.30
8559 36.0465 1470.50 1557.80 40.20
8560 36.0502 1529.10 1557.67 41.70
8561 36.0540 1514.90 1557.55 40.50
8562 36.0577 1523.80 1557.42 40.40
8563 36.0615 1477.50 1557.30 40.00
8564 36.0652 1427.20 1557.17 39.10
8565 36.0690 1523.60 1557.05 40.20
8566 36.0728 1567.30 1556.93 41.30
8567 36.0765 1473.10 1556.80 40.10
8568 36.0803 1557.70 1556.68 41.10
8569 36.0840 1424.00 1556.55 39.40
8570 36.0878 1428.60 1556.43 39.50
8571 36.0915 1534.20 1556.30 40.30
8572 36.0953 1489.40 1556.18 40.20
8573 36.0991 1527.30 1556.05 40.30
8574 36.1028 1461.30 1555.93 39.80
8575 36.1066 1516.90 1555.80 40.30
8576 36.1103 1497.50 1555.68 40.10
8577 36.1141 1495.50 1555.55 39.90
8578 36.1178 1470.10 1555.43 39.80
8579 36.1216 1431.00 1555.30 39.50
8580 36.1254 1517.90 1555.17 40.30
8581 36.1291 1457.20 1555.05 39.40
8582 36.1329 1510.00 1554.92 39.90
8583 36.1366 1536.40 1554.80 40.30
8584 36.1404 1467.40 1554.67 39.90
8585 36.1441 1518.20 1554.55 40.60
8586 36.1479 1509.80 1554.42 40.30
8587 36.1517 1515.10 1554.30 40.40
8588 36.1554 1468.30 1554.17 40.30
8589 36.1592 1517.10 1554.05 40.60
8590 36.1629 1435.40 1553.92 39.40
8591 36.1667 1576.90 1553.79 41.40
8592 36.1704 1529.10 1553.67 40.50
8593 36.1742 1533.80 1553.54 40.90
8594 36.1780 1478.80 1553.42 40.10
8595 36.1817 1548.70 1553.29 41.40
8596 36.1855 1431.10 1553.17 39.60
8597 36.1892 1452.50 1553.04 39.40
8598 36.1930 1458.10 1552.91 39.70
8599 36.1968 1529.90 1552.79 40.80
8600 36.2005 1507.90 1552.66 40.50
8601 36.2043 1496.90 1552.54 40.50
8602 36.2080 1426.50 1552.41 39.60
8603 36.2118 1515.00 1552.29 40.50
8604 36.2155 1439.50 1552.16 39.50
8605 36.2193 1449.10 1552.03 39.80
8606 36.2230 1517.50 1551.91 40.50
8607 36.2268 1464.30 1551.78 39.90
8608 36.2306 1518.40 1551.65 40.80
8609 36.2343 1552.40 1551.53 40.70
8610 36.2381 1517.10 1551.40 40.50
8611 36.2418 1487.20 1551.28 40.20
8612 36.2456 1483.20 1551.15 40.10
8613 36.2493 1513.30 1551.02 40.70
8614 36.2531 1453.70 1550.90 39.50
8615 36.2569 1490.00 1550.77 40.10
8616 36.2606 1405.00 1550.64 38.80
8617 36.2644 1552.40 1550.52 41.20
8618 36.2681 1449.80 1550.39 39.30
8619 36.2719 1424.00 1550.26 39.00
8620 36.2756 1523.00 1551.22 40.50
8621 36.2794 1550.90 1551.12 41.00
8622 36.2832 1488.20 1551.01 40.50
8623 36.2869 1528.70 1550.92 41.00
8624 36.2907 1475.90 1550.82 40.00
8625 36.2944 1549.30 1550.72 41.30
8626 36.2982 1440.20 1550.62 39.70
8627 36.3019 1510.10 1550.53 40.60
8628 36.3057 1469.20 1550.43 39.80
8629 36.3094 1455.00 1550.34 39.60
8630 36.3132 1498.80 1550.25 40.40
8631 36.3170 1540.10 1550.16 41.10
8632 36.3207 1471.90 1550.07 40.00
8633 36.3245 1472.80 1549.98 39.80
8634 36.3282 1458.50 1549.89 39.80
8635 36.3320 1512.30 1549.81 40.60
8636 36.3358 1512.50 1549.73 40.40
8637 36.3395 1517.90 1549.64 40.50
8638 36.3433 1491.00 1549.57 39.60
8639 36.3470 1452.30 1549.49 39.30
8640 36.3508 1385.70 1549.41 38.50
8641 36.3545 1523.20 1549.34 40.60
8642 36.3583 1515.20 1549.27 40.50
8643 36.3620 1515.40 1549.20 40.50
8644 36.3658 1494.10 1549.14 40.00
8645 36.3696 1526.90 1549.08 40.80
8646 36.3733 1437.00 1549.02 39.50
8647 36.3771 1522.80 1548.97 40.80
8648 36.3808 1496.90 1548.92 40.30
8649 36.3846 1508.90 1548.87 40.50
8650 36.3883 1435.30 1548.83 39.30
8651 36.3921 1453.40 1548.79 39.90
8652 36.3959 1558.90 1548.75 41.30
8653 36.3996 1491.70 1548.73 40.40
8654 36.4034 1454.10 1548.70 39.70
8655 36.4071 1531.40 1548.69 40.90
8656 36.4109 1446.00 1548.68 40.10
8657 36.4146 1601.40 1548.67 41.60
8658 36.4184 1438.10 1548.68 39.40
8659 36.4221 1515.50 1548.69 40.50
8660 36.4259 1484.60 1548.71 39.90
8661 36.4297 1561.50 1548.74 41.40
8662 36.4334 1561.50 1548.78 41.40
8663 36.4372 1521.80 1548.84 40.70
8664 36.4409 1505.60 1548.90 40.80
8665 36.4447 1526.10 1548.98 40.80
8666 36.4484 1507.30 1549.08 40.30
8667 36.4522 1458.90 1549.19 40.00
8668 36.4560 1458.40 1549.32 39.80
8669 36.4597 1515.90 1549.47 40.50
8670 36.4635 1396.00 1549.64 38.80
8671 36.4672 1519.10 1549.84 40.90
8672 36.4710 1453.40 1550.06 39.50
8673 36.4747 1489.60 1550.32 40.10
8674 36.4785 1402.70 1550.61 38.70
8675 36.4823 1480.80 1550.94 39.10
8676 36.4860 1539.60 1551.31 40.50
8677 36.4898 1576.40 1551.73 41.60
8678 36.4935 1540.80 1552.21 40.70
8679 36.4973 1610.80 1552.75 41.30
8680 36.5010 1484.10 1553.37 39.90
8681 36.5048 1463.60 1554.07 39.60
8682 36.5085 1530.20 1554.88 41.10
8683 36.5123 1564.70 1555.79 41.40
8684 36.5160 1553.70 1556.84 41.20
8685 36.5198 1528.80 1558.05 40.60
8686 36.5236 1416.30 1559.44 39.00
8687 36.5273 1465.20 1561.06 39.70
8688 36.5311 1470.50 1562.94 40.00
8689 36.5348 1598.50 1565.16 42.10
8690 36.5386 1477.10 1567.77 40.10
8691 36.5423 1533.50 1570.89 40.80
8692 36.5461 1503.20 1574.63 40.30
8693 36.5499 1587.30 1579.15 41.50
8694 36.5536 1479.50 1584.70 40.30
8695 36.5574 1533.10 1591.57 40.80
8696 36.5611 1558.20 1600.25 41.60
8697 36.5649 1529.50 1611.42 40.20
8698 36.5686 1598.30 1626.21 41.50
8699 36.5724 1673.60 1647.03 42.80
8700 36.5761 1642.80 1678.65 42.30
8701 36.5799 1756.00 1731.16 43.70
8702 36.5836 1787.10 1821.37 43.60
8703 36.5874 2081.00 1973.37 48.70
8704 36.5912 2173.40 2208.38 49.40
8705 36.5949 2510.60 2529.45 53.40
8706 36.5987 2848.00 2884.90 57.00
8707 36.6024 3178.60 3131.47 60.20
8708 36.6062 3193.10 3092.69 59.30
8709 36.6099 2986.10 2801.79 57.50
8710 36.6137 2607.70 2444.52 54.00
8711 36.6175 2260.00 2142.72 50.10
8712 36.6212 1872.20 1928.14 45.80
8713 36.6250 1798.30 1793.40 44.10
8714 36.6287 1633.90 1713.97 42.70
8715 36.6325 1642.00 1667.68 42.60
8716 36.6362 1520.60 1638.99 40.60
8717 36.6400 1672.50 1619.73 42.90
8718 36.6437 1547.30 1605.68 41.10
8719 36.6475 1582.20 1594.97 41.10
8720 36.6512 1506.20 1586.51 39.80
8721 36.6550 1530.10 1579.72 40.90
8722 36.6588 1522.70 1574.20 41.30
8723 36.6625 1538.50 1569.62 41.30
8724 36.6663 1527.40 1565.79 41.20
8725 36.6700 1529.80 1562.56 41.00
8726 36.6738 1539.30 1559.78 40.80
8727 36.6775 1529.20 1557.39 41.20
8728 36.6813 1489.50 1555.32 40.00
8729 36.6851 1489.60 1553.50 40.20
8730 36.6888 1483.10 1551.90 40.20
8731 36.6926 1534.20 1550.47 41.00
8732 36.6963 1512.10 1549.20 40.60
8733 36.7001 1544.50 1548.06 41.10
8734 36.7038 1518.90 1547.02 40.80
8735 36.7076 1532.40 1546.08 40.80
8736 36.7113 1515.60 1545.23 40.60
8737 36.7151 1564.90 1544.44 40.30
8738 36.7188 1506.20 1543.72 40.20
8739 36.7226 1471.10 1543.05 39.20
8740 36.7263 1469.40 1542.43 39.70
8741 36.7301 1548.00 1541.85 41.30
8742 36.7339 1546.10 1541.31 41.00
8743 36.7376 1551.60 1540.80 41.30
8744 36.7414 1518.10 1540.33 40.40
8745 36.7451 1430.60 1539.88 39.20
8746 36.7489 1520.00 1539.45 40.40
8747 36.7526 1535.50 1539.05 40.80
8748 36.7564 1523.50 1538.67 39.90
8749 36.7601 1464.10 1538.30 39.50
8750 36.7639 1503.00 1537.95 40.00
8751 36.7677 1627.50 1537.62 42.40
8752 36.7714 1472.50 1537.30 40.20
8753 36.7752 1504.80 1536.99 40.90
8754 36.7789 1482.80 1536.69 40.00
8755 36.7827 1499.80 1536.41 40.50
8756 36.7864 1506.70 1536.13 40.30
8757 36.7902 1535.40 1535.86 40.60
8758 36.7939 1469.00 1535.60 40.30
8759 36.7977 1511.90 1535.34 40.60
8760 36.8014 1472.70 1535.10 39.90
8761 36.8052 1478.40 1534.86 39.90
8762 36.8090 1447.00 1534.62 39.70
8763 36.8127 1539.90 1534.40 41.10
8764 36.8165 1419.40 1534.17 39.30
8765 36.8202 1584.50 1533.95 41.40
8766 36.8240 1499.80 1533.74 40.10
8767 36.8277 1509.00 1533.53 40.70
8768 36.8315 1508.00 1533.32 40.20
8769 36.8352 1509.20 1533.12 40.50
8770 36.8390 1405.50 1532.92 38.90
8771 36.8427 1511.50 1532.72 40.90
8772 36.8465 1495.00 1532.53 40.50
8773 36.8503 1486.10 1532.34 40.00
8774 36.8540 1401.30 1532.15 39.10
8775 36.8578 1517.60 1531.97 40.40
8776 36.8615 1466.20 1531.78 40.00
8777 36.8653 1460.10 1531.60 39.60
8778 36.8690 1469.80 1531.42 39.70
8779 36.8728 1456.40 1531.25 39.70
8780 36.8765 1490.20 1531.07 40.20
8781 36.8803 1427.20 1530.90 39.20
8782 36.8840 1451.20 1530.73 39.60
8783 36.8878 1527.40 1530.56 41.00
8784 36.8915 1518.20 1530.39 40.80
8785 36.8953 1425.10 1530.22 39.50
8786 36.8991 1459.40 1530.06 39.70
8787 36.9028 1459.30 1529.89 40.10
8788 36.9066 1494.30 1529.73 39.80
8789 36.9103 1533.70 1529.57 40.80
8790 36.9141 1379.60 1529.41 38.40
8791 36.9178 1507.30 1529.25 40.50
8792 36.9216 1431.20 1529.09 39.40
8793 36.9253 1522.80 1528.93 40.50
8794 36.9291 1481.60 1528.77 40.10
8795 36.9328 1458.90 1527.54 39.50
8796 36.9366 1497.20 1527.41 40.40
8797 36.9403 1512.60 1527.28 40.40
8798 36.9441 1527.60 1527.15 40.80
8799 36.9479 1450.00 1527.02 39.90
8800 36.9516 1436.90 1526.88 39.60
8801 36.9554 1536.90 1526.75 40.70
8802 36.9591 1467.50 1526.62 40.40
8803 36.9629 1509.40 1526.49 40.40
8804 36.9666 1459.80 1526.36 39.70
8805 36.9704 1493.20 1526.23 39.50
8806 36.9741 1486.80 1526.09 40.20
8807 36.9779 1536.20 1525.96 41.00
8808 36.9816 1476.40 1525.83 40.30
8809 36.9854 1495.30 1525.70 40.30
8810 36.9892 1457.30 1525.57 39.80
8811 36.9929 1508.20 1525.44 40.30
8812 36.9960 1562.10 1525.33 41.00
8813 36.9998 1550.40 1525.19 40.80
8814 37.0035 1402.60 1525.06 39.20
8815 37.0073 1543.60 1524.93 41.10
8816 37.0111 1431.50 1524.80 39.50
8817 37.0148 1508.90 1524.67 40.30
8818 37.0186 1416.30 1524.53 39.00
8819 37.0223 1571.40 1524.40 41.20
8820 37.0261 1457.50 1524.27 39.80
8821 37.0298 1548.80 1524.14 41.40
8822 37.0336 1401.20 1524.01 39.00
8823 37.0373 1451.50 1523.87 39.70
8824 37.0411 1467.50 1523.74 39.80
8825 37.0448 1549.50 1523.61 41.00
8826 37.0486 1391.80 1523.48 39.00
8827 37.0524 1484.20 1523.35 40.20
8828 37.0561 1529.70 1523.21 41.20
8829 37.0599 1441.30 1523.08 39.00
8830 37.0636 1448.20 1522.95 39.40
8831 37.0674 1537.20 1522.82 41.00
8832 37.0711 1538.90 1522.68 40.90
8833 37.0749 1488.50 1522.55 40.10
8834 37.0787 1477.90 1522.42 39.50
8835 37.0824 1515.30 1522.29 41.30
8836 37.0862 1434.70 1522.16 39.80
8837 37.0899 1565.10 1522.02 41.70
8838 37.0937 1463.10 1521.89 40.20
8839 37.0974 1480.70 1521.76 40.30
8840 37.1012 1515.60 1521.63 40.10
8841 37.1049 1519.10 1521.49 40.30
8842 37.1087 1463.30 1521.36 39.90
8843 37.1124 1521.70 1521.23 40.70
8844 37.1162 1509.80 1521.10 41.00
8845 37.1200 1474.10 1520.96 39.70
8846 37.1237 1475.40 1520.83 40.50
8847 37.1275 1464.30 1520.70 40.10
8848 37.1312 1464.00 1520.57 39.80
8849 37.1350 1478.50 1520.43 40.20
8850 37.1387 1449.30 1520.30 39.70
8851 37.1425 1505.00 1520.17 40.00
8852 37.1463 1498.50 1520.03 39.70
8853 37.1500 1540.10 1519.90 41.10
8854 37.1538 1486.60 1519.77 40.80
8855 37.1575 1453.90 1519.64 40.10
8856 37.1613 1463.20 1519.50 40.30
8857 37.1650 1452.20 1519.37 39.90
8858 37.1688 1471.70 1519.24 39.90
8859 37.1725 1527.10 1519.10 41.10
8860 37.1763 1428.30 1518.97 39.10
8861 37.1800 1495.60 1518.84 40.30
8862 37.1838 1480.10 1518.71 40.20
8863 37.1876 1496.90 1518.57 40.50
8864 37.1913 1412.00 1518.44 39.20
8865 37.1951 1468.40 1518.31 40.00
8866 37.1988 1377.90 1518.17 38.80
8867 37.2026 1471.60 1518.04 39.90
8868 37.2063 1535.60 1517.91 40.90
8869 37.2101 1570.70 1517.78 40.40
8870 37.2138 1527.90 1517.64 40.50
8871 37.2176 1464.40 1517.51 39.10
8872 37.2214 1437.80 1517.38 39.30
8873 37.2216 1491.70 1517.37 39.90
8874 37.2253 1493.00 1517.24 39.10
8875 37.2291 1501.40 1517.10 39.70
8876 37.2328 1486.00 1516.97 39.30
8877 37.2366 1436.80 1516.84 38.90
8878 37.2403 1565.40 1516.70 40.70
8879 37.2441 1473.70 1516.57 39.20
8880 37.2478 1488.40 1516.44 39.50
8881 37.2516 1483.60 1516.30 39.50
8882 37.2553 1520.70 1516.17 40.10
8883 37.2591 1536.70 1516.04 40.40
8884 37.2629 1433.30 1515.90 39.00
8885 37.2666 1428.10 1515.77 39.10
8886 37.2704 1561.40 1515.64 40.60
8887 37.2741 1430.50 1515.50 38.90
8888 37.2779 1547.00 1515.37 40.50
8889 37.2816 1444.30 1515.24 39.10
8890 37.2854 1495.00 1515.10 39.90
8891 37.2891 1400.00 1514.97 38.10
8892 37.2929 1490.60 1514.84 39.10
8893 37.2966 1519.40 1514.70 40.40
8894 37.3004 1381.90 1514.57 38.10
8895 37.3041 1471.50 1514.44 39.40
8896 37.3079 1546.50 1514.30 40.50
8897 37.3116 1472.00 1514.17 39.20
8898 37.3154 1450.60 1514.04 38.90
8899 37.3191 1397.70 1513.90 38.90
8900 37.3229 1489.30 1513.77 40.10
8901 37.3267 1419.40 1513.64 38.80
8902 37.3304 1526.40 1513.50 40.10
8903 37.3342 1424.20 1513.37 38.60
8904 37.3379 1487.60 1513.23 39.90
8905 37.3417 1458.70 1513.10 39.30
8906 37.3454 1452.40 1512.97 39.20
8907 37.3492 1472.60 1512.83 39.50
8908 37.3529 1541.70 1512.70 40.50
8909 37.3567 1440.80 1512.57 39.10
8910 37.3605 1558.80 1512.43 40.80
8911 37.3642 1435.50 1512.30 38.90
8912 37.3680 1536.10 1512.16 40.50
8913 37.3717 1447.80 1512.03 39.30
8914 37.3755 1490.10 1511.90 39.90
8915 37.3792 1470.90 1511.76 38.90
8916 37.3830 1470.10 1511.63 39.20
8917 37.3867 1480.30 1511.50 39.50
8918 37.3905 1509.30 1511.36 39.50
8919 37.3942 1483.10 1511.23 39.60
8920 37.3980 1444.80 1511.09 38.80
8921 37.4017 1508.30 1510.96 40.10
8922 37.4055 1427.50 1510.83 38.80
8923 37.4092 1473.10 1510.69 39.50
8924 37.4130 1471.30 1510.56 38.60
8925 37.4168 1502.20 1510.42 40.00
8926 37.4205 1482.90 1510.29 39.80
8927 37.4243 1532.60 1510.16 40.40
8928 37.4280 1496.60 1510.02 39.30
8929 37.4318 1454.00 1509.89 38.90
8930 37.4355 1470.40 1509.75 39.40
8931 37.4393 1483.40 1509.62 39.40
8932 37.4430 1558.80 1509.49 40.90
8933 37.4468 1454.80 1509.35 39.20
8934 37.4506 1473.20 1509.22 39.40
8935 37.4543 1398.10 1509.08 38.20
8936 37.4581 1404.80 1508.95 38.40
8937 37.4618 1471.90 1508.81 39.20
8938 37.4656 1482.20 1508.68 39.50
8939 37.4693 1394.00 1508.55 38.40
8940 37.4731 1454.80 1508.41 39.00
8941 37.4768 1474.50 1508.28 39.20
8942 37.4806 1475.00 1508.14 39.60
8943 37.4843 1452.80 1508.01 39.20
8944 37.4881 1537.30 1507.87 40.40
8945 37.4919 1421.50 1507.74 38.60
8946 37.4956 1486.30 1507.61 39.70
8947 37.4994 1461.40 1507.47 39.10
8948 37.5031 1486.20 1507.34 39.30
8949 37.5069 1530.60 1507.20 40.40
8950 37.5106 1510.80 1507.07 40.10
8951 37.5144 1389.30 1506.93 37.90
8952 37.5181 1501.00 1506.80 40.10
8953 37.5219 1491.50 1506.66 39.60
8954 37.5257 1522.40 1506.53 39.90
8955 37.5294 1426.50 1506.40 38.30
8956 37.5332 1496.70 1506.26 39.50
8957 37.5369 1414.20 1506.13 38.60
8958 37.5407 1415.10 1505.99 38.50
8959 37.5444 1485.50 1505.86 39.50
8960 37.5482 1493.00 1505.72 39.60
8961 37.5519 1434.40 1505.59 38.70
8962 37.5557 1508.40 1505.45 40.00
8963 37.5594 1395.60 1505.32 38.50
8964 37.5632 1459.40 1505.18 39.80
8965 37.5670 1429.20 1505.05 38.90
8966 37.5707 1477.20 1504.91 39.60
8967 37.5745 1425.20 1504.78 38.60
8968 37.5782 1453.80 1504.65 39.50
8969 37.5820 1489.40 1504.51 39.80
8970 37.5857 1477.20 1504.38 39.60
8971 37.5895 1395.30 1504.24 38.00
8972 37.5932 1503.60 1504.11 39.80
8973 37.5970 1402.50 1503.97 38.70
8974 37.6007 1566.90 1503.84 40.90
8975 37.6045 1418.80 1503.70 38.90
8976 37.6083 1468.40 1503.57 39.50
8977 37.6120 1419.20 1503.43 38.60
8978 37.6158 1496.60 1503.30 39.60
8979 37.6195 1467.80 1503.16 40.00
8980 37.6233 1477.00 1503.03 39.30
8981 37.6270 1505.90 1502.89 39.90
8982 37.6308 1512.10 1502.76 39.40
8983 37.6345 1443.40 1502.62 38.70
8984 37.6383 1540.90 1502.49 40.30
8985 37.6421 1406.00 1502.35 38.60
8986 37.6458 1556.70 1502.22 40.30
8987 37.6496 1458.20 1502.08 39.10
8988 37.6533 1520.70 1501.95 40.10
8989 37.6571 1384.30 1501.81 38.50
8990 37.6608 1442.90 1501.68 39.40
8991 37.6646 1457.40 1501.54 39.50
8992 37.6684 1482.20 1501.41 39.60
8993 37.6721 1466.30 1501.27 39.60
8994 37.6759 1543.60 1501.14 40.40
8995 37.6796 1520.30 1501.00 40.70
8996 37.6834 1496.20 1500.87 39.80
8997 37.6871 1395.40 1500.73 37.60
8998 37.6909 1448.90 1500.60 39.10
8999 37.6946 1452.50 1500.46 39.50
9000 37.6984 1536.80 1500.33 40.70
9001 37.7021 1431.40 1500.19 39.00
9002 37.7059 1532.60 1500.06 40.20
9003 37.7097 1499.90 1499.92 39.70
9004 37.7134 1509.40 1499.79 39.60
9005 37.7172 1436.00 1499.65 38.70
9006 37.7209 1564.30 1499.52 41.30
9007 37.7247 1416.50 1499.38 38.60
9008 37.7284 1525.50 1499.24 40.20
9009 37.7322 1472.00 1499.11 39.50
9010 37.7360 1467.50 1498.97 39.50
9011 37.7397 1497.30 1498.84 39.70
9012 37.7435 1510.10 1498.70 40.00
9013 37.7472 1479.40 1498.57 39.80
9014 37.7510 1467.00 1498.43 38.70
9015 37.7547 1441.30 1498.30 39.30
9016 37.7585 1450.80 1498.16 39.00
9017 37.7622 1418.70 1498.03 39.20
9018 37.7660 1458.50 1497.89 39.40
9019 37.7697 1385.80 1497.76 38.40
9020 37.7735 1427.50 1497.62 38.80
9021 37.7773 1517.90 1497.48 40.30
9022 37.7810 1548.50 1497.35 40.60
9023 37.7848 1459.80 1497.21 39.40
9024 37.7885 1464.40 1497.08 39.50
9025 37.7923 1459.40 1496.94 39.80
9026 37.7960 1501.30 1496.81 40.20
9027 37.7998 1492.00 1496.67 40.20
9028 37.8036 1505.50 1496.54 40.00
9029 37.8073 1473.50 1496.40 39.60
9030 37.8111 1542.10 1496.26 40.50
9031 37.8148 1450.10 1496.13 39.00
9032 37.8186 1488.90 1495.99 40.30
9033 37.8223 1474.00 1495.86 40.00
9034 37.8261 1503.80 1495.72 39.90
9035 37.8298 1449.90 1495.59 39.00
9036 37.8336 1506.00 1495.45 39.80
9037 37.8374 1491.00 1495.32 40.10
9038 37.8411 1532.70 1495.18 40.10
9039 37.8449 1494.50 1495.04 39.90
9040 37.8486 1521.40 1494.91 40.50
9041 37.8524 1498.30 1494.77 40.00
9042 37.8561 1531.40 1494.64 40.80
9043 37.8599 1450.40 1494.50 39.40
9044 37.8637 1570.40 1494.37 41.30
9045 37.8674 1455.00 1494.23 39.30
9046 37.8712 1538.40 1494.09 40.60
9047 37.8749 1411.40 1493.96 39.00
9048 37.8787 1450.70 1493.82 39.20
9049 37.8824 1439.10 1493.69 38.80
9050 37.8862 1430.70 1493.55 38.50
9051 37.8899 1391.40 1493.42 38.30
9052 37.8937 1501.80 1493.28 40.00
9053 37.8975 1491.90 1493.14 39.40
9054 37.9012 1446.50 1493.01 39.30
9055 37.9050 1508.10 1492.87 39.50
9056 37.9087 1509.40 1492.74 40.00
9057 37.9125 1451.60 1492.60 39.20
9058 37.9162 1474.80 1492.46 39.30
9059 37.9200 1483.50 1492.33 40.50
9060 37.9238 1536.00 1492.19 40.90
9061 37.9275 1480.50 1492.06 39.50
9062 37.9313 1498.70 1491.92 39.90
9063 37.9350 1461.90 1491.78 39.50
9064 37.9388 1401.10 1491.65 38.70
9065 37.9426 1443.90 1491.51 39.30
9066 37.9463 1543.60 1491.38 40.60
9067 37.9501 1481.80 1491.24 39.40
9068 37.9538 1468.60 1491.11 38.90
9069 37.9576 1441.80 1490.97 39.10
9070 37.9613 1541.20 1490.83 40.80
9071 37.9651 1458.40 1490.70 39.90
9072 37.9688 1423.70 1490.56 39.20
9073 37.9726 1495.30 1490.43 40.40
9074 37.9764 1503.80 1490.29 40.30
9075 37.9801 1449.10 1490.15 38.80
9076 37.9839 1619.20 1490.02 41.30
9077 37.9876 1492.10 1489.88 40.00
9078 37.9914 1502.70 1489.74 40.20
9079 37.9951 1493.70 1489.61 39.80
9080 37.9989 1461.10 1489.47 39.90
9081 38.0027 1412.20 1489.34 38.90
9082 38.0064 1502.40 1489.20 40.40
9083 38.0102 1511.80 1489.06 40.10
9084 38.0139 1561.50 1488.93 40.40
9085 38.0177 1471.60 1488.79 40.00
9086 38.0214 1494.50 1488.66 39.80
9087 38.0252 1491.90 1488.52 40.40
9088 38.0289 1484.10 1488.38 40.10
9089 38.0327 1431.50 1488.25 39.10
9090 38.0365 1443.60 1488.11 39.50
9091 38.0402 1472.80 1487.98 39.60
9092 38.0440 1517.30 1487.84 39.70
9093 38.0477 1433.70 1487.70 39.20
9094 38.0515 1513.60 1487.57 40.30
9095 38.0552 1414.00 1487.43 39.20
9096 38.0590 1527.90 1487.29 40.20
9097 38.0628 1463.90 1487.16 39.40
9098 38.0665 1475.20 1487.02 40.20
9099 38.0703 1487.10 1486.89 40.00
9100 38.0740 1557.40 1486.75 40.90
9101 38.0778 1494.60 1486.61 40.50
9102 38.0816 1516.30 1486.48 40.60
9103 38.0853 1472.20 1486.34 39.60
9104 38.0891 1489.70 1486.20 40.00
9105 38.0928 1473.40 1486.07 39.40
9106 38.0966 1516.70 1485.93 40.80
9107 38.1003 1496.40 1485.80 40.30
9108 38.1041 1531.30 1485.66 41.00
9109 38.1078 1399.20 1485.52 38.80
9110 38.1116 1491.20 1485.39 39.70
9111 38.1154 1428.90 1485.25 38.60
9112 38.1191 1504.90 1485.11 40.80
9113 38.1229 1501.30 1484.98 40.90
9114 38.1266 1508.00 1484.84 40.20
9115 38.1304 1438.70 1484.70 38.80
9116 38.1342 1581.70 1484.57 41.00
9117 38.1379 1471.00 1484.43 40.00
9118 38.1417 1423.20 1484.30 39.30
9119 38.1454 1429.70 1484.16 39.00
9120 38.1492 1451.50 1484.02 39.40
9121 38.1529 1521.20 1483.89 40.70
9122 38.1567 1519.20 1483.75 40.80
9123 38.1605 1512.50 1483.61 41.40
9124 38.1642 1529.90 1483.48 40.60
9125 38.1680 1548.90 1483.34 41.30
9126 38.1717 1516.10 1483.20 40.20
9127 38.1755 1428.90 1483.07 39.20
9128 38.1792 1556.10 1482.93 41.00
9129 38.1830 1486.50 1482.79 40.00
9130 38.1868 1519.60 1482.66 40.60
9131 38.1905 1486.90 1482.52 40.30
9132 38.1943 1532.60 1482.39 40.40
9133 38.1980 1435.00 1482.25 39.50
9134 38.2018 1573.90 1482.11 41.40
9135 38.2056 1520.60 1481.98 40.50
9136 38.2093 1517.10 1481.84 40.50
9137 38.2131 1481.50 1481.70 39.50
9138 38.2168 1543.90 1481.57 41.00
9139 38.2206 1489.80 1481.43 40.90
9140 38.2243 1517.60 1481.29 40.10
9141 38.2281 1488.30 1481.16 39.90
9142 38.2318 1517.60 1481.02 40.50
9143 38.2356 1484.00 1480.88 40.00
9144 38.2394 1529.00 1480.75 40.60
9145 38.2431 1470.50 1480.61 40.10
9146 38.2469 1419.50 1480.47 39.70
9147 38.2506 1502.10 1480.34 40.40
9148 38.2544 1491.10 1480.20 40.00
9149 38.2581 1515.80 1480.06 40.40
9150 38.2619 1546.50 1479.93 41.10
9151 38.2657 1548.00 1479.79 41.00
9152 38.2694 1491.00 1479.65 40.20
9153 38.2732 1532.90 1479.52 41.00
9154 38.2769 1566.10 1479.38 41.10
9155 38.2807 1533.40 1479.24 40.80
9156 38.2845 1501.60 1479.11 40.60
9157 38.2882 1454.20 1478.97 40.00
9158 38.2920 1516.70 1478.83 40.10
9159 38.2957 1562.70 1478.70 41.00
9160 38.2995 1539.40 1478.56 41.10
9161 38.3032 1519.40 1478.43 40.40
9162 38.3070 1610.40 1478.29 42.00
9163 38.3108 1472.20 1478.15 40.00
9164 38.3145 1570.40 1478.02 40.40
9165 38.3183 1532.50 1477.88 40.70
9166 38.3220 1578.70 1477.74 41.90
9167 38.3258 1597.50 1539.04 41.70
9168 38.3296 1613.50 1540.31 41.10
9169 38.3333 1501.50 1541.62 40.40
9170 38.3371 1544.80 1542.99 41.00
9171 38.3408 1480.50 1544.41 40.60
9172 38.3446 1521.20 1545.88 40.40
9173 38.3484 1576.70 1547.42 41.20
9174 38.3521 1526.30 1549.01 40.40
9175 38.3559 1508.80 1550.67 40.60
9176 38.3596 1641.20 1552.39 42.60
9177 38.3634 1527.50 1554.19 40.60
9178 38.3671 1605.80 1556.07 41.80
9179 38.3709 1528.10 1558.01 41.00
9180 38.3746 1552.90 1560.04 41.40
9181 38.3784 1525.70 1562.17 40.80
9182 38.3822 1637.20 1564.38 42.50
9183 38.3859 1622.90 1566.69 42.50
9184 38.3897 1594.60 1569.11 41.60
9185 38.3934 1578.20 1571.62 40.40
9186 38.3972 1672.50 1574.26 43.10
9187 38.4010 1600.80 1577.01 41.80
9188 38.4047 1646.20 1579.90 42.50
9189 38.4085 1572.10 1582.92 41.20
9190 38.4122 1614.00 1586.08 41.80
9191 38.4160 1628.60 1589.40 42.00
9192 38.4198 1625.10 1592.88 42.40
9193 38.4235 1623.50 1596.53 42.30
9194 38.4273 1676.10 1600.37 42.70
9195 38.4310 1498.80 1604.41 40.30
9196 38.4348 1630.40 1608.64 42.10
9197 38.4385 1570.50 1613.11 41.20
9198 38.4423 1771.40 1617.82 44.30
9199 38.4461 1568.40 1622.78 41.50
9200 38.4498 1660.00 1628.02 42.90
9201 38.4536 1557.40 1633.54 41.40
9202 38.4573 1582.50 1639.39 41.80
9203 38.4611 1657.50 1645.58 42.40
9204 38.4649 1677.90 1652.14 43.20
9205 38.4686 1678.10 1659.10 42.80
9206 38.4724 1638.30 1666.48 42.30
9207 38.4761 1657.10 1674.33 42.70
9208 38.4799 1683.20 1682.65 42.00
9209 38.4836 1714.50 1691.54 43.00
9210 38.4874 1736.10 1701.03 43.60
9211 38.4912 1710.50 1711.15 43.20
9212 38.4949 1790.00 1721.99 44.50
9213 38.4987 1762.60 1733.59 44.60
9214 38.5024 1798.90 1746.00 44.50
9215 38.5062 1765.40 1759.37 43.90
9216 38.5099 1725.80 1773.75 43.50
9217 38.5137 1836.20 1789.27 45.10
9218 38.5175 1848.00 1806.02 44.90
9219 38.5212 1841.50 1824.15 45.60
9220 38.5250 1903.30 1843.81 45.70
9221 38.5287 1897.70 1865.12 45.80
9222 38.5325 1979.10 1888.38 46.80
9223 38.5363 1970.90 1913.79 46.80
9224 38.5400 2012.20 1941.60 47.20
9225 38.5438 2023.60 1972.13 47.60
9226 38.5475 2107.80 2005.74 48.30
9227 38.5513 2080.60 2042.86 48.10
9228 38.5550 2201.50 2083.86 49.50
9229 38.5588 2211.30 2129.56 49.80
9230 38.5626 2203.90 2180.57 49.20
9231 38.5663 2392.50 2237.72 51.20
9232 38.5701 2370.20 2302.05 51.70
9233 38.5738 2465.00 2374.79 52.30
9234 38.5776 2517.80 2457.46 53.10
9235 38.5814 2553.90 2551.66 52.80
9236 38.5851 2740.20 2660.24 54.80
9237 38.5889 2822.70 2786.02 56.10
9238 38.5926 2989.40 2932.37 57.80
9239 38.5964 3101.60 3104.47 59.40
9240 38.6002 3244.90 3308.65 60.50
9241 38.6039 3456.70 3552.57 63.10
9242 38.6077 3731.70 3847.92 65.80
9243 38.6114 4023.60 4208.54 66.70
9244 38.6152 4442.80 4658.01 71.30
9245 38.6189 5001.30 5225.16 77.40
9246 38.6227 5898.10 5960.91 83.30
9247 38.6265 6484.60 6955.27 87.20
9248 38.6302 7935.80 8384.10 96.80
9249 38.6340 10150.80 10614.90 111.00
9250 38.6377 13310.50 14311.50 130.10
9251 38.6415 18185.50 20569.10 155.50
9252 38.6453 28151.10 30563.70 199.40
9253 38.6490 41346.50 45197.70 249.60
9254 38.6528 61371.50 63735.70 315.50
9255 38.6565 77648.50 81710.10 363.90
9256 38.6603 88101.00 89725.10 390.80
9257 38.6641 84199.50 81481.80 380.10
9258 38.6678 71023.80 63437.80 343.50
9259 38.6716 51003.40 44999.90 279.70
9260 38.6753 33076.00 30419.90 217.40
9261 38.6791 20727.80 20446.90 164.60
9262 38.6828 14937.60 14254.50 136.60
9263 38.6866 10604.50 10572.50 113.50
9264 38.6904 8518.50 8355.34 100.30
9265 38.6941 7038.20 6935.03 90.20
9266 38.6979 5981.90 5946.12 83.40
9267 38.7016 4984.80 5214.75 74.90
9268 38.7054 4550.20 4647.12 71.40
9269 38.7092 3957.10 4200.37 66.90
9270 38.7129 3769.40 3839.46 64.50
9271 38.7167 3364.30 3544.43 60.50
9272 38.7204 3179.70 3300.92 60.50
9273 38.7242 3040.40 3097.17 58.70
9274 38.7280 2888.40 2925.07 56.50
9275 38.7317 2715.80 2778.79 53.30
9276 38.7355 2676.30 2653.13 54.20
9277 38.7392 2445.90 2544.77 51.50
9278 38.7430 2527.10 2449.96 52.50
9279 38.7467 2518.70 2367.41 53.10
9280 38.7505 2395.30 2294.53 51.00
9281 38.7543 2287.60 2229.99 49.90
9282 38.7580 2237.30 2172.71 49.80
9283 38.7618 2224.30 2121.51 49.40
9284 38.7655 2212.80 2075.56 49.50
9285 38.7693 2182.60 2034.28 48.40
9286 38.7731 2086.20 1996.96 47.60
9287 38.7768 2102.80 1963.22 47.40
9288 38.7806 2044.50 1932.37 46.80
9289 38.7843 2066.70 1904.40 46.60
9290 38.7881 2059.80 1878.76 47.70
9291 38.7919 1906.90 1855.22 45.00
9292 38.7956 1959.50 1833.63 45.90
9293 38.7994 1879.40 1813.72 44.50
9294 38.8031 1881.10 1795.33 44.90
9295 38.8069 1872.60 1778.34 45.10
9296 38.8107 1880.40 1762.57 44.70
9297 38.8144 1822.90 1747.92 43.70
9298 38.8182 1818.20 1734.30 44.10
9299 38.8219 1768.10 1721.60 44.40
9300 38.8257 1769.30 1709.77 43.70
9301 38.8295 1744.20 1698.65 43.20
9302 38.8332 1750.20 1688.29 42.90
9303 38.8370 1685.10 1678.54 42.50
9304 38.8407 1705.60 1669.38 42.70
9305 38.8445 1700.90 1660.78 42.80
9306 38.8483 1695.90 1652.66 42.50
9307 38.8520 1634.80 1645.01 41.80
9308 38.8558 1692.00 1637.80 41.80
9309 38.8595 1583.30 1630.97 41.40
9310 38.8633 1714.20 1624.51 43.50
9311 38.8671 1580.20 1618.39 41.30
9312 38.8708 1556.80 1612.59 40.40
9313 38.8746 1594.40 1607.10 41.60
9314 38.8783 1591.90 1601.86 41.40
9315 38.8821 1618.50 1596.89 41.60
9316 38.8858 1613.10 1592.15 41.60
9317 38.8896 1583.70 1587.63 40.90
9318 38.8934 1621.70 1583.33 41.60
9319 38.8971 1565.10 1579.22 41.30
9320 38.9009 1595.60 1575.30 41.70
9321 38.9046 1592.90 1571.55 41.60
9322 38.9084 1627.10 1567.96 41.10
9323 38.9122 1599.60 1564.52 40.60
9324 38.9159 1593.50 1561.23 40.90
9325 38.9197 1586.50 1558.08 41.40
9326 38.9234 1584.20 1555.06 41.70
9327 38.9272 1560.90 1552.14 41.30
9328 38.9310 1551.40 1549.36 40.50
9329 38.9347 1631.50 1546.67 42.00
9330 38.9385 1577.20 1544.09 40.80
9331 38.9422 1495.00 1541.61 40.30
9332 38.9460 1612.00 1539.21 42.00
9333 38.9497 1520.90 1536.91 40.40
9334 38.9535 1600.50 1534.68 41.20
9335 38.9573 1629.20 1532.54 41.90
9336 38.9610 1518.20 1530.47 40.40
9337 38.9648 1499.50 1528.47 40.20
9338 38.9686 1463.10 1526.54 39.40
9339 38.9723 1519.80 1524.67 40.50
9340 38.9761 1622.70 1522.87 42.00
9341 38.9798 1455.60 1521.12 39.40
9342 38.9836 1544.80 1519.43 40.90
9343 38.9874 1466.20 1517.79 39.40
9344 38.9911 1574.40 1516.21 41.00
9345 38.9949 1456.20 1514.67 39.40
9346 38.9986 1619.90 1453.13 41.50
9347 39.0024 1542.50 1452.99 41.10
9348 39.0061 1543.60 1452.85 41.00
9349 39.0099 1541.20 1452.72 40.40
9350 39.0137 1506.40 1452.58 39.50
9351 39.0174 1460.30 1452.45 39.00
9352 39.0212 1495.20 1452.31 40.20
9353 39.0249 1467.30 1452.17 40.00
9354 39.0287 1570.50 1452.04 41.10
9355 39.0325 1501.30 1451.90 39.90
9356 39.0362 1498.80 1451.76 40.20
9357 39.0400 1480.40 1451.63 40.00
9358 39.0437 1584.50 1451.49 41.70
9359 39.0475 1494.70 1451.35 40.30
9360 39.0513 1469.30 1451.22 39.50
9361 39.0550 1444.10 1451.08 39.90
9362 39.0588 1419.40 1450.94 39.80
9363 39.0625 1520.80 1450.81 40.30
9364 39.0663 1592.80 1450.67 40.90
9365 39.0700 1495.70 1450.53 39.80
9366 39.0738 1557.10 1450.40 41.50
9367 39.0776 1516.00 1450.26 41.00
9368 39.0813 1494.10 1450.13 39.70
9369 39.0851 1531.10 1449.99 40.70
9370 39.0888 1485.40 1449.85 40.30
9371 39.0926 1430.40 1449.72 38.70
9372 39.0964 1508.30 1449.58 40.10
9373 39.1001 1487.70 1449.44 40.60
9374 39.1039 1417.70 1449.31 39.10
9375 39.1077 1472.10 1449.17 40.10
9376 39.1114 1496.80 1449.03 40.30
9377 39.1152 1493.50 1448.90 39.90
9378 39.1189 1492.50 1448.76 40.20
9379 39.1227 1457.10 1448.62 39.90
9380 39.1264 1493.70 1448.49 40.50
9381 39.1302 1450.30 1448.35 39.40
9382 39.1340 1583.10 1448.22 41.60
9383 39.1377 1518.80 1448.08 40.60
9384 39.1415 1547.70 1447.94 41.10
9385 39.1452 1462.40 1447.81 39.30
9386 39.1490 1454.90 1447.67 39.90
9387 39.1528 1463.30 1447.53 40.00
9388 39.1565 1451.90 1447.40 39.70
9389 39.1603 1505.50 1447.26 40.60
9390 39.1640 1449.50 1447.13 39.70
9391 39.1678 1505.80 1446.99 40.50
9392 39.1716 1571.60 1446.85 41.60
9393 39.1753 1485.40 1446.72 40.60
9394 39.1791 1478.90 1446.58 40.20
9395 39.1828 1484.40 1446.44 40.40
9396 39.1866 1491.80 1446.31 40.10
9397 39.1904 1493.30 1446.17 40.30
9398 39.1941 1506.70 1446.04 40.40
9399 39.1979 1475.70 1445.90 40.20
9400 39.2016 1453.50 1445.76 39.40
9401 39.2054 1424.50 1445.63 39.60
9402 39.2092 1501.10 1445.49 40.40
9403 39.2129 1465.40 1445.36 39.80
9404 39.2167 1500.10 1445.22 39.70
9405 39.2204 1484.50 1445.08 41.40
9406 39.2242 1526.80 1444.95 41.30
9407 39.2280 1529.40 1444.81 40.50
9408 39.2317 1495.60 1444.67 40.00
9409 39.2355 1432.20 1444.54 39.50
9410 39.2392 1469.30 1444.40 40.40
9411 39.2430 1495.60 1444.27 40.20
9412 39.2468 1497.80 1444.13 40.40
9413 39.2505 1492.20 1443.99 40.60
9414 39.2543 1507.50 1443.86 40.90
9415 39.2580 1423.60 1443.72 39.60
9416 39.2618 1506.50 1443.59 40.40
9417 39.2656 1410.90 1443.45 39.10
9418 39.2693 1521.20 1443.31 40.60
9419 39.2731 1361.50 1443.18 39.00
9420 39.2768 1503.20 1443.04 40.50
9421 39.2806 1517.20 1442.91 41.00
9422 39.2844 1472.70 1442.77 40.00
9423 39.2881 1437.50 1442.63 39.70
9424 39.2919 1474.00 1442.50 40.10
9425 39.2956 1494.50 1442.36 40.00
9426 39.2994 1473.10 1442.23 40.00
9427 39.3032 1462.70 1442.09 39.80
9428 39.3069 1495.70 1441.95 39.90
9429 39.3107 1511.30 1441.82 40.20
9430 39.3144 1479.80 1441.68 40.00
9431 39.3182 1475.10 1441.55 39.80
9432 39.3219 1528.50 1441.41 41.50
9433 39.3257 1393.80 1441.27 38.20
9434 39.3295 1434.50 1441.14 39.20
9435 39.3332 1479.60 1441.00 40.00
9436 39.3370 1446.40 1440.87 40.00
9437 39.3408 1433.30 1440.73 39.00
9438 39.3445 1497.00 1440.60 40.50
9439 39.3483 1453.30 1440.46 39.60
9440 39.3520 1474.80 1440.32 40.00
9441 39.3558 1401.50 1440.19 39.40
9442 39.3596 1548.50 1440.05 41.00
9443 39.3633 1496.10 1439.92 39.70
9444 39.3671 1480.10 1439.78 39.70
9445 39.3708 1410.80 1439.64 39.00
9446 39.3746 1504.30 1439.51 40.40
9447 39.3783 1443.30 1439.37 39.40
9448 39.3821 1489.90 1439.24 40.00
9449 39.3859 1475.30 1439.10 40.40
9450 39.3896 1485.60 1438.97 40.20
9451 39.3934 1452.80 1438.83 39.70
9452 39.3971 1511.10 1438.69 40.60
9453 39.4009 1367.90 1438.56 38.70
9454 39.4047 1484.70 1438.42 40.10
9455 39.4084 1480.90 1438.29 40.00
9456 39.4122 1513.10 1438.15 40.20
9457 39.4160 1449.10 1438.02 38.90
9458 39.4197 1473.20 1437.88 40.40
9459 39.4235 1434.30 1437.75 39.50
9460 39.4272 1508.80 1437.61 40.40
9461 39.4310 1498.10 1437.47 40.10
9462 39.4347 1504.10 1437.34 40.70
9463 39.4385 1469.20 1437.20 39.30
9464 39.4423 1434.70 1437.07 39.30
9465 39.4460 1408.00 1436.93 39.00
9466 39.4498 1505.40 1436.80 39.80
9467 39.4535 1468.80 1436.66 39.40
9468 39.4573 1473.80 1436.53 39.70
9469 39.4611 1450.90 1436.39 39.80
9470 39.4648 1434.20 1436.25 39.20
9471 39.4686 1401.50 1436.12 38.70
9472 39.4723 1442.00 1435.98 39.20
9473 39.4761 1434.40 1435.85 39.40
9474 39.4799 1471.60 1435.71 39.60
9475 39.4836 1423.00 1435.58 38.80
9476 39.4874 1437.00 1435.44 38.90
9477 39.4911 1385.80 1435.31 39.10
9478 39.4949 1409.30 1435.17 39.10
9479 39.4987 1434.10 1435.04 39.00
9480 39.5024 1514.00 1434.90 40.60
9481 39.5062 1465.70 1434.76 40.10
9482 39.5099 1473.80 1434.63 39.00
9483 39.5137 1473.90 1434.49 39.90
9484 39.5175 1501.00 1434.36 39.80
9485 39.5212 1447.70 1434.22 40.00
9486 39.5250 1482.30 1434.09 40.30
9487 39.5287 1445.20 1433.95 40.10
9488 39.5325 1480.90 1433.82 39.40
9489 39.5363 1497.50 1433.68 39.90
9490 39.5400 1470.20 1433.55 39.40
9491 39.5438 1445.30 1433.41 39.80
9492 39.5475 1510.80 1433.28 40.20
9493 39.5513 1488.60 1433.14 39.40
9494 39.5551 1405.50 1433.01 38.60
9495 39.5588 1477.50 1432.87 39.40
9496 39.5626 1447.50 1432.74 39.40
9497 39.5663 1485.80 1432.60 40.10
9498 39.5701 1504.60 1432.47 40.60
9499 39.5739 1430.50 1432.33 39.20
9500 39.5776 1407.90 1432.20 38.90
9501 39.5814 1437.40 1432.06 39.40
9502 39.5851 1491.80 1431.93 39.60
9503 39.5889 1479.20 1431.79 39.80
9504 39.5927 1445.90 1431.66 39.60
9505 39.5964 1479.60 1431.52 40.10
9506 39.6002 1435.50 1431.38 38.70
9507 39.6039 1461.80 1431.25 40.10
9508 39.6077 1493.00 1431.11 40.10
9509 39.6115 1400.80 1430.98 38.60
9510 39.6152 1478.00 1430.84 39.30
9511 39.6190 1436.10 1430.71 38.80
9512 39.6227 1421.60 1430.57 39.30
9513 39.6265 1427.90 1430.44 39.00
9514 39.6303 1455.70 1430.31 39.10
9515 39.6340 1455.00 1430.17 38.70
9516 39.6378 1486.20 1430.04 39.40
9517 39.6415 1475.50 1429.90 39.50
9518 39.6453 1511.90 1429.77 40.00
9519 39.6491 1450.70 1429.63 39.30
9520 39.6528 1468.10 1429.50 39.00
9521 39.6566 1467.50 1429.36 39.60
9522 39.6603 1459.60 1429.23 38.30
9523 39.6641 1524.50 1429.09 40.10
9524 39.6679 1466.90 1428.96 39.60
9525 39.6716 1438.80 1428.82 38.50
9526 39.6754 1463.10 1428.69 39.50
9527 39.6791 1420.30 1428.55 38.40
9528 39.6829 1463.40 1428.42 39.40
9529 39.6867 1451.10 1428.28 39.30
9530 39.6904 1480.20 1428.15 39.80
9531 39.6942 1431.20 1428.01 38.90
9532 39.6979 1511.40 1427.88 39.90
9533 39.7017 1358.60 1427.74 37.60
9534 39.7054 1497.10 1427.61 39.90
9535 39.7092 1380.30 1427.47 38.70
9536 39.7130 1466.60 1427.34 39.20
9537 39.7167 1418.30 1427.21 38.50
9538 39.7205 1507.40 1427.07 40.70
9539 39.7243 1489.80 1426.94 40.30
9540 39.7280 1546.30 1426.80 40.70
9541 39.7318 1492.10 1426.67 39.80
9542 39.7355 1474.90 1426.53 39.30
9543 39.7393 1373.20 1426.40 38.00
9544 39.7430 1489.90 1426.26 40.00
9545 39.7468 1453.60 1426.13 39.20
9546 39.7506 1521.20 1426.00 40.20
9547 39.7543 1483.60 1425.86 39.90
9548 39.7581 1467.70 1425.73 39.70
9549 39.7618 1467.10 1425.59 40.10
9550 39.7656 1428.00 1425.46 39.30
9551 39.7694 1477.80 1425.32 39.80
9552 39.7731 1457.90 1425.19 39.20
9553 39.7769 1456.30 1425.05 39.50
9554 39.7807 1444.80 1424.92 39.60
9555 39.7844 1478.00 1424.79 39.80
9556 39.7882 1506.70 1424.65 39.70
9557 39.7919 1466.90 1424.52 39.60
9558 39.7957 1441.20 1424.38 39.10
9559 39.7994 1471.10 1424.25 39.00
9560 39.8032 1507.50 1424.11 40.00
9561 39.8070 1418.60 1423.98 38.90
9562 39.8107 1441.80 1423.85 38.70
9563 39.8145 1470.90 1423.71 39.80
9564 39.8182 1498.20 1423.58 39.60
9565 39.8220 1447.60 1423.44 40.00
9566 39.8258 1459.90 1423.31 39.60
9567 39.8295 1409.10 1423.18 38.10
9568 39.8333 1479.20 1423.04 39.60
9569 39.8371 1434.20 1422.91 39.20
9570 39.8408 1521.90 1422.77 39.80
9571 39.8446 1449.90 1422.64 39.20
9572 39.8483 1477.20 1422.50 39.10
9573 39.8521 1458.40 1422.37 39.50
9574 39.8559 1568.40 1422.24 41.00
9575 39.8596 1489.70 1422.10 39.70
9576 39.8634 1416.60 1421.97 38.80
9577 39.8671 1495.30 1421.83 40.00
9578 39.8709 1425.30 1421.70 38.40
9579 39.8746 1419.00 1421.57 39.10
9580 39.8784 1481.20 1421.43 39.00
9581 39.8822 1451.10 1421.30 39.70
9582 39.8859 1441.60 1421.17 39.40
9583 39.8897 1434.80 1421.03 38.30
9584 39.8935 1430.10 1420.90 39.00
9585 39.8972 1502.60 1420.76 40.10
9586 39.9010 1501.90 1420.63 40.50
9587 39.9047 1454.30 1420.50 38.90
9588 39.9085 1497.70 1420.36 39.60
9589 39.9123 1445.60 1420.23 39.50
9590 39.9160 1473.30 1420.10 39.40
9591 39.9198 1446.60 1419.96 39.30
9592 39.9235 1445.40 1419.83 39.70
9593 39.9273 1487.00 1419.69 40.30
9594 39.9310 1485.90 1419.56 39.40
9595 39.9348 1427.90 1419.43 39.30
9596 39.9386 1426.40 1419.29 39.00
9597 39.9423 1459.80 1419.16 39.40
9598 39.9461 1532.80 1419.03 40.80
9599 39.9498 1367.50 1418.89 38.70
9600 39.9536 1466.30 1418.76 39.60
9601 39.9574 1437.50 1418.63 39.00
9602 39.9611 1389.00 1418.49 38.10
9603 39.9649 1444.70 1418.36 39.40
9604 39.9686 1476.90 1418.22 39.60
9605 39.9724 1533.80 1418.09 40.60
9606 39.9762 1537.70 1417.96 40.40
9607 39.9799 1518.00 1417.82 39.40
9608 39.9837 1398.30 1417.69 38.30
9609 39.9874 1490.70 1417.56 39.70
9610 39.9912 1472.10 1417.42 38.90
9611 39.9950 1468.80 1417.29 39.20
9612 39.9987 1505.30 1417.16 39.90
9613 40.0025 1505.20 1417.02 40.20
9614 40.0062 1480.40 1416.89 39.80
9615 40.0100 1457.20 1416.76 39.40
9616 40.0137 1448.40 1416.62 39.20
9617 40.0175 1472.30 1416.49 39.10
9618 40.0213 1420.30 1416.36 39.20
9619 40.0250 1415.90 1416.22 38.60
9620 40.0288 1486.40 1416.09 39.30
9621 40.0326 1388.50 1415.96 38.60
9622 40.0363 1514.20 1415.82 39.90
9623 40.0401 1396.80 1415.69 38.70
9624 40.0438 1523.20 1415.56 40.20
9625 40.0476 1393.40 1415.43 38.60
9626 40.0513 1419.20 1415.29 38.60
9627 40.0551 1501.00 1415.16 39.50
9628 40.0589 1440.00 1415.03 39.30
9629 40.0626 1442.70 1414.89 39.10
9630 40.0664 1456.30 1414.76 39.40
9631 40.0701 1463.70 1414.63 39.70
9632 40.0739 1462.70 1414.49 39.30
9633 40.0777 1494.40 1414.36 39.80
9634 40.0814 1432.20 1414.23 38.80
9635 40.0852 1475.60 1414.10 40.20
9636 40.0890 1471.40 1413.96 39.50
9637 40.0927 1447.00 1413.83 38.90
9638 40.0965 1456.50 1413.70 38.70
9639 40.1002 1429.20 1413.56 38.70
9640 40.1040 1436.60 1413.43 38.70
9641 40.1077 1488.00 1413.30 39.50
9642 40.1115 1448.40 1413.17 38.60
9643 40.1153 1489.20 1413.03 39.10
9644 40.1190 1371.10 1412.90 37.80
9645 40.1228 1471.60 1412.77 39.80
9646 40.1265 1431.20 1412.64 38.50
9647 40.1303 1463.70 1412.50 38.70
9648 40.1341 1483.80 1412.37 39.30
9649 40.1378 1420.30 1412.24 38.50
9650 40.1416 1484.50 1412.10 39.40
9651 40.1453 1402.40 1411.97 38.50
9652 40.1491 1536.10 1411.84 39.90
9653 40.1529 1518.60 1411.71 39.90
9654 40.1566 1515.60 1411.57 40.00
9655 40.1604 1487.90 1411.44 39.60
9656 40.1641 1489.30 1411.31 39.60
9657 40.1679 1454.30 1411.18 39.00
9658 40.1717 1493.20 1411.04 39.40
9659 40.1754 1428.80 1410.91 38.70
9660 40.1792 1470.00 1410.78 39.20
9661 40.1829 1422.60 1410.65 38.60
9662 40.1867 1543.70 1410.51 40.40
9663 40.1905 1449.40 1410.38 38.20
9664 40.1942 1465.90 1410.25 39.20
9665 40.1980 1475.50 1410.12 39.50
9666 40.2017 1427.00 1409.99 39.10
9667 40.2055 1405.90 1409.85 37.80
9668 40.2093 1513.60 1409.72 39.60
9669 40.2130 1498.20 1409.59 39.20
9670 40.2168 1451.90 1409.46 38.90
9671 40.2205 1433.80 1409.32 38.70
9672 40.2243 1457.60 1409.19 39.50
9673 40.2281 1428.30 1409.06 38.30
9674 40.2318 1416.30 1408.93 38.40
9675 40.2356 1498.40 1408.80 39.50
9676 40.2393 1492.30 1408.66 39.20
9677 40.2431 1440.80 1408.53 38.90
9678 40.2468 1490.90 1408.40 39.50
9679 40.2506 1520.80 1408.27 40.00
9680 40.2544 1500.30 1408.14 39.90
9681 40.2581 1436.40 1408.00 38.90
9682 40.2619 1473.10 1407.87 38.80
9683 40.2656 1456.30 1407.74 39.10
9684 40.2694 1497.40 1407.61 39.80
9685 40.2732 1440.10 1407.48 39.30
9686 40.2769 1485.20 1407.34 39.40
9687 40.2807 1485.90 1407.21 39.90
9688 40.2844 1490.50 1407.08 39.60
9689 40.2882 1340.30 1410.91 37.40
9690 40.2920 1467.20 1410.87 39.30
9691 40.2957 1383.30 1410.83 38.10
9692 40.2995 1545.10 1410.79 40.60
9693 40.3032 1480.90 1410.76 40.00
9694 40.3070 1501.50 1410.73 40.20
9695 40.3108 1506.70 1410.71 40.10
9696 40.3145 1420.80 1410.68 38.20
9697 40.3183 1409.70 1410.67 38.10
9698 40.3220 1413.30 1410.65 38.70
9699 40.3258 1388.90 1410.64 38.20
9700 40.3296 1464.80 1410.64 39.20
9701 40.3333 1393.80 1410.64 38.40
9702 40.3371 1495.20 1410.64 39.80
9703 40.3408 1416.60 1410.65 38.50
9704 40.3446 1468.70 1410.67 39.40
9705 40.3484 1443.00 1410.69 39.20
9706 40.3521 1452.90 1410.72 39.30
9707 40.3559 1473.40 1410.76 39.70
9708 40.3596 1490.70 1410.80 39.80
9709 40.3634 1419.70 1410.85 38.40
9710 40.3671 1494.20 1410.91 40.00
9711 40.3709 1408.30 1410.97 38.80
9712 40.3747 1553.00 1411.05 40.80
9713 40.3784 1446.90 1411.13 38.40
9714 40.3822 1482.50 1411.23 39.60
9715 40.3859 1372.00 1411.33 38.30
9716 40.3897 1440.10 1411.45 38.70
9717 40.3935 1430.30 1411.57 38.60
9718 40.3972 1456.00 1411.72 39.20
9719 40.4010 1419.60 1411.87 38.20
9720 40.4047 1481.80 1412.04 39.70
9721 40.4085 1356.00 1412.22 37.40
9722 40.4123 1459.70 1412.42 39.30
9723 40.4160 1402.00 1412.64 38.10
9724 40.4198 1511.10 1412.88 39.20
9725 40.4235 1412.70 1413.14 39.00
9726 40.4273 1496.30 1413.42 39.30
9727 40.4310 1490.60 1413.72 39.50
9728 40.4348 1381.40 1414.05 38.30
9729 40.4386 1405.10 1414.41 38.10
9730 40.4423 1458.80 1414.79 38.90
9731 40.4461 1434.60 1415.21 38.20
9732 40.4498 1456.40 1415.67 39.40
9733 40.4536 1466.90 1416.16 39.40
9734 40.4574 1432.80 1416.69 39.10
9735 40.4611 1387.90 1417.27 38.30
9736 40.4649 1423.00 1417.89 38.20
9737 40.4686 1376.00 1418.58 38.30
9738 40.4724 1472.10 1419.32 40.00
9739 40.4762 1466.70 1420.12 39.40
9740 40.4799 1475.50 1421.00 39.00
9741 40.4837 1356.60 1421.95 38.20
9742 40.4874 1567.60 1422.99 40.40
9743 40.4912 1408.80 1424.13 38.90
9744 40.4950 1479.10 1425.38 39.00
9745 40.4987 1458.60 1426.75 38.60
9746 40.5025 1466.10 1428.25 38.70
9747 40.5062 1489.60 1429.90 39.60
9748 40.5100 1483.00 1431.73 39.60
9749 40.5137 1416.20 1433.75 38.50
9750 40.5175 1466.90 1435.99 39.20
9751 40.5213 1529.80 1438.48 40.70
9752 40.5250 1543.30 1441.25 41.00
9753 40.5288 1466.50 1444.35 39.30
9754 40.5325 1450.80 1447.83 38.70
9755 40.5363 1464.80 1451.76 39.40
9756 40.5401 1502.00 1456.21 39.80
9757 40.5438 1523.40 1461.27 40.30
9758 40.5476 1534.70 1467.05 39.90
9759 40.5513 1531.70 1473.70 40.20
9760 40.5551 1517.00 1481.36 40.10
9761 40.5589 1519.80 1490.33 40.10
9762 40.5626 1613.60 1500.78 41.30
9763 40.5664 1501.00 1513.17 40.20
9764 40.5701 1509.40 1527.95 39.80
9765 40.5739 1596.70 1545.76 40.90
9766 40.5776 1553.10 1567.45 40.20
9767 40.5814 1544.00 1594.22 39.80
9768 40.5852 1612.70 1627.78 40.70
9769 40.5889 1643.80 1670.75 41.30
9770 40.5927 1731.40 1727.40 42.30
9771 40.5964 1727.90 1806.46 42.70
9772 40.6002 1911.10 1924.60 45.00
9773 40.6040 2049.70 2113.81 46.80
9774 40.6077 2292.30 2427.01 49.20
9775 40.6115 2693.20 2934.70 53.70
9776 40.6152 3448.50 3702.05 61.60
9777 40.6190 4252.00 4735.77 68.10
9778 40.6227 5648.20 5899.93 81.50
9779 40.6265 6305.50 6753.50 84.50
9780 40.6303 6693.70 6721.39 87.90
9781 40.6340 5877.80 5829.53 81.30
9782 40.6378 5041.10 4663.92 75.10
9783 40.6415 3820.20 3642.46 65.10
9784 40.6453 3039.30 2894.73 57.10
9785 40.6491 2409.50 2400.03 51.00
9786 40.6528 2107.60 2097.32 47.80
9787 40.6566 1898.00 1913.62 44.70
9788 40.6603 1909.00 1798.40 45.00
9789 40.6641 1776.90 1720.85 43.50
9790 40.6679 1711.30 1664.87 42.50
9791 40.6716 1625.10 1622.46 41.20
9792 40.6754 1675.80 1589.05 41.20
9793 40.6791 1528.80 1562.46 40.00
9794 40.6829 1640.40 1540.78 41.70
9795 40.6866 1538.50 1522.93 40.30
9796 40.6904 1519.80 1508.06 39.50
9797 40.6942 1505.80 1495.54 39.30
9798 40.6979 1558.40 1484.93 40.20
9799 40.7017 1527.80 1475.79 40.30
9800 40.7054 1502.70 1467.94 39.80
9801 40.7092 1362.80 1461.09 37.90
9802 40.7130 1526.50 1455.10 39.90
9803 40.7167 1525.20 1449.82 39.70
9804 40.7205 1467.00 1445.15 39.00
9805 40.7242 1455.70 1441.00 39.60
9806 40.7280 1468.80 1437.28 39.30
9807 40.7318 1428.20 1433.93 38.70
9808 40.7355 1517.30 1430.92 39.90
9809 40.7393 1491.70 1428.19 39.30
9810 40.7430 1513.30 1425.70 40.00
9811 40.7468 1456.40 1423.44 38.60
9812 40.7505 1446.20 1421.37 38.60
9813 40.7543 1448.60 1419.47 39.00
9814 40.7581 1429.00 1417.71 38.50
9815 40.7618 1439.90 1416.09 38.90
9816 40.7656 1429.20 1414.59 38.90
9817 40.7693 1438.70 1413.20 39.00
9818 40.7731 1475.40 1411.91 39.60
9819 40.7769 1451.90 1410.69 39.10
9820 40.7806 1491.30 1409.56 40.00
9821 40.7844 1387.20 1408.50 37.70
9822 40.7881 1459.10 1407.51 39.20
9823 40.7919 1414.40 1406.57 38.80
9824 40.7956 1423.30 1405.69 39.00
9825 40.7994 1450.30 1404.86 39.30
9826 40.8032 1468.30 1404.07 39.40
9827 40.8069 1406.50 1403.32 38.80
9828 40.8107 1484.80 1402.61 39.20
9829 40.8144 1392.50 1401.93 38.30
9830 40.8182 1456.10 1401.29 38.90
9831 40.8219 1388.30 1400.67 38.20
9832 40.8257 1492.70 1400.09 40.20
9833 40.8295 1371.90 1399.53 37.60
9834 40.8332 1473.10 1398.99 39.60
9835 40.8370 1439.30 1398.47 39.00
9836 40.8407 1450.60 1397.98 38.90
9837 40.8445 1410.00 1397.50 38.50
9838 40.8483 1413.90 1397.04 38.70
9839 40.8520 1440.20 1396.60 39.20
9840 40.8558 1444.70 1396.17 39.50
9841 40.8595 1423.70 1395.76 38.50
9842 40.8633 1495.00 1395.36 39.80
9843 40.8671 1345.70 1394.97 37.80
9844 40.8708 1477.90 1394.60 38.80
9845 40.8746 1459.50 1394.24 39.30
9846 40.8783 1490.50 1393.88 40.00
9847 40.8821 1514.00 1393.54 39.90
9848 40.8858 1496.50 1393.21 39.80
9849 40.8896 1340.00 1392.88 37.10
9850 40.8934 1459.60 1392.56 39.40
9851 40.8971 1472.40 1392.26 39.50
9852 40.9009 1449.10 1391.96 39.80
9853 40.9046 1422.70 1391.66 38.90
9854 40.9084 1421.80 1391.37 39.10
9855 40.9121 1390.40 1391.09 38.50
9856 40.9159 1496.60 1390.82 39.80
9857 40.9197 1440.50 1390.55 38.60
9858 40.9234 1530.80 1390.28 41.10
9859 40.9272 1409.50 1390.03 39.00
9860 40.9309 1409.80 1389.77 38.60
9861 40.9347 1428.40 1389.52 38.30
9862 40.9384 1451.70 1389.28 39.20
9863 40.9422 1359.80 1389.04 38.10
9864 40.9460 1473.00 1388.80 39.80
9865 40.9497 1442.90 1388.57 39.40
9866 40.9535 1411.40 1388.34 38.80
9867 40.9572 1434.30 1388.11 39.10
9868 40.9610 1421.20 1387.89 38.80
9869 40.9647 1358.30 1387.67 38.00
9870 40.9685 1487.80 1387.46 40.00
9871 40.9723 1396.50 1383.37 38.30
9872 40.9760 1430.20 1383.24 39.00
9873 40.9798 1349.20 1383.11 38.00
9874 40.9835 1445.70 1382.98 39.50
9875 40.9873 1424.00 1382.86 39.00
9876 40.9911 1488.20 1382.73 40.00
9877 40.9948 1400.70 1382.60 38.60
9878 40.9986 1449.50 1382.48 38.80
9879 41.0023 1391.50 1382.35 38.10
9880 41.0061 1436.30 1382.22 38.90
9881 41.0098 1415.50 1382.10 39.00
9882 41.0136 1490.40 1381.97 40.00
9883 41.0174 1398.20 1381.84 38.30
9884 41.0211 1463.20 1381.71 39.10
9885 41.0249 1434.50 1381.59 39.80
9886 41.0286 1397.70 1381.46 38.50
9887 41.0324 1421.50 1381.33 38.60
9888 41.0362 1469.00 1381.21 39.30
9889 41.0399 1426.10 1381.08 38.80
9890 41.0437 1471.50 1380.95 39.50
9891 41.0474 1449.40 1380.83 39.40
9892 41.0512 1475.10 1380.70 39.70
9893 41.0549 1405.80 1380.58 38.80
9894 41.0587 1463.00 1380.45 39.00
9895 41.0625 1456.10 1380.32 39.30
9896 41.0662 1420.40 1380.20 38.20
9897 41.0700 1372.70 1380.07 37.90
9898 41.0737 1457.80 1379.94 39.30
9899 41.0775 1360.70 1379.82 37.80
9900 41.0812 1483.90 1379.69 39.40
9901 41.0850 1474.40 1379.56 39.40
9902 41.0887 1537.20 1379.44 40.40
9903 41.0925 1463.00 1379.31 39.30
9904 41.0963 1534.70 1379.18 40.40
9905 41.1000 1409.90 1379.06 38.70
9906 41.1038 1387.70 1378.93 38.60
9907 41.1075 1394.70 1378.81 38.50
9908 41.1113 1408.90 1378.68 38.40
9909 41.1151 1440.60 1378.55 39.40
9910 41.1188 1428.20 1378.43 38.40
9911 41.1226 1436.10 1378.30 39.50
9912 41.1263 1456.30 1378.18 39.10
9913 41.1301 1402.40 1378.05 38.50
9914 41.1338 1431.10 1377.92 38.70
9915 41.1376 1399.10 1377.80 38.70
9916 41.1413 1434.90 1377.67 38.90
9917 41.1451 1435.40 1377.55 39.10
9918 41.1489 1496.00 1377.42 40.50
9919 41.1526 1428.20 1377.30 39.00
9920 41.1564 1410.90 1377.17 38.10
9921 41.1601 1412.60 1377.04 39.10
9922 41.1639 1416.50 1376.92 39.20
9923 41.1677 1391.50 1376.79 38.80
9924 41.1714 1426.70 1376.67 39.00
9925 41.1752 1448.80 1376.54 39.10
9926 41.1789 1479.30 1376.42 39.70
9927 41.1827 1390.50 1376.29 38.60
9928 41.1864 1420.20 1376.17 38.70
9929 41.1902 1455.70 1376.04 39.50
9930 41.1940 1442.70 1375.91 39.10
9931 41.1977 1417.80 1375.79 38.70
9932 41.2015 1446.80 1375.66 39.50
9933 41.2052 1447.90 1375.54 39.40
9934 41.2090 1447.70 1375.41 39.70
9935 41.2127 1455.60 1375.29 39.50
9936 41.2165 1421.90 1375.16 38.50
9937 41.2202 1460.10 1375.04 38.90
9938 41.2240 1447.70 1374.91 40.20
9939 41.2278 1470.50 1374.79 39.40
9940 41.2315 1434.70 1374.66 38.80
9941 41.2353 1432.20 1374.54 38.80
9942 41.2390 1457.20 1374.41 39.60
9943 41.2428 1440.20 1374.29 38.90
9944 41.2466 1484.90 1374.16 39.70
9945 41.2503 1411.80 1374.04 38.90
9946 41.2541 1358.50 1373.91 38.30
9947 41.2578 1448.80 1373.79 39.50
9948 41.2616 1538.90 1373.66 40.70
9949 41.2653 1375.50 1373.54 38.40
9950 41.2691 1421.50 1373.41 38.60
9951 41.2729 1425.50 1373.29 38.90
9952 41.2766 1421.50 1373.16 38.70
9953 41.2804 1388.00 1373.04 38.30
9954 41.2841 1414.60 1372.91 38.30
9955 41.2879 1398.20 1372.79 38.60
9956 41.2916 1453.60 1372.66 39.20
9957 41.2954 1411.50 1372.54 38.80
9958 41.2991 1451.80 1372.42 39.70
9959 41.3029 1434.10 1372.29 39.20
9960 41.3067 1474.00 1372.17 39.60
9961 41.3104 1393.30 1372.04 38.20
9962 41.3142 1464.60 1371.92 39.70
9963 41.3179 1360.00 1371.79 37.60
9964 41.3217 1509.20 1371.67 39.50
9965 41.3254 1428.00 1371.54 39.40
9966 41.3292 1447.50 1371.42 39.10
9967 41.3330 1412.00 1371.30 38.60
9968 41.3367 1466.90 1371.17 39.50
9969 41.3405 1486.00 1371.05 39.70
9970 41.3442 1478.70 1370.92 39.70
9971 41.3480 1393.90 1370.80 39.00
9972 41.3517 1466.80 1370.68 39.60
9973 41.3555 1425.40 1370.55 39.10
9974 41.3592 1409.80 1370.43 38.70
9975 41.3630 1432.60 1370.30 38.50
9976 41.3668 1405.70 1370.18 38.50
9977 41.3705 1429.60 1370.06 39.00
9978 41.3743 1387.10 1369.93 38.50
9979 41.3780 1410.60 1369.81 38.40
9980 41.3818 1423.10 1369.68 39.00
9981 41.3855 1484.10 1369.56 39.80
9982 41.3893 1467.60 1369.44 39.60
9983 41.3931 1431.80 1369.31 38.50
9984 41.3968 1418.00 1369.19 38.70
9985 41.4006 1420.10 1369.07 38.70
9986 41.4043 1389.60 1368.94 38.40
9987 41.4081 1384.10 1368.82 38.50
9988 41.4118 1459.40 1368.69 39.30
9989 41.4156 1403.80 1368.57 38.50
9990 41.4193 1455.40 1368.45 38.90
9991 41.4231 1400.20 1368.32 39.20
9992 41.4269 1435.80 1368.20 39.60
9993 41.4306 1408.30 1368.08 38.40
9994 41.4344 1477.20 1367.95 39.20
9995 41.4381 1416.30 1367.83 38.50
9996 41.4419 1386.00 1367.71 38.60
9997 41.4456 1416.80 1367.58 38.50
9998 41.4494 1439.40 1367.46 39.40
9999 41.4532 1378.50 1367.34 38.10
10000 41.4569 1361.90 1367.21 37.70
10001 41.4607 1419.60 1367.09 38.90
10002 41.4644 1434.20 1366.97 39.20
10003 41.4682 1396.10 1366.85 38.20
10004 41.4719 1484.70 1366.72 39.70
10005 41.4757 1428.40 1366.60 39.10
10006 41.4794 1419.20 1366.48 38.70
10007 41.4832 1371.70 1366.35 38.50
10008 41.4869 1374.50 1366.23 38.10
10009 41.4907 1463.40 1366.11 39.60
10010 41.4945 1429.00 1365.98 38.70
10011 41.4982 1309.50 1365.86 37.00
10012 41.5020 1454.00 1365.74 39.30
10013 41.5057 1394.50 1365.62 38.50
10014 41.5095 1498.30 1365.49 39.30
10015 41.5132 1397.40 1365.37 38.60
10016 41.5170 1399.30 1365.25 38.20
10017 41.5207 1423.70 1365.13 38.30
10018 41.5245 1511.20 1365.00 40.90
10019 41.5283 1424.90 1364.88 39.30
10020 41.5320 1471.20 1364.76 39.90
10021 41.5358 1394.00 1364.64 38.40
10022 41.5395 1472.20 1364.51 39.40
10023 41.5433 1390.50 1364.39 38.60
10024 41.5470 1439.00 1364.27 39.00
10025 41.5508 1429.90 1364.15 39.20
10026 41.5546 1381.70 1364.02 37.30
10027 41.5583 1398.70 1363.90 39.00
10028 41.5621 1532.60 1363.78 40.10
10029 41.5658 1294.10 1363.66 37.60
10030 41.5696 1413.30 1363.53 38.70
10031 41.5733 1380.90 1363.41 38.30
10032 41.5771 1414.20 1363.29 38.40
10033 41.5808 1376.70 1363.17 38.20
10034 41.5846 1424.60 1363.05 39.00
10035 41.5883 1413.50 1362.92 39.00
10036 41.5921 1469.30 1362.80 40.10
10037 41.5959 1356.00 1362.68 38.00
10038 41.5996 1471.80 1362.56 39.40
10039 41.6034 1481.00 1362.44 40.00
10040 41.6071 1433.40 1362.32 39.00
10041 41.6109 1405.50 1362.19 38.60
10042 41.6146 1480.20 1362.07 40.00
10043 41.6184 1440.90 1361.95 39.20
10044 41.6222 1381.60 1361.83 38.30
10045 41.6259 1415.10 1361.71 39.20
10046 41.6297 1418.10 1361.58 39.10
10047 41.6334 1330.10 1361.46 37.80
10048 41.6372 1433.40 1361.34 39.00
10049 41.6409 1403.10 1361.22 38.60
10050 41.6447 1486.00 1361.10 39.80
10051 41.6484 1410.40 1360.98 39.10
10052 41.6522 1481.50 1360.86 40.10
10053 41.6559 1409.40 1360.73 39.10
10054 41.6597 1515.40 1360.61 40.40
10055 41.6635 1415.30 1360.49 39.30
10056 41.6672 1431.80 1360.37 39.40
10057 41.6710 1424.90 1360.25 38.70
10058 41.6747 1397.90 1360.13 38.60
10059 41.6785 1472.50 1360.01 40.10
10060 41.6822 1393.80 1359.89 38.80
10061 41.6860 1468.90 1359.76 39.70
10062 41.6897 1431.70 1359.64 39.60
10063 41.6935 1404.40 1359.52 38.80
10064 41.6973 1417.20 1359.40 39.30
10065 41.7010 1466.80 1359.28 39.80
10066 41.7048 1379.90 1359.16 38.70
10067 41.7085 1418.40 1359.04 38.50
10068 41.7123 1432.30 1358.92 39.30
10069 41.7160 1420.20 1358.80 39.30
10070 41.7198 1449.90 1358.68 39.10
10071 41.7235 1408.00 1358.56 39.10
10072 41.7273 1518.90 1358.43 41.10
10073 41.7310 1352.00 1358.31 38.40
10074 41.7348 1422.70 1358.19 38.80
10075 41.7385 1431.70 1358.07 39.20
10076 41.7423 1491.00 1357.95 40.10
10077 41.7461 1391.10 1357.83 38.70
10078 41.7498 1449.90 1357.71 39.40
10079 41.7536 1420.30 1357.59 39.00
10080 41.7573 1398.30 1357.47 38.70
10081 41.7611 1405.80 1357.35 39.20
10082 41.7648 1455.80 1357.23 40.00
10083 41.7686 1436.60 1357.11 39.30
10084 41.7724 1477.60 1356.99 40.20
10085 41.7761 1374.20 1356.87 37.70
10086 41.7799 1387.20 1356.75 38.70
10087 41.7836 1458.80 1356.63 39.80
10088 41.7874 1438.70 1356.51 40.00
10089 41.7911 1356.30 1356.39 38.80
10090 41.7949 1488.50 1356.27 40.20
10091 41.7986 1341.40 1356.15 38.00
10092 41.8024 1537.80 1356.03 41.00
10093 41.8061 1437.40 1355.91 39.70
10094 41.8099 1400.90 1355.79 39.20
10095 41.8136 1394.40 1355.67 39.10
10096 41.8174 1437.10 1355.55 39.80
10097 41.8212 1401.50 1355.43 38.70
10098 41.8249 1415.90 1355.31 39.70
10099 41.8287 1327.70 1355.19 38.20
10100 41.8324 1449.20 1355.07 39.60
10101 41.8362 1412.70 1354.95 38.90
10102 41.8399 1427.10 1354.83 39.20
10103 41.8437 1355.10 1354.71 38.10
10104 41.8474 1414.50 1354.59 39.10
10105 41.8512 1426.00 1354.47 39.90
10106 41.8549 1496.20 1354.35 40.50
10107 41.8587 1422.40 1354.23 39.70
10108 41.8624 1476.60 1354.11 40.20
10109 41.8662 1373.50 1353.99 38.20
10110 41.8699 1436.20 1353.87 39.50
10111 41.8737 1357.50 1353.75 38.90
10112 41.8775 1353.30 1353.64 38.40
10113 41.8812 1419.40 1353.52 39.60
10114 41.8850 1477.80 1353.40 39.50
10115 41.8887 1410.50 1353.28 39.30
10116 41.8925 1413.30 1353.16 39.20
10117 41.8962 1420.80 1353.04 38.90
10118 41.9000 1396.40 1352.92 38.50
10119 41.9037 1399.60 1352.80 39.60
10120 41.9075 1468.90 1352.68 40.20
10121 41.9113 1399.20 1352.56 39.60
10122 41.9150 1402.90 1352.44 39.20
10123 41.9188 1460.30 1352.33 39.60
10124 41.9225 1455.90 1352.21 39.40
10125 41.9263 1455.00 1352.09 40.90
10126 41.9300 1411.30 1351.97 39.30
10127 41.9338 1398.60 1351.85 39.00
10128 41.9375 1442.50 1351.73 39.40
10129 41.9413 1465.10 1351.61 40.40
10130 41.9450 1432.00 1351.49 39.60
10131 41.9488 1476.80 1351.38 40.50
10132 41.9525 1478.60 1351.26 39.80
10133 41.9563 1448.20 1351.14 39.90
10134 41.9600 1462.40 1351.02 40.30
10135 41.9638 1417.70 1350.90 39.30
10136 41.9675 1447.50 1350.78 40.00
10137 41.9713 1438.00 1350.66 39.30
10138 41.9751 1403.70 1350.55 39.20
10139 41.9788 1359.00 1350.43 38.20
10140 41.9826 1434.40 1350.31 39.90
10141 41.9863 1418.40 1350.19 39.40
10142 41.9901 1499.60 1350.07 40.50
10143 41.9932 1392.60 1349.97 38.20
10144 41.9970 1420.70 1349.86 38.80
10145 42.0007 1361.20 1349.74 38.00
10146 42.0045 1463.30 1349.62 38.80
10147 42.0083 1444.50 1349.50 39.20
10148 42.0120 1436.90 1349.38 38.80
10149 42.0158 1401.90 1349.27 38.00
10150 42.0195 1451.30 1349.15 40.00
10151 42.0233 1381.00 1349.03 38.70
10152 42.0270 1428.50 1348.91 39.30
10153 42.0308 1367.70 1348.79 38.00
10154 42.0345 1447.90 1348.68 39.10
10155 42.0383 1432.00 1348.56 39.20
10156 42.0420 1496.50 1348.44 39.80
10157 42.0458 1390.40 1348.32 38.60
10158 42.0496 1404.00 1348.20 37.60
10159 42.0533 1339.60 1348.09 38.10
10160 42.0571 1440.80 1347.97 38.90
10161 42.0608 1475.80 1347.85 40.20
10162 42.0646 1448.50 1347.73 39.20
10163 42.0683 1375.00 1347.62 38.20
10164 42.0721 1518.90 1347.50 39.90
10165 42.0758 1456.00 1347.38 39.30
10166 42.0796 1451.20 1347.26 39.40
10167 42.0834 1330.10 1347.15 37.80
10168 42.0871 1403.00 1347.03 39.10
10169 42.0909 1467.30 1346.91 39.60
10170 42.0946 1494.10 1346.80 39.70
10171 42.0984 1436.30 1346.68 39.40
10172 42.1021 1359.10 1346.56 37.90
10173 42.1059 1415.30 1346.44 38.80
10174 42.1096 1437.30 1346.33 39.40
10175 42.1134 1461.50 1346.21 39.50
10176 42.1171 1502.20 1346.09 40.00
10177 42.1209 1486.20 1345.98 40.20
10178 42.1247 1471.80 1345.86 39.90
10179 42.1284 1407.30 1345.74 38.90
10180 42.1322 1463.60 1345.63 39.40
10181 42.1359 1432.50 1345.51 39.00
10182 42.1397 1459.50 1345.39 39.50
10183 42.1434 1408.40 1345.27 39.10
10184 42.1472 1473.50 1345.16 40.00
10185 42.1510 1431.40 1345.04 39.40
10186 42.1547 1437.00 1344.92 39.30
10187 42.1585 1433.40 1344.81 39.60
10188 42.1622 1395.90 1344.69 38.80
10189 42.1660 1466.60 1344.57 39.30
10190 42.1697 1373.40 1344.46 38.20
10191 42.1735 1460.50 1344.34 39.90
10192 42.1772 1508.00 1373.10 40.40
10193 42.1810 1400.70 1373.62 38.70
10194 42.1847 1410.50 1374.17 39.30
10195 42.1885 1441.90 1374.74 39.30
10196 42.1922 1475.40 1375.33 40.10
10197 42.1960 1410.20 1375.95 39.00
10198 42.1998 1449.80 1376.59 39.70
10199 42.2035 1441.60 1377.27 38.90
10200 42.2073 1420.40 1377.96 39.10
10201 42.2110 1398.20 1378.69 38.90
10202 42.2148 1453.80 1379.45 39.10
10203 42.2185 1364.90 1380.25 38.50
10204 42.2223 1521.90 1381.08 41.20
10205 42.2261 1411.50 1381.94 39.30
10206 42.2274 1418.60 1382.25 39.30
10207 42.2311 1487.70 1383.17 40.40
10208 42.2349 1427.60 1384.12 39.20
10209 42.2386 1456.80 1385.13 39.90
10210 42.2424 1430.90 1386.17 39.20
10211 42.2461 1487.80 1387.26 40.30
10212 42.2499 1454.60 1388.41 39.90
10213 42.2536 1468.90 1389.61 40.00
10214 42.2574 1500.00 1390.86 40.60
10215 42.2611 1511.10 1392.18 40.10
10216 42.2649 1386.50 1393.55 38.60
10217 42.2687 1436.00 1395.00 39.60
10218 42.2724 1479.50 1396.51 39.90
10219 42.2762 1481.10 1398.11 40.20
10220 42.2799 1422.80 1399.78 39.60
10221 42.2837 1446.30 1401.53 39.70
10222 42.2874 1514.80 1403.38 40.90
10223 42.2912 1484.20 1405.32 40.30
10224 42.2949 1451.90 1407.37 39.80
10225 42.2987 1508.90 1409.53 41.20
10226 42.3024 1461.40 1411.81 40.10
10227 42.3062 1492.60 1414.21 41.00
10228 42.3099 1500.70 1416.75 40.90
10229 42.3137 1546.90 1419.44 41.30
10230 42.3175 1529.30 1422.28 41.20
10231 42.3212 1525.40 1425.28 40.20
10232 42.3250 1537.40 1428.48 41.50
10233 42.3287 1512.20 1431.86 40.60
10234 42.3325 1581.90 1435.46 41.50
10235 42.3362 1517.00 1439.28 40.50
10236 42.3400 1505.50 1443.34 40.20
10237 42.3437 1538.30 1447.68 41.10
10238 42.3475 1509.60 1452.31 40.90
10239 42.3512 1579.10 1457.27 41.80
10240 42.3550 1607.00 1462.56 42.20
10241 42.3587 1544.90 1468.22 41.30
10242 42.3625 1545.20 1474.31 41.70
10243 42.3662 1589.80 1480.84 41.50
10244 42.3700 1597.70 1487.90 42.20
10245 42.3738 1659.60 1495.49 42.90
10246 42.3775 1548.10 1503.71 41.30
10247 42.3813 1703.10 1512.58 43.30
10248 42.3850 1646.40 1522.20 42.80
10249 42.3888 1677.70 1532.69 42.70
10250 42.3925 1704.20 1544.11 43.00
10251 42.3963 1719.80 1556.55 43.60
10252 42.4000 1609.10 1570.17 42.60
10253 42.4038 1664.60 1585.16 43.00
10254 42.4076 1741.80 1601.62 44.30
10255 42.4113 1774.00 1619.84 44.30
10256 42.4151 1725.50 1639.97 43.20
10257 42.4188 1668.60 1662.34 42.30
10258 42.4226 1766.70 1687.37 45.70
10259 42.4263 1828.60 1715.42 45.00
10260 42.4301 1804.20 1746.89 44.70
10261 42.4338 1849.50 1782.45 45.40
10262 42.4376 1896.00 1822.97 45.90
10263 42.4413 2028.30 1869.16 47.80
10264 42.4451 1929.90 1922.34 46.10
10265 42.4489 2052.30 1983.79 48.30
10266 42.4526 2081.20 2055.22 48.10
10267 42.4564 2257.20 2139.06 50.40
10268 42.4601 2271.30 2238.69 50.20
10269 42.4639 2506.60 2357.35 52.90
10270 42.4676 2391.60 2501.10 52.30
10271 42.4714 2625.50 2676.36 55.50
10272 42.4751 2730.00 2894.05 56.10
10273 42.4789 3144.60 3168.23 60.80
10274 42.4827 3396.80 3524.42 63.10
10275 42.4864 3905.10 4002.23 66.50
10276 42.4902 4514.10 4685.96 73.70
10277 42.4939 5585.10 5727.58 80.60
10278 42.4977 7103.00 7405.12 92.50
10279 42.5014 9605.10 10118.20 108.90
10280 42.5052 13668.40 14355.00 132.60
10281 42.5089 20199.00 20404.20 165.50
10282 42.5127 28021.00 28044.90 201.10
10283 42.5164 35753.40 35556.80 228.60
10284 42.5202 38208.70 39237.40 236.70
10285 42.5239 37531.10 36305.40 240.60
10286 42.5277 31323.80 29010.30 213.50
10287 42.5315 23825.60 21272.60 182.80
10288 42.5352 15529.00 14983.20 142.80
10289 42.5390 10467.50 10549.50 115.10
10290 42.5427 7308.80 7666.31 95.30
10291 42.5465 5754.30 5887.26 84.20
10292 42.5502 4545.80 4786.46 73.90
10293 42.5540 3934.60 4070.93 67.60
10294 42.5578 3407.40 3572.13 62.60
10295 42.5615 3092.10 3204.82 60.50
10296 42.5653 2808.30 2921.05 56.30
10297 42.5690 2558.20 2697.55 54.50
10298 42.5728 2383.00 2517.25 52.30
10299 42.5765 2310.20 2369.85 51.50
10300 42.5803 2147.20 2248.31 48.80
10301 42.5840 2067.50 2146.34 48.10
10302 42.5878 2024.90 2060.60 47.90
10303 42.5915 2039.20 1987.39 48.50
10304 42.5953 1868.40 1924.73 45.80
10305 42.5991 1920.50 1870.46 46.90
10306 42.6028 1830.50 1823.32 45.90
10307 42.6066 1928.10 1781.90 46.70
10308 42.6103 1739.70 1745.57 44.50
10309 42.6141 1637.30 1713.33 43.10
10310 42.6178 1715.40 1684.70 43.80
10311 42.6216 1795.10 1659.17 44.50
10312 42.6254 1718.90 1636.20 45.00
10313 42.6291 1646.10 1615.59 42.90
10314 42.6329 1714.00 1596.93 43.60
10315 42.6366 1640.20 1580.05 42.80
10316 42.6404 1641.80 1564.68 43.10
10317 42.6441 1626.80 1550.64 42.60
10318 42.6479 1586.90 1537.84 42.40
10319 42.6516 1593.40 1526.08 42.50
10320 42.6554 1576.90 1515.29 42.20
10321 42.6591 1596.70 1505.33 42.70
10322 42.6629 1539.00 1496.15 41.80
10323 42.6667 1650.80 1487.63 42.80
10324 42.6704 1614.40 1479.75 43.00
10325 42.6742 1608.40 1472.41 42.20
10326 42.6779 1483.50 1465.57 40.80
10327 42.6817 1541.90 1459.21 41.80
10328 42.6854 1508.30 1453.27 42.00
10329 42.6892 1445.40 1447.71 39.90
10330 42.6930 1464.10 1442.50 40.30
10331 42.6967 1586.10 1437.61 41.30
10332 42.7005 1519.50 1433.00 40.40
10333 42.7042 1523.70 1428.68 41.20
10334 42.7080 1485.40 1424.61 39.90
10335 42.7117 1467.70 1420.75 39.70
10336 42.7155 1474.00 1417.13 39.90
10337 42.7192 1512.30 1413.68 39.90
10338 42.7230 1494.40 1410.43 40.00
10339 42.7267 1571.60 1407.35 41.50
10340 42.7305 1442.10 1404.41 39.30
10341 42.7343 1482.10 1401.63 40.10
10342 42.7380 1403.00 1398.99 39.20
10343 42.7418 1513.90 1396.47 40.40
10344 42.7455 1436.00 1394.08 39.70
10345 42.7493 1451.80 1391.79 39.90
10346 42.7531 1456.40 1389.60 39.30
10347 42.7568 1419.80 1387.52 39.20
10348 42.7606 1424.20 1385.52 39.40
10349 42.7643 1492.40 1383.62 40.30
10350 42.7681 1555.50 1381.79 41.10
10351 42.7718 1437.50 1380.04 39.40
10352 42.7756 1438.00 1378.36 39.70
10353 42.7793 1503.50 1376.75 40.70
10354 42.7831 1373.40 1375.20 38.60
10355 42.7868 1476.30 1373.72 40.40
10356 42.7906 1403.20 1372.29 39.50
10357 42.7944 1427.50 1370.91 39.50
10358 42.7981 1469.70 1369.59 40.00
10359 42.8019 1441.10 1368.31 39.50
10360 42.8056 1455.20 1367.08 39.90
10361 42.8094 1373.50 1365.89 39.00
10362 42.8131 1474.80 1364.74 40.20
10363 42.8169 1458.20 1363.64 40.20
10364 42.8207 1376.00 1362.57 38.00
10365 42.8244 1457.40 1361.53 40.70
10366 42.8282 1367.80 1360.53 38.30
10367 42.8319 1361.50 1359.56 38.40
10368 42.8357 1420.60 1358.62 39.40
10369 42.8394 1418.70 1357.71 39.60
10370 42.8432 1420.20 1356.83 38.80
10371 42.8470 1461.10 1355.98 40.00
10372 42.8507 1419.80 1355.15 39.60
10373 42.8545 1432.40 1354.34 39.90
10374 42.8582 1412.60 1353.56 39.30
10375 42.8620 1425.50 1352.80 39.20
10376 42.8657 1383.00 1352.06 39.00
10377 42.8695 1457.20 1323.42 40.10
10378 42.8732 1425.70 1323.31 39.70
10379 42.8770 1466.80 1323.20 39.60
10380 42.8808 1397.80 1323.09 39.70
10381 42.8845 1488.50 1322.98 40.70
10382 42.8883 1478.00 1322.87 39.70
10383 42.8920 1394.30 1322.76 39.10
10384 42.8958 1469.70 1322.66 39.50
10385 42.8996 1374.20 1322.55 38.80
10386 42.9033 1394.30 1322.44 39.50
10387 42.9071 1371.30 1322.33 38.80
10388 42.9108 1373.60 1322.22 38.90
10389 42.9146 1404.20 1322.11 39.10
10390 42.9183 1361.90 1322.00 38.10
10391 42.9221 1470.70 1321.89 40.20
10392 42.9258 1442.00 1321.79 40.10
10393 42.9296 1387.00 1321.68 39.30
10394 42.9334 1423.60 1321.57 39.50
10395 42.9371 1374.00 1321.46 38.70
10396 42.9409 1367.70 1321.35 38.90
10397 42.9446 1433.80 1321.24 39.60
10398 42.9484 1360.80 1321.13 38.50
10399 42.9521 1487.90 1321.03 40.00
10400 42.9559 1401.10 1320.92 39.20
10401 42.9597 1398.80 1320.81 39.10
10402 42.9634 1385.10 1320.70 38.80
10403 42.9672 1379.40 1320.59 38.80
10404 42.9709 1402.10 1320.48 39.40
10405 42.9747 1434.90 1320.38 40.30
10406 42.9784 1401.90 1320.27 38.40
10407 42.9822 1417.20 1320.16 39.20
10408 42.9860 1467.70 1320.05 40.30
10409 42.9897 1372.10 1319.94 38.20
10410 42.9935 1404.70 1319.84 39.60
10411 42.9972 1370.90 1319.73 38.10
10412 43.0010 1348.70 1319.62 38.50
10413 43.0047 1404.20 1319.51 39.00
10414 43.0085 1295.50 1319.40 37.70
10415 43.0123 1387.90 1319.30 39.20
10416 43.0160 1380.50 1319.19 39.20
10417 43.0198 1379.10 1319.08 37.60
10418 43.0235 1395.30 1318.97 39.20
10419 43.0273 1390.00 1318.87 39.50
10420 43.0310 1396.20 1318.76 39.00
10421 43.0348 1371.20 1318.65 38.10
10422 43.0386 1387.10 1318.54 39.00
10423 43.0423 1452.20 1318.44 40.20
10424 43.0461 1412.30 1318.33 39.40
10425 43.0498 1387.90 1318.22 39.30
10426 43.0536 1389.40 1318.11 38.70
10427 43.0573 1377.80 1318.01 39.10
10428 43.0611 1420.30 1317.90 39.00
10429 43.0649 1433.40 1317.79 39.40
10430 43.0686 1411.50 1317.69 39.50
10431 43.0724 1396.70 1317.58 39.30
10432 43.0761 1391.90 1317.47 39.20
10433 43.0799 1408.20 1317.36 38.90
10434 43.0836 1387.00 1317.26 39.20
10435 43.0874 1396.70 1317.15 39.10
10436 43.0912 1334.20 1317.04 38.60
10437 43.0949 1373.60 1316.94 39.40
10438 43.0987 1404.70 1316.83 39.40
10439 43.1024 1378.50 1316.72 39.30
10440 43.1062 1344.20 1316.62 38.50
10441 43.1100 1447.50 1316.51 39.90
10442 43.1137 1399.10 1316.40 39.30
10443 43.1175 1426.60 1316.30 39.70
10444 43.1212 1388.50 1316.19 38.60
10445 43.1250 1414.90 1316.08 40.20
10446 43.1287 1393.00 1315.98 38.40
10447 43.1325 1333.70 1315.87 38.20
10448 43.1362 1419.60 1315.76 39.60
10449 43.1400 1382.90 1315.66 39.00
10450 43.1438 1422.30 1315.55 39.40
10451 43.1475 1368.00 1315.44 38.70
10452 43.1513 1374.10 1315.34 39.00
10453 43.1550 1421.30 1315.23 39.70
10454 43.1588 1399.70 1315.13 39.60
10455 43.1626 1364.00 1315.02 39.20
10456 43.1663 1420.80 1314.91 40.40
10457 43.1701 1414.60 1314.81 38.90
10458 43.1738 1305.10 1314.70 37.10
10459 43.1776 1402.30 1314.60 38.40
10460 43.1813 1402.50 1314.49 38.60
10461 43.1851 1405.80 1314.38 39.00
10462 43.1889 1399.10 1314.28 39.10
10463 43.1926 1407.20 1314.17 39.20
10464 43.1964 1373.10 1314.07 38.70
10465 43.2001 1358.00 1313.96 38.30
10466 43.2039 1360.00 1313.85 38.30
10467 43.2076 1326.80 1313.75 38.00
10468 43.2114 1401.80 1313.64 38.90
10469 43.2152 1395.50 1313.54 39.30
10470 43.2189 1361.70 1313.43 38.00
10471 43.2227 1434.40 1313.33 39.90
10472 43.2264 1354.50 1313.22 38.70
10473 43.2302 1442.50 1313.12 39.80
10474 43.2340 1340.60 1313.01 38.30
10475 43.2377 1386.20 1312.91 38.50
10476 43.2415 1353.90 1312.80 38.30
10477 43.2452 1374.00 1312.69 38.40
10478 43.2490 1301.20 1312.59 37.70
10479 43.2527 1413.50 1312.48 39.70
10480 43.2565 1334.30 1312.38 38.20
10481 43.2603 1419.60 1312.27 39.60
10482 43.2640 1387.80 1312.17 38.90
10483 43.2678 1454.70 1312.06 39.80
10484 43.2715 1373.00 1311.96 38.10
10485 43.2753 1316.20 1311.85 37.90
10486 43.2790 1402.80 1311.75 39.30
10487 43.2828 1388.90 1311.64 38.80
10488 43.2866 1348.60 1311.54 38.60
10489 43.2903 1455.30 1311.44 39.90
10490 43.2941 1398.20 1311.33 39.30
10491 43.2978 1368.20 1311.23 38.50
10492 43.3016 1278.50 1311.12 37.20
10493 43.3054 1307.60 1311.02 37.20
10494 43.3091 1376.10 1310.91 39.00
10495 43.3129 1362.30 1310.81 38.90
10496 43.3166 1360.30 1310.70 38.80
10497 43.3204 1416.30 1310.60 38.20
10498 43.3242 1392.00 1310.49 39.50
10499 43.3279 1397.80 1310.39 39.50
10500 43.3317 1349.80 1310.29 37.70
10501 43.3354 1384.50 1310.18 39.10
10502 43.3392 1355.40 1310.08 38.20
10503 43.3429 1430.40 1309.97 39.50
10504 43.3467 1359.00 1309.87 38.30
10505 43.3505 1366.40 1309.77 38.50
10506 43.3542 1350.50 1309.66 38.00
10507 43.3580 1406.20 1309.56 39.20
10508 43.3617 1369.40 1309.45 38.80
10509 43.3655 1399.90 1309.35 39.10
10510 43.3693 1312.80 1309.25 37.70
10511 43.3730 1393.40 1309.14 38.40
10512 43.3768 1342.60 1309.04 38.30
10513 43.3805 1375.10 1308.93 38.70
10514 43.3843 1358.00 1308.83 38.50
10515 43.3880 1389.90 1308.73 38.80
10516 43.3918 1354.30 1308.62 38.50
10517 43.3955 1353.00 1308.52 38.30
10518 43.3993 1336.50 1308.42 37.90
10519 43.4031 1449.60 1308.31 39.80
10520 43.4068 1340.40 1308.21 37.80
10521 43.4106 1357.40 1308.11 38.60
10522 43.4143 1350.60 1308.00 38.20
10523 43.4181 1371.70 1307.90 38.10
10524 43.4219 1371.10 1307.80 38.10
10525 43.4256 1485.30 1307.69 41.10
10526 43.4294 1351.30 1307.59 38.20
10527 43.4331 1338.50 1307.49 37.60
10528 43.4369 1298.40 1307.38 37.60
10529 43.4407 1469.00 1307.28 39.80
10530 43.4444 1393.50 1307.18 39.00
10531 43.4482 1374.30 1307.07 38.70
10532 43.4519 1315.10 1306.97 37.80
10533 43.4557 1363.80 1306.87 38.60
10534 43.4594 1413.80 1306.77 39.30
10535 43.4632 1339.80 1306.66 38.10
10536 43.4670 1384.10 1306.56 38.50
10537 43.4707 1412.20 1306.46 39.20
10538 43.4745 1337.90 1306.35 37.90
10539 43.4782 1375.00 1306.25 38.70
10540 43.4820 1420.30 1306.15 39.30
10541 43.4858 1283.00 1306.05 37.30
10542 43.4895 1324.60 1305.94 37.60
10543 43.4933 1325.50 1305.84 37.80
10544 43.4970 1323.20 1305.74 37.80
10545 43.5008 1329.90 1305.64 37.80
10546 43.5046 1445.30 1305.53 39.80
10547 43.5083 1383.20 1305.43 38.60
10548 43.5121 1298.70 1305.33 37.70
10549 43.5158 1337.40 1305.23 38.50
10550 43.5196 1319.20 1305.12 37.50
10551 43.5233 1367.00 1305.02 38.20
10552 43.5271 1353.60 1304.92 38.70
10553 43.5309 1362.90 1304.82 38.50
10554 43.5346 1375.40 1304.72 38.30
10555 43.5384 1329.00 1304.61 37.50
10556 43.5421 1436.70 1304.51 39.40
10557 43.5459 1407.70 1304.41 39.30
10558 43.5497 1307.10 1304.31 37.60
10559 43.5534 1343.10 1304.21 38.40
10560 43.5572 1347.70 1304.11 38.20
10561 43.5609 1337.80 1304.00 38.20
10562 43.5647 1358.40 1303.90 38.60
10563 43.5685 1344.90 1303.80 38.20
10564 43.5722 1354.20 1303.70 38.50
10565 43.5760 1394.40 1303.60 38.80
10566 43.5797 1396.80 1303.50 39.00
10567 43.5835 1359.00 1303.39 38.80
10568 43.5872 1285.40 1303.29 37.40
10569 43.5910 1318.30 1303.19 37.80
10570 43.5948 1332.40 1303.09 37.00
10571 43.5985 1330.70 1302.99 37.90
10572 43.6023 1380.20 1302.89 38.80
10573 43.6060 1362.60 1302.79 38.40
10574 43.6098 1318.10 1302.68 37.80
10575 43.6136 1356.30 1302.58 38.30
10576 43.6173 1256.70 1302.48 36.80
10577 43.6211 1391.40 1302.38 38.80
10578 43.6248 1303.90 1302.28 37.60
10579 43.6286 1368.60 1302.18 38.50
10580 43.6324 1369.30 1302.08 38.80
10581 43.6361 1382.20 1301.98 38.80
10582 43.6399 1316.70 1301.88 37.60
10583 43.6436 1399.60 1301.78 38.90
10584 43.6474 1301.80 1301.67 37.80
10585 43.6511 1402.70 1301.57 39.00
10586 43.6549 1359.20 1301.47 38.20
10587 43.6587 1314.20 1301.37 37.30
10588 43.6624 1322.10 1301.27 37.70
10589 43.6662 1349.00 1301.17 38.10
10590 43.6699 1430.80 1301.07 39.20
10591 43.6737 1328.30 1300.97 37.80
10592 43.6775 1371.40 1300.87 38.40
10593 43.6812 1363.50 1300.77 38.30
10594 43.6850 1377.60 1300.67 38.60
10595 43.6887 1338.60 1300.57 37.90
10596 43.6925 1387.00 1300.47 38.80
10597 43.6963 1379.50 1300.37 38.30
10598 43.7000 1286.10 1300.27 36.90
10599 43.7038 1384.90 1300.17 38.80
10600 43.7075 1346.20 1300.07 37.50
10601 43.7113 1354.90 1299.97 38.30
10602 43.7150 1366.20 1299.87 38.70
10603 43.7188 1384.50 1299.77 38.50
10604 43.7226 1366.40 1299.67 37.50
10605 43.7263 1350.50 1299.57 38.60
10606 43.7301 1390.10 1299.47 38.30
10607 43.7338 1325.80 1299.37 37.40
10608 43.7376 1290.00 1299.27 36.60
10609 43.7414 1287.40 1299.17 37.10
10610 43.7451 1407.50 1299.07 38.80
10611 43.7489 1366.60 1298.97 38.60
10612 43.7526 1305.20 1298.87 37.50
10613 43.7564 1403.40 1298.77 38.80
10614 43.7602 1323.00 1298.67 38.00
10615 43.7639 1393.90 1298.57 39.30
10616 43.7677 1302.20 1298.47 37.30
10617 43.7714 1376.00 1298.37 38.50
10618 43.7752 1334.50 1298.27 38.10
10619 43.7790 1327.30 1298.17 37.50
10620 43.7827 1295.90 1298.07 37.40
10621 43.7865 1300.10 1297.98 37.40
10622 43.7902 1344.30 1297.88 38.20
10623 43.7940 1349.80 1297.78 38.20
10624 43.7978 1346.30 1297.68 37.70
10625 43.8015 1313.10 1297.58 37.40
10626 43.8053 1384.10 1297.48 38.90
10627 43.8090 1368.20 1297.38 38.40
10628 43.8128 1342.90 1297.28 38.00
10629 43.8166 1343.90 1297.18 38.00
10630 43.8203 1291.80 1297.08 37.20
10631 43.8241 1350.90 1296.99 37.90
10632 43.8278 1273.30 1296.89 37.70
10633 43.8316 1355.10 1296.79 38.00
10634 43.8354 1354.80 1296.69 37.90
10635 43.8391 1321.70 1296.59 37.60
10636 43.8429 1288.40 1296.49 37.50
10637 43.8466 1383.40 1296.39 38.40
10638 43.8504 1330.90 1296.29 37.80
10639 43.8541 1282.10 1296.20 37.30
10640 43.8579 1408.40 1296.10 39.40
10641 43.8617 1319.70 1296.00 37.80
10642 43.8654 1368.40 1295.90 38.80
10643 43.8692 1293.70 1295.80 37.40
10644 43.8729 1312.90 1295.70 37.80
10645 43.8767 1331.10 1295.61 37.70
10646 43.8805 1367.60 1295.51 38.30
10647 43.8842 1408.40 1295.41 39.20
10648 43.8880 1416.60 1295.31 39.20
10649 43.8917 1287.50 1295.21 37.10
10650 43.8955 1330.20 1295.12 38.00
10651 43.8993 1356.90 1295.02 37.30
10652 43.9030 1317.60 1294.92 38.00
10653 43.9068 1358.70 1294.82 38.60
10654 43.9105 1374.90 1294.72 37.90
10655 43.9143 1333.40 1294.63 37.70
10656 43.9181 1234.20 1294.53 36.00
10657 43.9218 1354.70 1294.43 37.50
10658 43.9256 1335.60 1294.33 38.40
10659 43.9293 1305.50 1294.24 38.00
10660 43.9331 1311.40 1294.14 37.40
10661 43.9369 1298.90 1294.04 37.10
10662 43.9406 1381.70 1293.94 38.30
10663 43.9444 1382.10 1293.85 38.30
10664 43.9481 1372.50 1293.75 38.40
10665 43.9519 1368.30 1293.65 38.20
10666 43.9557 1278.40 1293.55 37.40
10667 43.9594 1393.20 1293.46 38.70
10668 43.9632 1294.20 1293.36 37.50
10669 43.9669 1395.80 1293.26 39.10
10670 43.9707 1357.10 1293.16 38.40
10671 43.9744 1307.80 1293.07 37.80
10672 43.9782 1252.20 1292.97 37.10
10673 43.9820 1290.40 1292.87 37.10
10674 43.9857 1290.60 1292.78 37.40
10675 43.9895 1290.70 1292.68 37.30
10676 43.9933 1320.20 1292.58 37.70
10677 43.9970 1367.10 1292.84 38.50
10678 44.0008 1311.60 1292.75 38.10
10679 44.0045 1369.50 1292.67 38.40
10680 44.0083 1276.90 1292.58 37.00
10681 44.0121 1358.20 1292.49 38.60
10682 44.0158 1374.60 1292.40 38.40
10683 44.0196 1305.20 1292.31 37.20
10684 44.0233 1309.80 1292.23 37.40
10685 44.0271 1323.10 1292.14 38.50
10686 44.0308 1321.40 1292.05 37.80
10687 44.0346 1332.40 1291.97 37.70
10688 44.0384 1295.80 1291.88 37.20
10689 44.0421 1389.60 1291.80 39.00
10690 44.0459 1283.70 1291.71 37.40
10691 44.0496 1343.40 1291.63 37.80
10692 44.0534 1347.70 1291.55 37.90
10693 44.0572 1287.80 1291.46 37.10
10694 44.0609 1293.90 1291.38 37.30
10695 44.0647 1317.70 1291.30 37.60
10696 44.0685 1370.80 1291.22 38.30
10697 44.0722 1340.50 1291.14 37.50
10698 44.0760 1272.30 1291.06 37.20
10699 44.0797 1360.00 1290.98 37.80
10700 44.0835 1317.90 1290.90 37.80
10701 44.0872 1278.60 1290.82 36.90
10702 44.0910 1254.70 1290.75 36.70
10703 44.0948 1303.60 1290.67 37.00
10704 44.0985 1358.00 1290.60 38.30
10705 44.1023 1366.80 1290.52 38.60
10706 44.1060 1387.20 1290.45 38.90
10707 44.1098 1356.70 1290.38 38.60
10708 44.1136 1300.90 1290.31 37.70
10709 44.1173 1354.00 1290.24 37.90
10710 44.1211 1299.40 1290.17 37.20
10711 44.1248 1369.30 1290.11 38.40
10712 44.1286 1241.30 1290.04 37.30
10713 44.1324 1416.70 1289.98 39.30
10714 44.1361 1343.90 1289.92 37.60
10715 44.1399 1322.70 1289.86 37.60
10716 44.1436 1286.10 1289.80 37.20
10717 44.1474 1297.30 1289.75 37.60
10718 44.1512 1340.40 1289.69 38.00
10719 44.1549 1314.00 1289.64 37.60
10720 44.1587 1318.30 1289.60 37.40
10721 44.1624 1331.70 1289.55 37.80
10722 44.1662 1288.20 1289.51 37.30
10723 44.1700 1336.10 1289.47 38.10
10724 44.1737 1276.80 1289.44 37.20
10725 44.1775 1385.90 1289.41 38.40
10726 44.1812 1302.50 1289.39 37.40
10727 44.1850 1383.20 1289.36 39.00
10728 44.1888 1316.60 1289.35 37.70
10729 44.1925 1331.20 1289.34 38.10
10730 44.1963 1368.80 1289.34 38.30
10731 44.2000 1313.00 1289.34 37.50
10732 44.2038 1293.60 1289.36 37.50
10733 44.2076 1305.70 1289.38 37.60
10734 44.2113 1321.10 1289.41 38.10
10735 44.2151 1358.90 1289.45 38.20
10736 44.2188 1290.80 1289.51 36.90
10737 44.2226 1364.90 1289.57 37.60
10738 44.2264 1262.80 1289.66 38.00
10739 44.2301 1356.30 1289.76 38.50
10740 44.2339 1366.50 1289.88 38.00
10741 44.2376 1371.80 1290.02 38.40
10742 44.2414 1304.60 1290.19 37.40
10743 44.2452 1259.00 1290.38 36.60
10744 44.2489 1263.20 1290.61 36.90
10745 44.2527 1355.50 1290.88 37.90
10746 44.2564 1275.60 1291.20 37.30
10747 44.2602 1369.90 1291.57 38.10
10748 44.2640 1298.20 1292.00 37.50
10749 44.2677 1364.20 1292.50 38.30
10750 44.2715 1319.80 1293.10 37.80
10751 44.2752 1341.20 1293.80 37.80
10752 44.2790 1353.10 1294.63 38.10
10753 44.2828 1338.90 1295.62 37.80
10754 44.2865 1277.10 1296.82 36.90
10755 44.2903 1315.20 1298.26 37.60
10756 44.2940 1265.40 1300.03 36.80
10757 44.2978 1386.70 1302.21 38.70
10758 44.3016 1284.30 1304.93 37.20
10759 44.3053 1344.60 1308.41 38.10
10760 44.3091 1383.00 1312.93 38.20
10761 44.3128 1345.30 1319.05 38.60
10762 44.3166 1386.70 1327.85 38.20
10763 44.3204 1413.20 1341.25 39.00
10764 44.3241 1356.80 1362.55 37.80
10765 44.3279 1398.30 1396.63 39.70
10766 44.3316 1485.60 1448.73 39.70
10767 44.3354 1443.20 1522.27 39.60
10768 44.3392 1624.40 1613.87 42.10
10769 44.3429 1640.30 1702.16 42.40
10770 44.3467 1635.60 1742.29 42.40
10771 44.3504 1766.40 1703.96 43.50
10772 44.3542 1600.00 1616.12 41.30
10773 44.3580 1579.00 1524.18 41.30
10774 44.3617 1486.20 1449.72 39.70
10775 44.3655 1397.00 1396.86 39.30
10776 44.3692 1308.80 1362.23 37.30
10777 44.3730 1372.40 1340.41 38.90
10778 44.3768 1324.20 1326.66 37.50
10779 44.3805 1330.30 1317.60 38.20
10780 44.3843 1313.90 1311.22 37.90
10781 44.3880 1306.30 1306.47 37.50
10782 44.3918 1273.50 1302.80 36.80
10783 44.3956 1309.00 1299.86 37.80
10784 44.3993 1371.00 1297.49 38.20
10785 44.4031 1433.60 1295.52 39.30
10786 44.4068 1313.60 1293.88 37.90
10787 44.4106 1231.80 1292.50 36.40
10788 44.4144 1276.30 1291.31 36.60
10789 44.4181 1368.80 1290.29 38.70
10790 44.4219 1275.00 1289.40 36.60
10791 44.4256 1353.20 1288.62 39.00
10792 44.4294 1274.80 1287.92 37.40
10793 44.4332 1296.30 1287.30 37.10
10794 44.4369 1376.90 1286.75 38.50
10795 44.4407 1341.90 1286.25 38.40
10796 44.4444 1321.50 1285.79 38.10
10797 44.4482 1321.00 1285.37 37.80
10798 44.4520 1292.50 1284.99 37.30
10799 44.4557 1325.30 1284.64 38.00
10800 44.4595 1233.30 1284.31 36.50
10801 44.4632 1260.00 1284.00 36.90
10802 44.4670 1279.80 1283.71 37.10
10803 44.4708 1298.80 1283.45 37.80
10804 44.4745 1302.30 1283.19 37.60
10805 44.4783 1299.80 1282.95 37.70
10806 44.4820 1303.00 1282.72 37.70
10807 44.4858 1330.20 1282.50 37.80
10808 44.4896 1290.70 1282.30 37.60
10809 44.4933 1365.40 1282.10 38.40
10810 44.4971 1231.10 1281.91 36.20
10811 44.5008 1309.70 1281.72 36.80
10812 44.5046 1262.50 1281.55 37.00
10813 44.5084 1300.10 1281.37 38.00
10814 44.5121 1298.60 1281.21 37.50
10815 44.5159 1282.80 1281.05 37.40
10816 44.5196 1305.40 1280.89 37.30
10817 44.5234 1345.00 1280.74 37.40
10818 44.5272 1206.70 1280.59 36.90
10819 44.5309 1276.70 1280.45 36.90
10820 44.5347 1346.10 1280.30 38.00
10821 44.5384 1331.10 1280.17 38.00
10822 44.5422 1282.60 1280.03 37.10
10823 44.5460 1353.10 1279.90 38.40
10824 44.5497 1270.30 1279.76 36.90
10825 44.5535 1247.30 1279.64 37.10
10826 44.5572 1291.40 1279.51 37.20
10827 44.5610 1384.00 1279.38 38.90
10828 44.5648 1160.80 1279.26 35.50
10829 44.5685 1330.00 1279.14 38.00
10830 44.5723 1313.70 1279.02 37.60
10831 44.5760 1332.50 1278.90 38.50
10832 44.5798 1271.50 1278.79 37.00
10833 44.5836 1384.30 1278.67 39.10
10834 44.5873 1294.90 1278.55 37.60
10835 44.5911 1278.00 1278.44 37.40
10836 44.5948 1281.20 1278.33 37.60
10837 44.5986 1267.20 1278.22 37.00
10838 44.6024 1315.90 1278.11 38.20
10839 44.6061 1362.80 1278.00 38.70
10840 44.6099 1316.50 1277.89 37.90
10841 44.6136 1353.20 1277.78 39.10
10842 44.6174 1243.30 1277.68 36.40
10843 44.6212 1319.20 1277.57 37.80
10844 44.6249 1245.10 1277.46 36.90
10845 44.6287 1311.90 1277.36 38.30
10846 44.6324 1328.30 1277.26 38.20
10847 44.6362 1314.50 1277.15 37.30
10848 44.6400 1266.90 1277.05 36.70
10849 44.6437 1298.60 1276.95 37.90
10850 44.6475 1260.40 1276.84 36.90
10851 44.6512 1282.40 1276.74 37.60
10852 44.6550 1342.00 1276.64 38.60
10853 44.6588 1276.20 1276.54 36.50
10854 44.6625 1315.60 1276.44 38.10
10855 44.6663 1309.00 1276.34 38.00
10856 44.6700 1265.80 1276.24 37.30
10857 44.6738 1330.70 1276.14 38.90
10858 44.6776 1372.30 1276.04 38.70
10859 44.6813 1291.70 1275.95 37.70
10860 44.6851 1243.70 1275.85 37.80
10861 44.6888 1310.20 1275.75 37.40
10862 44.6926 1233.30 1275.65 36.90
10863 44.6964 1309.10 1275.56 37.40
10864 44.7001 1265.80 1275.11 37.80
10865 44.7039 1283.10 1275.02 37.90
10866 44.7076 1241.00 1274.93 37.30
10867 44.7114 1368.00 1274.84 39.10
10868 44.7152 1240.60 1274.75 36.40
10869 44.7189 1278.10 1274.66 37.90
10870 44.7227 1230.30 1274.58 36.70
10871 44.7264 1300.70 1274.49 38.10
10872 44.7302 1302.80 1274.40 38.60
10873 44.7340 1286.90 1274.31 37.60
10874 44.7377 1308.40 1274.22 37.80
10875 44.7415 1280.90 1274.13 37.40
10876 44.7453 1258.00 1274.04 37.40
10877 44.7490 1306.70 1273.96 38.20
10878 44.7528 1300.70 1273.87 37.90
10879 44.7565 1313.10 1273.78 38.20
10880 44.7603 1303.60 1273.69 37.30
10881 44.7640 1339.80 1273.60 38.70
10882 44.7678 1244.70 1273.51 37.30
10883 44.7716 1273.40 1273.43 37.20
10884 44.7753 1267.80 1273.34 36.70
10885 44.7791 1292.40 1273.25 37.70
10886 44.7828 1259.10 1273.16 37.40
10887 44.7866 1208.20 1273.07 36.80
10888 44.7904 1237.00 1272.98 37.00
10889 44.7941 1282.40 1272.90 37.70
10890 44.7979 1279.80 1272.81 37.60
10891 44.8017 1303.30 1272.72 38.00
10892 44.8054 1340.30 1272.63 38.80
10893 44.8092 1253.10 1272.55 37.30
10894 44.8167 1367.70 1272.37 38.30
10895 44.8204 1265.70 1272.28 37.50
10896 44.8242 1291.90 1272.19 37.30
10897 44.8280 1285.10 1272.11 38.50
10898 44.8317 1284.50 1272.02 37.80
10899 44.8355 1290.80 1271.93 37.60
10900 44.8392 1313.90 1271.84 37.80
10901 44.8430 1282.00 1271.76 37.40
10902 44.8468 1324.40 1271.67 38.10
10903 44.8505 1223.30 1271.58 36.90
10904 44.8543 1291.60 1271.49 37.90
10905 44.8581 1278.70 1271.41 37.50
10906 44.8618 1326.40 1271.32 38.50
10907 44.8656 1269.90 1271.23 37.70
10908 44.8693 1316.50 1271.15 37.90
10909 44.8731 1232.30 1271.06 36.80
10910 44.8769 1307.50 1270.97 38.00
10911 44.8806 1227.60 1270.88 36.70
10912 44.8844 1338.10 1270.80 38.30
10913 44.8881 1201.80 1270.71 36.10
10914 44.8919 1327.60 1270.62 38.30
10915 44.8956 1302.10 1270.54 37.90
10916 44.8994 1320.60 1270.45 38.10
10917 44.9032 1253.80 1270.36 37.10
10918 44.9069 1344.30 1270.28 38.70
10919 44.9107 1325.40 1270.19 38.10
10920 44.9145 1301.20 1270.10 38.40
10921 44.9182 1255.10 1270.02 37.20
10922 44.9220 1319.90 1269.93 38.20
10923 44.9257 1292.20 1269.84 38.10
10924 44.9295 1317.30 1269.76 38.90
10925 44.9333 1244.70 1269.67 36.90
10926 44.9370 1296.00 1269.58 37.60
10927 44.9408 1256.10 1269.50 36.90
10928 44.9445 1348.10 1269.41 38.50
10929 44.9483 1296.90 1269.32 38.40
10930 44.9520 1322.60 1269.24 38.50
10931 44.9558 1326.60 1269.15 38.60
10932 44.9596 1309.00 1269.07 38.60
10933 44.9633 1298.90 1268.98 38.00
10934 44.9671 1351.10 1268.89 38.80
10935 44.9709 1241.70 1268.81 37.00
10936 44.9746 1267.60 1268.72 37.50
10937 44.9784 1220.00 1268.64 36.90
10938 44.9821 1313.20 1268.55 37.40
10939 44.9859 1270.80 1268.46 37.20
10940 44.9897 1251.10 1268.38 37.40
10941 44.9934 1324.90 1268.29 38.60
10942 44.9972 1406.60 1268.21 39.70
10943 45.0009 1277.90 1268.12 37.40
10944 45.0047 1313.70 1268.04 37.60
10945 45.0084 1263.30 1267.95 37.50
10946 45.0122 1282.80 1267.86 37.90
10947 45.0160 1227.70 1267.78 37.20
10948 45.0197 1291.10 1267.69 37.30
10949 45.0235 1247.90 1267.61 36.50
10950 45.0272 1297.20 1267.52 38.50
10951 45.0310 1280.10 1267.44 38.10
10952 45.0348 1320.90 1267.35 38.30
10953 45.0385 1290.30 1267.27 37.80
10954 45.0423 1335.30 1267.18 38.60
10955 45.0460 1281.40 1267.10 37.10
10956 45.0498 1274.40 1267.01 37.90
10957 45.0536 1275.30 1266.92 37.60
10958 45.0573 1292.60 1266.84 37.90
10959 45.0611 1261.40 1266.76 36.70
10960 45.0648 1307.10 1266.67 37.80
10961 45.0686 1269.90 1266.58 37.30
10962 45.0724 1291.10 1266.50 38.00
10963 45.0761 1229.10 1266.42 36.90
10964 45.0799 1249.80 1266.33 37.20
10965 45.0836 1247.60 1266.25 36.70
10966 45.0874 1327.10 1266.16 38.40
10967 45.0912 1247.50 1266.08 38.20
10968 45.0949 1222.40 1265.99 37.00
10969 45.0987 1196.90 1265.91 36.20
10970 45.1024 1274.00 1265.82 37.20
10971 45.1062 1280.90 1265.74 38.30
10972 45.1100 1321.70 1265.65 38.10
10973 45.1137 1262.90 1265.57 37.40
10974 45.1175 1372.10 1265.48 39.10
10975 45.1212 1255.20 1265.40 36.70
10976 45.1250 1318.80 1265.31 38.80
10977 45.1288 1247.50 1265.23 37.50
10978 45.1325 1280.40 1265.15 37.70
10979 45.1363 1297.30 1265.06 37.90
10980 45.1400 1276.30 1264.98 37.30
10981 45.1438 1229.70 1264.89 36.20
10982 45.1476 1326.90 1264.81 38.30
10983 45.1513 1269.80 1264.73 37.90
10984 45.1551 1287.60 1264.64 38.10
10985 45.1588 1266.80 1264.56 37.20
10986 45.1626 1262.70 1264.47 37.70
10987 45.1664 1286.40 1264.39 37.80
10988 45.1701 1391.20 1264.31 39.70
10989 45.1739 1282.10 1264.22 37.50
10990 45.1776 1351.50 1264.14 38.90
10991 45.1814 1277.00 1264.05 37.80
10992 45.1852 1275.50 1263.97 37.60
10993 45.1889 1283.80 1263.89 37.70
10994 45.1927 1272.70 1263.80 37.10
10995 45.1964 1207.00 1263.72 36.40
10996 45.2002 1313.00 1263.64 38.00
10997 45.2040 1291.40 1263.55 37.90
10998 45.2077 1315.70 1263.47 38.50
10999 45.2115 1345.10 1263.39 38.30
11000 45.2152 1280.00 1263.30 38.00
11001 45.2190 1272.90 1263.22 37.60
11002 45.2228 1227.00 1263.14 36.50
11003 45.2265 1219.30 1263.05 37.20
11004 45.2303 1292.80 1262.97 38.60
11005 45.2340 1249.90 1262.89 36.80
11006 45.2378 1339.30 1262.80 38.00
11007 45.2416 1316.00 1262.72 38.30
11008 45.2453 1249.40 1262.64 36.80
11009 45.2491 1252.40 1262.55 37.10
11010 45.2528 1327.40 1262.47 38.40
11011 45.2566 1188.80 1262.39 36.10
11012 45.2603 1272.50 1262.30 37.70
11013 45.2641 1294.60 1262.22 38.10
11014 45.2679 1320.50 1262.14 38.50
11015 45.2716 1276.90 1262.06 37.40
11016 45.2754 1266.70 1261.97 37.10
11017 45.2791 1321.00 1261.89 38.20
11018 45.2829 1261.50 1261.81 37.40
11019 45.2867 1223.20 1261.72 36.40
11020 45.2904 1297.90 1261.64 37.50
11021 45.2942 1287.70 1261.56 37.90
11022 45.2980 1327.80 1261.48 38.40
11023 45.3017 1263.20 1261.39 37.10
11024 45.3055 1297.30 1261.31 38.40
11025 45.3092 1226.90 1261.23 36.90
11026 45.3130 1269.10 1261.15 36.70
11027 45.3167 1284.10 1261.06 37.80
11028 45.3205 1286.50 1260.98 37.20
11029 45.3243 1266.10 1260.90 36.90
11030 45.3280 1310.90 1260.82 39.40
11031 45.3318 1230.20 1260.74 37.20
11032 45.3355 1313.30 1260.65 37.10
11033 45.3393 1267.00 1260.57 37.80
11034 45.3431 1316.00 1260.49 38.10
11035 45.3506 1256.60 1260.33 37.60
11036 45.3543 1232.00 1260.24 36.50
11037 45.3581 1228.80 1260.16 36.60
11038 45.3619 1304.00 1260.08 37.80
11039 45.3656 1254.30 1260.00 37.70
11040 45.3694 1207.90 1259.92 36.80
11041 45.3731 1344.90 1259.83 39.10
11042 45.3769 1199.40 1259.75 36.30
11043 45.3806 1293.60 1259.67 38.00
11044 45.3844 1268.20 1259.59 37.70
11045 45.3882 1280.80 1259.51 37.50
11046 45.3919 1218.50 1259.43 36.60
11047 45.3957 1325.80 1259.35 38.20
11048 45.3994 1277.10 1259.26 37.60
11049 45.4032 1282.80 1259.18 37.40
11050 45.4070 1324.70 1259.10 38.70
11051 45.4107 1180.50 1259.02 35.60
11052 45.4145 1262.70 1258.94 37.00
11053 45.4183 1367.50 1258.86 39.30
11054 45.4220 1234.90 1258.78 36.60
11055 45.4258 1257.80 1258.69 36.70
11056 45.4295 1257.20 1258.61 37.50
11057 45.4333 1315.10 1258.53 38.50
11058 45.4370 1270.20 1258.45 37.40
11059 45.4408 1250.30 1258.37 37.20
11060 45.4446 1300.80 1258.29 37.90
11061 45.4483 1327.70 1258.21 38.20
11062 45.4521 1258.80 1258.13 37.50
11063 45.4558 1332.70 1258.05 38.00
11064 45.4596 1346.20 1257.97 38.90
11065 45.4634 1310.80 1257.88 38.30
11066 45.4671 1253.70 1257.80 37.60
11067 45.4709 1323.10 1257.72 38.60
11068 45.4746 1341.60 1257.64 38.60
11069 45.4784 1373.60 1257.56 39.60
11070 45.4822 1358.90 1257.48 38.80
11071 45.4859 1286.90 1257.40 38.00
11072 45.4897 1272.80 1257.32 37.30
11073 45.4934 1294.30 1257.24 38.00
11074 45.4972 1244.70 1257.16 37.20
11075 45.5009 1266.20 1257.08 37.30
11076 45.5047 1269.90 1257.00 37.30
11077 45.5085 1313.80 1256.92 37.90
11078 45.5122 1251.20 1256.84 36.50
11079 45.5160 1328.20 1256.76 38.30
11080 45.5197 1272.10 1256.68 37.60
11081 45.5235 1382.40 1256.60 39.00
11082 45.5273 1303.70 1256.52 38.10
11083 45.5310 1291.90 1256.44 38.30
11084 45.5348 1234.30 1256.36 36.50
11085 45.5385 1330.50 1256.28 37.70
11086 45.5423 1252.40 1256.20 37.30
11087 45.5461 1365.70 1256.12 38.70
11088 45.5498 1238.20 1256.04 36.90
11089 45.5536 1338.60 1255.96 38.30
11090 45.5573 1321.00 1255.88 38.30
11091 45.5611 1331.00 1255.80 38.70
11092 45.5649 1302.30 1255.72 37.60
11093 45.5686 1313.90 1255.64 38.00
11094 45.5724 1258.70 1255.56 37.40
11095 45.5761 1274.50 1255.48 37.60
11096 45.5799 1321.70 1255.40 37.90
11097 45.5836 1300.10 1255.32 38.00
11098 45.5874 1305.70 1255.24 38.10
11099 45.5912 1250.50 1255.16 37.00
11100 45.5949 1301.10 1255.08 37.20
11101 45.5987 1322.90 1255.00 37.30
11102 45.6025 1324.80 1254.92 38.10
11103 45.6062 1321.70 1254.84 37.40
11104 45.6100 1280.20 1254.76 37.80
11105 45.6137 1359.20 1254.69 39.10
11106 45.6175 1285.80 1254.61 37.90
11107 45.6212 1323.20 1254.53 38.30
11108 45.6250 1309.00 1254.45 37.30
11109 45.6288 1360.80 1254.37 39.00
11110 45.6325 1394.00 1254.29 39.00
11111 45.6363 1314.40 1254.21 38.00
11112 45.6400 1271.50 1254.13 37.10
11113 45.6438 1312.80 1254.05 37.70
11114 45.6476 1298.20 1253.97 38.00
11115 45.6513 1337.40 1253.90 38.60
11116 45.6551 1331.80 1253.82 38.60
11117 45.6588 1321.50 1253.74 38.60
11118 45.6626 1309.40 1253.66 37.80
11119 45.6664 1266.90 1253.58 37.90
11120 45.6701 1356.10 1253.50 38.90
11121 45.6739 1254.30 1253.42 37.50
11122 45.6776 1218.40 1253.35 36.70
11123 45.6814 1302.00 1253.27 37.80
11124 45.6851 1246.80 1253.19 37.10
11125 45.6889 1391.40 1253.11 39.80
11126 45.6927 1298.90 1253.03 38.20
11127 45.6964 1339.40 1252.95 39.10
11128 45.7002 1383.70 1252.87 39.00
11129 45.7039 1346.30 1252.80 39.00
11130 45.7077 1269.20 1252.72 37.90
11131 45.7114 1331.30 1252.64 38.80
11132 45.7152 1312.60 1252.56 38.60
11133 45.7190 1322.70 1252.48 38.60
11134 45.7227 1304.80 1252.41 37.90
11135 45.7265 1312.00 1252.33 37.80
11136 45.7303 1329.90 1252.25 39.60
11137 45.7340 1372.00 1252.17 39.20
11138 45.7378 1342.60 1252.09 38.80
11139 45.7415 1353.40 1252.02 39.00
11140 45.7453 1323.30 1251.94 38.00
11141 45.7490 1292.50 1251.86 38.00
11142 45.7528 1307.30 1251.78 38.30
11143 45.7566 1323.30 1251.70 38.40
11144 45.7603 1282.90 1323.30 36.90
11145 45.7641 1341.00 1324.77 38.30
11146 45.7678 1350.10 1326.28 38.90
11147 45.7716 1320.30 1327.84 38.30
11148 45.7753 1391.70 1329.47 39.30
11149 45.7791 1410.50 1331.14 40.20
11150 45.7829 1277.30 1332.88 38.10
11151 45.7866 1319.80 1334.68 39.00
11152 45.7904 1299.10 1336.55 38.10
11153 45.7941 1407.80 1338.48 39.90
11154 45.7979 1349.70 1340.48 38.70
11155 45.8017 1465.20 1342.57 40.90
11156 45.8054 1322.50 1344.72 38.30
11157 45.8092 1380.40 1346.97 39.10
11158 45.8129 1369.80 1349.29 38.70
11159 45.8167 1399.10 1351.71 39.40
11160 45.8204 1362.00 1354.23 39.70
11161 45.8242 1407.50 1356.85 39.40
11162 45.8280 1390.30 1359.58 39.70
11163 45.8317 1363.10 1362.41 40.20
11164 45.8355 1379.90 1365.36 39.20
11165 45.8392 1409.50 1368.44 39.60
11166 45.8430 1338.10 1371.65 38.90
11167 45.8468 1418.00 1374.99 40.20
11168 45.8505 1441.00 1378.49 40.60
11169 45.8543 1360.50 1382.14 38.90
11170 45.8580 1398.30 1385.95 39.80
11171 45.8618 1484.50 1389.93 41.00
11172 45.8656 1406.10 1394.11 39.70
11173 45.8693 1448.50 1398.48 40.50
11174 45.8731 1436.20 1403.05 40.40
11175 45.8768 1400.60 1407.85 40.00
11176 45.8806 1468.30 1412.87 39.80
11177 45.8843 1516.60 1418.15 41.40
11178 45.8881 1438.40 1423.70 40.30
11179 45.8919 1474.70 1429.54 41.00
11180 45.8956 1417.50 1435.68 40.30
11181 45.8994 1516.70 1442.14 40.70
11182 45.9031 1452.10 1448.94 40.20
11183 45.9069 1562.60 1456.14 42.30
11184 45.9106 1536.00 1463.73 41.70
11185 45.9144 1592.00 1471.75 42.70
11186 45.9182 1563.70 1480.25 42.30
11187 45.9219 1545.40 1489.21 41.80
11188 45.9257 1546.60 1498.75 41.10
11189 45.9294 1554.80 1508.86 43.20
11190 45.9332 1498.20 1519.62 40.50
11191 45.9370 1611.50 1531.07 42.50
11192 45.9407 1576.90 1543.22 41.70
11193 45.9445 1612.90 1556.21 42.90
11194 45.9482 1566.80 1570.11 42.30
11195 45.9520 1655.40 1584.97 43.10
11196 45.9557 1672.70 1600.87 43.90
11197 45.9595 1778.40 1617.97 45.60
11198 45.9633 1727.10 1636.27 43.80
11199 45.9670 1774.10 1656.04 45.90
11200 45.9708 1744.10 1677.33 44.90
11201 45.9745 1755.60 1700.39 44.80
11202 45.9783 1804.20 1725.27 45.90
11203 45.9821 1761.30 1752.34 44.80
11204 45.9858 1892.70 1781.75 46.60
11205 45.9896 1920.90 1813.87 47.20
11206 45.9933 1951.70 1848.95 47.60
11207 45.9971 1968.80 1887.28 48.20
11208 46.0008 1979.70 1929.47 47.00
11209 46.0046 2128.80 1976.07 50.10
11210 46.0084 2203.10 2027.54 50.30
11211 46.0121 2186.40 2084.49 49.80
11212 46.0159 2195.30 2148.25 50.70
11213 46.0196 2423.50 2219.15 53.00
11214 46.0234 2391.40 2298.94 52.60
11215 46.0271 2418.50 2388.84 52.10
11216 46.0309 2544.90 2490.90 56.20
11217 46.0347 2625.50 2606.73 55.60
11218 46.0384 2798.60 2739.79 57.10
11219 46.0422 2910.00 2893.04 58.70
11220 46.0459 2946.40 3071.26 58.60
11221 46.0497 3213.10 3278.92 60.60
11222 46.0535 3429.20 3524.39 64.00
11223 46.0572 3759.90 3816.20 66.00
11224 46.0610 3923.40 4167.61 66.20
11225 46.0647 4378.20 4593.19 71.10
11226 46.0685 4682.40 5118.69 73.50
11227 46.0722 5354.90 5777.15 79.10
11228 46.0760 6056.90 6618.14 85.10
11229 46.0798 7355.00 7730.86 93.70
11230 46.0835 8604.10 9268.73 102.00
11231 46.0873 11353.50 11536.40 119.40
11232 46.0910 14378.00 15034.90 136.00
11233 46.0948 20006.20 20552.60 164.50
11234 46.0985 27768.80 29032.80 197.40
11235 46.1023 40831.80 41394.20 247.80
11236 46.1061 56394.20 57646.20 296.90
11237 46.1098 76006.00 75598.50 361.00
11238 46.1136 86049.20 88493.40 389.10
11239 46.1173 90922.90 87917.80 405.50
11240 46.1211 81121.90 74292.50 375.10
11241 46.1249 63996.30 56297.70 323.40
11242 46.1286 43722.90 40333.50 259.00
11243 46.1324 29889.30 28276.40 210.00
11244 46.1361 19792.30 20039.40 162.10
11245 46.1399 14613.30 14708.10 137.60
11246 46.1436 10924.20 11332.50 117.50
11247 46.1474 8691.50 9132.92 103.20
11248 46.1511 7146.10 7632.42 92.30
11249 46.1549 6145.40 6544.55 85.70
11250 46.1587 5306.90 5721.17 78.40
11251 46.1624 4884.40 5073.88 76.00
11252 46.1662 4147.50 4556.98 69.20
11253 46.1699 3788.00 4136.44 66.20
11254 46.1737 3392.20 3791.04 62.50
11255 46.1774 3365.00 3502.35 60.40
11256 46.1812 3061.40 3260.39 57.80
11257 46.1850 2893.00 3054.61 57.10
11258 46.1887 2726.80 2878.36 54.90
11259 46.1925 2637.80 2726.30 54.00
11260 46.1962 2488.60 2594.80 52.60
11261 46.2000 2469.00 2479.71 52.40
11262 46.2038 2361.80 2378.54 51.30
11263 46.2075 2264.00 2289.13 49.20
11264 46.2113 2122.70 2210.08 48.30
11265 46.2150 2190.80 2139.49 48.70
11266 46.2188 2051.20 2076.25 47.80
11267 46.2225 2056.50 2019.37 46.50
11268 46.2263 1941.50 1968.27 45.80
11269 46.2300 2010.20 1921.94 47.30
11270 46.2338 1938.20 1879.84 46.30
11271 46.2376 1918.20 1841.61 45.30
11272 46.2413 1851.10 1806.57 45.20
11273 46.2451 1884.80 1774.56 45.50
11274 46.2488 1742.40 1745.14 43.60
11275 46.2526 1747.60 1718.15 44.20
11276 46.2564 1702.30 1693.17 43.10
11277 46.2601 1771.90 1670.18 44.70
11278 46.2639 1786.10 1648.82 44.90
11279 46.2676 1704.50 1629.03 42.60
11280 46.2714 1730.00 1610.60 43.70
11281 46.2751 1639.00 1593.50 42.40
11282 46.2789 1643.70 1577.51 42.90
11283 46.2826 1685.20 1562.58 43.30
11284 46.2864 1516.40 1548.63 40.90
11285 46.2902 1608.00 1535.54 41.70
11286 46.2939 1501.90 1523.25 41.00
11287 46.2977 1474.70 1511.71 39.90
11288 46.3014 1503.50 1500.88 40.70
11289 46.3052 1521.90 1490.65 40.90
11290 46.3089 1501.30 1481.03 40.70
11291 46.3127 1571.00 1471.92 42.20
11292 46.3165 1516.90 1463.31 40.90
11293 46.3202 1498.90 1455.17 40.90
11294 46.3240 1455.40 1447.47 40.10
11295 46.3277 1501.90 1440.16 40.10
11296 46.3315 1460.60 1433.23 41.00
11297 46.3352 1439.60 1426.64 39.80
11298 46.3390 1456.30 1420.37 40.00
11299 46.3428 1440.40 1414.40 39.30
11300 46.3465 1375.00 1408.74 39.30
11301 46.3503 1391.30 1403.32 39.40
11302 46.3540 1349.50 1398.15 37.90
11303 46.3578 1413.40 1393.23 39.70
11304 46.3615 1336.00 1388.52 38.20
11305 46.3653 1423.40 1384.03 39.70
11306 46.3690 1378.40 1379.72 38.70
11307 46.3728 1438.10 1375.59 39.40
11308 46.3766 1387.00 1371.64 39.40
11309 46.3803 1462.60 1367.86 40.00
11310 46.3841 1344.80 1364.22 38.60
11311 46.3878 1410.80 1360.73 38.70
11312 46.3916 1389.50 1357.39 38.70
11313 46.3954 1387.70 1354.17 39.20
11314 46.3991 1361.20 1351.08 38.90
11315 46.4029 1362.80 1348.10 39.10
11316 46.4066 1369.40 1345.23 39.00
11317 46.4104 1415.40 1342.48 38.90
11318 46.4141 1336.00 1339.82 38.30
11319 46.4179 1358.30 1337.25 38.60
11320 46.4216 1347.50 1334.78 38.70
11321 46.4254 1326.60 1332.40 36.90
11322 46.4292 1364.50 1330.09 39.40
11323 46.4329 1283.30 1327.87 38.00
11324 46.4367 1347.10 1325.72 38.10
11325 46.4404 1327.60 1323.64 38.80
11326 46.4442 1277.10 1321.63 37.80
11327 46.4479 1327.80 1319.68 38.00
11328 46.4517 1343.60 1317.81 38.60
11329 46.4554 1342.40 1315.98 38.30
11330 46.4592 1324.30 1314.22 38.10
11331 46.4630 1294.20 1312.51 38.00
11332 46.4667 1286.10 1310.85 37.50
11333 46.4705 1321.70 1309.24 38.40
11334 46.4742 1290.80 1237.54 38.00
11335 46.4780 1350.50 1237.46 38.50
11336 46.4817 1351.90 1237.39 39.00
11337 46.4855 1398.50 1237.32 39.40
11338 46.4893 1339.80 1237.25 38.70
11339 46.4930 1319.90 1237.18 38.00
11340 46.4968 1371.70 1237.11 38.40
11341 46.5005 1331.80 1237.04 38.00
11342 46.5043 1268.90 1236.97 36.90
11343 46.5080 1320.80 1236.90 38.40
11344 46.5118 1259.10 1236.83 36.70
11345 46.5155 1254.40 1236.76 37.50
11346 46.5193 1272.40 1236.69 38.00
11347 46.5231 1283.90 1236.62 37.30
11348 46.5268 1284.70 1236.55 37.00
11349 46.5306 1321.10 1236.48 38.90
11350 46.5343 1318.20 1236.41 39.00
11351 46.5381 1324.20 1236.34 37.90
11352 46.5418 1224.90 1236.27 36.10
11353 46.5456 1290.60 1236.20 37.20
11354 46.5494 1251.60 1236.13 36.60
11355 46.5531 1274.10 1236.06 36.80
11356 46.5569 1230.50 1235.99 36.20
11357 46.5606 1319.60 1235.92 37.50
11358 46.5644 1217.10 1235.85 35.90
11359 46.5681 1310.50 1235.78 37.50
11360 46.5719 1263.80 1235.71 36.90
11361 46.5756 1307.20 1235.64 36.90
11362 46.5794 1232.20 1235.57 36.30
11363 46.5831 1282.90 1235.50 37.00
11364 46.5869 1273.80 1235.43 36.90
11365 46.5907 1325.80 1235.36 37.70
11366 46.5944 1252.90 1235.29 36.80
11367 46.5982 1243.30 1235.22 36.50
11368 46.6019 1141.50 1235.15 34.70
11369 46.6057 1281.10 1235.08 36.90
11370 46.6094 1273.10 1235.01 37.40
11371 46.6132 1290.20 1234.94 37.50
11372 46.6170 1211.10 1234.87 36.10
11373 46.6207 1270.40 1234.80 36.40
11374 46.6245 1252.00 1234.73 36.30
11375 46.6282 1303.00 1234.66 37.50
11376 46.6320 1261.00 1234.59 37.40
11377 46.6357 1312.10 1234.52 37.70
11378 46.6395 1305.60 1234.46 37.20
11379 46.6432 1249.00 1234.39 36.40
11380 46.6470 1250.10 1234.32 36.20
11381 46.6507 1259.80 1234.25 36.70
11382 46.6545 1224.80 1234.18 36.30
11383 46.6583 1262.60 1234.11 36.90
11384 46.6620 1249.80 1234.04 36.60
11385 46.6658 1330.70 1233.97 38.00
11386 46.6695 1205.70 1233.90 36.00
11387 46.6733 1215.10 1233.83 36.00
11388 46.6770 1243.50 1233.76 36.90
11389 46.6808 1232.50 1233.70 36.10
11390 46.6846 1221.40 1233.63 35.60
11391 46.6883 1313.80 1233.56 37.50
11392 46.6921 1243.60 1233.49 36.70
11393 46.6958 1207.90 1233.42 36.10
11394 46.6996 1292.40 1233.35 37.10
11395 46.7033 1288.50 1233.28 37.40
11396 46.7071 1207.70 1233.21 35.40
11397 46.7108 1281.90 1233.15 37.40
11398 46.7146 1277.60 1233.08 37.10
11399 46.7183 1256.70 1233.01 36.70
11400 46.7221 1261.90 1232.94 37.00
11401 46.7258 1251.50 1232.87 36.30
11402 46.7296 1205.90 1232.80 35.50
11403 46.7334 1290.90 1232.73 37.80
11404 46.7371 1213.80 1232.67 36.00
11405 46.7409 1265.90 1232.60 36.70
11406 46.7446 1265.30 1232.53 37.00
11407 46.7484 1302.10 1232.46 37.40
11408 46.7521 1272.10 1232.39 37.40
11409 46.7559 1230.80 1232.33 36.50
11410 46.7597 1197.70 1232.26 36.00
11411 46.7634 1250.40 1232.19 36.60
11412 46.7672 1160.40 1232.12 34.90
11413 46.7709 1245.00 1232.05 36.70
11414 46.7747 1213.10 1231.98 36.50
11415 46.7784 1221.80 1231.92 36.60
11416 46.7822 1225.80 1231.85 36.40
11417 46.7859 1289.60 1231.78 37.10
11418 46.7897 1274.40 1231.71 37.20
11419 46.7934 1245.30 1231.64 36.10
11420 46.7972 1197.20 1231.58 35.50
11421 46.8009 1258.40 1231.51 36.90
11422 46.8047 1152.20 1231.44 35.40
11423 46.8085 1271.90 1231.37 37.40
11424 46.8122 1265.80 1231.31 37.10
11425 46.8160 1212.90 1231.24 36.30
11426 46.8197 1261.20 1231.17 37.00
11427 46.8235 1255.90 1231.10 36.60
11428 46.8272 1240.10 1231.03 35.90
11429 46.8310 1223.20 1230.97 36.20
11430 46.8347 1215.90 1230.90 35.60
11431 46.8385 1186.50 1230.83 35.80
11432 46.8423 1234.40 1230.76 36.30
11433 46.8460 1267.70 1230.70 36.90
11434 46.8498 1250.40 1230.63 37.10
11435 46.8535 1168.20 1230.56 36.30
11436 46.8573 1284.30 1230.50 37.40
11437 46.8610 1189.30 1230.43 35.50
11438 46.8648 1210.80 1230.36 36.30
11439 46.8685 1231.90 1230.29 36.40
11440 46.8723 1200.30 1230.23 35.60
11441 46.8760 1293.10 1230.16 37.80
11442 46.8798 1181.60 1230.09 35.70
11443 46.8835 1213.50 1230.02 36.40
11444 46.8873 1167.00 1229.96 35.50
11445 46.8910 1177.10 1229.89 35.70
11446 46.8948 1253.20 1229.82 37.00
11447 46.8986 1239.40 1229.76 36.80
11448 46.9023 1190.00 1229.69 35.80
11449 46.9061 1231.40 1229.62 36.10
11450 46.9098 1195.80 1229.56 36.30
11451 46.9136 1245.50 1229.49 36.70
11452 46.9173 1178.30 1229.42 35.70
11453 46.9211 1249.60 1229.36 36.70
11454 46.9248 1207.20 1229.29 35.90
11455 46.9286 1186.30 1229.22 35.60
11456 46.9324 1150.30 1229.16 35.60
11457 46.9361 1262.20 1229.09 37.20
11458 46.9398 1209.60 1229.02 35.70
11459 46.9436 1162.60 1228.96 35.40
11460 46.9474 1189.20 1228.89 35.50
11461 46.9511 1254.10 1228.82 36.90
11462 46.9549 1147.10 1228.76 35.00
11463 46.9586 1284.20 1228.69 37.50
11464 46.9624 1181.10 1228.62 35.40
11465 46.9661 1239.00 1228.56 36.70
11466 46.9699 1203.80 1228.49 36.20
11467 46.9736 1235.50 1228.42 36.50
11468 46.9774 1238.30 1228.36 36.60
11469 46.9812 1228.50 1228.29 36.90
11470 46.9849 1217.80 1228.22 36.30
11471 46.9887 1234.00 1228.16 36.70
11472 46.9924 1183.40 1228.09 35.70
11473 46.9962 1251.80 1228.03 36.40
11474 46.9993 1254.00 1227.97 36.70
11475 47.0030 1213.80 1227.91 36.70
11476 47.0068 1225.40 1227.84 36.20
11477 47.0106 1184.80 1227.77 36.40
11478 47.0143 1175.90 1227.71 36.50
11479 47.0181 1229.90 1227.64 36.50
11480 47.0218 1176.60 1227.57 35.30
11481 47.0256 1248.00 1227.51 37.80
11482 47.0293 1214.90 1227.44 37.40
11483 47.0331 1281.20 1227.38 37.20
11484 47.0368 1223.00 1227.31 36.00
11485 47.0406 1260.90 1227.25 36.80
11486 47.0443 1187.20 1227.18 35.60
11487 47.0481 1256.40 1227.11 36.60
11488 47.0519 1184.20 1227.05 35.50
11489 47.0556 1201.40 1226.98 35.70
11490 47.0594 1176.80 1226.92 35.30
11491 47.0631 1229.40 1226.85 36.20
11492 47.0669 1192.00 1226.79 35.80
11493 47.0706 1268.60 1226.72 36.40
11494 47.0744 1140.10 1226.65 34.90
11495 47.0782 1169.20 1226.59 35.30
11496 47.0819 1224.20 1226.52 36.20
11497 47.0857 1231.80 1226.46 36.30
11498 47.0894 1222.90 1226.39 36.30
11499 47.0932 1177.90 1226.33 35.50
11500 47.0969 1196.40 1226.26 35.60
11501 47.1007 1171.80 1226.20 35.30
11502 47.1044 1210.20 1226.13 36.40
11503 47.1082 1224.80 1226.07 36.50
11504 47.1119 1247.00 1226.00 36.70
11505 47.1157 1226.10 1225.94 35.70
11506 47.1195 1182.70 1225.87 35.30
11507 47.1232 1186.00 1225.81 35.80
11508 47.1270 1217.80 1225.74 36.80
11509 47.1307 1267.00 1225.67 37.00
11510 47.1345 1242.10 1225.61 36.20
11511 47.1382 1234.30 1225.54 36.20
11512 47.1420 1201.60 1225.48 35.50
11513 47.1457 1235.00 1225.41 36.40
11514 47.1495 1255.60 1225.35 36.80
11515 47.1533 1192.80 1225.29 35.80
11516 47.1570 1177.30 1225.22 35.50
11517 47.1608 1241.70 1225.16 36.60
11518 47.1645 1181.70 1225.09 35.70
11519 47.1683 1337.80 1225.03 37.90
11520 47.1720 1184.80 1224.96 36.00
11521 47.1758 1193.30 1224.90 35.50
11522 47.1796 1151.40 1224.83 34.50
11523 47.1833 1233.80 1224.77 36.30
11524 47.1871 1169.40 1224.70 35.50
11525 47.1908 1225.90 1224.64 36.30
11526 47.1946 1165.50 1224.57 35.10
11527 47.1983 1188.30 1224.51 35.80
11528 47.2021 1129.90 1224.44 34.20
11529 47.2058 1147.80 1224.38 35.30
11530 47.2096 1192.90 1224.32 35.80
11531 47.2133 1253.80 1224.25 36.70
11532 47.2171 1206.60 1224.19 36.20
11533 47.2209 1233.00 1224.12 36.00
11534 47.2225 1214.60 1224.09 35.10
11535 47.2263 1210.60 1224.03 34.90
11536 47.2300 1259.90 1223.96 36.60
11537 47.2338 1256.20 1223.90 36.10
11538 47.2375 1230.80 1223.84 35.80
11539 47.2413 1195.00 1223.77 35.00
11540 47.2450 1164.90 1223.71 34.80
11541 47.2488 1229.60 1223.64 35.70
11542 47.2525 1196.10 1223.58 35.40
11543 47.2563 1215.40 1223.52 35.80
11544 47.2601 1192.40 1223.45 35.20
11545 47.2638 1260.40 1223.39 36.40
11546 47.2676 1237.70 1223.32 36.20
11547 47.2713 1208.70 1223.26 35.70
11548 47.2751 1259.40 1223.20 36.40
11549 47.2788 1210.30 1223.13 35.60
11550 47.2826 1234.60 1223.07 35.90
11551 47.2863 1276.10 1223.00 36.70
11552 47.2901 1162.20 1222.94 34.60
11553 47.2938 1220.30 1222.88 35.50
11554 47.2976 1181.40 1222.81 35.00
11555 47.3014 1185.20 1222.75 35.30
11556 47.3051 1223.00 1222.69 35.70
11557 47.3089 1215.30 1222.62 35.70
11558 47.3126 1154.50 1222.56 34.80
11559 47.3164 1231.30 1222.49 35.80
11560 47.3201 1191.50 1222.43 35.50
11561 47.3239 1186.30 1222.37 35.20
11562 47.3276 1149.70 1222.30 34.60
11563 47.3314 1263.20 1222.24 36.90
11564 47.3351 1202.80 1222.18 35.40
11565 47.3389 1251.60 1222.11 36.30
11566 47.3427 1185.60 1222.05 35.20
11567 47.3464 1224.90 1221.99 35.70
11568 47.3502 1178.40 1221.92 35.20
11569 47.3539 1242.90 1221.86 36.00
11570 47.3577 1182.60 1221.80 35.30
11571 47.3614 1201.40 1221.73 35.50
11572 47.3652 1219.50 1221.67 35.50
11573 47.3689 1280.90 1221.61 36.80
11574 47.3727 1229.30 1221.54 36.20
11575 47.3764 1145.00 1221.48 34.90
11576 47.3802 1223.90 1221.42 36.10
11577 47.3839 1226.10 1221.36 36.20
11578 47.3877 1231.20 1221.29 35.50
11579 47.3915 1234.80 1221.23 36.40
11580 47.3952 1163.30 1221.17 35.10
11581 47.3990 1241.30 1221.10 36.20
11582 47.4027 1202.90 1221.04 35.50
11583 47.4065 1249.40 1220.98 36.50
11584 47.4102 1173.80 1220.91 35.30
11585 47.4140 1211.60 1220.85 36.10
11586 47.4177 1255.20 1220.79 36.50
11587 47.4215 1169.00 1220.73 35.10
11588 47.4253 1153.80 1220.66 34.60
11589 47.4290 1236.40 1220.60 36.30
11590 47.4328 1189.20 1220.54 35.80
11591 47.4365 1251.90 1220.48 36.20
11592 47.4403 1287.40 1220.41 37.00
11593 47.4440 1246.50 1220.35 36.00
11594 47.4478 1130.80 1220.29 34.60
11595 47.4515 1237.00 1220.22 36.10
11596 47.4553 1215.90 1220.16 36.00
11597 47.4590 1201.80 1220.10 35.50
11598 47.4628 1164.20 1220.04 34.90
11599 47.4665 1159.40 1219.97 34.90
11600 47.4703 1141.10 1219.91 34.80
11601 47.4741 1193.00 1219.85 35.70
11602 47.4778 1199.10 1219.79 35.90
11603 47.4816 1163.30 1219.73 35.00
11604 47.4853 1235.20 1219.66 36.50
11605 47.4891 1211.30 1219.60 35.50
11606 47.4928 1171.20 1219.54 35.30
11607 47.4966 1190.20 1219.48 35.30
11608 47.5003 1161.00 1219.41 35.00
11609 47.5041 1213.10 1219.35 35.60
11610 47.5079 1214.10 1219.29 35.70
11611 47.5116 1263.20 1219.23 36.20
11612 47.5154 1228.90 1219.17 36.10
11613 47.5191 1224.10 1219.10 36.40
11614 47.5229 1159.70 1219.04 34.90
11615 47.5266 1198.30 1218.98 35.20
11616 47.5304 1185.40 1218.92 35.80
11617 47.5341 1228.60 1218.86 36.00
11618 47.5379 1195.60 1218.79 35.80
11619 47.5416 1219.50 1218.73 35.90
11620 47.5454 1165.50 1218.67 35.00
11621 47.5492 1274.40 1218.61 36.80
11622 47.5529 1190.30 1218.55 35.30
11623 47.5567 1263.90 1218.48 36.50
11624 47.5604 1141.00 1218.42 34.80
11625 47.5642 1217.80 1218.36 36.10
11626 47.5679 1167.20 1218.30 34.90
11627 47.5717 1202.30 1218.24 35.70
11628 47.5754 1230.20 1218.18 36.20
11629 47.5792 1169.70 1218.11 35.10
11630 47.5830 1181.80 1218.05 35.40
11631 47.5867 1228.90 1217.99 36.20
11632 47.5905 1177.10 1217.93 35.20
11633 47.5942 1236.50 1217.87 36.30
11634 47.5980 1232.30 1217.81 35.40
11635 47.6017 1265.80 1217.74 36.80
11636 47.6055 1167.20 1217.68 34.90
11637 47.6092 1219.50 1217.62 36.30
11638 47.6130 1143.40 1217.56 34.40
11639 47.6167 1188.10 1217.50 35.40
11640 47.6205 1178.60 1217.44 35.60
11641 47.6243 1173.70 1217.38 35.10
11642 47.6280 1205.80 1217.32 35.60
11643 47.6318 1249.10 1217.25 37.20
11644 47.6355 1194.30 1217.19 36.00
11645 47.6393 1293.30 1217.13 36.90
11646 47.6430 1209.20 1217.07 35.80
11647 47.6468 1233.60 1217.01 36.20
11648 47.6506 1214.20 1216.95 36.00
11649 47.6543 1184.40 1216.89 35.50
11650 47.6581 1186.80 1216.83 35.60
11651 47.6618 1186.70 1216.77 35.60
11652 47.6656 1140.00 1216.70 35.00
11653 47.6693 1232.60 1216.64 36.70
11654 47.6731 1174.70 1216.58 35.60
11655 47.6768 1146.60 1216.52 35.00
11656 47.6806 1247.50 1216.46 36.70
11657 47.6843 1222.00 1216.40 35.90
11658 47.6881 1188.60 1216.34 35.20
11659 47.6919 1210.80 1216.28 35.70
11660 47.6956 1216.90 1216.22 35.80
11661 47.6994 1234.20 1216.16 35.80
11662 47.7031 1235.50 1216.10 36.00
11663 47.7069 1145.00 1216.03 34.50
11664 47.7106 1193.30 1215.97 35.40
11665 47.7144 1185.60 1215.91 34.90
11666 47.7182 1204.70 1215.85 35.60
11667 47.7219 1151.50 1215.79 34.80
11668 47.7257 1142.40 1215.73 34.10
11669 47.7294 1285.30 1215.67 36.80
11670 47.7332 1187.10 1215.61 35.80
11671 47.7369 1237.70 1215.55 36.20
11672 47.7407 1202.20 1215.49 35.60
11673 47.7444 1164.70 1215.43 34.90
11674 47.7482 1204.90 1215.37 35.70
11675 47.7520 1304.20 1215.31 37.30
11676 47.7557 1202.30 1215.25 35.50
11677 47.7595 1197.20 1215.19 35.30
11678 47.7632 1220.40 1215.13 36.10
11679 47.7670 1222.60 1215.07 35.70
11680 47.7707 1180.10 1215.01 35.10
11681 47.7745 1211.20 1214.95 35.70
11682 47.7783 1150.90 1214.89 35.00
11683 47.7820 1256.70 1214.83 36.70
11684 47.7858 1182.80 1214.77 35.20
11685 47.7895 1181.10 1214.71 35.30
11686 47.7933 1203.90 1214.65 35.80
11687 47.7970 1182.60 1214.59 35.30
11688 47.8008 1206.60 1214.52 35.60
11689 47.8045 1184.20 1214.46 35.20
11690 47.8083 1213.30 1214.40 35.90
11691 47.8121 1288.80 1214.34 37.40
11692 47.8158 1183.30 1214.28 35.40
11693 47.8196 1189.40 1214.22 35.70
11694 47.8233 1189.40 1214.17 35.70
11695 47.8271 1223.70 1214.11 35.60
11696 47.8308 1183.50 1214.05 35.60
11697 47.8346 1213.80 1213.99 36.10
11698 47.8383 1204.00 1213.93 35.40
11699 47.8421 1173.30 1213.87 35.20
11700 47.8459 1207.30 1213.81 35.90
11701 47.8496 1209.60 1213.75 36.10
11702 47.8534 1151.30 1213.69 35.00
11703 47.8571 1190.50 1213.63 35.20
11704 47.8609 1201.50 1213.57 35.60
11705 47.8647 1187.30 1213.51 35.60
11706 47.8684 1241.80 1213.45 36.40
11707 47.8722 1243.40 1213.39 36.10
11708 47.8759 1164.20 1213.33 34.80
11709 47.8797 1247.10 1213.27 36.40
11710 47.8834 1176.80 1213.21 35.00
11711 47.8872 1198.30 1213.15 35.40
11712 47.8909 1132.20 1213.09 34.70
11713 47.8947 1130.80 1213.03 34.40
11714 47.8985 1174.50 1212.97 35.30
11715 47.9022 1185.10 1212.91 35.10
11716 47.9060 1248.70 1212.85 36.00
11717 47.9097 1192.30 1212.79 35.70
11718 47.9135 1184.00 1212.73 35.10
11719 47.9172 1308.00 1212.68 37.30
11720 47.9210 1218.30 1212.62 35.70
11721 47.9248 1178.50 1212.56 35.10
11722 47.9285 1156.00 1212.50 34.60
11723 47.9323 1232.60 1212.44 36.50
11724 47.9360 1146.60 1212.38 34.70
11725 47.9398 1170.70 1212.32 34.90
11726 47.9435 1101.10 1212.26 34.20
11727 47.9473 1196.10 1212.20 35.30
11728 47.9510 1207.00 1212.14 35.90
11729 47.9548 1253.50 1212.08 36.20
11730 47.9586 1248.50 1212.02 36.40
11731 47.9623 1193.80 1211.97 35.50
11732 47.9661 1163.00 1211.91 35.10
11733 47.9698 1160.20 1211.85 34.80
11734 47.9736 1163.80 1211.79 34.70
11735 47.9773 1203.80 1211.73 35.60
11736 47.9811 1209.30 1211.67 35.70
11737 47.9849 1218.50 1211.61 35.70
11738 47.9886 1200.70 1211.55 35.40
11739 47.9924 1204.40 1211.49 35.30
11740 47.9961 1130.20 1211.44 34.60
11741 47.9999 1195.10 1211.38 35.20
11742 48.0037 1193.00 1211.32 35.30
11743 48.0074 1198.60 1211.26 35.50
11744 48.0112 1116.20 1211.20 34.10
11745 48.0149 1206.50 1211.14 35.50
11746 48.0187 1113.20 1211.08 34.30
11747 48.0224 1200.60 1211.03 35.30
11748 48.0262 1139.80 1210.97 34.10
11749 48.0299 1171.40 1210.91 34.80
11750 48.0337 1163.60 1210.85 35.10
11751 48.0375 1219.60 1210.79 35.70
11752 48.0412 1149.50 1210.73 34.70
11753 48.0450 1243.50 1210.67 36.10
11754 48.0487 1175.20 1210.62 35.30
11755 48.0525 1170.60 1210.56 35.20
11756 48.0563 1133.60 1210.50 34.60
11757 48.0600 1233.80 1210.44 36.00
11758 48.0638 1141.50 1210.38 35.00
11759 48.0675 1252.40 1210.32 36.30
11760 48.0713 1153.70 1210.27 35.00
11761 48.0750 1152.80 1210.21 35.00
11762 48.0788 1208.70 1210.15 36.00
11763 48.0826 1207.80 1210.09 36.00
11764 48.0863 1166.70 1210.03 35.40
11765 48.0901 1177.70 1209.97 35.30
11766 48.0938 1087.30 1209.92 33.40
11767 48.0976 1213.20 1209.86 36.20
11768 48.1013 1169.10 1209.80 35.20
11769 48.1051 1241.60 1209.74 36.10
11770 48.1088 1220.50 1209.68 35.80
11771 48.1126 1194.90 1209.63 35.50
11772 48.1164 1162.00 1209.57 34.90
11773 48.1201 1129.60 1209.51 34.10
11774 48.1239 1179.60 1209.45 35.30
11775 48.1276 1173.40 1209.39 34.40
11776 48.1314 1183.90 1209.34 35.90
11777 48.1352 1161.10 1209.28 35.40
11778 48.1389 1158.10 1209.22 34.40
11779 48.1427 1187.90 1209.16 35.20
11780 48.1464 1137.60 1209.10 34.50
11781 48.1502 1192.40 1209.05 35.30
11782 48.1539 1224.90 1208.99 36.00
11783 48.1577 1202.90 1208.93 35.60
11784 48.1614 1177.70 1208.87 35.40
11785 48.1652 1184.00 1208.82 35.50
11786 48.1690 1182.30 1208.76 35.20
11787 48.1727 1248.70 1208.70 36.50
11788 48.1765 1211.10 1208.64 35.90
11789 48.1802 1206.00 1208.59 35.60
11790 48.1840 1120.30 1208.53 34.40
11791 48.1878 1222.60 1208.47 35.80
11792 48.1915 1197.60 1208.41 35.50
11793 48.1953 1212.70 1208.35 35.90
11794 48.1990 1182.70 1208.30 35.60
11795 48.2028 1141.60 1208.24 34.70
11796 48.2066 1138.80 1208.18 34.70
11797 48.2103 1227.40 1208.13 36.40
11798 48.2141 1160.10 1208.07 35.20
11799 48.2178 1204.80 1208.01 35.80
11800 48.2216 1154.40 1207.95 34.80
11801 48.2253 1183.00 1207.90 35.30
11802 48.2291 1151.60 1207.84 34.90
11803 48.2328 1186.10 1207.78 35.60
11804 48.2366 1195.20 1207.72 35.80
11805 48.2404 1208.40 1207.67 36.10
11806 48.2441 1141.50 1207.61 34.70
11807 48.2479 1171.30 1207.55 35.40
11808 48.2516 1117.20 1207.49 34.10
11809 48.2554 1152.80 1207.44 34.90
11810 48.2592 1155.60 1207.38 35.30
11811 48.2629 1220.10 1207.32 35.80
11812 48.2667 1124.00 1207.27 34.60
11813 48.2704 1194.00 1207.21 36.00
11814 48.2742 1157.70 1207.15 35.40
11815 48.2780 1237.70 1207.10 36.40
11816 48.2817 1184.90 1207.04 35.60
11817 48.2855 1178.00 1206.98 35.70
11818 48.2892 1161.70 1206.92 35.30
11819 48.2930 1153.90 1206.87 35.20
11820 48.2967 1128.70 1206.81 34.60
11821 48.3005 1272.90 1206.75 37.10
11822 48.3042 1218.70 1206.70 36.50
11823 48.3080 1276.30 1206.64 36.60
11824 48.3118 1118.00 1206.58 35.00
11825 48.3155 1239.20 1206.53 36.50
11826 48.3193 1171.70 1206.47 35.50
11827 48.3230 1196.90 1206.41 36.00
11828 48.3268 1168.60 1206.36 35.20
11829 48.3306 1181.60 1206.30 35.30
11830 48.3343 1168.90 1206.24 35.90
11831 48.3381 1172.80 1206.19 35.50
11832 48.3418 1120.60 1206.13 34.20
11833 48.3456 1197.80 1206.07 35.90
11834 48.3493 1194.80 1206.02 36.00
11835 48.3531 1216.40 1205.96 36.00
11836 48.3569 1174.30 1205.90 35.80
11837 48.3606 1222.40 1205.85 36.60
11838 48.3644 1167.90 1205.79 35.50
11839 48.3681 1215.10 1205.73 36.30
11840 48.3719 1196.90 1205.68 36.00
11841 48.3757 1239.20 1205.62 36.60
11842 48.3794 1138.40 1205.56 34.70
11843 48.3832 1173.70 1205.51 35.10
11844 48.3869 1130.40 1205.45 34.80
11845 48.3907 1193.90 1205.39 35.60
11846 48.3945 1130.00 1205.34 34.90
11847 48.3982 1169.90 1205.28 35.20
11848 48.4020 1153.70 1205.23 35.10
11849 48.4057 1180.90 1205.17 35.60
11850 48.4095 1164.40 1205.11 35.50
11851 48.4132 1165.70 1205.06 35.40
11852 48.4170 1215.90 1205.00 36.50
11853 48.4208 1143.10 1204.94 34.90
11854 48.4245 1168.20 1204.89 35.40
11855 48.4283 1244.20 1204.83 36.10
11856 48.4320 1184.60 1204.78 36.30
11857 48.4358 1174.10 1204.72 35.50
11858 48.4395 1126.40 1204.66 34.50
11859 48.4433 1231.10 1204.61 36.40
11860 48.4471 1174.20 1204.55 35.90
11861 48.4508 1167.00 1204.50 35.60
11862 48.4546 1202.70 1204.44 36.00
11863 48.4583 1199.70 1204.38 36.10
11864 48.4621 1205.60 1204.33 35.80
11865 48.4659 1196.60 1204.27 36.20
11866 48.4696 1177.40 1204.22 35.60
11867 48.4734 1189.30 1204.16 35.80
11868 48.4771 1142.80 1204.10 34.90
11869 48.4809 1146.50 1204.05 35.30
11870 48.4846 1105.20 1203.99 34.60
11871 48.4884 1182.40 1203.94 35.40
11872 48.4922 1124.70 1203.88 34.70
11873 48.4959 1197.90 1203.83 36.00
11874 48.4997 1115.20 1203.77 34.90
11875 48.5034 1246.10 1203.71 36.80
11876 48.5072 1173.20 1203.66 35.80
11877 48.5110 1186.90 1203.60 36.00
11878 48.5147 1161.70 1203.55 35.70
11879 48.5185 1161.40 1203.49 35.30
11880 48.5222 1149.00 1203.44 35.20
11881 48.5260 1091.10 1203.38 33.90
11882 48.5298 1142.30 1203.32 35.50
11883 48.5335 1150.90 1203.27 35.80
11884 48.5373 1119.40 1203.21 34.90
11885 48.5410 1187.30 1203.16 35.80
11886 48.5448 1204.60 1203.10 36.40
11887 48.5485 1189.60 1203.05 35.50
11888 48.5523 1119.70 1202.99 34.60
11889 48.5561 1162.00 1202.94 35.30
11890 48.5598 1202.30 1202.88 36.30
11891 48.5636 1166.10 1202.82 35.20
11892 48.5673 1144.10 1202.77 35.20
11893 48.5711 1192.50 1202.71 35.70
11894 48.5748 1174.60 1202.66 36.20
11895 48.5786 1206.10 1202.60 36.10
11896 48.5824 1154.70 1202.55 35.20
11897 48.5861 1214.90 1202.49 36.20
11898 48.5899 1132.30 1202.44 35.00
11899 48.5937 1133.30 1202.38 34.30
11900 48.5974 1157.10 1202.33 36.00
11901 48.6012 1192.90 1202.27 36.20
11902 48.6049 1177.40 1202.22 36.00
11903 48.6087 1189.80 1202.16 35.90
11904 48.6124 1190.50 1202.11 36.00
11905 48.6162 1186.80 1202.05 35.80
11906 48.6200 1085.80 1202.00 34.30
11907 48.6237 1209.50 1201.94 36.80
11908 48.6275 1144.00 1201.89 34.50
11909 48.6312 1175.50 1201.83 36.00
11910 48.6350 1164.10 1201.78 35.80
11911 48.6388 1233.40 1201.72 36.60
11912 48.6425 1093.80 1201.67 34.70
11913 48.6463 1207.50 1201.61 35.40
11914 48.6500 1114.70 1201.56 34.20
11915 48.6538 1189.60 1201.50 35.10
11916 48.6576 1174.00 1201.45 35.20
11917 48.6613 1165.30 1201.39 35.00
11918 48.6651 1188.40 1201.34 35.20
11919 48.6688 1147.50 1201.28 34.80
11920 48.6726 1152.40 1201.23 34.40
11921 48.6763 1180.30 1201.17 35.20
11922 48.6801 1142.40 1201.12 34.30
11923 48.6839 1171.80 1201.06 34.90
11924 48.6876 1172.70 1201.01 35.10
11925 48.6914 1133.60 1200.95 34.20
11926 48.6951 1239.90 1200.90 36.10
11927 48.6989 1187.90 1200.84 35.00
11928 48.7027 1205.20 1200.79 35.60
11929 48.7064 1093.10 1200.73 33.60
11930 48.7102 1154.50 1200.68 35.10
11931 48.7139 1236.60 1200.63 36.50
11932 48.7177 1186.80 1200.57 35.40
11933 48.7215 1150.70 1200.52 34.50
11934 48.7252 1184.80 1200.46 35.30
11935 48.7290 1220.80 1200.41 35.50
11936 48.7327 1156.70 1200.35 35.30
11937 48.7365 1247.70 1200.30 36.10
11938 48.7402 1198.00 1200.24 35.00
11939 48.7440 1142.30 1200.19 34.30
11940 48.7478 1147.00 1200.13 34.70
11941 48.7515 1172.40 1200.08 35.00
11942 48.7553 1141.50 1200.03 34.70
11943 48.7590 1177.50 1199.97 35.20
11944 48.7628 1171.20 1199.92 35.10
11945 48.7666 1198.50 1199.86 35.70
11946 48.7703 1149.90 1199.81 34.90
11947 48.7741 1224.30 1199.75 36.00
11948 48.7778 1135.00 1199.70 34.40
11949 48.7816 1168.60 1199.65 34.80
11950 48.7854 1145.90 1199.59 34.70
11951 48.7891 1220.80 1199.54 36.00
11952 48.7929 1215.70 1199.48 36.10
11953 48.7966 1199.70 1199.43 35.60
11954 48.8004 1147.40 1199.37 34.30
11955 48.8042 1212.00 1199.32 35.60
11956 48.8079 1113.20 1199.27 34.20
11957 48.8117 1173.20 1199.21 35.40
11958 48.8154 1187.30 1199.16 35.00
11959 48.8192 1176.00 1199.10 35.50
11960 48.8229 1125.30 1199.05 34.30
11961 48.8267 1164.80 1199.00 34.60
11962 48.8305 1152.40 1198.94 34.70
11963 48.8342 1172.10 1198.89 35.60
11964 48.8380 1203.60 1198.83 35.30
11965 48.8418 1146.50 1198.78 34.60
11966 48.8455 1161.20 1198.73 34.80
11967 48.8493 1167.00 1198.67 35.00
11968 48.8530 1148.40 1198.62 35.10
11969 48.8568 1245.50 1198.56 36.40
11970 48.8605 1164.60 1198.51 35.20
11971 48.8643 1261.40 1198.46 36.20
11972 48.8681 1123.10 1198.40 34.90
11973 48.8718 1186.20 1198.35 35.40
11974 48.8756 1161.90 1198.30 34.90
11975 48.8793 1190.40 1198.24 35.70
11976 48.8831 1174.20 1198.19 35.30
11977 48.8869 1208.30 1198.13 35.70
11978 48.8906 1179.00 1198.08 35.10
11979 48.8944 1186.50 1198.03 35.20
11980 48.8981 1142.60 1197.97 35.10
11981 48.9019 1206.50 1197.92 35.90
11982 48.9057 1211.70 1197.87 35.80
11983 48.9094 1146.60 1197.81 35.00
11984 48.9132 1130.10 1197.76 34.60
11985 48.9169 1188.70 1197.70 35.50
11986 48.9207 1157.80 1197.65 35.10
11987 48.9245 1178.00 1197.60 35.20
11988 48.9282 1168.60 1197.54 34.50
11989 48.9320 1252.10 1197.49 37.50
11990 48.9357 1201.40 1197.44 36.10
11991 48.9395 1136.60 1197.38 35.10
11992 48.9432 1183.70 1197.33 35.70
11993 48.9470 1185.50 1197.28 35.60
11994 48.9508 1115.80 1197.22 34.70
11995 48.9545 1127.90 1197.17 34.80
11996 48.9583 1209.20 1197.12 35.80
11997 48.9621 1236.70 1197.06 36.80
11998 48.9658 1150.40 1197.01 35.20
11999 48.9696 1198.60 1196.96 35.80
12000 48.9733 1170.90 1196.90 35.20
12001 48.9771 1175.00 1196.85 35.50
12002 48.9809 1229.20 1196.80 36.40
12003 48.9846 1163.00 1196.74 35.10
12004 48.9884 1197.80 1196.69 35.80
12005 48.9921 1186.20 1196.64 35.60
12006 48.9959 1075.40 1196.58 33.80
12007 48.9996 1210.70 1196.53 35.90
12008 49.0034 1254.80 1196.48 36.00
12009 49.0072 1152.00 1196.42 35.20
12010 49.0109 1193.60 1196.37 35.90
12011 49.0147 1168.80 1196.32 35.20
12012 49.0184 1115.80 1196.26 34.60
12013 49.0222 1205.20 1196.21 35.90
12014 49.0260 1186.10 1196.16 35.40
12015 49.0297 1173.90 1196.10 35.00
12016 49.0335 1089.20 1196.05 34.70
12017 49.0372 1156.50 1196.00 35.30
12018 49.0410 1203.20 1195.95 36.10
12019 49.0448 1217.00 1195.89 36.20
12020 49.0485 1096.90 1195.84 34.40
12021 49.0523 1237.90 1195.79 36.70
12022 49.0560 1140.70 1195.73 34.90
12023 49.0598 1143.80 1195.68 34.90
12024 49.0636 1170.60 1195.63 35.70
12025 49.0673 1226.20 1195.57 36.40
12026 49.0711 1166.90 1195.52 35.10
12027 49.0748 1192.40 1195.47 35.90
12028 49.0786 1116.10 1195.42 34.80
12029 49.0824 1227.60 1195.36 36.50
12030 49.0861 1157.70 1195.31 35.20
12031 49.0899 1238.40 1195.26 36.60
12032 49.0936 1191.70 1195.20 36.00
12033 49.0974 1304.40 1195.15 37.20
12034 49.1012 1181.10 1195.10 35.90
12035 49.1049 1232.90 1195.05 36.40
12036 49.1087 1109.20 1194.99 34.50
12037 49.1124 1143.10 1194.94 35.30
12038 49.1162 1136.60 1194.89 35.00
12039 49.1200 1151.10 1194.84 35.30
12040 49.1237 1185.80 1194.78 36.00
12041 49.1275 1195.40 1194.73 36.20
12042 49.1312 1130.00 1194.68 35.20
12043 49.1350 1208.30 1194.63 35.90
12044 49.1387 1176.20 1207.08 35.60
12045 49.1425 1222.90 1207.28 36.20
12046 49.1463 1153.10 1207.50 35.10
12047 49.1500 1183.40 1207.73 35.60
12048 49.1538 1227.30 1207.96 36.50
12049 49.1576 1248.50 1208.20 36.60
12050 49.1613 1166.00 1208.45 35.00
12051 49.1651 1196.40 1208.72 36.20
12052 49.1688 1215.80 1208.99 36.20
12053 49.1726 1193.30 1209.28 35.90
12054 49.1763 1182.00 1209.57 35.60
12055 49.1801 1221.70 1209.88 36.40
12056 49.1839 1166.20 1210.20 35.60
12057 49.1876 1236.00 1210.54 36.70
12058 49.1914 1189.10 1210.89 35.80
12059 49.1951 1241.00 1211.25 37.20
12060 49.1989 1157.60 1211.63 35.30
12061 49.2027 1201.60 1212.02 36.40
12062 49.2064 1172.90 1212.43 35.70
12063 49.2102 1215.90 1212.86 36.40
12064 49.2140 1201.80 1213.31 36.30
12065 49.2177 1180.70 1213.78 35.80
12066 49.2215 1208.30 1214.27 35.70
12067 49.2252 1233.20 1214.78 36.30
12068 49.2290 1193.50 1215.32 35.70
12069 49.2327 1236.20 1215.87 37.10
12070 49.2365 1210.80 1216.46 36.00
12071 49.2403 1173.20 1217.07 35.30
12072 49.2440 1207.50 1217.71 36.40
12073 49.2478 1216.00 1218.38 36.20
12074 49.2515 1232.00 1219.08 36.10
12075 49.2553 1225.90 1219.82 36.70
12076 49.2591 1180.60 1220.59 36.00
12077 49.2628 1177.10 1221.41 36.10
12078 49.2666 1224.30 1222.26 36.50
12079 49.2704 1238.90 1223.16 36.80
12080 49.2741 1149.70 1224.10 35.20
12081 49.2779 1202.30 1225.10 36.00
12082 49.2816 1216.10 1226.14 36.70
12083 49.2854 1149.60 1227.24 35.20
12084 49.2892 1196.00 1228.41 36.40
12085 49.2929 1245.90 1229.64 37.00
12086 49.2967 1269.90 1230.94 36.90
12087 49.3004 1310.10 1232.31 37.50
12088 49.3042 1209.40 1233.76 36.20
12089 49.3079 1190.80 1235.30 36.20
12090 49.3117 1216.20 1236.94 36.40
12091 49.3155 1209.90 1238.67 36.10
12092 49.3192 1216.00 1240.52 36.30
12093 49.3230 1318.70 1242.48 37.60
12094 49.3267 1199.00 1244.57 35.60
12095 49.3305 1316.50 1246.80 38.00
12096 49.3343 1235.50 1249.17 37.30
12097 49.3380 1212.00 1251.72 36.00
12098 49.3418 1184.60 1254.45 35.70
12099 49.3455 1215.20 1257.37 36.20
12100 49.3493 1238.90 1260.51 36.90
12101 49.3531 1235.90 1263.88 36.60
12102 49.3568 1247.90 1267.52 36.60
12103 49.3606 1294.50 1271.45 36.80
12104 49.3643 1245.80 1275.70 37.00
12105 49.3681 1278.40 1280.30 37.10
12106 49.3719 1235.80 1285.30 36.60
12107 49.3756 1249.30 1290.74 36.70
12108 49.3794 1261.10 1296.67 37.30
12109 49.3831 1318.40 1303.17 38.10
12110 49.3869 1270.00 1310.28 36.70
12111 49.3907 1342.50 1318.10 38.30
12112 49.3944 1305.70 1326.74 37.90
12113 49.3982 1383.80 1336.28 39.00
12114 49.4019 1336.40 1346.87 38.60
12115 49.4057 1373.70 1358.68 38.70
12116 49.4095 1357.80 1371.88 38.20
12117 49.4132 1421.30 1386.69 39.70
12118 49.4170 1387.20 1403.43 38.90
12119 49.4207 1459.00 1422.39 40.20
12120 49.4245 1404.80 1443.97 38.90
12121 49.4283 1477.40 1468.75 39.80
12122 49.4320 1415.20 1497.30 40.20
12123 49.4358 1581.70 1530.45 41.90
12124 49.4395 1589.40 1569.23 41.80
12125 49.4433 1632.10 1614.96 42.40
12126 49.4471 1604.80 1669.38 42.20
12127 49.4508 1693.20 1734.80 43.50
12128 49.4546 1756.20 1814.34 44.80
12129 49.4583 1779.70 1912.34 44.40
12130 49.4621 2006.50 2035.06 46.90
12131 49.4659 2108.70 2192.27 48.80
12132 49.4696 2338.30 2400.28 51.40
12133 49.4734 2781.50 2688.05 55.70
12134 49.4771 3133.60 3106.76 60.00
12135 49.4809 3691.90 3740.84 66.10
12136 49.4847 4676.30 4712.84 73.50
12137 49.4884 6213.10 6169.78 86.30
12138 49.4922 8278.80 8236.60 99.90
12139 49.4959 11554.00 10906.40 120.90
12140 49.4997 13753.60 13784.20 133.50
12141 49.5035 15638.50 15752.10 142.90
12142 49.5072 15468.40 15514.60 140.10
12143 49.5110 14534.10 13253.10 138.40
12144 49.5147 11033.70 10353.10 117.10
12145 49.5185 8274.70 7786.25 100.40
12146 49.5223 5912.00 5843.14 84.20
12147 49.5260 4379.30 4491.27 70.70
12148 49.5298 3331.50 3595.59 61.20
12149 49.5335 2895.20 3011.45 57.70
12150 49.5373 2520.40 2623.36 53.20
12151 49.5411 2297.90 2354.04 51.10
12152 49.5448 2033.60 2157.50 47.20
12153 49.5486 2004.20 2007.87 47.30
12154 49.5523 1732.50 1890.44 43.80
12155 49.5561 1794.10 1796.32 44.40
12156 49.5599 1628.40 1719.70 42.60
12157 49.5636 1593.30 1656.52 41.90
12158 49.5674 1514.30 1603.87 40.70
12159 49.5711 1532.20 1559.46 40.60
12160 49.5749 1493.80 1521.76 40.60
12161 49.5787 1431.50 1489.50 39.50
12162 49.5824 1400.30 1461.60 39.20
12163 49.5862 1426.20 1437.40 39.70
12164 49.5899 1339.40 1416.26 38.40
12165 49.5937 1375.50 1397.64 38.90
12166 49.5975 1318.70 1381.20 37.80
12167 49.6012 1361.70 1366.62 38.50
12168 49.6050 1355.30 1353.59 38.70
12169 49.6087 1359.00 1341.93 37.70
12170 49.6125 1330.60 1331.46 37.80
12171 49.6163 1360.40 1321.99 37.80
12172 49.6200 1279.60 1313.42 36.90
12173 49.6238 1363.30 1305.64 38.00
12174 49.6275 1288.40 1298.55 37.00
12175 49.6313 1264.60 1292.07 36.40
12176 49.6351 1240.90 1286.13 36.90
12177 49.6388 1294.70 1280.67 36.80
12178 49.6426 1221.70 1275.65 35.50
12179 49.6463 1299.60 1271.02 37.00
12180 49.6501 1310.40 1266.73 37.30
12181 49.6539 1307.20 1262.76 36.80
12182 49.6576 1249.70 1259.07 36.20
12183 49.6614 1266.20 1255.64 36.80
12184 49.6651 1200.40 1252.44 35.60
12185 49.6689 1282.00 1249.46 36.80
12186 49.6727 1144.20 1246.66 34.50
12187 49.6764 1249.80 1244.05 36.10
12188 49.6802 1180.70 1241.60 35.40
12189 49.6839 1213.00 1239.29 35.70
12190 49.6877 1209.60 1237.13 35.60
12191 49.6915 1236.60 1235.09 36.20
12192 49.6952 1217.00 1233.16 35.60
12193 49.6990 1267.80 1231.35 37.10
12194 49.7027 1230.70 1229.63 36.10
12195 49.7065 1235.90 1228.00 35.90
12196 49.7103 1182.70 1226.46 35.10
12197 49.7140 1244.40 1225.00 36.40
12198 49.7178 1208.80 1223.61 35.70
12199 49.7215 1225.20 1222.30 36.10
12200 49.7253 1247.20 1221.04 36.40
12201 49.7291 1266.40 1219.85 36.70
12202 49.7328 1190.10 1218.71 35.40
12203 49.7366 1164.10 1217.62 35.60
12204 49.7403 1230.50 1216.58 36.10
12205 49.7441 1238.00 1215.59 36.10
12206 49.7479 1196.70 1214.65 35.80
12207 49.7516 1252.10 1213.74 36.20
12208 49.7554 1210.10 1212.87 35.90
12209 49.7591 1198.30 1212.04 35.70
12210 49.7629 1204.00 1211.24 36.00
12211 49.7667 1164.00 1210.47 34.90
12212 49.7704 1169.00 1209.73 35.20
12213 49.7742 1130.50 1209.02 34.40
12214 49.7779 1226.30 1208.34 36.40
12215 49.7817 1206.20 1207.69 35.70
12216 49.7855 1160.90 1207.06 35.20
12217 49.7892 1160.20 1206.45 35.00
12218 49.7930 1190.50 1205.86 35.70
12219 49.7967 1216.60 1205.29 35.80
12220 49.8005 1160.80 1204.75 35.20
12221 49.8043 1165.20 1204.22 35.20
12222 49.8080 1164.50 1203.71 34.70
12223 49.8118 1210.50 1203.21 36.00
12224 49.8155 1167.30 1202.73 35.40
12225 49.8193 1209.30 1202.27 35.90
12226 49.8231 1152.40 1201.82 34.70
12227 49.8268 1190.70 1201.39 35.30
12228 49.8306 1156.60 1200.97 34.40
12229 49.8343 1186.60 1200.56 35.90
12230 49.8381 1160.50 1200.16 35.20
12231 49.8419 1255.90 1199.78 36.50
12232 49.8456 1201.50 1199.40 35.90
12233 49.8494 1247.20 1199.04 36.70
12234 49.8531 1153.60 1198.69 34.90
12235 49.8569 1222.50 1198.34 36.00
12236 49.8607 1123.00 1198.01 34.50
12237 49.8644 1142.80 1197.68 34.40
12238 49.8682 1138.10 1197.37 33.90
12239 49.8719 1217.90 1197.06 35.90
12240 49.8757 1136.00 1184.55 34.70
12241 49.8795 1212.70 1184.50 35.80
12242 49.8832 1155.00 1184.45 35.20
12243 49.8870 1148.30 1184.40 34.70
12244 49.8907 1156.50 1184.35 34.80
12245 49.8945 1165.30 1184.30 35.10
12246 49.8983 1074.40 1184.25 33.40
12247 49.9020 1230.10 1184.20 36.20
12248 49.9058 1219.00 1184.15 36.20
12249 49.9095 1226.20 1184.10 36.10
12250 49.9133 1132.70 1184.05 34.70
12251 49.9171 1218.00 1184.00 36.10
12252 49.9208 1104.20 1183.95 34.40
12253 49.9246 1215.40 1183.90 36.40
12254 49.9283 1092.00 1183.85 33.70
12255 49.9321 1144.60 1183.80 34.90
12256 49.9359 1096.20 1183.75 34.50
12257 49.9396 1173.10 1183.70 35.30
12258 49.9434 1115.40 1183.65 34.30
12259 49.9471 1110.00 1183.60 33.80
12260 49.9509 1117.50 1183.55 34.10
12261 49.9547 1149.10 1183.50 35.00
12262 49.9584 1080.50 1183.45 33.70
12263 49.9622 1163.10 1183.40 35.10
12264 49.9659 1165.90 1183.35 34.90
12265 49.9697 1193.80 1183.31 35.60
12266 49.9734 1098.30 1183.26 34.50
12267 49.9772 1126.60 1183.21 34.80
12268 49.9810 1130.70 1183.16 35.10
12269 49.9847 1170.10 1183.11 35.60
12270 49.9885 1149.80 1183.06 35.10
12271 49.9922 1173.60 1183.01 35.20
12272 49.9960 1133.30 1182.96 35.10
12273 49.9998 1148.80 1182.91 35.00
12274 50.0035 1097.10 1182.86 34.60
12275 50.0073 1149.10 1182.81 34.90
12276 50.0111 1158.30 1182.76 35.10
12277 50.0148 1250.80 1182.71 36.60
12278 50.0186 1125.60 1182.66 34.30
12279 50.0223 1190.00 1182.61 35.50
12280 50.0261 1160.70 1182.56 34.30
12281 50.0299 1120.00 1182.51 34.00
12282 50.0336 1126.10 1182.46 35.30
12283 50.0374 1170.20 1182.41 35.50
12284 50.0411 1134.30 1182.36 35.10
12285 50.0449 1203.20 1182.32 36.10
12286 50.0486 1133.40 1182.27 34.80
12287 50.0524 1183.60 1182.22 35.70
12288 50.0562 1103.50 1182.17 34.40
12289 50.0599 1170.80 1182.12 35.30
12290 50.0637 1100.50 1182.07 34.50
12291 50.0675 1176.00 1182.02 35.70
12292 50.0712 1111.30 1181.97 34.60
12293 50.0750 1203.70 1181.92 36.00
12294 50.0787 1152.30 1181.87 35.40
12295 50.0825 1150.10 1181.82 35.50
12296 50.0863 1123.90 1181.77 34.70
12297 50.0900 1122.50 1181.72 34.60
12298 50.0938 1152.30 1181.67 35.30
12299 50.0975 1183.30 1181.63 35.70
12300 50.1013 1084.00 1181.58 33.80
12301 50.1050 1106.00 1181.53 34.10
12302 50.1088 1113.70 1181.48 34.50
12303 50.1126 1092.70 1181.43 34.30
12304 50.1163 1186.70 1181.38 35.30
12305 50.1201 1166.90 1181.33 35.30
12306 50.1238 1086.40 1181.28 33.30
12307 50.1276 1135.80 1181.23 34.50
12308 50.1314 1173.20 1181.18 34.90
12309 50.1351 1194.60 1181.13 36.10
12310 50.1389 1106.00 1181.08 34.40
12311 50.1426 1187.30 1181.04 35.20
12312 50.1464 1147.50 1180.99 34.80
12313 50.1502 1077.30 1180.94 34.10
12314 50.1539 1144.80 1180.89 34.70
12315 50.1577 1129.10 1180.84 34.80
12316 50.1614 1139.90 1180.79 35.10
12317 50.1652 1198.50 1180.74 36.00
12318 50.1690 1122.90 1180.69 34.80
12319 50.1727 1215.10 1180.64 35.80
12320 50.1765 1131.90 1180.59 35.00
12321 50.1802 1203.90 1180.54 35.80
12322 50.1840 1088.70 1180.50 34.00
12323 50.1878 1195.40 1180.45 35.60
12324 50.1915 1172.40 1180.40 35.60
12325 50.1953 1163.50 1180.35 35.40
12326 50.1990 1082.90 1180.30 34.00
12327 50.2028 1206.00 1180.25 35.90
12328 50.2066 1118.10 1180.20 34.50
12329 50.2103 1177.80 1180.15 35.50
12330 50.2141 1119.80 1180.10 34.80
12331 50.2178 1115.70 1180.05 34.30
12332 50.2216 1107.30 1180.01 34.60
12333 50.2253 1138.20 1179.96 34.90
12334 50.2291 1164.10 1179.91 35.00
12335 50.2329 1137.80 1179.86 34.80
12336 50.2366 1136.10 1179.81 35.30
12337 50.2404 1152.90 1179.76 35.00
12338 50.2441 1103.00 1179.71 34.00
12339 50.2479 1183.30 1179.66 35.20
12340 50.2517 1157.90 1179.61 35.40
12341 50.2554 1178.00 1179.57 35.60
12342 50.2592 1222.00 1179.52 36.30
12343 50.2630 1143.00 1179.47 34.70
12344 50.2667 1108.30 1179.42 34.40
12345 50.2705 1160.40 1179.37 34.90
12346 50.2742 1184.60 1179.32 35.30
12347 50.2780 1088.20 1179.27 34.20
12348 50.2817 1148.60 1179.22 35.10
12349 50.2855 1149.30 1179.18 35.20
12350 50.2893 1128.10 1179.13 34.60
12351 50.2930 1121.80 1179.08 34.40
12352 50.2968 1136.00 1179.03 34.80
12353 50.3005 1145.70 1178.98 34.90
12354 50.3043 1068.20 1178.93 33.90
12355 50.3081 1095.20 1178.88 34.30
12356 50.3118 1124.40 1178.83 34.70
12357 50.3156 1186.70 1178.79 35.70
12358 50.3193 1058.80 1178.74 33.50
12359 50.3231 1149.50 1178.69 34.60
12360 50.3269 1208.30 1178.64 36.00
12361 50.3306 1152.40 1178.59 34.70
12362 50.3344 1120.80 1178.54 35.10
12363 50.3381 1104.80 1178.49 34.70
12364 50.3419 1157.70 1178.45 35.10
12365 50.3456 1146.40 1178.40 35.30
12366 50.3494 1169.20 1178.35 35.40
12367 50.3532 1109.10 1178.30 34.70
12368 50.3569 1146.10 1178.25 35.60
12369 50.3607 1048.10 1178.20 33.60
12370 50.3644 1165.10 1178.15 35.60
12371 50.3682 1120.00 1178.10 34.80
12372 50.3720 1111.10 1178.06 34.60
12373 50.3757 1151.50 1178.01 35.40
12374 50.3795 1130.60 1177.96 34.40
12375 50.3833 1194.90 1177.91 35.90
12376 50.3870 1078.00 1177.86 34.50
12377 50.3908 1138.20 1177.81 35.00
12378 50.3945 1125.20 1177.77 34.80
12379 50.3983 1224.00 1177.72 36.50
12380 50.4021 1085.90 1177.67 34.40
12381 50.4058 1117.80 1177.62 34.70
12382 50.4096 1153.90 1177.57 35.10
12383 50.4133 1146.40 1177.52 35.20
12384 50.4171 1154.10 1177.47 35.40
12385 50.4208 1124.60 1177.43 35.00
12386 50.4246 1130.60 1177.38 34.40
12387 50.4284 1179.10 1177.33 35.80
12388 50.4321 1111.60 1177.28 34.70
12389 50.4359 1120.10 1177.23 34.90
12390 50.4396 1121.70 1177.18 34.80
12391 50.4434 1149.40 1177.14 35.30
12392 50.4472 1173.10 1177.09 35.40
12393 50.4509 1105.60 1177.04 34.50
12394 50.4547 1164.00 1176.99 35.40
12395 50.4584 1201.20 1176.94 36.30
12396 50.4622 1142.90 1176.89 34.80
12397 50.4660 1217.00 1176.84 36.50
12398 50.4697 1104.00 1176.80 34.20
12399 50.4735 1119.80 1176.75 34.80
12400 50.4772 1057.20 1176.70 33.80
12401 50.4810 1194.10 1176.65 36.20
12402 50.4847 1137.80 1176.60 35.20
12403 50.4885 1147.70 1176.55 35.10
12404 50.4923 1077.70 1176.51 33.90
12405 50.4960 1153.80 1176.46 34.80
12406 50.4998 1151.40 1176.41 35.20
12407 50.5035 1131.30 1176.36 34.90
12408 50.5073 1159.60 1176.31 35.30
12409 50.5111 1141.00 1176.26 34.70
12410 50.5148 1140.70 1176.22 35.40
12411 50.5186 1139.00 1176.17 35.30
12412 50.5223 1073.70 1176.12 34.50
12413 50.5261 1181.00 1176.07 35.90
12414 50.5299 1093.40 1176.02 33.90
12415 50.5336 1190.10 1175.98 36.00
12416 50.5374 1133.70 1175.93 35.60
12417 50.5411 1092.90 1175.88 34.30
12418 50.5449 1177.80 1175.83 35.70
12419 50.5486 1121.70 1175.78 35.00
12420 50.5524 1161.30 1175.73 35.50
12421 50.5562 1160.40 1175.69 35.30
12422 50.5599 1081.50 1175.64 34.40
12423 50.5637 1116.00 1175.59 34.80
12424 50.5674 1176.80 1175.54 35.90
12425 50.5712 1086.00 1175.49 34.10
12426 50.5750 1110.20 1175.45 34.30
12427 50.5787 1137.40 1175.40 35.20
12428 50.5825 1067.80 1175.35 33.50
12429 50.5862 1142.50 1175.30 35.30
12430 50.5900 1117.80 1175.25 34.50
12431 50.5938 1183.60 1175.20 35.90
12432 50.5975 1121.10 1175.16 34.80
12433 50.6013 1163.10 1175.11 35.20
12434 50.6050 1168.00 1175.06 35.40
12435 50.6088 1117.50 1175.01 34.60
12436 50.6125 1189.30 1174.96 36.00
12437 50.6163 1089.90 1174.92 34.30
12438 50.6201 1136.50 1174.87 34.60
12439 50.6238 1125.90 1174.82 34.70
12440 50.6276 1139.00 1174.77 34.80
12441 50.6313 1121.00 1174.72 34.10
12442 50.6351 1100.40 1174.68 34.60
12443 50.6389 1147.20 1174.63 35.30
12444 50.6426 1086.80 1174.58 34.40
12445 50.6464 1158.80 1174.53 35.00
12446 50.6501 1142.80 1174.48 34.70
12447 50.6539 1137.90 1174.44 34.90
12448 50.6577 1121.60 1174.39 34.90
12449 50.6614 1164.70 1174.34 35.60
12450 50.6652 1145.40 1174.29 35.10
12451 50.6689 1118.00 1174.24 34.30
12452 50.6727 1169.10 1174.20 35.60
12453 50.6764 1154.10 1174.15 35.10
12454 50.6802 1086.80 1174.10 34.20
12455 50.6840 1179.30 1174.05 35.60
12456 50.6877 1203.40 1174.00 36.00
12457 50.6915 1176.60 1173.96 35.50
12458 50.6952 1087.00 1173.91 34.00
12459 50.6990 1133.00 1173.86 34.90
12460 50.7028 1141.70 1173.81 35.00
12461 50.7065 1151.80 1173.76 34.90
12462 50.7103 1130.20 1173.72 34.90
12463 50.7140 1174.60 1173.67 35.80
12464 50.7178 1084.10 1173.62 34.20
12465 50.7215 1148.10 1173.57 35.40
12466 50.7253 1085.00 1173.53 34.00
12467 50.7291 1118.60 1173.48 34.40
12468 50.7328 1121.60 1173.43 34.40
12469 50.7366 1143.50 1173.38 35.80
12470 50.7403 1175.70 1173.33 35.50
12471 50.7441 1174.30 1173.29 35.50
12472 50.7479 1136.20 1173.24 35.10
12473 50.7516 1081.50 1173.19 34.20
12474 50.7554 1184.50 1173.14 36.00
12475 50.7591 1174.70 1173.09 35.60
12476 50.7629 1121.50 1173.05 35.20
12477 50.7667 1093.20 1173.39 34.40
12478 50.7704 1105.30 1173.35 34.30
12479 50.7742 1141.90 1173.31 35.20
12480 50.7779 1105.90 1173.27 34.80
12481 50.7817 1126.50 1173.23 35.40
12482 50.7854 1179.30 1173.19 35.50
12483 50.7892 1170.80 1173.15 35.90
12484 50.7930 1133.10 1173.11 34.50
12485 50.7967 1184.60 1173.08 35.80
12486 50.8005 1095.40 1173.04 34.50
12487 50.8042 1146.70 1173.00 35.30
12488 50.8080 1201.40 1172.97 36.00
12489 50.8118 1131.20 1172.93 34.70
12490 50.8155 1217.70 1172.89 36.30
12491 50.8193 1151.20 1172.86 35.10
12492 50.8230 1115.00 1172.82 34.90
12493 50.8268 1154.90 1172.79 34.90
12494 50.8306 1050.20 1172.75 33.20
12495 50.8343 1159.00 1172.72 35.50
12496 50.8381 1125.70 1172.69 35.50
12497 50.8418 1167.40 1172.66 35.30
12498 50.8456 1121.60 1172.62 34.90
12499 50.8493 1138.80 1172.59 34.90
12500 50.8531 1092.30 1172.56 34.40
12501 50.8568 1093.40 1172.53 34.30
12502 50.8606 1065.90 1172.50 34.20
12503 50.8644 1094.00 1172.47 33.80
12504 50.8681 1099.50 1172.45 34.80
12505 50.8719 1112.40 1172.42 35.00
12506 50.8756 1103.90 1172.40 34.50
12507 50.8794 1104.60 1172.37 34.70
12508 50.8832 1121.60 1172.35 34.50
12509 50.8869 1130.90 1172.32 34.90
12510 50.8907 1106.90 1172.30 34.80
12511 50.8944 1130.80 1172.28 34.70
12512 50.8982 1126.90 1172.26 35.00
12513 50.9020 1165.00 1172.25 35.70
12514 50.9057 1142.80 1172.23 35.20
12515 50.9095 1128.50 1172.22 35.20
12516 50.9132 1115.90 1172.20 34.90
12517 50.9170 1179.50 1172.19 35.70
12518 50.9207 1154.80 1172.18 35.30
12519 50.9245 1130.00 1172.18 34.80
12520 50.9283 1135.40 1172.17 34.60
12521 50.9320 1078.90 1172.17 34.30
12522 50.9358 1133.90 1172.17 35.80
12523 50.9395 1162.40 1172.17 35.30
12524 50.9433 1100.50 1172.18 34.60
12525 50.9470 1118.50 1172.19 34.70
12526 50.9508 1176.90 1172.20 36.10
12527 50.9546 1179.90 1172.22 35.50
12528 50.9583 1147.20 1172.24 35.20
12529 50.9621 1100.60 1172.26 34.70
12530 50.9658 1135.00 1172.29 35.20
12531 50.9696 1142.70 1172.33 35.00
12532 50.9734 1136.10 1172.37 35.20
12533 50.9771 1191.00 1172.41 36.00
12534 50.9809 1098.50 1172.47 34.60
12535 50.9846 1126.10 1172.53 35.10
12536 50.9884 1155.40 1172.60 35.60
12537 50.9921 1061.00 1172.68 33.70
12538 50.9959 1150.80 1172.77 35.60
12539 50.9997 1239.70 1172.87 37.00
12540 51.0034 1099.90 1172.98 34.60
12541 51.0072 1114.30 1173.11 34.80
12542 51.0109 1101.30 1173.25 34.40
12543 51.0147 1098.30 1173.41 34.90
12544 51.0184 1155.40 1173.59 35.10
12545 51.0222 1180.00 1173.79 35.80
12546 51.0260 1091.40 1174.02 34.20
12547 51.0297 1104.40 1174.28 34.60
12548 51.0335 1113.20 1174.57 34.30
12549 51.0372 1118.50 1174.89 35.20
12550 51.0410 1117.90 1175.27 35.10
12551 51.0448 1266.30 1175.69 37.10
12552 51.0485 1173.00 1176.18 36.00
12553 51.0523 1151.50 1176.73 35.30
12554 51.0560 1145.50 1177.37 35.20
12555 51.0598 1117.20 1178.11 34.70
12556 51.0635 1166.20 1178.97 35.60
12557 51.0673 1163.60 1179.97 35.80
12558 51.0710 1124.30 1181.16 35.00
12559 51.0748 1149.70 1182.56 35.00
12560 51.0786 1155.90 1184.24 35.20
12561 51.0823 1181.20 1186.27 35.80
12562 51.0861 1136.50 1188.74 35.00
12563 51.0898 1168.00 1191.80 35.20
12564 51.0936 1088.20 1195.64 34.40
12565 51.0974 1228.00 1200.57 36.60
12566 51.1011 1218.70 1207.10 36.20
12567 51.1049 1244.80 1216.15 36.60
12568 51.1086 1173.40 1229.24 35.50
12569 51.1124 1219.10 1248.83 36.30
12570 51.1161 1218.30 1278.57 36.10
12571 51.1199 1349.10 1322.63 38.60
12572 51.1237 1398.80 1384.59 38.90
12573 51.1274 1450.20 1463.87 39.50
12574 51.1312 1561.10 1548.97 40.60
12575 51.1349 1662.00 1606.51 43.50
12576 51.1387 1560.20 1598.82 41.20
12577 51.1424 1550.50 1531.89 40.30
12578 51.1462 1461.00 1445.90 39.60
12579 51.1499 1375.20 1369.76 38.50
12580 51.1537 1292.60 1311.61 37.50
12581 51.1575 1274.70 1270.79 37.30
12582 51.1612 1196.00 1243.41 36.00
12583 51.1650 1219.20 1225.35 36.50
12584 51.1687 1184.40 1213.18 35.70
12585 51.1725 1242.50 1204.66 36.60
12586 51.1763 1122.90 1198.42 35.00
12587 51.1800 1160.80 1193.67 35.30
12588 51.1838 1136.00 1189.91 35.00
12589 51.1875 1171.00 1186.90 35.50
12590 51.1913 1145.50 1184.43 35.10
12591 51.1950 1194.00 1182.39 36.30
12592 51.1988 1156.60 1180.68 35.40
12593 51.2026 1090.70 1179.23 34.00
12594 51.2063 1173.60 1177.99 35.50
12595 51.2101 1162.90 1176.93 35.30
12596 51.2138 1140.50 1176.00 35.20
12597 51.2176 1118.70 1175.19 34.50
12598 51.2213 1130.10 1174.47 34.90
12599 51.2251 1172.60 1173.84 35.70
12600 51.2289 1134.00 1173.27 34.70
12601 51.2326 1120.10 1172.76 34.30
12602 51.2364 1185.80 1172.31 36.30
12603 51.2401 1091.50 1171.89 34.50
12604 51.2439 1101.40 1171.51 34.40
12605 51.2476 1170.30 1171.17 35.30
12606 51.2514 1154.60 1170.85 35.20
12607 51.2551 1156.70 1170.56 35.10
12608 51.2589 1128.20 1170.29 35.00
12609 51.2627 1111.60 1170.04 34.60
12610 51.2664 1160.20 1169.80 34.80
12611 51.2702 1161.40 1169.59 35.30
12612 51.2739 1114.20 1169.38 34.70
12613 51.2777 1120.90 1169.19 34.80
12614 51.2814 1188.60 1169.01 35.90
12615 51.2852 1224.50 1168.84 36.40
12616 51.2890 1123.60 1168.67 34.50
12617 51.2927 1131.10 1168.52 35.10
12618 51.2965 1111.10 1168.37 34.80
12619 51.3002 1186.50 1168.23 35.70
12620 51.3040 1157.40 1168.10 35.30
12621 51.3078 1097.60 1167.97 34.30
12622 51.3115 1112.00 1167.85 34.40
12623 51.3153 1189.80 1167.73 36.10
12624 51.3190 1161.50 1167.61 36.00
12625 51.3228 1175.10 1167.50 35.50
12626 51.3265 1151.70 1167.40 35.20
12627 51.3303 1146.10 1167.30 35.20
12628 51.3340 1207.50 1167.20 36.10
12629 51.3378 1124.70 1167.10 35.60
12630 51.3416 1160.50 1167.00 35.60
12631 51.3453 1138.20 1166.91 35.10
12632 51.3491 1133.40 1166.82 34.90
12633 51.3528 1061.40 1166.74 33.70
12634 51.3566 1093.30 1166.65 34.10
12635 51.3603 1161.80 1166.57 35.70
12636 51.3641 1152.00 1166.48 35.40
12637 51.3679 1108.20 1166.41 34.30
12638 51.3716 1190.90 1166.33 35.90
12639 51.3754 1087.10 1166.25 34.20
12640 51.3791 1091.40 1166.17 34.40
12641 51.3829 1137.90 1166.10 34.80
12642 51.3866 1094.90 1166.03 34.00
12643 51.3904 1227.20 1165.96 36.50
12644 51.3941 1106.90 1165.88 34.70
12645 51.3979 1108.60 1165.81 34.90
12646 51.4017 1104.70 1165.75 34.60
12647 51.4054 1174.10 1165.68 36.10
12648 51.4092 1097.40 1165.61 34.30
12649 51.4129 1154.10 1165.54 35.60
12650 51.4167 1086.50 1165.48 33.70
12651 51.4204 1123.60 1165.41 34.70
12652 51.4242 1130.40 1165.35 35.40
12653 51.4280 1112.40 1165.29 34.70
12654 51.4317 1125.90 1165.22 34.20
12655 51.4355 1186.80 1165.16 36.40
12656 51.4392 1144.80 1165.10 35.00
12657 51.4430 1151.70 1165.04 35.10
12658 51.4467 1105.00 1164.98 34.40
12659 51.4505 1127.20 1164.92 34.10
12660 51.4543 1151.30 1164.86 35.10
12661 51.4580 1068.90 1164.80 33.90
12662 51.4618 1149.10 1164.74 35.10
12663 51.4655 1190.10 1164.68 35.90
12664 51.4693 1180.80 1164.62 35.30
12665 51.4730 1185.80 1164.57 35.60
12666 51.4768 1149.30 1164.51 35.50
12667 51.4805 1168.60 1164.45 35.50
12668 51.4843 1109.20 1164.40 34.60
12669 51.4880 1184.30 1164.34 35.60
12670 51.4918 1167.70 1164.28 35.90
12671 51.4956 1133.60 1164.23 34.50
12672 51.4993 1108.50 1164.17 35.00
12673 51.5031 1172.90 1164.12 35.70
12674 51.5068 1062.90 1164.06 33.80
12675 51.5106 1141.40 1163.63 34.90
12676 51.5143 1146.70 1163.58 34.60
12677 51.5181 1145.10 1163.53 35.30
12678 51.5219 1116.10 1163.49 34.60
12679 51.5256 1133.60 1163.44 35.30
12680 51.5294 1104.50 1163.39 34.50
12681 51.5331 1121.20 1163.35 34.40
12682 51.5369 1128.20 1163.30 34.40
12683 51.5406 1129.80 1163.25 34.70
12684 51.5444 1077.10 1163.21 33.70
12685 51.5481 1168.30 1163.16 34.60
12686 51.5519 1088.20 1163.11 33.70
12687 51.5557 1161.50 1163.06 35.10
12688 51.5594 1109.80 1163.02 34.30
12689 51.5632 1188.20 1162.97 35.60
12690 51.5669 1160.50 1162.92 35.10
12691 51.5707 1128.80 1162.88 34.60
12692 51.5744 1117.50 1162.83 34.40
12693 51.5782 1123.10 1162.78 34.30
12694 51.5819 1149.40 1162.74 34.40
12695 51.5857 1127.50 1162.69 34.30
12696 51.5895 1082.10 1162.64 33.80
12697 51.5932 1168.80 1162.60 34.60
12698 51.5970 1104.40 1162.55 34.10
12699 51.6007 1150.10 1162.50 35.00
12700 51.6045 1100.10 1162.45 34.00
12701 51.6082 1194.30 1162.41 35.50
12702 51.6120 1079.10 1162.36 33.70
12703 51.6157 1084.00 1162.31 34.10
12704 51.6195 1099.50 1162.27 33.80
12705 51.6232 1132.40 1162.22 34.60
12706 51.6270 1059.90 1162.17 33.20
12707 51.6308 1128.60 1162.13 34.30
12708 51.6345 1127.20 1162.08 34.50
12709 51.6383 1183.30 1162.03 35.80
12710 51.6420 1126.40 1161.99 34.70
12711 51.6458 1194.00 1161.94 35.20
12712 51.6495 1060.60 1161.89 32.60
12713 51.6533 1127.40 1161.84 34.80
12714 51.6571 1047.60 1161.80 33.10
12715 51.6608 1159.90 1161.75 35.10
12716 51.6646 1136.30 1161.70 34.30
12717 51.6683 1154.20 1161.66 34.90
12718 51.6721 1140.20 1161.61 34.60
12719 51.6758 1119.00 1161.56 33.40
12720 51.6796 1079.40 1161.52 33.70
12721 51.6833 1110.20 1161.47 34.10
12722 51.6871 1154.90 1161.42 34.50
12723 51.6908 1185.50 1161.38 35.30
12724 51.6946 1140.20 1161.33 34.30
12725 51.6984 1153.50 1161.28 35.10
12726 51.7021 1119.60 1161.24 34.30
12727 51.7059 1135.70 1161.19 34.50
12728 51.7096 1127.50 1161.14 34.50
12729 51.7134 1172.10 1161.09 34.90
12730 51.7171 1119.10 1161.05 34.50
12731 51.7209 1163.10 1161.00 34.20
12732 51.7246 1170.30 1160.95 34.80
12733 51.7284 1202.90 1160.91 35.00
12734 51.7322 1154.20 1160.86 34.80
12735 51.7359 1137.90 1160.81 34.10
12736 51.7397 1126.50 1160.77 34.70
12737 51.7434 1119.30 1160.72 34.60
12738 51.7472 1130.90 1160.67 34.40
12739 51.7509 1154.10 1160.63 34.50
12740 51.7547 1145.70 1160.58 34.60
12741 51.7584 1158.10 1160.53 34.80
12742 51.7622 1086.30 1160.49 33.70
12743 51.7659 1124.80 1160.44 34.40
12744 51.7697 1125.70 1160.39 34.20
12745 51.7734 1179.10 1160.35 35.10
12746 51.7772 1107.90 1160.30 34.30
12747 51.7810 1132.00 1160.25 34.70
12748 51.7847 1133.60 1160.20 34.40
12749 51.7885 1147.00 1160.16 34.80
12750 51.7922 1129.80 1160.11 34.50
12751 51.7960 1136.90 1160.06 34.80
12752 51.7997 1137.40 1160.02 34.30
12753 51.8035 1173.50 1159.97 35.20
12754 51.8072 1123.00 1159.92 34.40
12755 51.8110 1106.60 1159.88 34.20
12756 51.8148 1138.40 1159.83 34.10
12757 51.8185 1152.00 1159.78 34.90
12758 51.8223 1083.70 1159.74 33.20
12759 51.8260 1133.70 1159.69 34.60
12760 51.8298 1149.00 1159.64 35.10
12761 51.8335 1148.20 1159.60 34.20
12762 51.8373 1095.00 1159.55 34.10
12763 51.8410 1147.00 1159.50 34.60
12764 51.8448 1148.80 1159.46 34.60
12765 51.8485 1137.30 1159.41 34.30
12766 51.8523 1136.80 1159.36 34.10
12767 51.8560 1166.90 1159.32 34.60
12768 51.8598 1125.30 1159.27 34.00
12769 51.8636 1140.40 1159.22 34.70
12770 51.8673 1148.90 1159.18 34.40
12771 51.8711 1118.80 1159.13 34.00
12772 51.8748 1116.60 1159.08 34.00
12773 51.8786 1162.80 1159.03 35.10
12774 51.8823 1107.80 1158.99 34.50
12775 51.8861 1143.60 1158.94 34.50
12776 51.8898 1139.10 1158.89 34.00
12777 51.8936 1134.60 1158.85 34.70
12778 51.8973 1207.20 1158.80 35.10
12779 51.9011 1102.20 1158.75 33.90
12780 51.9049 1108.10 1158.71 34.20
12781 51.9086 1108.10 1158.66 34.30
12782 51.9124 1192.50 1158.61 35.30
12783 51.9161 1110.70 1158.57 34.30
12784 51.9199 1165.10 1158.52 35.00
12785 51.9236 1129.00 1158.47 33.70
12786 51.9274 1178.70 1158.43 35.20
12787 51.9311 1150.90 1158.38 34.30
12788 51.9349 1125.00 1158.33 34.30
12789 51.9386 1101.00 1158.29 34.10
12790 51.9424 1199.90 1158.24 35.10
12791 51.9461 1071.00 1158.19 33.40
12792 51.9499 1118.80 1158.15 34.10
12793 51.9537 1135.00 1158.10 34.30
12794 51.9574 1109.10 1158.05 33.80
12795 51.9612 1154.20 1158.01 35.20
12796 51.9649 1149.80 1157.96 35.00
12797 51.9687 1155.10 1157.91 34.20
12798 51.9724 1111.20 1157.86 34.20
12799 51.9762 1172.20 1157.82 35.20
12800 51.9799 1083.20 1157.77 33.20
12801 51.9837 1128.90 1157.72 33.80
12802 51.9874 1101.80 1157.68 33.80
12803 51.9912 1118.70 1157.63 34.20
12804 51.9943 1144.50 1157.59 35.60
12805 51.9981 1174.90 1157.55 35.70
12806 52.0018 1185.30 1157.50 35.80
12807 52.0056 1188.10 1157.45 35.70
12808 52.0093 1054.60 1157.40 33.10
12809 52.0131 1156.30 1157.36 35.50
12810 52.0169 1062.10 1157.31 33.80
12811 52.0206 1169.30 1157.26 35.80
12812 52.0244 1113.50 1157.22 34.70
12813 52.0281 1197.60 1157.17 35.60
12814 52.0319 1144.80 1157.12 34.70
12815 52.0356 1218.00 1157.08 36.10
12816 52.0394 1119.30 1157.03 34.40
12817 52.0432 1254.60 1156.98 35.90
12818 52.0469 1146.60 1156.94 34.70
12819 52.0507 1206.70 1156.89 35.80
12820 52.0544 1145.10 1156.84 34.80
12821 52.0582 1143.80 1156.80 34.90
12822 52.0619 1143.70 1156.75 34.80
12823 52.0657 1163.30 1156.70 35.10
12824 52.0694 1114.50 1156.66 34.30
12825 52.0732 1154.30 1156.61 34.80
12826 52.0770 1183.00 1156.56 35.00
12827 52.0807 1164.40 1156.52 34.90
12828 52.0845 1086.00 1156.47 33.90
12829 52.0882 1185.80 1156.42 34.80
12830 52.0920 1167.00 1156.38 35.10
12831 52.0957 1207.40 1156.33 35.90
12832 52.0995 1127.50 1156.28 34.50
12833 52.1032 1158.20 1156.24 34.90
12834 52.1070 1152.50 1156.19 34.80
12835 52.1107 1150.90 1156.14 35.20
12836 52.1145 1141.20 1156.09 34.50
12837 52.1183 1130.40 1156.05 34.60
12838 52.1220 1160.30 1156.00 34.80
12839 52.1258 1048.20 1155.95 33.00
12840 52.1295 1068.20 1155.91 33.60
12841 52.1333 1182.30 1155.86 35.70
12842 52.1370 1191.90 1155.81 35.70
12843 52.1408 1174.80 1155.77 34.90
12844 52.1445 1093.10 1155.72 33.10
12845 52.1483 1211.50 1155.67 36.20
12846 52.1521 1114.80 1155.63 34.20
12847 52.1558 1166.70 1155.58 35.20
12848 52.1596 1178.70 1155.53 35.00
12849 52.1633 1174.80 1155.49 35.20
12850 52.1671 1177.40 1155.44 35.20
12851 52.1708 1197.90 1155.39 34.60
12852 52.1746 1181.20 1155.35 35.30
12853 52.1783 1147.20 1155.30 34.70
12854 52.1821 1149.10 1155.25 34.40
12855 52.1858 1137.60 1155.21 34.60
12856 52.1896 1146.00 1155.16 34.40
12857 52.1934 1176.40 1155.11 35.50
12858 52.1971 1088.40 1155.07 33.80
12859 52.2009 1168.80 1155.02 35.00
12860 52.2046 1179.40 1154.97 35.30
12861 52.2084 1149.90 1154.92 34.60
12862 52.2121 1146.70 1154.88 34.90
12863 52.2159 1170.60 1154.83 34.30
12864 52.2196 1141.40 1154.78 34.40
12865 52.2222 1149.10 1154.75 35.30
12866 52.2259 1131.30 1154.71 35.00
12867 52.2297 1127.10 1154.66 34.60
12868 52.2334 1162.20 1154.61 35.70
12869 52.2372 1130.60 1154.57 35.20
12870 52.2409 1150.70 1154.52 35.20
12871 52.2447 1174.80 1154.47 35.50
12872 52.2484 1229.70 1154.43 37.10
12873 52.2522 1145.40 1154.38 35.30
12874 52.2559 1213.40 1154.33 35.50
12875 52.2597 1143.40 1154.29 35.40
12876 52.2635 1182.00 1154.24 36.00
12877 52.2672 1068.30 1154.19 34.30
12878 52.2710 1167.20 1154.15 35.50
12879 52.2747 1150.60 1154.10 35.80
12880 52.2785 1129.40 1154.05 35.10
12881 52.2822 1130.40 1154.00 34.90
12882 52.2860 1092.90 1153.96 34.60
12883 52.2897 1176.10 1153.91 35.80
12884 52.2935 1199.10 1153.86 35.70
12885 52.2972 1174.90 1153.82 35.80
12886 52.3010 1124.60 1153.77 35.00
12887 52.3047 1146.80 1153.72 35.20
12888 52.3085 1160.30 1153.68 35.30
12889 52.3122 1140.00 1153.63 35.10
12890 52.3160 1151.50 1153.58 35.60
12891 52.3198 1171.40 1153.54 35.80
12892 52.3235 1171.50 1153.49 36.10
12893 52.3273 1190.20 1153.44 35.90
12894 52.3310 1164.00 1153.40 35.40
12895 52.3348 1197.20 1153.35 36.10
12896 52.3385 1162.70 1153.30 36.00
12897 52.3423 1148.80 1153.26 35.40
12898 52.3460 1166.80 1153.21 34.70
12899 52.3498 1142.00 1153.16 35.20
12900 52.3535 1156.60 1187.11 35.30
12901 52.3573 1121.30 1187.75 34.90
12902 52.3610 1110.60 1188.40 34.70
12903 52.3648 1167.90 1189.09 35.80
12904 52.3686 1157.80 1189.79 35.40
12905 52.3723 1155.70 1190.52 35.40
12906 52.3761 1214.30 1191.27 36.80
12907 52.3798 1149.10 1192.05 35.50
12908 52.3836 1224.30 1192.85 36.60
12909 52.3873 1205.20 1193.68 36.20
12910 52.3911 1233.00 1194.55 36.70
12911 52.3948 1108.80 1195.44 35.00
12912 52.3986 1163.80 1196.37 35.80
12913 52.4024 1180.50 1197.32 35.70
12914 52.4061 1206.30 1198.31 36.00
12915 52.4099 1204.00 1199.34 36.50
12916 52.4136 1174.70 1200.41 35.80
12917 52.4174 1108.30 1201.52 34.50
12918 52.4211 1224.60 1202.67 36.20
12919 52.4249 1185.40 1203.86 36.00
12920 52.4286 1201.50 1205.10 36.40
12921 52.4324 1197.10 1206.40 35.60
12922 52.4361 1193.10 1207.73 36.40
12923 52.4399 1236.20 1209.13 36.80
12924 52.4436 1232.50 1210.58 36.60
12925 52.4474 1213.10 1212.09 36.50
12926 52.4512 1301.70 1213.66 37.80
12927 52.4549 1177.40 1215.31 35.70
12928 52.4587 1195.70 1217.01 36.30
12929 52.4624 1196.80 1218.80 36.10
12930 52.4662 1233.30 1220.66 37.00
12931 52.4699 1126.00 1222.60 35.00
12932 52.4737 1256.90 1224.63 37.30
12933 52.4775 1241.40 1226.76 36.60
12934 52.4812 1267.90 1228.98 37.50
12935 52.4850 1304.20 1231.31 37.50
12936 52.4887 1271.50 1233.75 37.40
12937 52.4925 1201.40 1236.31 36.30
12938 52.4962 1241.50 1238.98 36.90
12939 52.5000 1213.80 1241.80 36.50
12940 52.5037 1163.20 1244.76 35.20
12941 52.5075 1250.10 1247.87 37.00
12942 52.5112 1279.60 1251.14 37.30
12943 52.5150 1289.00 1254.57 38.00
12944 52.5187 1299.80 1258.21 37.80
12945 52.5225 1188.60 1262.04 36.50
12946 52.5263 1255.50 1266.08 37.20
12947 52.5300 1358.60 1270.36 38.50
12948 52.5338 1335.10 1274.88 38.40
12949 52.5375 1295.30 1279.67 37.80
12950 52.5413 1336.20 1284.74 38.40
12951 52.5450 1193.30 1290.13 36.20
12952 52.5488 1268.70 1295.85 37.40
12953 52.5526 1307.40 1301.94 38.00
12954 52.5563 1325.60 1308.42 38.10
12955 52.5601 1313.90 1315.35 38.10
12956 52.5638 1229.30 1322.74 36.70
12957 52.5676 1393.30 1330.63 39.70
12958 52.5713 1421.00 1339.09 39.80
12959 52.5751 1302.20 1348.18 38.10
12960 52.5788 1438.10 1357.92 40.00
12961 52.5826 1403.60 1368.44 39.30
12962 52.5863 1437.90 1379.75 40.00
12963 52.5901 1365.60 1391.99 38.80
12964 52.5939 1454.90 1405.25 40.70
12965 52.5976 1524.90 1419.59 41.00
12966 52.6014 1466.80 1435.25 40.20
12967 52.6051 1410.50 1452.25 39.30
12968 52.6089 1491.00 1470.85 40.20
12969 52.6126 1480.30 1491.24 40.80
12970 52.6164 1629.70 1513.58 42.60
12971 52.6202 1505.90 1538.28 40.50
12972 52.6239 1630.20 1565.48 42.60
12973 52.6277 1547.50 1595.72 41.00
12974 52.6314 1648.50 1629.28 42.40
12975 52.6389 1725.80 1708.92 44.00
12976 52.6427 1681.70 1756.42 43.10
12977 52.6464 1763.60 1810.05 43.80
12978 52.6502 1835.50 1871.25 45.50
12979 52.6539 1882.00 1941.29 46.00
12980 52.6577 1973.60 2021.71 47.40
12981 52.6615 2086.90 2115.17 48.40
12982 52.6652 2141.60 2224.00 49.80
12983 52.6690 2376.00 2352.42 51.70
12984 52.6727 2351.70 2504.48 51.90
12985 52.6765 2657.90 2687.30 55.50
12986 52.6802 2707.70 2909.00 55.80
12987 52.6840 3112.70 3180.50 58.20
12988 52.6878 3416.60 3520.14 60.70
12989 52.6915 3896.40 3951.69 65.30
12990 52.6953 4319.70 4519.50 69.10
12991 52.6990 5456.70 5294.42 77.10
12992 52.7065 8780.90 8025.27 98.80
12993 52.7140 15370.40 14052.80 139.80
12994 52.7178 20497.00 19116.00 161.80
12995 52.7215 27835.40 25698.10 194.10
12996 52.7253 34059.20 33054.30 217.70
12997 52.7291 40151.00 38657.20 240.60
12998 52.7328 40321.10 39127.80 237.60
12999 52.7366 37385.80 34100.90 232.40
13000 52.7403 29552.90 26817.90 201.50
13001 52.7441 21996.10 20013.90 167.70
13002 52.7478 14543.80 14721.00 132.90
13003 52.7516 10454.40 10921.40 110.20
13004 52.7554 7746.90 8333.13 94.20
13005 52.7591 6266.30 6605.08 84.60
13006 52.7629 4974.80 5434.63 74.60
13007 52.7666 4394.40 4619.52 69.90
13008 52.7704 3741.90 4027.49 64.50
13009 52.7741 3379.80 3577.76 60.70
13010 52.7779 3009.00 3225.61 57.40
13011 52.7817 2697.90 2945.15 54.10
13012 52.7854 2396.60 2716.60 50.70
13013 52.7892 2348.30 2528.92 49.80
13014 52.7929 2176.20 2372.32 48.40
13015 52.7967 2142.00 2240.39 48.00
13016 52.8004 2074.60 2128.83 47.30
13017 52.8042 1959.60 2033.12 45.50
13018 52.8079 1809.20 1950.83 44.00
13019 52.8117 1829.90 1879.22 44.10
13020 52.8155 1691.00 1816.70 42.70
13021 52.8192 1728.50 1761.94 42.80
13022 52.8230 1654.40 1713.46 41.70
13023 52.8267 1662.50 1670.46 41.90
13024 52.8305 1556.70 1632.14 40.20
13025 52.8342 1523.20 1597.94 39.60
13026 52.8380 1608.10 1567.14 41.90
13027 52.8418 1485.20 1539.43 39.80
13028 52.8455 1434.50 1514.29 38.80
13029 52.8493 1527.40 1491.48 39.70
13030 52.8530 1486.80 1470.76 39.50
13031 52.8568 1478.10 1451.80 39.30
13032 52.8605 1416.90 1434.44 38.60
13033 52.8643 1459.50 1418.54 39.30
13034 52.8680 1418.70 1403.90 38.40
13035 52.8718 1487.70 1390.38 39.60
13036 52.8756 1356.70 1377.93 37.70
13037 52.8793 1404.70 1366.36 38.20
13038 52.8831 1374.00 1355.67 38.00
13039 52.8868 1312.10 1345.71 37.10
13040 52.8906 1344.30 1336.43 37.60
13041 52.8943 1344.10 1327.77 37.60
13042 52.8981 1385.50 1319.70 38.10
13043 52.9019 1356.20 1312.15 37.50
13044 52.9056 1307.70 1305.06 36.80
13045 52.9094 1287.40 1298.43 36.20
13046 52.9131 1322.00 1292.18 37.40
13047 52.9169 1311.40 1286.31 36.90
13048 52.9207 1265.30 1280.77 36.30
13049 52.9244 1348.00 1275.57 37.70
13050 52.9282 1217.70 1270.64 35.80
13051 52.9319 1334.20 1265.99 36.90
13052 52.9357 1257.10 1261.59 36.80
13053 52.9394 1258.40 1257.41 36.50
13054 52.9432 1262.10 1253.45 36.30
13055 52.9469 1278.20 1249.71 36.50
13056 52.9507 1243.60 1246.14 35.40
13057 52.9545 1264.80 1242.75 36.50
13058 52.9582 1247.30 1239.53 36.20
13059 52.9620 1228.30 1236.45 35.90
13060 52.9657 1187.40 1233.52 35.40
13061 52.9695 1187.30 1230.73 34.90
13062 52.9732 1204.20 1228.06 35.60
13063 52.9770 1271.10 1225.51 36.50
13064 52.9808 1241.40 1223.08 36.40
13065 52.9845 1215.80 1220.74 35.80
13066 52.9883 1139.40 1218.51 34.30
13067 52.9920 1250.40 1216.37 36.30
13068 52.9958 1166.90 1214.32 35.20
13069 52.9995 1227.90 1212.35 36.10
13070 53.0033 1194.90 1210.46 35.30
13071 53.0071 1209.10 1208.64 35.70
13072 53.0108 1219.50 1206.90 35.90
13073 53.0146 1244.10 1205.23 36.20
13074 53.0183 1132.00 1203.61 34.10
13075 53.0221 1259.30 1202.06 36.30
13076 53.0258 1134.60 1200.56 33.90
13077 53.0296 1104.20 1199.12 33.90
13078 53.0334 1159.00 1197.73 34.50
13079 53.0371 1162.10 1196.39 35.40
13080 53.0409 1180.00 1195.09 35.20
13081 53.0446 1249.40 1193.84 36.20
13082 53.0484 1132.00 1192.64 34.40
13083 53.0521 1175.10 1191.47 34.90
13084 53.0559 1089.70 1190.34 33.40
13085 53.0597 1213.30 1189.25 35.10
13086 53.0634 1153.50 1188.19 35.00
13087 53.0672 1199.10 1187.17 35.60
13088 53.0709 1224.30 1186.18 35.80
13089 53.0747 1203.70 1185.21 35.40
13090 53.0784 1100.20 1184.28 33.90
13091 53.0822 1140.10 1183.38 34.60
13092 53.0860 1165.60 1182.51 35.00
13093 53.0897 1267.60 1181.65 36.60
13094 53.0935 1113.70 1180.83 34.10
13095 53.0972 1143.80 1180.03 34.50
13096 53.1010 1179.70 1179.25 35.10
13097 53.1048 1162.20 1178.49 34.90
13098 53.1085 1180.10 1177.76 35.20
13099 53.1123 1090.40 1143.63 33.90
13100 53.1160 1179.40 1143.58 35.40
13101 53.1198 1147.70 1143.53 34.30
13102 53.1235 1152.00 1143.49 34.70
13103 53.1273 1166.20 1143.44 35.10
13104 53.1311 1174.90 1143.39 34.70
13105 53.1348 1084.50 1143.35 33.40
13106 53.1386 1128.10 1143.30 34.90
13107 53.1423 1136.50 1143.25 34.40
13108 53.1461 1115.90 1143.20 33.90
13109 53.1498 1127.40 1143.16 34.30
13110 53.1536 1179.60 1143.11 35.20
13111 53.1573 1137.10 1143.06 34.80
13112 53.1611 1086.70 1143.01 34.10
13113 53.1649 1109.60 1142.97 34.40
13114 53.1686 1148.50 1142.92 35.20
13115 53.1724 1186.30 1142.87 35.80
13116 53.1761 1119.90 1142.83 35.00
13117 53.1799 1152.20 1142.78 35.30
13118 53.1837 1188.50 1142.73 35.70
13119 53.1874 1173.20 1142.68 35.60
13120 53.1912 1060.90 1142.64 34.00
13121 53.1949 1098.10 1142.59 34.20
13122 53.1987 1036.30 1142.54 33.30
13123 53.2024 1150.90 1142.49 35.20
13124 53.2062 1093.30 1142.45 33.60
13125 53.2100 1079.90 1142.40 33.90
13126 53.2137 1119.70 1142.35 35.10
13127 53.2175 1121.90 1142.31 34.80
13128 53.2212 1141.50 1142.26 35.20
13129 53.2250 1202.70 1142.21 36.00
13130 53.2287 1061.00 1142.16 33.80
13131 53.2325 1125.90 1142.12 34.40
13132 53.2363 1127.60 1142.07 35.30
13133 53.2400 1133.60 1142.02 35.20
13134 53.2438 1130.30 1141.98 34.90
13135 53.2475 1161.90 1141.93 35.00
13136 53.2513 1164.40 1141.88 35.30
13137 53.2551 1169.20 1141.83 35.40
13138 53.2588 1071.70 1141.79 33.80
13139 53.2626 1170.50 1141.74 35.20
13140 53.2663 1106.70 1141.69 34.50
13141 53.2701 1176.60 1141.64 35.80
13142 53.2738 1168.30 1141.60 34.70
13143 53.2776 1165.50 1141.55 35.30
13144 53.2814 1085.40 1141.50 33.70
13145 53.2851 1188.30 1141.45 35.70
13146 53.2889 1067.00 1141.41 33.80
13147 53.2926 1125.10 1141.36 34.50
13148 53.2964 1081.20 1141.31 34.10
13149 53.3002 1133.10 1141.27 34.60
13150 53.3039 1144.00 1141.22 34.40
13151 53.3077 1175.20 1141.17 35.60
13152 53.3114 1048.80 1141.12 33.60
13153 53.3152 1092.40 1141.08 34.10
13154 53.3190 1114.30 1141.03 33.80
13155 53.3227 1135.70 1140.98 35.00
13156 53.3265 1151.80 1140.93 35.20
13157 53.3302 1130.20 1140.89 34.50
13158 53.3340 1106.90 1140.84 33.90
13159 53.3377 1094.60 1140.79 35.10
13160 53.3415 1083.30 1140.74 34.10
13161 53.3452 1164.30 1140.70 35.20
13162 53.3490 1134.40 1140.65 34.10
13163 53.3528 1127.70 1140.60 34.10
13164 53.3565 1042.90 1140.56 33.30
13165 53.3603 1115.10 1140.51 34.10
13166 53.3640 1105.00 1140.46 34.60
13167 53.3678 1098.60 1140.41 33.80
13168 53.3716 1158.10 1140.37 34.60
13169 53.3753 1137.30 1140.32 34.80
13170 53.3791 1064.70 1140.27 33.60
13171 53.3828 1173.00 1140.22 35.10
13172 53.3866 1138.10 1140.18 34.70
13173 53.3904 1139.50 1140.13 34.80
13174 53.3941 1137.10 1140.08 34.90
13175 53.3979 1212.10 1140.03 36.10
13176 53.4016 1079.20 1139.99 33.60
13177 53.4054 1111.10 1139.94 34.60
13178 53.4091 1048.70 1139.89 33.50
13179 53.4129 1201.40 1139.84 35.90
13180 53.4167 1097.50 1139.80 34.40
13181 53.4204 1169.60 1139.75 35.40
13182 53.4242 1115.20 1139.70 34.50
13183 53.4279 1111.20 1139.66 33.80
13184 53.4317 1109.10 1139.61 33.80
13185 53.4355 1198.00 1139.56 36.00
13186 53.4392 1087.50 1139.51 34.40
13187 53.4430 1134.80 1139.47 33.80
13188 53.4467 1188.80 1139.42 35.30
13189 53.4505 1112.30 1139.37 34.30
13190 53.4543 1125.50 1139.32 34.30
13191 53.4580 1116.60 1139.28 34.50
13192 53.4618 1098.80 1139.23 33.90
13193 53.4655 1123.60 1139.18 34.80
13194 53.4693 1085.50 1139.13 33.70
13195 53.4730 1075.10 1139.09 33.60
13196 53.4768 1082.00 1139.04 33.90
13197 53.4806 1154.00 1138.99 35.00
13198 53.4843 1113.50 1138.94 34.40
13199 53.4881 1164.40 1138.90 35.20
13200 53.4918 1110.90 1138.85 34.10
13201 53.4956 1080.10 1138.80 33.50
13202 53.4994 1053.60 1138.75 32.60
13203 53.5031 1169.80 1138.71 35.20
13204 53.5069 1113.00 1138.66 34.30
13205 53.5106 1123.90 1138.61 34.40
13206 53.5144 1181.10 1138.56 35.30
13207 53.5182 1194.70 1138.52 35.20
13208 53.5219 1093.00 1138.47 33.70
13209 53.5257 1103.40 1138.42 33.40
13210 53.5294 1084.50 1138.37 33.90
13211 53.5332 1133.40 1138.33 33.90
13212 53.5369 1091.90 1138.28 34.50
13213 53.5407 1095.10 1138.23 34.30
13214 53.5445 1181.80 1138.18 35.40
13215 53.5482 1159.10 1138.14 35.00
13216 53.5520 1111.10 1138.09 34.50
13217 53.5557 1100.70 1138.04 33.70
13218 53.5595 1101.80 1137.99 33.80
13219 53.5633 1171.20 1137.95 35.30
13220 53.5670 1156.80 1137.90 35.00
13221 53.5708 1114.40 1137.85 34.60
13222 53.5745 1087.50 1137.80 33.90
13223 53.5783 1121.00 1137.76 34.30
13224 53.5821 1107.80 1137.71 34.30
13225 53.5858 1226.40 1137.66 36.40
13226 53.5896 1170.60 1137.61 35.50
13227 53.5933 1126.60 1137.57 34.80
13228 53.5971 1062.20 1137.52 33.50
13229 53.6008 1159.40 1137.47 34.60
13230 53.6046 1086.30 1137.42 34.00
13231 53.6084 1121.70 1137.38 34.60
13232 53.6121 1121.50 1137.33 34.70
13233 53.6159 1165.60 1137.28 35.10
13234 53.6196 1079.90 1137.23 33.90
13235 53.6234 1151.70 1137.19 34.10
13236 53.6272 1134.60 1137.14 34.70
13237 53.6309 1142.20 1137.09 35.30
13238 53.6347 1070.30 1137.04 33.30
13239 53.6384 1128.10 1137.00 35.40
13240 53.6422 1083.30 1136.95 34.60
13241 53.6460 1129.00 1136.90 34.30
13242 53.6497 1095.70 1136.85 33.50
13243 53.6535 1154.70 1136.80 34.70
13244 53.6572 1098.70 1136.76 33.80
13245 53.6610 1148.00 1136.71 34.40
13246 53.6647 1059.30 1136.66 33.00
13247 53.6685 1098.30 1136.61 34.00
13248 53.6723 1119.50 1136.57 34.10
13249 53.6760 1116.90 1136.52 34.30
13250 53.6798 1078.00 1136.47 33.30
13251 53.6835 1119.80 1136.42 34.20
13252 53.6873 1072.40 1136.38 33.20
13253 53.6911 1204.70 1136.33 35.50
13254 53.6948 1140.40 1136.28 34.30
13255 53.6986 1158.70 1136.23 34.50
13256 53.7023 1071.30 1136.19 33.40
13257 53.7061 1162.80 1136.14 34.90
13258 53.7099 1107.10 1136.09 34.10
13259 53.7136 1131.20 1136.04 34.30
13260 53.7174 1104.90 1136.00 34.20
13261 53.7211 1126.10 1135.95 34.10
13262 53.7249 1152.60 1135.90 34.80
13263 53.7286 1112.40 1135.85 34.40
13264 53.7324 1106.90 1135.80 33.60
13265 53.7362 1080.70 1135.76 33.50
13266 53.7399 1135.20 1135.71 35.10
13267 53.7437 1109.10 1135.66 33.80
13268 53.7474 1031.20 1135.61 32.70
13269 53.7512 1152.10 1135.57 34.50
13270 53.7550 1141.70 1135.52 34.40
13271 53.7587 1153.60 1135.47 34.70
13272 53.7625 1071.60 1135.42 33.60
13273 53.7662 1092.80 1135.38 33.70
13274 53.7700 1142.30 1135.33 34.70
13275 53.7738 1122.70 1135.28 34.50
13276 53.7775 1067.00 1135.23 32.80
13277 53.7813 1190.70 1135.18 35.00
13278 53.7850 1146.60 1135.14 34.80
13279 53.7888 1150.40 1135.09 34.90
13280 53.7926 1187.40 1135.04 35.30
13281 53.7963 1045.30 1134.99 33.30
13282 53.8001 1122.10 1134.95 34.50
13283 53.8038 1167.60 1134.90 35.10
13284 53.8076 1118.50 1134.85 34.20
13285 53.8114 1193.20 1134.80 35.40
13286 53.8151 1158.00 1134.76 34.80
13287 53.8189 1134.50 1134.71 34.50
13288 53.8226 1073.40 1134.66 33.70
13289 53.8264 1141.20 1134.61 34.20
13290 53.8302 1175.60 1134.56 35.10
13291 53.8339 1157.50 1134.52 34.60
13292 53.8377 1099.10 1134.47 34.10
13293 53.8414 1135.10 1134.42 34.60
13294 53.8452 1112.30 1134.37 34.00
13295 53.8489 1100.20 1134.33 33.50
13296 53.8527 1122.60 1134.28 34.30
13297 53.8565 1153.50 1134.23 34.80
13298 53.8602 1106.40 1134.18 34.00
13299 53.8640 1128.90 1134.13 34.00
13300 53.8677 1099.10 1134.09 34.10
13301 53.8715 1133.70 1134.04 34.60
13302 53.8753 1128.40 1133.99 34.50
13303 53.8790 1097.00 1133.94 33.90
13304 53.8828 1054.10 1133.90 33.20
13305 53.8865 1079.90 1133.85 33.40
13306 53.8903 1092.10 1133.80 34.00
13307 53.8941 1138.90 1133.75 34.70
13308 53.8978 1061.10 1133.70 33.70
13309 53.9016 1093.90 1133.66 33.90
13310 53.9053 1029.20 1133.61 32.80
13311 53.9091 1147.20 1133.56 34.60
13312 53.9129 1061.00 1134.61 33.50
13313 53.9166 1156.80 1134.58 35.10
13314 53.9204 1137.00 1134.56 34.30
13315 53.9241 1059.90 1134.53 33.30
13316 53.9279 1087.70 1134.51 33.90
13317 53.9317 1098.00 1134.48 33.80
13318 53.9354 1070.30 1134.46 33.10
13319 53.9392 1134.00 1134.44 35.30
13320 53.9429 1031.20 1134.42 33.20
13321 53.9467 1112.40 1134.40 34.10
13322 53.9505 1160.90 1134.38 35.00
13323 53.9542 1176.70 1134.36 35.30
13324 53.9580 1042.50 1134.35 33.10
13325 53.9617 1133.80 1134.33 34.80
13326 53.9655 1117.00 1134.32 34.30
13327 53.9692 1146.90 1134.30 34.70
13328 53.9730 1077.80 1134.29 33.50
13329 53.9768 1044.80 1134.28 33.50
13330 53.9805 1069.80 1134.27 33.90
13331 53.9843 1165.00 1134.26 35.10
13332 53.9880 1118.50 1134.25 34.70
13333 53.9918 1180.90 1134.25 35.30
13334 53.9956 1118.70 1134.25 34.30
13335 53.9993 1121.50 1134.24 34.50
13336 54.0031 1127.90 1134.24 34.40
13337 54.0069 1083.00 1134.25 33.70
13338 54.0106 1082.80 1134.25 33.70
13339 54.0144 1128.30 1134.26 34.40
13340 54.0181 1107.10 1134.26 34.30
13341 54.0219 1083.70 1134.27 33.30
13342 54.0257 1048.10 1134.29 33.50
13343 54.0294 1100.60 1134.30 34.20
13344 54.0332 1216.70 1134.32 35.80
13345 54.0369 1139.60 1134.34 34.70
13346 54.0407 1078.70 1134.36 34.40
13347 54.0444 1092.10 1134.39 33.80
13348 54.0482 1118.70 1134.42 34.20
13349 54.0520 1127.60 1134.46 34.60
13350 54.0557 1089.80 1134.50 34.20
13351 54.0595 1206.60 1134.54 35.60
13352 54.0632 1091.40 1134.59 34.00
13353 54.0670 1180.80 1134.64 35.70
13354 54.0708 1064.60 1134.70 33.40
13355 54.0745 1111.00 1134.76 34.40
13356 54.0783 1088.60 1134.83 34.10
13357 54.0820 1140.30 1134.90 34.90
13358 54.0858 1110.00 1134.98 34.40
13359 54.0896 1135.00 1135.07 34.30
13360 54.0933 1089.70 1135.17 33.70
13361 54.0971 1124.20 1135.27 34.10
13362 54.1008 1070.90 1135.39 33.60
13363 54.1046 1145.40 1135.51 34.80
13364 54.1084 1037.60 1135.64 33.10
13365 54.1121 1115.70 1135.79 34.00
13366 54.1159 1137.40 1135.95 34.80
13367 54.1196 1103.30 1136.12 34.30
13368 54.1234 1178.90 1136.30 35.50
13369 54.1272 1100.10 1136.50 34.40
13370 54.1309 1167.00 1136.72 34.90
13371 54.1347 1133.50 1136.96 34.20
13372 54.1384 1148.40 1137.22 35.00
13373 54.1422 1152.50 1137.50 35.10
13374 54.1460 1049.40 1137.81 33.40
13375 54.1497 1170.90 1138.14 34.50
13376 54.1535 1047.30 1138.51 33.10
13377 54.1572 1168.10 1138.91 35.30
13378 54.1610 1039.90 1139.35 32.80
13379 54.1648 1191.00 1139.83 35.30
13380 54.1685 1101.00 1140.36 33.80
13381 54.1723 1153.30 1140.95 34.70
13382 54.1760 1131.30 1141.59 34.60
13383 54.1798 1165.90 1142.31 35.00
13384 54.1836 1062.80 1143.10 33.50
13385 54.1873 1184.70 1143.99 35.30
13386 54.1911 1071.70 1144.97 33.00
13387 54.1948 1137.90 1146.07 34.50
13388 54.1986 1135.20 1147.32 34.40
13389 54.2024 1163.10 1148.72 35.10
13390 54.2061 1106.70 1150.31 33.90
13391 54.2099 1133.50 1152.12 34.50
13392 54.2136 1095.70 1154.19 33.70
13393 54.2174 1091.00 1156.56 33.90
13394 54.2212 1117.50 1159.33 34.60
13395 54.2249 1121.40 1162.54 34.20
13396 54.2287 1151.50 1166.31 34.70
13397 54.2324 1110.50 1170.79 33.60
13398 54.2362 1085.20 1176.13 33.50
13399 54.2400 1187.50 1182.56 35.80
13400 54.2437 1096.10 1190.44 33.70
13401 54.2475 1164.90 1200.17 34.70
13402 54.2512 1144.10 1212.43 34.60
13403 54.2550 1278.20 1228.28 36.70
13404 54.2588 1173.60 1249.40 34.90
13405 54.2625 1263.90 1278.68 36.70
13406 54.2663 1290.30 1320.97 37.10
13407 54.2700 1348.10 1383.35 37.60
13408 54.2738 1378.60 1475.28 38.40
13409 54.2776 1596.00 1607.53 41.10
13410 54.2813 1773.00 1786.39 43.80
13411 54.2851 1982.90 2005.96 46.20
13412 54.2888 2173.10 2218.55 48.70
13413 54.2926 2343.80 2324.22 50.50
13414 54.2964 2174.40 2249.98 48.20
13415 54.3001 2082.80 2048.66 47.20
13416 54.3039 1776.80 1825.94 43.40
13417 54.3076 1554.10 1637.23 40.90
13418 54.3114 1415.10 1496.31 38.60
13419 54.3152 1385.10 1397.67 37.70
13420 54.3189 1276.90 1330.25 36.80
13421 54.3227 1257.70 1284.71 36.40
13422 54.3264 1150.40 1253.37 35.20
13423 54.3302 1150.00 1230.83 34.70
13424 54.3340 1218.30 1214.05 35.80
13425 54.3377 1203.00 1201.14 35.70
13426 54.3415 1156.00 1190.87 35.40
13427 54.3452 1144.50 1182.59 34.80
13428 54.3490 1089.00 1175.83 33.80
13429 54.3528 1141.90 1170.19 34.80
13430 54.3565 1117.80 1165.47 34.50
13431 54.3603 1164.80 1161.49 34.90
13432 54.3640 1152.40 1158.08 35.10
13433 54.3678 1118.70 1155.14 34.30
13434 54.3716 1103.80 1152.60 33.90
13435 54.3753 1149.70 1150.38 34.70
13436 54.3791 1103.60 1148.43 34.10
13437 54.3828 1122.90 1146.71 34.60
13438 54.3866 1141.10 1145.17 34.70
13439 54.3904 1153.80 1143.81 34.90
13440 54.3941 1123.60 1142.59 34.40
13441 54.3979 1159.50 1141.48 34.80
13442 54.4016 1063.30 1140.48 33.30
13443 54.4054 1154.40 1139.58 34.90
13444 54.4092 1075.90 1138.75 33.70
13445 54.4129 1084.60 1138.00 33.70
13446 54.4167 1097.50 1137.31 33.60
13447 54.4204 1123.90 1136.67 34.70
13448 54.4242 1058.50 1136.08 33.50
13449 54.4280 1080.90 1135.54 33.80
13450 54.4317 1026.40 1135.03 32.40
13451 54.4355 1034.90 1134.56 32.80
13452 54.4392 1095.90 1134.13 34.60
13453 54.4430 1111.10 1133.72 34.40
13454 54.4468 1064.70 1133.34 33.70
13455 54.4505 1151.00 1132.98 35.20
13456 54.4543 1102.70 1132.64 33.60
13457 54.4580 1073.30 1132.32 33.70
13458 54.4618 1108.00 1132.02 34.40
13459 54.4656 1151.80 1131.73 34.60
13460 54.4693 1114.40 1131.46 33.90
13461 54.4731 1158.70 1131.21 35.10
13462 54.4768 1118.70 1130.97 34.80
13463 54.4806 1162.80 1130.73 35.20
13464 54.4844 1057.10 1130.51 33.40
13465 54.4881 1132.50 1130.30 34.60
13466 54.4919 1109.20 1130.10 33.90
13467 54.4956 1042.90 1129.90 33.60
13468 54.4994 1086.90 1129.72 33.90
13469 54.5032 1160.30 1129.54 35.20
13470 54.5069 1077.80 1129.37 33.70
13471 54.5107 1152.50 1129.20 35.20
13472 54.5144 1069.30 1129.04 33.50
13473 54.5182 1200.40 1128.89 36.10
13474 54.5220 1059.40 1128.74 33.40
13475 54.5257 1145.20 1128.59 34.90
13476 54.5295 1124.40 1128.45 34.40
13477 54.5332 1082.20 1128.32 33.40
13478 54.5370 1079.10 1128.19 34.10
13479 54.5408 1113.90 1128.06 34.20
13480 54.5445 1115.60 1127.93 34.10
13481 54.5483 1122.50 1127.81 34.00
13482 54.5520 1104.20 1127.70 34.10
13483 54.5558 1072.50 1127.58 33.80
13484 54.5596 1122.30 1127.47 34.80
13485 54.5633 1203.10 1127.36 35.60
13486 54.5671 1074.30 1127.25 33.60
13487 54.5708 1153.50 1127.15 35.20
13488 54.5746 1087.90 1127.04 33.80
13489 54.5784 1099.00 1126.94 34.40
13490 54.5821 1095.40 1126.85 33.40
13491 54.5859 1128.10 1126.75 34.90
13492 54.5896 1156.80 1126.66 35.10
13493 54.5934 1129.80 1126.56 34.60
13494 54.5972 1062.10 1126.47 33.40
13495 54.6009 1132.30 1126.38 34.90
13496 54.6047 1148.70 1126.29 35.40
13497 54.6084 1168.00 1126.21 35.30
13498 54.6122 1175.60 1126.12 35.40
13499 54.6160 1060.80 1126.04 33.70
13500 54.6197 1114.30 1125.95 34.40
13501 54.6235 1137.60 1125.87 35.00
13502 54.6272 1068.80 1125.79 33.90
13503 54.6310 1149.60 1125.71 35.50
13504 54.6348 1104.70 1125.63 34.20
13505 54.6385 1169.80 1125.56 35.40
13506 54.6423 1084.70 1125.48 35.00
13507 54.6460 1128.80 1125.40 35.30
13508 54.6498 1106.90 1125.33 34.40
13509 54.6536 1051.10 1125.25 33.70
13510 54.6573 1093.40 1125.18 34.10
13511 54.6611 1110.70 1125.11 34.50
13512 54.6648 1098.10 1125.04 34.00
13513 54.6686 1150.10 1124.97 34.90
13514 54.6724 1119.10 1124.90 34.80
13515 54.6761 1184.30 1124.83 35.40
13516 54.6799 1089.00 1123.70 34.10
13517 54.6836 1143.30 1123.65 35.20
13518 54.6874 1060.90 1123.60 33.70
13519 54.6912 1096.00 1123.56 34.30
13520 54.6949 1132.10 1123.51 34.50
13521 54.6987 1113.80 1123.46 34.60
13522 54.7024 1105.30 1123.41 34.70
13523 54.7062 1112.60 1123.36 34.40
13524 54.7100 1122.70 1123.31 35.00
13525 54.7137 1093.60 1123.27 34.30
13526 54.7175 1099.40 1123.22 34.50
13527 54.7212 1126.10 1123.17 34.00
13528 54.7250 1068.00 1123.12 33.80
13529 54.7288 1131.10 1123.07 35.20
13530 54.7325 1107.20 1123.02 34.20
13531 54.7363 1097.70 1122.98 33.90
13532 54.7400 1098.60 1122.93 34.90
13533 54.7438 1134.50 1122.88 34.20
13534 54.7476 1060.10 1122.83 33.80
13535 54.7513 1116.30 1122.78 34.80
13536 54.7551 1052.10 1122.73 33.60
13537 54.7589 1083.70 1122.68 34.10
13538 54.7626 1131.90 1122.64 34.40
13539 54.7664 1100.60 1122.59 34.10
13540 54.7701 1079.80 1122.54 33.90
13541 54.7739 1084.50 1122.49 33.10
13542 54.7776 1045.20 1122.44 33.30
13543 54.7814 1064.50 1122.39 33.50
13544 54.7852 1054.00 1122.35 33.40
13545 54.7889 1162.50 1122.30 35.30
13546 54.7927 1160.00 1122.25 35.40
13547 54.7964 1112.00 1122.20 34.10
13548 54.8002 1095.40 1122.15 34.70
13549 54.8040 1084.70 1122.10 34.30
13550 54.8077 1075.80 1122.06 33.70
13551 54.8115 1087.50 1122.01 33.60
13552 54.8153 1097.00 1121.96 33.30
13553 54.8190 1159.20 1121.91 35.50
13554 54.8228 1058.30 1121.86 33.70
13555 54.8265 1092.90 1121.81 34.70
13556 54.8303 1099.70 1121.76 34.00
13557 54.8340 1143.20 1121.72 34.80
13558 54.8378 1110.50 1121.67 34.30
13559 54.8416 1100.00 1121.62 35.30
13560 54.8453 1159.10 1121.57 35.40
13561 54.8491 1137.80 1121.52 34.80
13562 54.8528 1068.20 1121.47 34.10
13563 54.8566 1144.60 1121.43 35.30
13564 54.8604 1175.50 1121.38 35.50
13565 54.8641 1106.60 1121.33 34.00
13566 54.8679 1049.70 1121.28 33.90
13567 54.8717 1067.70 1121.23 33.70
13568 54.8754 1056.90 1121.18 33.90
13569 54.8792 1058.90 1121.13 33.70
13570 54.8829 1100.70 1121.09 33.90
13571 54.8867 1175.80 1121.04 35.70
13572 54.8904 1088.00 1120.99 34.20
13573 54.8942 1147.90 1120.94 35.40
13574 54.8980 1077.60 1120.89 34.00
13575 54.9017 1049.30 1120.84 33.80
13576 54.9055 1033.90 1120.79 33.40
13577 54.9092 1133.90 1120.75 34.90
13578 54.9130 993.40 1120.70 32.30
13579 54.9168 1129.20 1120.65 34.60
13580 54.9205 1119.50 1120.60 34.90
13581 54.9243 1041.60 1120.55 33.00
13582 54.9281 1140.30 1120.50 34.90
13583 54.9318 1099.30 1120.46 34.20
13584 54.9356 1122.90 1120.41 33.80
13585 54.9393 1140.30 1120.36 35.40
13586 54.9431 1112.80 1120.31 35.00
13587 54.9468 1184.20 1120.26 35.10
13588 54.9506 1125.40 1120.21 34.50
13589 54.9544 1129.80 1120.16 34.80
13590 54.9581 1049.90 1120.12 33.40
13591 54.9619 1116.10 1120.07 34.40
13592 54.9656 1097.80 1120.02 34.80
13593 54.9694 1105.90 1119.97 34.50
13594 54.9732 1075.00 1119.92 34.40
13595 54.9769 1125.10 1119.87 35.20
13596 54.9807 1090.20 1119.82 34.40
13597 54.9844 1094.20 1119.78 33.90
13598 54.9882 1134.50 1119.73 35.10
13599 54.9920 1134.20 1119.68 35.20
13600 54.9957 1056.90 1119.63 33.30
13601 54.9995 1108.40 1119.58 34.50
13602 55.0033 1095.00 1119.53 34.10
13603 55.0070 1148.70 1119.48 34.80
13604 55.0108 1075.80 1119.44 34.10
13605 55.0145 1085.10 1119.39 34.10
13606 55.0183 1059.70 1119.34 33.60
13607 55.0220 1126.60 1119.29 34.80
13608 55.0258 1100.40 1119.24 33.90
13609 55.0296 1061.10 1119.19 33.80
13610 55.0333 1086.70 1119.15 34.10
13611 55.0371 1161.10 1119.10 34.50
13612 55.0408 1081.30 1119.05 34.50
13613 55.0446 1086.60 1119.00 33.90
13614 55.0484 1083.50 1118.95 34.00
13615 55.0521 1126.50 1118.90 34.60
13616 55.0559 1124.80 1118.85 34.80
13617 55.0596 1134.00 1118.81 34.80
13618 55.0634 1114.90 1118.76 34.50
13619 55.0672 1121.60 1118.71 34.70
13620 55.0709 1099.40 1118.66 34.70
13621 55.0747 1108.10 1118.61 34.50
13622 55.0784 1063.20 1118.56 34.00
13623 55.0822 1155.10 1118.51 35.20
13624 55.0860 1120.50 1118.46 35.20
13625 55.0897 1131.00 1118.42 35.20
13626 55.0935 1097.20 1118.37 34.40
13627 55.0972 1152.10 1118.32 35.40
13628 55.1010 1127.80 1118.27 35.00
13629 55.1048 1084.70 1118.22 33.70
13630 55.1085 1100.50 1118.17 34.60
13631 55.1123 1159.70 1118.12 35.20
13632 55.1160 1135.20 1118.08 35.10
13633 55.1198 1113.70 1118.03 34.60
13634 55.1236 1064.00 1117.98 33.80
13635 55.1273 1114.90 1117.93 34.60
13636 55.1311 1109.30 1117.88 34.90
13637 55.1348 1155.00 1117.83 35.20
13638 55.1386 1166.20 1117.78 36.10
13639 55.1424 1169.50 1117.74 35.90
13640 55.1461 1095.10 1117.69 34.30
13641 55.1499 1104.50 1117.64 34.70
13642 55.1536 1062.00 1117.59 33.70
13643 55.1574 1129.20 1117.54 35.10
13644 55.1612 1113.60 1117.49 34.60
13645 55.1649 1102.50 1117.44 34.60
13646 55.1687 1082.90 1117.40 34.40
13647 55.1724 1163.40 1117.35 34.90
13648 55.1762 1108.30 1117.30 34.70
13649 55.1800 1122.60 1117.25 35.00
13650 55.1837 1107.80 1117.20 34.70
13651 55.1875 1187.70 1117.15 35.70
13652 55.1912 1050.30 1117.10 33.50
13653 55.1950 1153.10 1117.06 34.50
13654 55.1987 1080.70 1117.01 34.20
13655 55.2025 1147.20 1116.96 35.00
13656 55.2063 1154.10 1116.91 35.20
13657 55.2100 1103.00 1116.86 34.70
13658 55.2138 1113.30 1116.81 34.80
13659 55.2175 1144.90 1116.76 35.40
13660 55.2213 1055.40 1116.72 33.70
13661 55.2251 1123.50 1116.67 34.70
13662 55.2288 1067.70 1116.62 34.10
13663 55.2326 1155.10 1116.57 35.50
13664 55.2364 1131.10 1116.52 34.80
13665 55.2401 1173.90 1116.47 36.30
13666 55.2439 1110.00 1116.42 34.80
13667 55.2476 1064.40 1116.37 33.60
13668 55.2514 1128.20 1116.33 34.50
13669 55.2551 1130.70 1116.28 35.00
13670 55.2589 1067.60 1116.23 33.50
13671 55.2627 1065.50 1116.18 34.30
13672 55.2664 1128.30 1116.13 35.10
13673 55.2702 1181.40 1116.08 35.80
13674 55.2739 1132.80 1116.03 35.20
13675 55.2777 1148.60 1115.99 34.80
13676 55.2815 1078.00 1115.94 34.40
13677 55.2852 1123.70 1115.89 34.80
13678 55.2890 1123.60 1115.84 35.00
13679 55.2927 1131.00 1115.79 35.00
13680 55.2965 1130.20 1115.74 35.00
13681 55.3003 1138.00 1115.69 34.90
13682 55.3040 1089.40 1115.64 34.00
13683 55.3078 1142.40 1115.60 35.50
13684 55.3115 1153.80 1115.55 35.20
13685 55.3153 1060.50 1115.50 33.20
13686 55.3191 1165.90 1115.45 35.90
13687 55.3228 1117.80 1115.40 34.50
13688 55.3266 1135.50 1115.35 35.00
13689 55.3303 1128.30 1115.30 35.00
13690 55.3341 1108.80 1115.26 34.70
13691 55.3379 1123.90 1115.21 34.70
13692 55.3416 1187.60 1115.16 36.80
13693 55.3454 1097.10 1115.11 34.10
13694 55.3491 1105.90 1115.06 34.50
13695 55.3529 1101.70 1115.01 34.30
13696 55.3567 1089.50 1114.96 34.30
13697 55.3604 1101.00 1114.91 34.30
13698 55.3642 1160.50 1114.87 35.20
13699 55.3679 1123.20 1114.82 34.50
13700 55.3717 1123.60 1114.77 34.50
13701 55.3755 1157.80 1114.72 35.30
13702 55.3792 1128.50 1114.67 34.40
13703 55.3830 1160.70 1114.62 35.40
13704 55.3867 1153.20 1114.57 35.20
13705 55.3905 1146.00 1114.53 34.80
13706 55.3942 1111.10 1114.48 34.40
13707 55.3980 1085.80 1114.43 33.70
13708 55.4018 1113.70 1114.38 34.80
13709 55.4055 1176.30 1114.33 35.50
13710 55.4093 1105.70 1114.28 34.40
13711 55.4131 1148.80 1114.23 35.20
13712 55.4168 1109.60 1114.18 34.60
13713 55.4206 1130.90 1114.14 34.40
13714 55.4243 1092.90 1114.09 34.70
13715 55.4281 1155.80 1114.04 35.60
13716 55.4318 1150.60 1113.99 35.30
13717 55.4356 1147.80 1113.94 34.20
13718 55.4394 1146.00 1146.22 36.10
13719 55.4431 1142.30 1146.81 35.00
13720 55.4469 1149.80 1147.42 34.50
13721 55.4506 1185.80 1148.05 35.70
13722 55.4544 1125.90 1148.70 35.00
13723 55.4582 1108.10 1149.38 34.00
13724 55.4619 1109.00 1150.07 34.70
13725 55.4657 1222.60 1150.79 36.40
13726 55.4694 1077.90 1151.53 34.50
13727 55.4732 1164.50 1152.30 35.50
13728 55.4770 1113.70 1153.09 35.00
13729 55.4807 1217.80 1153.92 36.90
13730 55.4845 1119.80 1154.77 34.70
13731 55.4882 1167.40 1155.65 34.80
13732 55.4920 1167.90 1156.56 35.50
13733 55.4958 1160.20 1157.51 35.90
13734 55.4995 1133.90 1158.49 35.60
13735 55.5033 1207.20 1159.51 35.80
13736 55.5070 1178.20 1160.56 36.30
13737 55.5108 1099.30 1161.66 34.40
13738 55.5145 1123.70 1162.79 34.80
13739 55.5183 1166.00 1163.98 35.40
13740 55.5221 1167.10 1165.20 35.40
13741 55.5258 1205.40 1166.48 36.40
13742 55.5296 1119.50 1167.80 34.10
13743 55.5333 1147.70 1169.18 35.20
13744 55.5371 1125.90 1170.62 34.70
13745 55.5409 1196.40 1172.12 36.90
13746 55.5446 1119.40 1173.67 34.50
13747 55.5484 1211.50 1175.30 36.00
13748 55.5521 1160.00 1176.99 35.20
13749 55.5559 1318.50 1178.76 38.10
13750 55.5597 1149.40 1180.60 35.10
13751 55.5634 1203.90 1182.52 36.70
13752 55.5672 1146.70 1184.53 35.80
13753 55.5709 1259.10 1186.64 36.30
13754 55.5747 1190.80 1188.84 35.00
13755 55.5784 1167.50 1191.14 34.80
13756 55.5822 1204.40 1193.56 35.10
13757 55.5860 1244.70 1196.09 36.00
13758 55.5897 1118.40 1198.75 34.10
13759 55.5935 1245.80 1201.54 35.90
13760 55.5973 1203.60 1204.47 35.40
13761 55.6010 1224.60 1207.54 35.90
13762 55.6048 1183.50 1210.78 35.20
13763 55.6085 1292.00 1214.20 36.50
13764 55.6123 1179.00 1217.80 34.80
13765 55.6160 1305.10 1221.60 36.60
13766 55.6198 1246.20 1225.61 36.10
13767 55.6236 1271.10 1229.85 36.30
13768 55.6273 1276.80 1234.33 36.50
13769 55.6311 1256.90 1239.08 36.30
13770 55.6348 1295.40 1244.10 36.70
13771 55.6386 1299.40 1249.45 36.40
13772 55.6423 1285.70 1255.13 37.10
13773 55.6461 1291.00 1261.17 36.90
13774 55.6499 1232.70 1267.61 35.80
13775 55.6536 1332.30 1274.47 37.00
13776 55.6574 1256.30 1281.81 36.00
13777 55.6612 1304.10 1289.65 37.20
13778 55.6649 1290.00 1298.03 36.80
13779 55.6687 1390.30 1307.07 38.20
13780 55.6724 1318.30 1316.74 36.70
13781 55.6762 1341.50 1327.17 37.50
13782 55.6799 1352.50 1338.42 37.60
13783 55.6837 1364.20 1350.58 37.90
13784 55.6875 1352.70 1363.74 38.00
13785 55.6912 1366.80 1378.02 37.30
13786 55.6950 1376.10 1393.54 37.90
13787 55.6987 1407.40 1410.42 38.20
13788 55.7025 1417.40 1428.91 38.80
13789 55.7062 1499.30 1449.16 39.80
13790 55.7100 1400.10 1471.41 38.40
13791 55.7138 1481.30 1495.93 39.60
13792 55.7175 1494.50 1523.03 39.50
13793 55.7213 1613.10 1553.08 41.50
13794 55.7251 1494.00 1586.54 39.20
13795 55.7288 1639.60 1623.81 41.80
13796 55.7326 1647.90 1665.73 41.80
13797 55.7363 1680.00 1712.97 41.90
13798 55.7401 1673.90 1766.47 42.20
13799 55.7438 1859.90 1827.37 45.20
13800 55.7476 1800.00 1897.08 43.50
13801 55.7514 1931.90 1977.44 45.50
13802 55.7551 1947.50 2070.26 45.00
13803 55.7589 2081.40 2178.83 46.60
13804 55.7626 2078.50 2306.76 47.20
13805 55.7664 2344.30 2458.85 50.20
13806 55.7701 2406.80 2640.94 50.60
13807 55.7739 2687.20 2861.97 54.00
13808 55.7777 2946.90 3133.80 56.40
13809 55.7814 3346.10 3471.88 61.10
13810 55.7852 3666.20 3903.57 63.40
13811 55.7889 4371.20 4470.25 69.80
13812 55.7927 5116.40 5241.22 76.10
13813 55.7965 6347.20 6326.82 85.50
13814 55.8002 7812.60 7903.59 96.00
13815 55.8040 10292.20 10205.40 110.70
13816 55.8077 13680.70 13537.70 129.20
13817 55.8115 18869.80 18145.00 155.80
13818 55.8153 24581.90 24053.10 181.90
13819 55.8190 31052.70 30484.60 206.40
13820 55.8228 33578.40 35120.90 216.20
13821 55.8265 34477.80 35128.60 217.40
13822 55.8303 30135.20 30513.00 205.90
13823 55.8340 25002.60 24083.10 182.50
13824 55.8378 17719.70 18174.60 149.90
13825 55.8416 13012.60 13556.00 128.40
13826 55.8453 9085.10 10218.10 104.50
13827 55.8491 6947.20 7912.07 89.30
13828 55.8528 5615.60 6333.55 79.70
13829 55.8566 4668.50 5244.82 72.20
13830 55.8604 3898.70 4472.56 66.30
13831 55.8641 3543.20 3905.44 63.10
13832 55.8679 3045.10 3472.69 57.40
13833 55.8716 2852.30 3133.04 55.90
13834 55.8754 2553.80 2861.92 52.30
13835 55.8791 2390.90 2640.77 51.10
13836 55.8829 2270.00 2458.23 49.60
13837 55.8867 2179.20 2305.91 48.60
13838 55.8904 1928.80 2177.89 45.50
13839 55.8942 1898.30 2069.03 44.90
13840 55.8979 1855.20 1976.04 44.90
13841 55.9017 1769.50 1895.52 43.40
13842 55.9054 1729.20 1825.66 42.80
13843 55.9092 1740.10 1764.68 43.00
13844 55.9130 1627.70 1711.00 41.40
13845 55.9167 1615.30 1663.74 41.50
13846 55.9205 1528.20 1621.69 40.10
13847 55.9242 1586.10 1584.22 40.90
13848 55.9280 1506.70 1550.62 40.20
13849 55.9318 1574.30 1520.53 41.00
13850 55.9355 1391.20 1493.26 37.80
13851 55.9393 1454.70 1468.70 39.40
13852 55.9430 1394.50 1446.31 39.50
13853 55.9468 1436.70 1425.94 39.20
13854 55.9506 1360.90 1407.36 38.20
13855 55.9543 1389.10 1390.37 38.10
13856 55.9581 1317.00 1374.72 37.20
13857 55.9618 1358.60 1360.33 38.00
13858 55.9656 1353.80 1347.08 37.80
13859 55.9693 1356.60 1334.80 37.90
13860 55.9731 1330.40 1323.48 37.40
13861 55.9768 1371.10 1312.94 38.40
13862 55.9806 1305.40 1303.16 37.20
13863 55.9844 1340.30 1294.03 37.70
13864 55.9881 1306.80 1285.54 37.40
13865 55.9919 1283.20 1277.58 37.20
13866 55.9956 1294.60 1270.16 36.90
13867 55.9994 1385.20 1263.19 38.40
13868 56.0032 1237.40 1256.65 36.20
13869 56.0069 1280.10 1250.51 36.90
13870 56.0107 1279.60 1244.74 37.00
13871 56.0144 1214.70 1239.29 36.10
13872 56.0182 1202.80 1234.15 35.60
13873 56.0219 1264.00 1229.30 36.70
13874 56.0257 1262.20 1224.73 36.30
13875 56.0295 1230.00 1220.39 36.00
13876 56.0332 1211.60 1216.28 36.00
13877 56.0370 1230.80 1212.38 36.10
13878 56.0407 1174.50 1208.68 35.90
13879 56.0445 1197.40 1205.17 36.20
13880 56.0482 1230.50 1201.83 36.20
13881 56.0520 1197.00 1198.65 35.90
13882 56.0558 1158.50 1195.62 35.30
13883 56.0595 1184.70 1192.74 35.30
13884 56.0633 1269.80 1189.98 36.80
13885 56.0670 1227.40 1187.35 36.10
13886 56.0708 1207.20 1184.83 35.90
13887 56.0746 1162.40 1182.43 35.20
13888 56.0783 1162.30 1180.13 35.30
13889 56.0821 1221.50 1177.93 36.30
13890 56.0858 1155.80 1175.82 34.70
13891 56.0896 1192.20 1173.80 35.40
13892 56.0933 1168.30 1171.85 35.30
13893 56.0971 1165.50 1169.99 35.20
13894 56.1009 1124.20 1168.20 34.70
13895 56.1046 1172.80 1166.48 35.20
13896 56.1084 1162.50 1164.82 35.20
13897 56.1121 1239.30 1163.23 36.00
13898 56.1159 1141.50 1161.69 34.40
13899 56.1196 1193.80 1160.22 35.60
13900 56.1234 1199.10 1158.79 35.80
13901 56.1272 1215.40 1157.42 35.80
13902 56.1309 1124.60 1156.09 34.40
13903 56.1347 1163.40 1154.82 35.00
13904 56.1384 1104.30 1153.58 33.30
13905 56.1422 1241.30 1152.39 36.10
13906 56.1460 1147.10 1151.23 35.20
13907 56.1497 1128.60 1150.12 34.20
13908 56.1535 1195.20 1149.04 35.60
13909 56.1572 1181.60 1147.99 35.70
13910 56.1610 1122.40 1146.98 34.60
13911 56.1647 1192.80 1146.00 35.40
13912 56.1685 1137.90 1145.05 34.70
13913 56.1722 1092.80 1144.13 34.30
13914 56.1760 1061.10 1143.24 33.40
13915 56.1798 1198.00 1142.38 35.90
13916 56.1835 1128.20 1141.53 34.60
13917 56.1873 1189.80 1140.72 35.90
13918 56.1910 1158.40 1139.92 35.30
13919 56.1948 1106.10 1139.16 34.30
13920 56.1986 1159.70 1138.41 35.20
13921 56.2023 1085.00 1137.68 34.10
13922 56.2061 1141.30 1136.97 35.10
13923 56.2098 1132.30 1136.28 34.80
13924 56.2136 1046.40 1103.87 33.10
13925 56.2173 1151.00 1103.82 35.00
13926 56.2211 1091.20 1103.77 34.00
13927 56.2248 1196.00 1103.72 35.70
13928 56.2286 1101.10 1103.67 34.40
13929 56.2324 1134.40 1103.62 35.00
13930 56.2361 1085.00 1103.57 33.90
13931 56.2399 1170.90 1103.53 35.10
13932 56.2436 1097.10 1103.48 34.70
13933 56.2474 1117.80 1103.43 34.50
13934 56.2511 1051.00 1103.38 33.40
13935 56.2549 1117.10 1103.33 34.50
13936 56.2587 1145.80 1103.28 35.20
13937 56.2624 1114.50 1103.23 34.60
13938 56.2662 1130.40 1103.19 35.00
13939 56.2699 1135.10 1103.14 34.30
13940 56.2737 1124.00 1103.09 34.80
13941 56.2775 1083.20 1103.04 34.20
13942 56.2812 1130.70 1102.99 34.80
13943 56.2850 1111.00 1102.94 34.70
13944 56.2887 1123.30 1102.89 34.80
13945 56.2925 1124.70 1102.85 34.80
13946 56.2962 1109.20 1102.80 34.40
13947 56.3000 1091.10 1102.75 34.10
13948 56.3037 1076.00 1102.70 34.40
13949 56.3075 1128.10 1102.65 34.50
13950 56.3113 1122.60 1102.60 35.00
13951 56.3150 1162.10 1102.55 35.30
13952 56.3188 1094.10 1102.51 34.10
13953 56.3225 1105.00 1102.46 34.70
13954 56.3263 1099.90 1102.41 34.60
13955 56.3300 1100.30 1102.36 34.60
13956 56.3338 1161.30 1102.31 35.40
13957 56.3376 1121.00 1102.26 34.30
13958 56.3413 1077.10 1102.21 34.00
13959 56.3451 1130.80 1102.17 35.20
13960 56.3488 1125.20 1102.12 34.60
13961 56.3526 1125.70 1102.07 34.70
13962 56.3563 1021.10 1102.02 33.00
13963 56.3601 1146.70 1101.97 35.20
13964 56.3638 1130.20 1101.92 35.30
13965 56.3676 1153.50 1101.88 35.70
13966 56.3714 1081.50 1101.83 33.80
13967 56.3751 1119.00 1101.78 35.10
13968 56.3789 1014.40 1101.73 32.90
13969 56.3826 1139.10 1101.68 35.20
13970 56.3864 1066.70 1101.63 33.50
13971 56.3901 1141.50 1101.58 35.10
13972 56.3939 1093.30 1101.54 33.90
13973 56.3977 1101.90 1101.49 34.20
13974 56.4014 1041.90 1101.44 33.40
13975 56.4052 1075.70 1101.39 34.00
13976 56.4089 1112.80 1101.34 35.10
13977 56.4127 1147.40 1101.29 34.80
13978 56.4164 1096.80 1101.25 34.10
13979 56.4202 1123.60 1101.20 34.50
13980 56.4240 1104.30 1101.15 34.50
13981 56.4277 1082.20 1101.10 34.50
13982 56.4315 1113.80 1101.05 35.20
13983 56.4352 1049.60 1101.00 33.20
13984 56.4390 1108.70 1100.95 34.30
13985 56.4427 1118.90 1100.91 35.60
13986 56.4465 1053.10 1100.86 34.10
13987 56.4502 1104.20 1100.81 34.30
13988 56.4540 1095.60 1100.76 34.20
13989 56.4578 1114.80 1100.71 34.50
13990 56.4615 1105.80 1100.66 34.70
13991 56.4653 1070.90 1100.62 34.20
13992 56.4690 1057.70 1100.57 33.80
13993 56.4728 1058.70 1100.52 33.80
13994 56.4765 1026.60 1100.47 33.00
13995 56.4803 1131.80 1100.42 34.80
13996 56.4841 1074.50 1100.37 34.00
13997 56.4878 1043.40 1100.33 33.80
13998 56.4916 1086.30 1100.28 34.20
13999 56.4953 1138.80 1100.23 35.20
14000 56.4991 1127.10 1100.18 34.70
14001 56.5028 1106.30 1100.13 34.30
14002 56.5066 1096.40 1100.08 34.50
14003 56.5103 1113.40 1100.03 34.40
14004 56.5141 1090.60 1099.99 34.30
14005 56.5179 1078.80 1099.94 33.90
14006 56.5216 1044.40 1099.89 33.30
14007 56.5254 1099.20 1099.84 34.60
14008 56.5291 1094.00 1099.79 34.60
14009 56.5329 1101.30 1099.74 34.40
14010 56.5366 1039.50 1099.70 32.80
14011 56.5404 1125.70 1099.65 35.00
14012 56.5442 1168.90 1099.60 35.80
14013 56.5479 1072.40 1099.55 33.50
14014 56.5517 1141.40 1099.50 34.80
14015 56.5554 1085.80 1099.45 33.90
14016 56.5592 1103.00 1099.41 34.30
14017 56.5629 1085.80 1099.36 33.90
14018 56.5667 1099.10 1099.31 34.20
14019 56.5704 1087.60 1099.26 34.10
14020 56.5742 1129.60 1099.21 34.70
14021 56.5779 1160.80 1099.16 35.50
14022 56.5817 1107.60 1099.12 34.40
14023 56.5855 1157.40 1099.07 35.10
14024 56.5892 1035.20 1099.02 33.10
14025 56.5930 1101.10 1098.97 34.00
14026 56.5967 1123.00 1098.92 34.70
14027 56.6005 1072.70 1098.87 33.60
14028 56.6042 1048.60 1098.83 33.20
14029 56.6080 1128.30 1098.78 34.50
14030 56.6118 1045.70 1098.73 33.20
14031 56.6155 1122.80 1098.68 34.50
14032 56.6193 1110.20 1098.63 34.10
14033 56.6230 1028.80 1098.58 33.20
14034 56.6268 1087.10 1098.54 34.00
14035 56.6305 1098.50 1098.49 34.10
14036 56.6343 1019.40 1098.44 32.80
14037 56.6380 1099.50 1098.39 33.20
14038 56.6418 1038.80 1098.34 33.30
14039 56.6455 1124.80 1098.30 35.10
14040 56.6493 1143.80 1098.25 34.60
14041 56.6531 1063.60 1098.20 33.40
14042 56.6568 1073.80 1098.15 33.90
14043 56.6606 1065.40 1098.10 33.40
14044 56.6643 1095.20 1098.05 34.10
14045 56.6681 1136.20 1098.01 34.70
14046 56.6718 1049.10 1097.96 33.50
14047 56.6756 1075.90 1097.91 34.00
14048 56.6793 1086.80 1097.86 33.80
14049 56.6831 1098.60 1097.81 33.80
14050 56.6869 1115.00 1097.76 34.50
14051 56.6906 1056.80 1097.72 33.60
14052 56.6944 1093.60 1097.67 34.20
14053 56.6981 1122.60 1097.62 34.60
14054 56.7019 1085.80 1097.57 33.70
14055 56.7056 1100.10 1097.52 33.50
14056 56.7094 1021.00 1097.48 32.70
14057 56.7131 1114.10 1097.43 34.60
14058 56.7169 1080.10 1097.38 33.80
14059 56.7206 1057.10 1097.33 33.80
14060 56.7244 1105.00 1097.28 34.80
14061 56.7282 1100.00 1097.23 34.60
14062 56.7319 1090.20 1097.19 34.30
14063 56.7357 1094.40 1097.14 33.90
14064 56.7394 1127.00 1097.09 34.30
14065 56.7432 1102.00 1097.04 34.80
14066 56.7469 1052.50 1096.99 33.10
14067 56.7507 1064.00 1096.95 33.30
14068 56.7544 1105.70 1096.90 34.10
14069 56.7582 1117.90 1096.85 34.60
14070 56.7620 1084.40 1096.80 34.10
14071 56.7657 1126.50 1096.75 34.80
14072 56.7695 1115.60 1096.70 34.40
14073 56.7732 1069.10 1096.66 33.70
14074 56.7770 1111.20 1096.61 34.60
14075 56.7807 1145.80 1096.56 35.00
14076 56.7845 1005.80 1096.51 33.10
14077 56.7882 1138.00 1096.46 34.10
14078 56.7920 1070.30 1096.42 33.80
14079 56.7957 1120.20 1096.37 34.30
14080 56.7995 1066.50 1096.32 33.70
14081 56.8033 1103.10 1096.27 34.00
14082 56.8070 1058.20 1096.22 33.50
14083 56.8108 1133.50 1096.18 34.80
14084 56.8145 1083.60 1096.13 33.70
14085 56.8183 1111.60 1096.08 34.20
14086 56.8220 1069.40 1096.03 33.90
14087 56.8258 1106.40 1095.98 34.10
14088 56.8295 1107.60 1095.93 33.80
14089 56.8333 1098.70 1095.89 34.20
14090 56.8371 1088.80 1095.84 33.50
14091 56.8408 1102.40 1095.79 33.80
14092 56.8446 1071.60 1095.74 34.00
14093 56.8483 1116.30 1095.69 34.60
14094 56.8521 1063.60 1095.65 33.10
14095 56.8558 1038.80 1095.60 32.90
14096 56.8596 1074.50 1095.55 33.40
14097 56.8633 1078.70 1095.50 33.90
14098 56.8671 1075.70 1095.45 33.50
14099 56.8708 1021.30 1095.41 33.10
14100 56.8746 1080.60 1095.36 34.00
14101 56.8783 1082.90 1095.31 33.80
14102 56.8821 1022.20 1095.26 33.00
14103 56.8858 1074.40 1095.21 33.80
14104 56.8896 1027.40 1095.17 33.00
14105 56.8934 1113.70 1095.12 34.80
14106 56.8971 1096.10 1095.07 34.00
14107 56.9009 1092.50 1095.02 34.50
14108 56.9046 1129.70 1094.97 34.50
14109 56.9084 1140.60 1094.93 35.30
14110 56.9121 1058.80 1094.88 33.50
14111 56.9159 1130.30 1094.83 34.90
14112 56.9196 1102.00 1094.78 34.60
14113 56.9234 1158.40 1094.73 34.40
14114 56.9272 1076.50 1094.69 34.10
14115 56.9309 1137.20 1094.64 34.90
14116 56.9347 1111.60 1094.59 34.60
14117 56.9384 1122.30 1094.80 34.10
14118 56.9422 1094.30 1094.76 34.50
14119 56.9459 1101.20 1094.71 34.10
14120 56.9497 1108.30 1094.67 34.30
14121 56.9534 1123.60 1094.63 34.70
14122 56.9572 1008.50 1094.59 32.90
14123 56.9609 1138.90 1094.54 34.70
14124 56.9647 1063.40 1094.50 33.90
14125 56.9684 1071.80 1094.46 33.90
14126 56.9722 1122.80 1094.42 34.60
14127 56.9759 1111.20 1094.38 34.40
14128 56.9797 1070.70 1094.34 33.70
14129 56.9835 1142.80 1094.30 34.80
14130 56.9872 1037.80 1094.26 33.50
14131 56.9910 1156.90 1094.21 35.20
14132 56.9941 1086.30 1094.18 34.10
14133 56.9978 1124.10 1094.14 34.60
14134 57.0016 1114.50 1094.10 34.80
14135 57.0053 1068.10 1094.06 33.60
14136 57.0091 1036.40 1094.02 33.40
14137 57.0129 1125.30 1093.98 34.60
14138 57.0166 1097.70 1093.95 34.10
14139 57.0204 1067.80 1093.91 34.10
14140 57.0241 1070.60 1093.87 34.20
14141 57.0279 1042.30 1093.83 33.40
14142 57.0316 1035.60 1093.80 32.80
14143 57.0354 1101.40 1093.76 34.60
14144 57.0392 1068.10 1093.72 34.20
14145 57.0429 1068.50 1093.69 33.50
14146 57.0467 1055.60 1093.65 33.40
14147 57.0504 1113.40 1093.62 34.30
14148 57.0542 1073.20 1093.58 33.80
14149 57.0579 1152.80 1093.55 35.00
14150 57.0617 1063.60 1093.52 33.60
14151 57.0654 1109.40 1093.49 34.40
14152 57.0692 1133.60 1093.45 34.80
14153 57.0729 1105.30 1093.42 34.60
14154 57.0767 1086.70 1093.39 34.10
14155 57.0805 1100.90 1093.36 34.20
14156 57.0842 1080.50 1093.34 33.80
14157 57.0880 1074.70 1093.31 33.60
14158 57.0917 1073.30 1093.28 33.90
14159 57.0955 1168.80 1093.26 35.10
14160 57.0992 1043.70 1093.23 33.10
14161 57.1030 1053.00 1093.21 33.20
14162 57.1068 1088.00 1093.19 33.90
14163 57.1105 1140.50 1093.17 34.80
14164 57.1143 1071.30 1093.15 33.50
14165 57.1180 1154.80 1093.13 35.30
14166 57.1218 1064.20 1093.12 33.70
14167 57.1255 1086.60 1093.10 33.90
14168 57.1293 1054.00 1093.09 33.40
14169 57.1330 1060.40 1093.08 32.50
14170 57.1368 1068.60 1093.07 33.80
14171 57.1405 1129.90 1093.07 35.10
14172 57.1443 1055.30 1093.06 33.20
14173 57.1481 1080.20 1093.06 33.70
14174 57.1518 1027.10 1093.07 33.10
14175 57.1556 1090.70 1093.07 33.80
14176 57.1593 1047.80 1093.08 33.30
14177 57.1631 1080.90 1093.10 33.80
14178 57.1668 1061.00 1093.12 33.70
14179 57.1706 1101.90 1093.14 34.40
14180 57.1744 1085.80 1093.17 33.80
14181 57.1781 1094.70 1093.20 33.80
14182 57.1819 1085.20 1093.24 34.00
14183 57.1856 1153.10 1093.29 35.10
14184 57.1894 1086.60 1093.34 34.10
14185 57.1931 1134.50 1093.40 34.80
14186 57.1969 1039.90 1093.48 33.00
14187 57.2006 1087.80 1093.56 33.30
14188 57.2044 1067.10 1093.66 33.50
14189 57.2081 1090.10 1093.76 34.20
14190 57.2119 1060.30 1093.89 33.50
14191 57.2156 1054.10 1094.03 33.70
14192 57.2194 1138.60 1094.19 35.30
14193 57.2212 1102.90 1094.27 33.20
14194 57.2250 1114.00 1094.46 33.20
14195 57.2287 1075.40 1094.68 32.70
14196 57.2325 1133.70 1094.93 33.90
14197 57.2362 1086.80 1095.22 32.60
14198 57.2400 1120.00 1095.55 33.20
14199 57.2437 1093.20 1095.93 33.60
14200 57.2475 1148.80 1096.36 33.70
14201 57.2513 1067.30 1096.87 32.30
14202 57.2550 1120.50 1097.46 33.00
14203 57.2588 1028.50 1098.14 31.90
14204 57.2625 1072.10 1098.96 32.40
14205 57.2663 1058.40 1099.91 32.60
14206 57.2700 1097.20 1101.06 33.00
14207 57.2738 1032.60 1102.44 31.90
14208 57.2775 1104.60 1104.11 33.20
14209 57.2813 1090.10 1106.18 32.60
14210 57.2850 1100.80 1108.76 33.20
14211 57.2888 1091.10 1112.04 33.10
14212 57.2925 1143.20 1116.31 33.20
14213 57.2963 1162.40 1122.09 34.00
14214 57.3000 1203.90 1130.11 34.60
14215 57.3038 1177.90 1141.62 34.30
14216 57.3075 1245.90 1158.38 35.30
14217 57.3113 1228.80 1182.39 34.80
14218 57.3150 1294.20 1215.79 35.50
14219 57.3188 1414.60 1259.41 38.10
14220 57.3226 1455.90 1308.93 37.50
14221 57.3263 1404.70 1349.67 37.40
14222 57.3301 1449.40 1358.66 38.00
14223 57.3338 1402.30 1329.64 37.30
14224 57.3376 1385.80 1281.42 36.80
14225 57.3413 1291.80 1233.97 36.80
14226 57.3451 1245.10 1195.82 35.30
14227 57.3488 1175.90 1167.69 34.00
14228 57.3526 1181.80 1147.80 34.10
14229 57.3563 1113.30 1134.10 32.90
14230 57.3601 1116.80 1124.58 33.50
14231 57.3638 1070.50 1117.82 32.70
14232 57.3676 1184.10 1112.85 34.70
14233 57.3714 1041.50 1109.06 32.20
14234 57.3751 1173.60 1106.11 34.00
14235 57.3789 1108.00 1103.73 33.40
14236 57.3826 1154.20 1101.80 33.90
14237 57.3864 1103.60 1100.20 32.80
14238 57.3901 1141.50 1098.86 33.70
14239 57.3939 1081.30 1097.73 32.70
14240 57.3976 1101.10 1096.76 33.20
14241 57.4014 1054.10 1095.93 32.00
14242 57.4051 1147.80 1095.20 33.70
14243 57.4089 1101.60 1094.57 32.90
14244 57.4127 1129.60 1094.01 33.30
14245 57.4164 1141.50 1093.51 33.50
14246 57.4202 1176.20 1093.06 34.00
14247 57.4239 1115.70 1092.66 33.50
14248 57.4277 1137.00 1092.30 33.60
14249 57.4314 1077.40 1091.97 32.90
14250 57.4352 1078.50 1091.67 32.70
14251 57.4389 1066.20 1091.40 32.20
14252 57.4427 1151.00 1091.15 34.20
14253 57.4464 1059.70 1090.91 32.10
14254 57.4502 1113.00 1090.70 33.10
14255 57.4539 1110.80 1090.50 33.00
14256 57.4577 1114.20 1090.31 33.30
14257 57.4615 1153.20 1090.13 33.60
14258 57.4652 1138.40 1089.96 33.90
14259 57.4690 1102.20 1089.81 33.30
14260 57.4727 1084.10 1089.66 32.90
14261 57.4765 1076.80 1089.52 32.30
14262 57.4802 1144.90 1089.38 33.40
14263 57.4840 1046.70 1089.25 31.90
14264 57.4877 1046.20 1089.13 32.30
14265 57.4915 1102.10 1089.01 33.00
14266 57.4952 1114.50 1088.90 33.00
14267 57.4990 1094.50 1088.79 32.70
14268 57.5028 1130.60 1088.69 33.60
14269 57.5065 1028.90 1088.59 31.70
14270 57.5103 1038.80 1088.49 32.10
14271 57.5140 1137.80 1088.40 33.60
14272 57.5178 1084.10 1088.30 33.00
14273 57.5215 1083.10 1088.21 32.50
14274 57.5253 1117.50 1088.13 33.00
14275 57.5290 1101.90 1088.04 33.00
14276 57.5328 1139.60 1087.96 33.60
14277 57.5365 1052.60 1087.88 31.50
14278 57.5403 1160.50 1087.80 34.50
14279 57.5440 1094.70 1087.72 32.80
14280 57.5478 1014.10 1087.65 31.40
14281 57.5516 1121.50 1087.57 32.70
14282 57.5553 1080.90 1087.50 32.60
14283 57.5591 1101.20 1087.43 33.20
14284 57.5628 1124.60 1087.36 33.20
14285 57.5666 1093.20 1087.29 32.90
14286 57.5703 1146.70 1087.22 33.80
14287 57.5741 1076.60 1087.15 32.40
14288 57.5778 1069.40 1087.09 32.10
14289 57.5816 1061.90 1087.02 32.50
14290 57.5854 1096.80 1086.96 33.20
14291 57.5891 1088.70 1086.89 33.00
14292 57.5929 1156.70 1086.83 34.10
14293 57.5966 1040.90 1086.77 31.60
14294 57.6004 1097.40 1086.71 32.90
14295 57.6041 1069.40 1086.64 32.80
14296 57.6079 1138.70 1086.58 33.50
14297 57.6116 1106.60 1086.52 32.90
14298 57.6154 1107.30 1086.46 32.80
14299 57.6191 1105.80 1086.41 33.50
14300 57.6267 1092.80 1086.29 32.80
14301 57.6304 1083.00 1086.23 32.90
14302 57.6342 1054.50 1086.17 32.50
14303 57.6379 1130.20 1086.12 33.00
14304 57.6417 1104.90 1086.06 33.50
14305 57.6454 1109.10 1086.00 33.30
14306 57.6492 1088.50 1085.95 33.10
14307 57.6529 1086.30 1085.89 32.60
14308 57.6567 1086.30 1085.84 32.40
14309 57.6604 1088.10 1085.78 32.60
14310 57.6642 1098.40 1085.73 33.30
14311 57.6680 1086.00 1085.67 32.90
14312 57.6717 1075.20 1085.62 32.70
14313 57.6755 1084.40 1085.56 33.10
14314 57.6792 1131.50 1085.51 34.10
14315 57.6830 1116.00 1085.46 34.50
14316 57.6867 1051.30 1085.40 33.10
14317 57.6905 1150.30 1085.35 34.90
14318 57.6942 1073.80 1085.30 33.80
14319 57.6980 1199.20 1085.25 35.60
14320 57.7018 1131.60 1085.19 34.60
14321 57.7055 1148.90 1085.14 35.10
14322 57.7093 1068.00 1085.09 33.70
14323 57.7130 1108.70 1085.04 34.00
14324 57.7168 1118.90 1084.98 34.40
14325 57.7205 1088.90 1084.93 33.90
14326 57.7243 1077.10 1084.63 33.60
14327 57.7281 1133.10 1084.58 34.60
14328 57.7318 1150.70 1084.54 35.00
14329 57.7356 1110.50 1084.49 34.10
14330 57.7393 1077.10 1084.44 33.60
14331 57.7431 1108.60 1084.40 34.50
14332 57.7468 1100.60 1084.35 34.20
14333 57.7506 1122.80 1084.30 34.10
14334 57.7543 1052.50 1084.26 33.60
14335 57.7581 1083.50 1084.21 33.80
14336 57.7618 1135.20 1084.16 34.50
14337 57.7656 1095.60 1084.12 34.00
14338 57.7694 1062.60 1084.07 33.30
14339 57.7731 1106.90 1084.02 34.30
14340 57.7769 1075.60 1083.98 33.80
14341 57.7806 1044.20 1083.93 33.20
14342 57.7844 1065.70 1083.89 33.70
14343 57.7881 1136.70 1083.84 34.90
14344 57.7919 1078.60 1083.79 33.70
14345 57.7957 1084.60 1083.75 33.90
14346 57.7994 1095.30 1083.70 34.10
14347 57.8032 1064.30 1083.65 33.10
14348 57.8069 1053.90 1083.61 33.30
14349 57.8107 1051.80 1083.56 33.40
14350 57.8144 1054.50 1083.51 33.40
14351 57.8182 1081.30 1083.47 33.60
14352 57.8219 1077.30 1083.42 33.70
14353 57.8257 1086.90 1083.37 34.00
14354 57.8294 1072.00 1083.33 33.90
14355 57.8332 1090.40 1083.28 33.90
14356 57.8370 1114.90 1083.23 33.60
14357 57.8407 1125.20 1083.19 34.60
14358 57.8445 1119.10 1083.14 35.20
14359 57.8482 1074.60 1083.10 33.50
14360 57.8520 1076.50 1083.05 33.70
14361 57.8557 1101.30 1083.00 34.00
14362 57.8595 1075.60 1082.96 33.70
14363 57.8633 1186.00 1082.91 35.50
14364 57.8670 1139.20 1082.86 34.90
14365 57.8708 1076.00 1082.82 33.70
14366 57.8745 1078.80 1082.77 33.90
14367 57.8783 1137.60 1082.72 34.90
14368 57.8820 1089.80 1082.68 34.00
14369 57.8858 1081.70 1082.63 34.10
14370 57.8895 1111.90 1082.59 34.30
14371 57.8933 1067.10 1082.54 33.60
14372 57.8971 1056.90 1082.49 33.70
14373 57.9008 1143.00 1082.45 35.30
14374 57.9046 1026.00 1082.40 32.90
14375 57.9083 1069.50 1082.35 33.70
14376 57.9121 1064.00 1082.31 33.60
14377 57.9158 1103.40 1082.26 34.20
14378 57.9196 1076.70 1082.22 33.90
14379 57.9234 1100.30 1082.17 34.30
14380 57.9271 1059.30 1082.12 33.80
14381 57.9309 1053.90 1082.08 33.80
14382 57.9346 1057.10 1082.03 33.40
14383 57.9384 1129.40 1081.98 34.20
14384 57.9421 1079.20 1081.94 34.60
14385 57.9459 1123.20 1081.89 34.60
14386 57.9496 1038.30 1081.85 33.00
14387 57.9534 1056.20 1081.80 33.40
14388 57.9572 1060.90 1081.75 34.10
14389 57.9609 1106.10 1081.71 34.30
14390 57.9647 1064.40 1081.66 34.10
14391 57.9684 1076.50 1081.62 33.80
14392 57.9722 1088.30 1081.57 34.40
14393 57.9759 1194.20 1081.52 35.90
14394 57.9797 1038.30 1081.48 33.40
14395 57.9835 1096.60 1081.43 34.30
14396 57.9872 1042.80 1081.38 33.00
14397 57.9910 1109.90 1081.34 34.60
14398 57.9947 1075.90 1081.29 33.50
14399 57.9985 1098.40 1081.25 34.30
14400 58.0022 1071.40 1081.20 34.10
14401 58.0060 1121.20 1081.15 34.30
14402 58.0098 1045.20 1081.11 33.90
14403 58.0135 1095.00 1081.06 34.00
14404 58.0173 1050.90 1081.02 33.20
14405 58.0210 1141.10 1080.97 35.20
14406 58.0248 1055.20 1080.92 33.40
14407 58.0285 1083.10 1080.88 34.30
14408 58.0323 1056.60 1080.83 33.70
14409 58.0360 1180.10 1080.79 35.60
14410 58.0398 1069.30 1080.74 33.70
14411 58.0436 1127.40 1080.69 35.90
14412 58.0473 1050.50 1080.65 33.90
14413 58.0511 1117.60 1080.60 34.50
14414 58.0548 1067.20 1080.56 33.70
14415 58.0586 1121.80 1080.51 34.80
14416 58.0623 1144.20 1080.47 35.10
14417 58.0661 1167.40 1080.42 35.60
14418 58.0699 1112.60 1080.37 34.70
14419 58.0736 1085.00 1080.33 34.30
14420 58.0774 1093.80 1080.28 34.60
14421 58.0811 1113.50 1080.24 34.80
14422 58.0849 1091.70 1080.19 34.70
14423 58.0886 1147.40 1080.14 35.30
14424 58.0924 1100.00 1080.10 34.00
14425 58.0961 1099.70 1080.05 34.30
14426 58.0999 1078.70 1080.01 34.40
14427 58.1037 1071.20 1079.96 34.00
14428 58.1074 1086.00 1079.92 33.90
14429 58.1112 1142.30 1079.87 34.80
14430 58.1149 1106.50 1079.82 34.10
14431 58.1187 1080.30 1079.78 33.70
14432 58.1225 1090.80 1079.73 34.30
14433 58.1262 1106.90 1079.69 34.70
14434 58.1300 1071.60 1079.64 34.00
14435 58.1337 1037.10 1079.60 33.40
14436 58.1375 1040.40 1079.55 32.90
14437 58.1412 1100.40 1079.50 34.20
14438 58.1450 1058.60 1079.46 33.90
14439 58.1488 1106.90 1079.41 34.40
14440 58.1525 1150.30 1079.37 35.00
14441 58.1563 1092.50 1079.32 34.00
14442 58.1600 1070.30 1079.28 34.20
14443 58.1638 1103.90 1079.23 33.90
14444 58.1675 1045.10 1079.18 32.80
14445 58.1713 1130.20 1079.14 34.30
14446 58.1750 1040.30 1079.09 33.10
14447 58.1788 1155.20 1079.05 34.80
14448 58.1826 1065.20 1079.00 33.50
14449 58.1863 1094.50 1078.96 34.00
14450 58.1901 1067.70 1078.91 33.60
14451 58.1938 1101.40 1078.87 33.60
14452 58.1976 1067.10 1078.82 33.40
14453 58.2014 1089.20 1078.77 33.70
14454 58.2051 1105.80 1078.73 34.30
14455 58.2089 1116.70 1078.68 34.40
14456 58.2126 1118.50 1078.64 34.40
14457 58.2164 1115.60 1078.59 33.90
14458 58.2201 1056.20 1078.55 32.70
14459 58.2239 1175.00 1078.50 35.10
14460 58.2276 1075.00 1078.46 33.50
14461 58.2314 1140.50 1078.41 34.80
14462 58.2352 1114.00 1078.36 33.90
14463 58.2389 1063.50 1078.32 33.00
14464 58.2427 1116.20 1078.27 34.30
14465 58.2464 1086.90 1078.23 33.90
14466 58.2502 1078.50 1078.18 33.30
14467 58.2539 1111.10 1078.14 33.70
14468 58.2577 1072.50 1078.09 33.50
14469 58.2615 1055.10 1078.05 33.00
14470 58.2652 1073.50 1078.00 33.80
14471 58.2690 1185.40 1077.96 35.40
14472 58.2727 1154.20 1077.91 34.60
14473 58.2765 1125.30 1077.87 34.60
14474 58.2803 1065.10 1077.82 33.80
14475 58.2840 1097.10 1077.78 33.80
14476 58.2878 1066.60 1077.73 33.30
14477 58.2915 1061.90 1077.68 33.40
14478 58.2953 1053.70 1077.64 33.20
14479 58.2990 1161.80 1077.59 34.80
14480 58.3028 1071.10 1077.55 33.50
14481 58.3066 1097.10 1077.50 33.50
14482 58.3103 1103.10 1077.46 34.20
14483 58.3141 1106.80 1077.41 33.80
14484 58.3178 1067.40 1077.37 33.20
14485 58.3216 1124.50 1077.32 34.20
14486 58.3253 1082.90 1077.28 33.80
14487 58.3291 1097.90 1077.23 34.00
14488 58.3329 1113.00 1077.19 34.60
14489 58.3366 1122.80 1077.14 34.40
14490 58.3404 1055.90 1077.10 32.50
14491 58.3441 1097.90 1077.05 34.60
14492 58.3479 1182.50 1077.01 35.50
14493 58.3517 1077.00 1076.96 33.30
14494 58.3554 1009.50 1076.92 32.30
14495 58.3592 1063.30 1076.87 33.50
14496 58.3629 1118.40 1076.83 34.40
14497 58.3667 1143.90 1076.78 34.90
14498 58.3704 1113.80 1076.74 34.20
14499 58.3742 1114.30 1076.69 34.40
14500 58.3779 1106.90 1076.65 34.20
14501 58.3817 1153.80 1076.60 35.30
14502 58.3855 1088.90 1076.56 34.10
14503 58.3892 1099.70 1076.51 34.40
14504 58.3930 1074.50 1076.47 33.60
14505 58.3967 1119.60 1076.42 34.50
14506 58.4005 1111.00 1076.38 34.10
14507 58.4043 1192.00 1076.33 35.60
14508 58.4080 1079.60 1076.29 34.20
14509 58.4118 1201.20 1091.73 35.70
14510 58.4155 1087.70 1091.98 34.10
14511 58.4193 1152.20 1092.24 34.70
14512 58.4230 1122.10 1092.51 34.60
14513 58.4268 1096.20 1092.79 34.00
14514 58.4306 1040.60 1093.08 33.10
14515 58.4343 1092.20 1093.38 34.30
14516 58.4381 1053.70 1093.69 32.80
14517 58.4418 1112.50 1094.01 34.50
14518 58.4456 1093.10 1094.34 34.80
14519 58.4493 1151.50 1094.68 35.00
14520 58.4531 1109.60 1095.04 33.90
14521 58.4569 1115.80 1095.41 34.70
14522 58.4606 1093.30 1095.79 34.20
14523 58.4644 1118.00 1096.19 34.60
14524 58.4681 1104.60 1096.60 34.20
14525 58.4719 1177.90 1097.03 35.50
14526 58.4757 1061.90 1097.47 33.70
14527 58.4794 1124.90 1097.93 34.60
14528 58.4832 1147.70 1098.41 34.60
14529 58.4869 1114.10 1098.90 34.50
14530 58.4907 1129.10 1099.42 35.00
14531 58.4944 1136.30 1099.95 34.90
14532 58.4982 1116.50 1100.51 34.40
14533 58.5020 1115.00 1101.09 35.00
14534 58.5057 1140.80 1101.69 34.90
14535 58.5095 1111.80 1102.31 34.90
14536 58.5132 1090.10 1102.97 34.20
14537 58.5170 1129.10 1103.64 34.40
14538 58.5207 1137.70 1104.35 34.20
14539 58.5245 1102.10 1105.09 34.40
14540 58.5283 1094.70 1105.86 34.10
14541 58.5320 1171.50 1106.66 35.30
14542 58.5358 1120.20 1107.49 34.70
14543 58.5395 1079.40 1108.37 33.30
14544 58.5433 1114.20 1109.28 35.10
14545 58.5471 1140.00 1110.24 34.90
14546 58.5508 1102.40 1111.24 34.20
14547 58.5546 1202.90 1112.29 35.50
14548 58.5583 1133.50 1113.38 34.50
14549 58.5621 1148.40 1114.53 35.20
14550 58.5658 1106.10 1115.73 34.20
14551 58.5696 1139.40 1116.99 34.40
14552 58.5734 1116.00 1118.32 34.10
14553 58.5771 1080.90 1119.71 34.50
14554 58.5809 1120.90 1121.17 34.70
14555 58.5846 1146.20 1122.71 34.40
14556 58.5884 1196.50 1124.33 35.90
14557 58.5922 1181.70 1126.04 35.70
14558 58.5959 1189.20 1127.84 36.00
14559 58.5997 1187.30 1129.74 35.60
14560 58.6034 1134.30 1131.75 34.90
14561 58.6072 1238.40 1133.88 36.00
14562 58.6110 1148.20 1136.13 35.10
14563 58.6147 1233.40 1138.51 36.60
14564 58.6185 1166.30 1141.04 35.50
14565 58.6222 1154.60 1143.72 35.20
14566 58.6260 1181.00 1146.57 36.00
14567 58.6297 1183.00 1149.61 35.70
14568 58.6335 1134.70 1152.84 35.20
14569 58.6373 1211.90 1156.30 35.80
14570 58.6410 1195.70 1159.98 35.50
14571 58.6448 1203.20 1163.92 37.40
14572 58.6485 1156.40 1168.16 35.20
14573 58.6523 1230.40 1172.68 36.50
14574 58.6561 1202.80 1177.57 35.00
14575 58.6598 1226.40 1182.81 36.30
14576 58.6636 1217.70 1188.48 35.70
14577 58.6673 1169.90 1194.60 35.30
14578 58.6711 1254.90 1201.21 36.70
14579 58.6748 1269.40 1208.41 37.10
14580 58.6786 1173.10 1216.22 35.80
14581 58.6824 1234.80 1224.75 35.50
14582 58.6861 1262.50 1234.05 37.10
14583 58.6899 1286.10 1244.26 37.40
14584 58.6936 1179.80 1255.46 36.10
14585 58.6974 1291.90 1267.79 37.70
14586 58.7011 1243.40 1281.42 36.40
14587 58.7049 1349.30 1296.54 38.20
14588 58.7087 1353.60 1313.39 38.20
14589 58.7124 1327.10 1332.17 38.30
14590 58.7162 1269.40 1353.29 36.80
14591 58.7200 1372.70 1377.07 38.70
14592 58.7237 1437.40 1403.90 39.20
14593 58.7275 1434.30 1434.47 39.60
14594 58.7312 1456.60 1469.44 39.80
14595 58.7350 1501.90 1509.77 40.70
14596 58.7387 1504.40 1556.42 39.60
14597 58.7425 1625.00 1610.95 42.00
14598 58.7463 1647.90 1675.11 42.80
14599 58.7500 1741.00 1750.95 43.70
14600 58.7538 1759.10 1841.96 43.60
14601 58.7575 1895.50 1952.17 45.40
14602 58.7613 2121.90 2087.62 47.60
14603 58.7650 2238.70 2256.09 49.60
14604 58.7688 2349.80 2470.64 51.10
14605 58.7726 2828.80 2750.60 55.70
14606 58.7763 3258.80 3125.89 60.70
14607 58.7801 3828.80 3648.03 65.70
14608 58.7838 4635.10 4391.30 73.20
14609 58.7876 5817.10 5461.14 82.40
14610 58.7914 7341.90 6978.39 94.00
14611 58.7951 9968.10 9065.01 110.50
14612 58.7989 12535.50 11732.90 126.80
14613 58.8026 15275.40 14640.50 138.40
14614 58.8064 16416.80 16809.20 146.60
14615 58.8102 16795.80 16947.60 148.30
14616 58.8139 14689.60 14957.60 138.00
14617 58.8177 12255.20 12060.90 125.10
14618 58.8214 8970.80 9342.66 101.90
14619 58.8252 6669.60 7186.53 88.90
14620 58.8289 4888.10 5609.55 74.80
14621 58.8327 3907.50 4496.29 67.10
14622 58.8365 3218.70 3722.15 59.50
14623 58.8402 2826.50 3177.37 55.50
14624 58.8440 2374.80 2786.74 51.60
14625 58.8477 2263.00 2498.08 49.80
14626 58.8515 2076.10 2277.11 47.80
14627 58.8553 1918.00 2104.05 45.80
14628 58.8590 1718.50 1965.39 42.90
14629 58.8628 1654.80 1852.33 42.10
14630 58.8665 1568.90 1759.42 41.30
14631 58.8703 1571.60 1681.53 41.30
14632 58.8741 1529.30 1616.30 40.80
14633 58.8778 1440.00 1560.67 38.90
14634 58.8816 1379.00 1513.12 38.70
14635 58.8853 1420.00 1472.10 39.00
14636 58.8891 1390.00 1436.41 38.50
14637 58.8928 1315.90 1405.29 37.80
14638 58.8966 1362.20 1377.89 38.30
14639 58.9004 1307.30 1353.77 37.20
14640 58.9041 1295.80 1332.28 37.20
14641 58.9079 1260.40 1313.16 36.80
14642 58.9116 1249.90 1296.04 36.60
14643 58.9154 1205.20 1280.63 35.90
14644 58.9192 1245.00 1266.72 36.00
14645 58.9229 1271.60 1254.16 37.20
14646 58.9267 1225.00 1242.74 35.70
14647 58.9304 1289.30 1232.35 37.10
14648 58.9342 1234.30 1222.86 36.30
14649 58.9380 1232.90 1214.19 35.90
14650 58.9417 1205.20 1206.20 36.00
14651 58.9455 1268.30 1198.84 37.70
14652 58.9492 1190.00 1192.07 35.60
14653 58.9530 1269.90 1185.80 36.50
14654 58.9567 1196.90 1180.01 35.70
14655 58.9605 1210.60 1174.63 35.90
14656 58.9643 1133.90 1169.62 34.80
14657 58.9680 1187.70 1164.97 35.80
14658 58.9718 1162.00 1160.60 35.00
14659 58.9755 1101.60 1156.55 34.10
14660 58.9793 1100.60 1152.74 34.20
14661 58.9831 1152.40 1149.18 34.90
14662 58.9868 1131.70 1145.84 35.10
14663 58.9906 1236.70 1142.69 36.50
14664 58.9943 1151.60 1139.73 34.80
14665 58.9981 1120.90 1136.93 34.40
14666 59.0019 1139.60 1134.30 34.70
14667 59.0056 1172.30 1131.82 35.10
14668 59.0094 1133.40 1129.47 34.70
14669 59.0131 1219.00 1127.25 36.10
14670 59.0169 1112.40 1125.13 34.50
14671 59.0206 1175.20 1123.13 35.30
14672 59.0244 1140.20 1121.23 35.10
14673 59.0282 1116.40 1119.42 34.30
14674 59.0319 1098.60 1117.71 34.30
14675 59.0357 1100.60 1116.07 34.50
14676 59.0395 1123.20 1114.51 34.00
14677 59.0432 1143.50 1113.02 35.20
14678 59.0470 1093.90 1111.60 34.50
14679 59.0507 1173.50 1110.24 35.50
14680 59.0545 1105.90 1108.95 34.20
14681 59.0582 1087.50 1107.71 33.80
14682 59.0620 1145.10 1106.52 35.20
14683 59.0658 1160.80 1105.38 35.10
14684 59.0695 1097.10 1104.29 34.40
14685 59.0733 1144.20 1103.24 35.50
14686 59.0770 1058.80 1102.24 33.70
14687 59.0808 1107.90 1101.27 34.30
14688 59.0846 1081.30 1100.34 34.10
14689 59.0883 1130.30 1099.45 34.80
14690 59.0921 1144.70 1098.59 35.30
14691 59.0958 1079.30 1097.76 33.80
14692 59.0996 1079.20 1096.96 34.00
14693 59.1034 1160.30 1096.19 35.40
14694 59.1071 1151.10 1095.45 35.00
14695 59.1109 1126.50 1094.73 34.90
14696 59.1146 1084.90 1094.04 34.30
14697 59.1184 1104.40 1093.37 34.20
14698 59.1222 1089.40 1092.73 34.80
14699 59.1259 1109.80 1092.10 34.10
14700 59.1297 1085.50 1091.50 34.10
14701 59.1334 1103.50 1090.91 33.80
14702 59.1372 1061.90 1090.35 33.20
14703 59.1409 1185.10 1089.80 34.80
14704 59.1447 1144.00 1089.27 35.90
14705 59.1485 1143.80 1088.75 34.80
14706 59.1522 1098.70 1088.25 33.80
14707 59.1560 1170.00 1087.76 34.60
14708 59.1597 1129.20 1087.29 33.90
14709 59.1635 1109.80 1086.83 33.80
14710 59.1673 1076.30 1086.39 33.40
14711 59.1710 1074.30 1085.96 33.90
14712 59.1748 1103.60 1085.54 34.10
14713 59.1785 1139.20 1085.13 34.40
14714 59.1823 1079.20 1084.73 33.90
14715 59.1861 1164.00 1084.34 34.90
14716 59.1898 1111.90 1083.96 34.40
14717 59.1936 1125.60 1083.60 34.60
14718 59.1973 1088.80 1083.24 34.20
14719 59.2011 1107.70 1082.89 34.30
14720 59.2048 1118.60 1082.55 34.00
14721 59.2086 1106.70 1066.98 34.50
14722 59.2124 1065.20 1066.94 33.60
14723 59.2161 1126.00 1066.90 34.30
14724 59.2199 1150.80 1066.86 35.20
14725 59.2237 1112.60 1066.82 34.20
14726 59.2274 1101.10 1066.77 33.70
14727 59.2312 1100.20 1066.73 34.20
14728 59.2349 1103.60 1066.69 34.00
14729 59.2387 1118.10 1066.65 34.60
14730 59.2425 1060.90 1066.60 32.90
14731 59.2462 1104.90 1066.56 34.50
14732 59.2500 1128.50 1066.52 34.40
14733 59.2537 1109.40 1066.48 34.50
14734 59.2575 1046.80 1066.44 33.50
14735 59.2612 1159.90 1066.39 35.10
14736 59.2650 1037.60 1066.35 32.90
14737 59.2688 1137.00 1066.31 34.90
14738 59.2725 1086.50 1066.27 33.70
14739 59.2763 1065.50 1066.23 33.30
14740 59.2800 1125.50 1066.18 34.40
14741 59.2838 1183.50 1066.14 35.50
14742 59.2876 1088.50 1066.10 33.90
14743 59.2913 1086.00 1066.06 33.90
14744 59.2951 1111.00 1066.02 34.30
14745 59.2988 1063.00 1065.97 33.80
14746 59.3026 1018.90 1065.93 32.90
14747 59.3064 1130.60 1065.89 34.70
14748 59.3101 1006.80 1065.85 32.90
14749 59.3139 1096.00 1065.81 33.90
14750 59.3176 1112.60 1065.76 34.30
14751 59.3214 1096.20 1065.72 34.00
14752 59.3251 1045.40 1065.68 33.30
14753 59.3289 1140.80 1065.64 34.60
14754 59.3327 1060.90 1065.60 33.70
14755 59.3364 1155.10 1065.56 34.70
14756 59.3402 1069.50 1065.51 33.00
14757 59.3439 1092.20 1065.47 34.90
14758 59.3477 1097.40 1065.43 34.80
14759 59.3515 1092.80 1065.39 33.60
14760 59.3552 1070.40 1065.35 33.90
14761 59.3590 1084.60 1065.31 34.30
14762 59.3628 1073.10 1065.26 33.60
14763 59.3665 1105.40 1065.22 34.60
14764 59.3703 1157.50 1065.18 35.10
14765 59.3740 1072.90 1065.14 33.40
14766 59.3778 1099.70 1065.10 33.90
14767 59.3815 1114.40 1065.06 34.20
14768 59.3853 1056.70 1065.01 33.60
14769 59.3891 1104.40 1064.97 34.60
14770 59.3928 1024.70 1064.93 32.70
14771 59.3966 1097.90 1064.89 34.00
14772 59.4003 1060.20 1064.85 33.80
14773 59.4041 1077.50 1064.81 33.90
14774 59.4079 1090.70 1064.76 33.90
14775 59.4116 1113.10 1064.72 34.20
14776 59.4154 1084.30 1064.68 33.70
14777 59.4191 1065.60 1064.64 33.50
14778 59.4229 1038.60 1064.60 33.30
14779 59.4267 1085.90 1064.56 34.20
14780 59.4304 1026.60 1064.52 33.70
14781 59.4342 1058.00 1064.47 33.70
14782 59.4379 1074.10 1064.43 33.60
14783 59.4417 1079.20 1064.39 33.20
14784 59.4454 1113.70 1064.35 35.20
14785 59.4492 1098.00 1064.31 34.30
14786 59.4530 1084.50 1064.27 33.80
14787 59.4567 1093.80 1064.23 33.40
14788 59.4605 1051.20 1064.19 33.30
14789 59.4642 1142.10 1064.14 34.80
14790 59.4680 1111.20 1064.10 34.30
14791 59.4718 1133.80 1064.06 35.00
14792 59.4755 1042.80 1064.02 33.30
14793 59.4793 1123.60 1063.98 34.80
14794 59.4831 1037.90 1063.94 33.40
14795 59.4868 1131.70 1063.90 34.90
14796 59.4906 1025.60 1063.86 32.90
14797 59.4943 1054.20 1063.81 33.50
14798 59.4981 1056.40 1063.77 34.10
14799 59.5019 1132.30 1063.73 35.00
14800 59.5056 1083.40 1063.69 34.20
14801 59.5094 1076.60 1063.65 34.00
14802 59.5131 1058.20 1063.61 33.80
14803 59.5169 1113.50 1063.57 34.20
14804 59.5206 1021.50 1063.53 32.80
14805 59.5244 1069.00 1063.49 33.70
14806 59.5282 1064.00 1063.44 33.90
14807 59.5319 1078.10 1063.40 33.90
14808 59.5357 1075.70 1063.36 33.70
14809 59.5394 1028.10 1063.32 32.40
14810 59.5432 1043.40 1063.28 33.70
14811 59.5470 1139.60 1063.24 35.40
14812 59.5507 1072.30 1063.20 33.50
14813 59.5545 1081.30 1063.16 33.80
14814 59.5582 1103.00 1063.12 34.40
14815 59.5620 1097.90 1063.08 34.20
14816 59.5658 1100.30 1063.04 34.60
14817 59.5695 1069.60 1062.99 33.70
14818 59.5733 1117.80 1062.95 34.40
14819 59.5770 1047.50 1062.91 33.10
14820 59.5808 1071.40 1062.87 33.70
14821 59.5845 1150.40 1062.83 35.00
14822 59.5883 1031.80 1062.79 33.40
14823 59.5921 1039.20 1062.75 33.20
14824 59.5958 1078.20 1062.71 34.10
14825 59.5996 1108.10 1062.67 34.40
14826 59.6034 1077.40 1062.63 34.00
14827 59.6071 1164.10 1062.59 35.80
14828 59.6109 1044.00 1062.55 33.90
14829 59.6146 1077.80 1062.51 34.40
14830 59.6184 1135.70 1062.47 34.70
14831 59.6222 1053.40 1062.42 33.70
14832 59.6259 1087.60 1062.38 33.90
14833 59.6297 1049.90 1062.34 33.30
14834 59.6334 1029.90 1062.30 33.20
14835 59.6372 1067.70 1062.26 33.80
14836 59.6409 1103.70 1062.22 33.80
14837 59.6447 1127.50 1062.18 35.30
14838 59.6485 1103.40 1062.14 34.60
14839 59.6522 1117.10 1062.10 34.40
14840 59.6560 1034.10 1062.06 33.40
14841 59.6597 1064.40 1062.02 33.90
14842 59.6635 1057.20 1061.98 33.80
14843 59.6673 1045.00 1061.94 33.50
14844 59.6710 1120.20 1061.90 35.00
14845 59.6748 1119.60 1061.86 34.50
14846 59.6785 1093.00 1061.82 34.30
14847 59.6823 1103.00 1061.78 34.30
14848 59.6861 1102.20 1061.74 34.50
14849 59.6898 1077.20 1061.70 33.20
14850 59.6936 1121.20 1061.66 34.50
14851 59.6973 1079.50 1061.62 33.90
14852 59.7011 1083.90 1061.58 34.40
14853 59.7049 1064.50 1061.53 33.80
14854 59.7086 1059.90 1061.49 34.10
14855 59.7124 1126.70 1061.45 34.90
14856 59.7161 1040.70 1061.41 33.50
14857 59.7199 1060.60 1061.37 33.70
14858 59.7237 1061.70 1061.33 34.30
14859 59.7274 1081.20 1061.29 34.10
14860 59.7312 1062.90 1061.25 34.00
14861 59.7349 1208.10 1061.21 36.00
14862 59.7387 1030.40 1061.17 33.30
14863 59.7425 1077.30 1061.13 33.30
14864 59.7462 1076.20 1061.09 34.50
14865 59.7500 1074.80 1061.05 33.90
14866 59.7537 1104.40 1061.01 34.40
14867 59.7575 1089.80 1060.97 34.30
14868 59.7612 1047.90 1060.93 33.30
14869 59.7650 1025.00 1060.89 33.30
14870 59.7688 1046.70 1060.85 33.30
14871 59.7725 1075.70 1060.81 33.80
14872 59.7763 1075.90 1060.77 34.20
14873 59.7800 1125.40 1060.73 35.00
14874 59.7838 1091.60 1060.69 34.50
14875 59.7876 1024.80 1060.65 33.20
14876 59.7913 1062.10 1060.61 34.00
14877 59.7951 1133.60 1060.57 35.20
14878 59.7988 1072.90 1060.53 34.10
14879 59.8026 1060.80 1060.49 33.90
14880 59.8064 1066.20 1060.45 33.70
14881 59.8101 1113.30 1060.41 35.00
14882 59.8139 1060.50 1060.37 33.50
14883 59.8176 1108.30 1060.33 34.80
14884 59.8214 1018.00 1060.29 32.80
14885 59.8252 1089.90 1060.25 34.80
14886 59.8289 1144.00 1060.21 35.40
14887 59.8327 1129.90 1060.18 35.00
14888 59.8364 1079.70 1060.14 34.40
14889 59.8402 1099.00 1060.10 33.70
14890 59.8440 1090.00 1060.06 34.40
14891 59.8477 1066.10 1060.02 34.70
14892 59.8515 1088.30 1059.98 33.90
14893 59.8552 1146.70 1059.94 35.00
14894 59.8590 1073.70 1059.90 33.60
14895 59.8628 1042.50 1059.86 33.10
14896 59.8665 1075.80 1059.82 34.10
14897 59.8703 1071.10 1059.78 33.80
14898 59.8740 1071.60 1059.74 34.10
14899 59.8778 1091.60 1059.70 34.20
14900 59.8815 1055.80 1059.66 34.00
14901 59.8853 1101.50 1059.62 34.90
14902 59.8891 1002.30 1059.58 32.90
14903 59.8928 1090.80 1059.54 34.10
14904 59.8966 1100.80 1059.50 34.60
14905 59.9003 1120.00 1059.46 35.20
14906 59.9041 1061.70 1059.42 33.60
14907 59.9079 1102.00 1059.38 34.60
14908 59.9116 1131.40 1059.35 34.70
14909 59.9154 1056.70 1059.31 33.30
14910 59.9191 1058.80 1059.27 33.80
14911 59.9229 1110.10 1059.23 34.40
14912 59.9267 1072.10 1059.19 33.90
14913 59.9304 1030.40 1059.15 32.90
14914 59.9342 1098.20 1059.11 34.30
14915 59.9379 1032.50 1059.07 33.40
14916 59.9417 1085.40 1059.03 34.00
14917 59.9455 1172.40 1058.99 36.70
14918 59.9492 1045.20 1058.95 34.00
14919 59.9530 1066.40 1058.91 33.80
14920 59.9567 1094.10 1058.87 34.40
14921 59.9605 1021.10 1058.83 32.90
14922 59.9642 1023.60 1058.80 33.40
14923 59.9680 1114.00 1058.76 34.50
14924 59.9718 1106.30 1058.72 34.40
14925 59.9755 1089.10 1058.68 34.00
14926 59.9793 1044.10 1058.64 33.40
14927 59.9831 1100.70 1058.60 34.40
14928 59.9868 1065.50 1058.56 34.00
14929 59.9906 1071.60 1058.52 34.00
14930 59.9943 1040.70 1058.48 33.80
14931 59.9981 1117.70 1058.44 34.70
14932 60.0019 1047.60 1058.41 33.60
14933 60.0056 1121.60 1058.37 34.30
14934 60.0094 1068.50 1058.33 33.30
14935 60.0131 1053.90 1058.29 33.60
14936 60.0169 1058.50 1058.25 33.80
14937 60.0206 1136.90 1058.21 35.20
14938 60.0244 1054.80 1058.17 34.50
14939 60.0282 1038.30 1058.13 33.70
14940 60.0319 1081.00 1058.09 34.10
14941 60.0357 1122.60 1058.06 34.80
14942 60.0394 1045.90 1058.02 33.90
14943 60.0432 1145.30 1057.98 34.90
14944 60.0470 1021.50 1057.94 34.40
14945 60.0507 1098.00 1057.90 34.20
14946 60.0545 1048.20 1057.86 33.60
14947 60.0582 1054.30 1057.82 33.50
14948 60.0620 1033.90 1057.78 32.70
14949 60.0658 1174.60 1057.75 36.00
14950 60.0695 1039.30 1057.71 33.60
14951 60.0733 1113.90 1057.67 35.10
14952 60.0770 1038.30 1057.63 33.60
14953 60.0808 1071.80 1057.59 34.00
14954 60.0845 1033.40 1057.55 33.70
14955 60.0883 1103.20 1057.51 34.90
14956 60.0921 1052.20 1057.48 33.90
14957 60.0958 1030.90 1057.44 33.60
14958 60.0996 1026.80 1057.40 33.40
14959 60.1033 1083.20 1057.36 34.00
14960 60.1071 1070.80 1057.32 34.40
14961 60.1109 1113.70 1057.28 34.80
14962 60.1146 992.00 1057.24 32.70
14963 60.1184 1095.40 1057.21 34.70
14964 60.1221 1071.00 1057.17 34.10
14965 60.1259 1117.90 1057.13 34.70
14966 60.1297 1064.90 1057.09 33.80
14967 60.1334 1072.90 1057.05 33.90
14968 60.1372 1054.80 1057.01 33.80
14969 60.1409 1110.10 1056.98 34.80
14970 60.1447 1056.80 1056.94 34.30
14971 60.1485 1078.20 1056.90 34.80
14972 60.1522 1083.90 1056.86 33.90
14973 60.1560 1100.90 1056.82 33.80
14974 60.1597 1058.00 1056.78 33.70
14975 60.1635 1079.80 1056.75 34.20
14976 60.1673 1122.70 1056.71 34.80
14977 60.1710 1058.40 1056.67 33.50
14978 60.1748 1082.50 1056.63 34.50
14979 60.1785 1096.90 1056.59 34.70
14980 60.1823 1078.10 1056.56 34.30
14981 60.1861 1121.20 1056.52 34.90
14982 60.1898 1105.00 1056.48 34.60
14983 60.1936 1083.70 1056.44 34.20
14984 60.1973 1112.90 1056.40 35.10
14985 60.2011 1044.20 1056.36 33.50
14986 60.2048 1041.40 1056.33 33.30
14987 60.2086 1135.90 1056.29 35.20
14988 60.2124 1018.10 1056.25 33.30
14989 60.2161 1110.80 1056.21 35.00
14990 60.2199 1056.10 1056.17 33.50
14991 60.2236 1050.40 1056.14 33.80
14992 60.2274 1045.20 1056.10 34.10
14993 60.2312 1113.60 1056.06 33.90
14994 60.2349 1069.30 1056.02 33.70
14995 60.2387 1036.40 1055.99 33.30
14996 60.2424 1070.80 1055.95 33.80
14997 60.2462 1102.00 1055.91 34.50
14998 60.2500 1049.40 1055.87 33.80
14999 60.2537 1080.30 1055.83 34.20
15000 60.2575 1055.90 1055.80 33.50
15001 60.2612 1068.90 1055.76 34.20
15002 60.2650 1080.20 1055.72 33.80
15003 60.2687 1090.50 1055.68 34.40
15004 60.2725 1049.60 1055.65 33.90
15005 60.2763 1099.60 1055.61 34.40
15006 60.2800 1056.60 1055.57 33.90
15007 60.2838 1107.40 1055.53 34.60
15008 60.2875 1087.50 1055.49 34.20
15009 60.2913 1087.60 1055.46 34.40
15010 60.2951 1044.60 1055.42 33.30
15011 60.2988 1107.60 1055.38 35.00
15012 60.3026 1057.10 1055.34 33.80
15013 60.3063 1061.80 1055.31 34.30
15014 60.3101 1081.90 1055.27 33.90
15015 60.3139 1101.30 1055.23 34.40
15016 60.3176 1045.30 1055.19 33.50
15017 60.3214 1056.60 1055.16 34.00
15018 60.3251 1056.50 1055.12 33.50
15019 60.3289 1030.60 1055.08 33.70
15020 60.3326 1040.90 1055.04 33.60
15021 60.3364 1127.60 1055.01 35.30
15022 60.3402 1073.20 1054.97 34.20
15023 60.3439 1127.20 1054.93 33.70
15024 60.3477 1102.60 1054.89 35.20
15025 60.3514 1108.00 1054.86 34.40
15026 60.3552 1090.50 1054.82 34.20
15027 60.3590 1043.80 1054.78 33.00
15028 60.3627 1066.00 1054.75 33.80
15029 60.3665 1080.10 1054.71 34.00
15030 60.3702 1112.50 1054.67 35.00
15031 60.3740 1057.50 1054.63 33.60
15032 60.3778 1032.60 1054.60 33.40
15033 60.3815 1016.70 1054.56 33.10
15034 60.3853 1108.60 1054.52 34.60
15035 60.3890 1076.50 1054.48 34.00
15036 60.3928 1105.00 1054.45 34.60
15037 60.3965 1093.10 1054.41 34.90
15038 60.4003 1039.60 1054.37 33.60
15039 60.4041 1041.10 1054.34 33.70
15040 60.4078 1089.30 1054.30 34.50
15041 60.4116 1105.80 1054.26 34.20
15042 60.4153 1134.70 1054.23 34.80
15043 60.4191 1091.50 1054.19 34.40
15044 60.4229 1008.70 1054.15 32.70
15045 60.4266 1134.00 1054.11 35.20
15046 60.4304 1091.00 1054.08 34.50
15047 60.4341 1121.50 1054.04 34.50
15048 60.4379 1144.60 1054.00 35.10
15049 60.4417 1110.00 1053.97 34.60
15050 60.4454 1089.70 1053.93 34.30
15051 60.4492 1093.80 1053.89 34.30
15052 60.4529 1076.30 1053.86 34.40
15053 60.4567 1083.80 1053.82 34.40
15054 60.4604 1072.40 1053.78 34.30
15055 60.4642 1037.20 1053.75 33.30
15056 60.4680 1099.10 1053.71 35.00
15057 60.4717 1084.60 1053.67 34.40
15058 60.4755 1091.90 1053.63 34.90
15059 60.4792 1085.20 1053.60 34.40
15060 60.4830 1032.90 1053.56 33.80
15061 60.4868 1100.40 1053.52 35.00
15062 60.4905 1061.10 1053.49 33.60
15063 60.4943 1096.90 1053.45 34.90
15064 60.4980 1094.00 1053.41 34.40
15065 60.5018 1079.60 1053.38 34.60
15066 60.5056 1044.00 1053.34 33.80
15067 60.5093 1137.70 1053.31 35.20
15068 60.5131 1058.90 1053.27 33.10
15069 60.5168 1065.30 1053.23 34.10
15070 60.5206 1014.90 1053.20 33.10
15071 60.5243 1070.40 1053.16 34.30
15072 60.5281 1073.50 1053.12 33.50
15073 60.5319 1121.10 1053.09 35.20
15074 60.5356 1044.60 1053.05 33.60
15075 60.5394 1041.10 1053.01 33.50
15076 60.5431 1028.80 1052.98 32.40
15077 60.5469 1069.10 1052.94 35.10
15078 60.5507 1040.20 1052.90 33.80
15079 60.5544 1108.20 1052.87 34.20
15080 60.5582 1080.00 1052.83 33.90
15081 60.5619 1123.20 1052.79 34.60
15082 60.5657 1083.60 1052.76 34.70
15083 60.5694 1091.80 1052.72 34.30
15084 60.5732 1064.40 1052.69 33.70
15085 60.5770 1020.90 1052.65 33.10
15086 60.5807 1173.40 1052.61 35.70
15087 60.5845 1000.30 1052.58 32.80
15088 60.5882 1082.10 1052.54 34.00
15089 60.5920 1106.90 1052.50 33.70
15090 60.5957 1100.00 1052.47 34.40
15091 60.5995 1045.40 1052.43 33.30
15092 60.6033 1135.00 1052.40 34.70
15093 60.6070 1105.00 1052.36 34.20
15094 60.6108 1063.60 1052.32 33.30
15095 60.6145 1083.40 1052.29 33.80
15096 60.6183 976.40 1052.25 32.20
15097 60.6221 1117.70 1052.22 34.80
15098 60.6258 1076.80 1052.18 33.70
15099 60.6296 1055.70 1052.14 32.80
15100 60.6333 1047.60 1052.11 33.60
15101 60.6371 1086.00 1052.07 33.80
15102 60.6409 1034.00 1052.04 33.10
15103 60.6446 1119.70 1052.00 33.90
15104 60.6484 1136.00 1051.96 35.80
15105 60.6521 1082.20 1051.93 34.20
15106 60.6559 1086.30 1051.89 34.00
15107 60.6596 1120.30 1051.86 34.50
15108 60.6634 1103.30 1051.82 34.40
15109 60.6672 1066.10 1051.78 33.70
15110 60.6709 1074.50 1051.75 33.60
15111 60.6747 1071.90 1051.71 33.80
15112 60.6784 1112.40 1051.68 34.60
15113 60.6822 1097.80 1051.64 34.10
15114 60.6860 1135.60 1051.61 35.00
15115 60.6897 1118.40 1051.57 35.30
15116 60.6935 1035.90 1051.53 33.00
15117 60.6972 1069.70 1051.50 33.90
15118 60.7010 1057.10 1051.46 33.40
15119 60.7047 1019.30 1051.43 33.00
15120 60.7085 1042.60 1051.39 33.50
15121 60.7122 1113.70 1051.36 34.30
15122 60.7160 1126.60 1051.32 34.80
15123 60.7198 1100.30 1051.29 34.20
15124 60.7235 1097.50 1051.25 34.10
15125 60.7273 1068.10 1051.21 33.90
15126 60.7310 1116.80 1051.18 34.60
15127 60.7348 1026.10 1051.14 33.20
15128 60.7386 1066.90 1051.11 33.50
15129 60.7423 1049.70 1051.07 32.80
15130 60.7461 1118.60 1051.04 35.00
15131 60.7498 1091.60 1051.00 34.70
15132 60.7536 1056.90 1050.97 33.60
15133 60.7574 1120.30 1050.93 34.50
15134 60.7611 1072.10 1050.90 33.80
15135 60.7649 1094.10 1050.86 34.30
15136 60.7686 1091.90 1050.83 34.20
15137 60.7724 1084.00 1050.79 33.90
15138 60.7761 1014.50 1050.75 33.10
15139 60.7799 1095.60 1050.72 33.70
15140 60.7836 1009.80 1050.68 32.70
15141 60.7874 1074.20 1050.65 33.80
15142 60.7912 1107.40 1050.61 34.30
15143 60.7949 1028.60 1050.58 33.10
15144 60.7987 1046.50 1050.54 32.90
15145 60.8024 1108.90 1050.51 34.50
15146 60.8062 1049.90 1050.47 33.60
15147 60.8100 1129.00 1050.44 34.20
15148 60.8137 1109.10 1050.40 33.50
15149 60.8175 1093.40 1050.37 34.00
15150 60.8212 1066.30 1050.33 34.10
15151 60.8250 1049.20 1050.30 33.80
15152 60.8288 1054.30 1050.26 33.80
15153 60.8325 1160.30 1050.23 35.10
15154 60.8363 1095.40 1050.19 34.20
15155 60.8400 1090.30 1050.16 33.90
15156 60.8438 1075.50 1050.12 33.40
15157 60.8475 1084.90 1050.09 34.50
15158 60.8513 1124.40 1050.05 34.70
15159 60.8550 1084.50 1050.02 34.00
15160 60.8588 1032.60 1049.98 32.80
15161 60.8626 1093.00 1049.95 33.90
15162 60.8663 1053.90 1049.91 33.40
15163 60.8701 1123.50 1049.88 34.90
15164 60.8738 1086.40 1049.84 34.00
15165 60.8776 1147.10 1049.81 34.80
15166 60.8814 1107.90 1049.77 34.60
15167 60.8851 1118.60 1049.74 34.50
15168 60.8889 1034.80 1049.70 33.30
15169 60.8926 1051.70 1049.67 34.10
15170 60.8964 1067.40 1049.64 33.90
15171 60.9001 1124.70 1049.60 35.00
15172 60.9039 1088.00 1049.57 34.20
15173 60.9077 1111.00 1049.53 34.40
15174 60.9114 1037.40 1049.50 33.00
15175 60.9152 1072.70 1049.46 33.30
15176 60.9189 1054.60 1049.43 33.50
15177 60.9227 1044.30 1049.39 33.50
15178 60.9264 1018.10 1049.36 33.30
15179 60.9302 1105.70 1049.32 34.70
15180 60.9340 1078.00 1049.29 34.00
15181 60.9377 1154.20 1049.26 35.20
15182 60.9415 1019.00 1049.22 32.90
15183 60.9452 1136.70 1049.19 34.60
15184 60.9490 1063.70 1049.15 33.90
15185 60.9528 1073.80 1049.12 34.10
15186 60.9565 1096.60 1049.08 33.80
15187 60.9603 1128.70 1049.05 34.60
15188 60.9640 1082.10 1049.01 34.20
15189 60.9678 1078.60 1048.98 34.00
15190 60.9715 1079.10 1048.95 34.40
15191 60.9753 1043.30 1048.91 33.40
15192 60.9790 1093.00 1048.88 34.40
15193 60.9828 1089.70 1048.84 34.00
15194 60.9866 1078.20 1048.81 34.20
15195 60.9903 1108.00 1048.77 34.70
15196 60.9941 1081.20 1048.74 34.00
15197 60.9978 1101.70 1048.71 34.30
15198 61.0016 1063.00 1048.67 33.60
15199 61.0053 1092.40 1048.64 34.50
15200 61.0091 1081.80 1048.60 33.90
15201 61.0129 1133.50 1048.57 34.70
15202 61.0166 1060.30 1048.54 33.80
15203 61.0204 1077.10 1048.50 34.10
15204 61.0241 1116.50 1048.47 34.30
15205 61.0279 1031.90 1048.43 33.40
15206 61.0317 1108.70 1048.40 34.50
15207 61.0354 1096.60 1048.37 34.10
15208 61.0392 1044.90 1048.33 33.60
15209 61.0429 1085.90 1048.30 33.70
15210 61.0467 1111.60 1048.26 35.20
15211 61.0504 1020.20 1048.23 32.90
15212 61.0542 1089.10 1048.20 33.90
15213 61.0579 1144.30 1048.16 34.20
15214 61.0617 1126.20 1048.13 34.60
15215 61.0655 1101.60 1048.09 34.00
15216 61.0692 1061.10 1048.06 34.00
15217 61.0730 1078.50 1048.03 34.10
15218 61.0767 1000.80 1047.99 32.00
15219 61.0805 1071.20 1047.96 33.60
15220 61.0843 1098.60 1047.93 33.30
15221 61.0880 1145.50 1047.89 35.00
15222 61.0918 1098.30 1047.86 34.30
15223 61.0955 1127.20 1047.83 34.40
15224 61.0993 1043.70 1047.79 33.40
15225 61.1030 1043.60 1047.76 33.20
15226 61.1068 1057.00 1047.72 33.60
15227 61.1105 1082.70 1047.69 34.00
15228 61.1143 1076.20 1047.66 33.50
15229 61.1181 1087.50 1047.62 34.10
15230 61.1218 1050.70 1047.59 32.90
15231 61.1256 1154.30 1047.56 35.40
15232 61.1293 1100.00 1047.52 34.10
15233 61.1331 1078.60 1047.49 33.70
15234 61.1368 1048.00 1047.46 33.70
15235 61.1406 1111.30 1047.42 34.30
15236 61.1444 1099.90 1047.39 33.70
15237 61.1481 1140.80 1047.36 35.80
15238 61.1519 1042.30 1047.32 33.40
15239 61.1556 1041.10 1047.29 33.10
15240 61.1594 1074.30 1047.26 33.50
15241 61.1631 1136.20 1047.22 35.20
15242 61.1669 1085.20 1047.19 34.00
15243 61.1707 1123.10 1047.16 34.40
15244 61.1744 1000.10 1047.12 32.50
15245 61.1782 1180.70 1047.09 35.40
15246 61.1819 1142.70 1047.06 35.50
15247 61.1857 1104.80 1047.02 34.10
15248 61.1894 1036.90 1046.99 33.50
15249 61.1932 1144.90 1046.96 34.90
15250 61.1969 1086.10 1046.92 33.60
15251 61.2007 1133.80 1046.89 34.70
15252 61.2045 1114.90 1046.86 34.40
15253 61.2082 1136.00 1046.82 34.50
15254 61.2120 1051.80 1046.79 33.20
15255 61.2157 1143.20 1046.76 34.80
15256 61.2195 1044.00 1046.72 33.40
15257 61.2233 1128.30 1046.69 34.00
15258 61.2270 1111.00 1046.66 34.50
15259 61.2308 1143.90 1046.63 35.20
15260 61.2345 1049.60 1046.59 33.50
15261 61.2383 1045.70 1046.56 33.40
15262 61.2420 1065.70 1046.53 33.00
15263 61.2458 1081.30 1046.49 33.60
15264 61.2495 1098.70 1046.46 34.80
15265 61.2533 1112.40 1046.43 34.30
15266 61.2570 1126.40 1046.40 34.90
15267 61.2608 1102.20 1046.36 34.40
15268 61.2646 1064.70 1046.33 33.40
15269 61.2683 1111.50 1046.30 34.20
15270 61.2721 1098.50 1046.26 34.30
15271 61.2758 1148.80 1046.23 35.10
15272 61.2796 1087.20 1046.20 34.00
15273 61.2834 1103.20 1046.17 34.50
15274 61.2871 1118.50 1046.13 34.70
15275 61.2909 1118.40 1046.10 34.20
15276 61.2946 1121.50 1068.00 34.90
15277 61.2984 1095.90 1068.38 34.40
15278 61.3021 1044.10 1068.77 33.30
15279 61.3059 1145.30 1069.17 35.20
15280 61.3096 1134.80 1069.58 34.60
15281 61.3134 1128.50 1070.01 34.50
15282 61.3172 1066.40 1070.45 33.50
15283 61.3209 1085.60 1070.91 34.20
15284 61.3247 1095.10 1071.38 34.20
15285 61.3284 1093.10 1071.86 34.30
15286 61.3322 1163.00 1072.36 35.60
15287 61.3359 1146.70 1072.88 35.00
15288 61.3397 1069.90 1073.41 33.90
15289 61.3434 1070.40 1073.97 33.00
15290 61.3472 1100.60 1074.54 34.90
15291 61.3510 1139.40 1075.13 35.20
15292 61.3547 1109.80 1075.74 34.40
15293 61.3585 1127.50 1076.37 34.80
15294 61.3622 1110.10 1077.03 34.00
15295 61.3660 1070.20 1077.71 33.90
15296 61.3697 1081.40 1078.41 34.00
15297 61.3735 1119.10 1079.14 34.50
15298 61.3773 1090.90 1079.89 33.80
15299 61.3810 1112.80 1080.67 34.60
15300 61.3848 1190.50 1081.48 35.70
15301 61.3885 1123.80 1082.32 34.40
15302 61.3923 1055.20 1083.20 33.30
15303 61.3960 1112.80 1084.11 34.70
15304 61.3998 1106.70 1085.05 34.60
15305 61.4035 1126.30 1086.03 34.40
15306 61.4073 1118.70 1087.04 34.20
15307 61.4110 1136.20 1088.10 34.90
15308 61.4148 1179.10 1089.21 35.50
15309 61.4186 1106.30 1090.36 34.00
15310 61.4223 1139.40 1091.55 35.00
15311 61.4261 1219.70 1092.80 36.10
15312 61.4298 1191.50 1094.10 36.00
15313 61.4336 1123.60 1095.46 34.60
15314 61.4373 1167.30 1096.87 35.10
15315 61.4411 1196.20 1098.35 35.90
15316 61.4449 1144.50 1099.89 34.20
15317 61.4486 1143.00 1101.51 35.50
15318 61.4524 1141.90 1103.20 35.10
15319 61.4561 1149.30 1104.97 34.60
15320 61.4599 1177.90 1106.82 35.30
15321 61.4636 1147.20 1108.77 35.00
15322 61.4674 1165.90 1110.81 35.30
15323 61.4711 1149.30 1112.95 35.20
15324 61.4749 1171.70 1115.20 35.40
15325 61.4786 1162.90 1117.57 35.40
15326 61.4824 1132.80 1120.07 35.00
15327 61.4862 1185.00 1122.69 35.70
15328 61.4899 1204.40 1125.46 36.10
15329 61.4937 1193.30 1128.37 35.80
15330 61.4974 1237.70 1131.46 36.50
15331 61.5012 1149.90 1134.71 35.10
15332 61.5049 1159.00 1138.16 35.40
15333 61.5087 1203.50 1141.81 35.70
15334 61.5125 1242.90 1145.69 36.70
15335 61.5162 1215.50 1149.80 36.00
15336 61.5200 1188.90 1154.18 35.70
15337 61.5237 1249.40 1158.83 36.40
15338 61.5275 1192.40 1163.78 35.90
15339 61.5312 1201.60 1169.09 36.20
15340 61.5350 1202.90 1174.73 36.10
15341 61.5387 1230.80 1180.78 36.60
15342 61.5425 1240.00 1187.25 36.10
15343 61.5462 1209.50 1194.19 36.20
15344 61.5500 1258.20 1201.67 37.00
15345 61.5538 1297.80 1209.74 36.90
15346 61.5575 1236.70 1218.41 35.80
15347 61.5613 1292.50 1227.82 36.80
15348 61.5650 1281.30 1237.98 37.20
15349 61.5688 1211.10 1249.03 35.80
15350 61.5725 1276.50 1261.04 37.00
15351 61.5763 1394.50 1274.15 37.80
15352 61.5800 1314.50 1288.45 37.40
15353 61.5838 1413.40 1304.15 39.00
15354 61.5876 1375.70 1321.38 39.00
15355 61.5913 1411.90 1340.45 38.80
15356 61.5951 1396.50 1361.46 39.20
15357 61.5988 1422.30 1384.83 38.50
15358 61.6026 1430.50 1410.80 38.80
15359 61.6063 1476.20 1439.96 40.10
15360 61.6101 1556.10 1472.59 41.20
15361 61.6138 1453.90 1509.52 39.60
15362 61.6176 1535.00 1551.25 41.10
15363 61.6213 1617.00 1598.78 41.70
15364 61.6251 1593.40 1653.35 41.40
15365 61.6289 1803.40 1716.28 44.50
15366 61.6326 1780.20 1789.20 44.60
15367 61.6364 1858.70 1874.46 45.30
15368 61.6401 1984.40 1975.36 46.30
15369 61.6439 2048.10 2094.97 46.80
15370 61.6476 2138.70 2239.22 49.00
15371 61.6514 2383.00 2414.26 50.90
15372 61.6551 2496.70 2629.43 52.70
15373 61.6589 2826.20 2898.71 54.70
15374 61.6627 3247.90 3244.12 60.50
15375 61.6664 3834.50 3695.11 65.60
15376 61.6702 4323.60 4303.75 70.20
15377 61.6739 5400.90 5143.44 79.00
15378 61.6777 6634.50 6323.55 89.80
15379 61.6814 8490.80 7993.95 101.20
15380 61.6852 11045.70 10310.80 116.40
15381 61.6889 14763.50 13395.50 137.50
15382 61.6927 18084.80 17155.30 152.90
15383 61.6964 21698.70 20884.90 172.50
15384 61.7002 22374.30 22967.20 173.40
15385 61.7039 22264.00 22080.10 175.30
15386 61.7077 18963.50 18827.80 156.60
15387 61.7115 15176.90 14937.90 141.20
15388 61.7152 11185.10 11528.90 117.10
15389 61.7190 8042.10 8895.35 98.10
15390 61.7227 6052.80 6970.00 83.00
15391 61.7265 4896.10 5601.33 75.70
15392 61.7302 3980.20 4627.57 67.50
15393 61.7340 3482.70 3931.91 63.00
15394 61.7377 2979.40 3421.29 58.20
15395 61.7415 2657.10 3035.39 54.20
15396 61.7453 2403.00 2736.01 50.50
15397 61.7490 2273.20 2499.70 51.00
15398 61.7528 2019.90 2309.01 47.20
15399 61.7565 1993.50 2152.38 47.10
15400 61.7603 1849.30 2023.10 44.90
15401 61.7640 1838.90 1914.85 44.60
15402 61.7678 1734.00 1823.18 43.20
15403 61.7715 1690.60 1745.20 42.90
15404 61.7753 1620.70 1677.99 42.60
15405 61.7790 1584.00 1620.07 41.40
15406 61.7828 1566.90 1569.56 40.90
15407 61.7865 1427.60 1525.41 39.70
15408 61.7903 1442.90 1486.53 39.80
15409 61.7940 1484.60 1452.00 40.10
15410 61.7978 1396.70 1421.42 38.80
15411 61.8016 1297.50 1394.11 37.30
15412 61.8053 1396.50 1369.58 39.10
15413 61.8091 1381.60 1347.55 38.40
15414 61.8128 1357.80 1327.58 38.20
15415 61.8166 1327.20 1309.55 37.50
15416 61.8203 1327.80 1293.17 37.80
15417 61.8241 1219.00 1278.18 36.70
15418 61.8278 1311.30 1264.53 38.00
15419 61.8316 1363.50 1251.99 38.40
15420 61.8353 1286.10 1240.50 37.70
15421 61.8391 1267.20 1229.90 37.00
15422 61.8428 1197.10 1220.13 35.60
15423 61.8466 1274.90 1211.10 36.90
15424 61.8504 1221.00 1202.70 36.60
15425 61.8541 1246.80 1194.93 37.00
15426 61.8579 1199.80 1187.70 35.70
15427 61.8616 1255.20 1180.94 36.20
15428 61.8654 1183.10 1174.66 35.70
15429 61.8691 1240.70 1168.79 36.50
15430 61.8729 1194.10 1163.28 35.90
15431 61.8766 1209.80 1158.13 36.10
15432 61.8804 1207.40 1153.28 36.00
15433 61.8841 1209.20 1148.73 36.10
15434 61.8879 1172.70 1144.45 35.70
15435 61.8916 1219.00 1140.42 36.00
15436 61.8954 1231.70 1136.61 36.60
15437 61.8992 1188.40 1133.01 35.70
15438 61.9029 1174.50 1129.61 36.00
15439 61.9067 1138.60 1126.39 35.10
15440 61.9104 1153.90 1123.34 35.40
15441 61.9142 1125.30 1120.45 34.80
15442 61.9179 1151.90 1117.70 35.90
15443 61.9217 1119.80 1115.09 34.80
15444 61.9254 1128.90 1112.61 35.40
15445 61.9292 1207.20 1110.25 36.60
15446 61.9329 1176.70 1108.00 35.80
15447 61.9367 1099.90 1105.86 34.40
15448 61.9404 1161.10 1103.80 35.40
15449 61.9442 1110.50 1101.85 34.10
15450 61.9479 1071.90 1099.98 34.30
15451 61.9517 1173.50 1098.20 35.90
15452 61.9554 1149.40 1096.49 35.30
15453 61.9592 1104.00 1094.85 34.10
15454 61.9630 1127.00 1093.28 35.10
15455 61.9667 1165.70 1091.78 35.50
15456 61.9705 1104.80 1090.34 34.00
15457 61.9742 1120.90 1088.95 35.20
15458 61.9780 1067.60 1087.62 34.10
15459 61.9817 1200.20 1086.34 35.60
15460 61.9855 1141.40 1085.11 35.30
15461 61.9892 1051.10 1083.93 33.30
15462 61.9924 1090.60 1082.95 34.10
15463 61.9962 1125.10 1081.85 34.70
15464 61.9999 1078.70 1080.78 34.10
15465 62.0037 1118.90 1079.76 34.40
15466 62.0075 1101.10 1078.77 34.50
15467 62.0112 1078.90 1077.81 33.90
15468 62.0150 1109.60 1076.89 34.40
15469 62.0187 1083.00 1076.00 33.80
15470 62.0225 1092.00 1075.14 34.30
15471 62.0262 1163.20 1074.31 35.60
15472 62.0300 1131.60 1073.50 35.00
15473 62.0337 1127.90 1072.72 35.00
15474 62.0375 1105.70 1071.97 34.00
15475 62.0412 1152.10 1071.24 35.30
15476 62.0450 1120.50 1070.54 34.80
15477 62.0488 1120.20 1069.85 34.20
15478 62.0525 1099.80 1069.18 33.60
15479 62.0563 1076.30 1068.54 33.50
15480 62.0600 1125.40 1067.92 34.80
15481 62.0638 1153.10 1067.31 34.90
15482 62.0675 1054.70 1066.72 33.50
15483 62.0713 1045.40 1066.15 32.50
15484 62.0751 1080.20 1065.59 33.80
15485 62.0788 1068.50 1065.05 33.80
15486 62.0826 1091.20 1064.53 34.60
15487 62.0863 1089.60 1064.02 33.90
15488 62.0901 1117.40 1063.52 34.90
15489 62.0938 1104.00 1063.04 33.80
15490 62.0976 1079.00 1062.56 33.60
15491 62.1013 1035.50 1062.11 33.40
15492 62.1051 1090.80 1061.66 34.30
15493 62.1088 1103.00 1061.23 34.30
15494 62.1126 1067.50 1039.41 34.10
15495 62.1163 1131.30 1039.38 34.70
15496 62.1201 1093.90 1039.35 34.10
15497 62.1239 1109.90 1039.33 34.60
15498 62.1276 1066.50 1039.30 34.20
15499 62.1314 1145.10 1039.27 35.20
15500 62.1351 1082.60 1039.24 33.80
15501 62.1389 1089.60 1039.21 33.70
15502 62.1426 1107.40 1039.18 34.80
15503 62.1464 1140.70 1039.16 34.60
15504 62.1501 1056.20 1039.13 33.60
15505 62.1539 1079.30 1039.10 33.10
15506 62.1576 1066.30 1039.07 33.80
15507 62.1614 1092.60 1039.04 34.00
15508 62.1652 1147.70 1039.01 35.00
15509 62.1689 1093.60 1038.99 34.10
15510 62.1727 1097.20 1038.96 34.70
15511 62.1764 1116.90 1038.93 34.50
15512 62.1802 1033.90 1038.90 33.00
15513 62.1839 1153.30 1038.87 35.10
15514 62.1877 1076.40 1038.84 33.60
15515 62.1914 1105.00 1038.82 34.70
15516 62.1952 1084.90 1038.79 33.90
15517 62.1990 1050.10 1038.76 33.80
15518 62.2027 1092.40 1038.73 33.80
15519 62.2065 1054.80 1038.70 33.90
15520 62.2102 1035.70 1038.68 33.00
15521 62.2140 1075.70 1038.65 33.80
15522 62.2177 1041.90 1038.62 32.80
15523 62.2203 1013.20 1038.60 32.80
15524 62.2241 1078.00 1038.57 34.10
15525 62.2278 1047.80 1038.55 34.10
15526 62.2316 1039.00 1038.52 33.30
15527 62.2353 1083.60 1038.49 34.40
15528 62.2391 1064.50 1038.46 34.10
15529 62.2428 1057.90 1038.43 33.70
15530 62.2466 1040.80 1038.41 33.90
15531 62.2503 1049.90 1038.38 34.20
15532 62.2541 1065.20 1038.35 33.90
15533 62.2579 1095.70 1038.32 34.70
15534 62.2616 1076.80 1038.29 34.70
15535 62.2654 1073.40 1038.27 33.20
15536 62.2691 1034.70 1038.24 33.40
15537 62.2729 1047.10 1038.21 34.00
15538 62.2766 1093.30 1038.18 34.40
15539 62.2804 1118.40 1038.16 34.40
15540 62.2841 1054.70 1038.13 33.50
15541 62.2879 1093.40 1038.10 34.30
15542 62.2916 1121.20 1038.07 35.00
15543 62.2954 1072.90 1038.05 34.70
15544 62.2991 1070.60 1038.02 33.90
15545 62.3029 1038.60 1037.99 33.80
15546 62.3066 1140.50 1037.96 35.50
15547 62.3104 1023.70 1037.94 33.30
15548 62.3141 1058.90 1037.91 34.20
15549 62.3179 1059.00 1037.88 34.00
15550 62.3217 1117.70 1037.85 34.80
15551 62.3254 1041.90 1037.83 33.30
15552 62.3292 1068.70 1037.80 33.90
15553 62.3329 1061.30 1037.77 34.30
15554 62.3367 1085.50 1037.74 34.90
15555 62.3404 1055.10 1037.72 33.70
15556 62.3442 1079.50 1037.69 34.00
15557 62.3479 1025.90 1037.66 34.30
15558 62.3517 1080.30 1037.63 34.40
15559 62.3554 1039.70 1037.61 33.70
15560 62.3592 1044.60 1037.58 33.60
15561 62.3629 1036.90 1037.55 33.30
15562 62.3667 1070.40 1037.52 34.20
15563 62.3704 1068.30 1037.50 34.20
15564 62.3742 1079.50 1037.47 34.00
15565 62.3779 1119.20 1037.44 34.70
15566 62.3817 1077.90 1037.42 34.30
15567 62.3854 1024.50 1037.39 33.30
15568 62.3892 1058.00 1037.36 33.90
15569 62.3930 1093.90 1037.33 34.30
15570 62.3967 1115.50 1037.31 34.80
15571 62.4005 1017.00 1037.28 33.20
15572 62.4042 1084.90 1037.25 34.40
15573 62.4080 1095.50 1037.23 34.60
15574 62.4117 1013.70 1037.20 32.60
15575 62.4155 1083.00 1037.17 34.30
15576 62.4192 1006.30 1037.15 33.10
15577 62.4230 1058.90 1037.12 33.80
15578 62.4267 1110.20 1037.09 34.80
15579 62.4305 1066.30 1037.06 33.80
15580 62.4342 1066.30 1037.04 34.50
15581 62.4380 1099.40 1037.01 34.30
15582 62.4418 1034.90 1036.98 33.50
15583 62.4455 1062.50 1036.96 33.60
15584 62.4493 1042.30 1036.93 33.90
15585 62.4530 1059.10 1036.90 33.80
15586 62.4568 1047.10 1036.88 33.70
15587 62.4605 1007.10 1036.85 32.50
15588 62.4643 1057.60 1036.82 33.80
15589 62.4680 1062.00 1036.80 33.80
15590 62.4718 1077.40 1036.77 33.70
15591 62.4755 1068.00 1036.74 34.20
15592 62.4793 1056.30 1036.72 34.20
15593 62.4831 1081.40 1036.69 34.00
15594 62.4868 1054.70 1036.66 33.90
15595 62.4906 1108.60 1036.64 34.60
15596 62.4943 1090.00 1036.61 34.50
15597 62.4981 1076.50 1036.58 34.40
15598 62.5018 1108.50 1036.56 34.60
15599 62.5056 1037.50 1036.53 34.00
15600 62.5093 1022.10 1036.50 33.20
15601 62.5131 1009.50 1036.48 33.30
15602 62.5168 1138.20 1036.45 35.20
15603 62.5206 1010.60 1036.42 33.40
15604 62.5243 1064.40 1036.40 33.80
15605 62.5281 1020.30 1036.37 33.50
15606 62.5318 1028.20 1036.34 33.60
15607 62.5356 1035.00 1036.32 33.40
15608 62.5394 1055.40 1036.29 33.40
15609 62.5431 1007.20 1036.26 32.70
15610 62.5469 1094.30 1036.24 34.60
15611 62.5506 999.70 1036.21 33.30
15612 62.5544 1035.60 1036.19 33.30
15613 62.5581 1019.80 1036.16 32.90
15614 62.5619 1042.50 1036.13 33.70
15615 62.5656 1042.30 1036.11 33.40
15616 62.5694 1050.20 1036.08 33.60
15617 62.5732 1084.50 1036.05 34.30
15618 62.5769 1018.70 1036.03 33.10
15619 62.5807 1042.40 1036.00 33.80
15620 62.5844 1072.90 1035.97 33.70
15621 62.5882 1088.30 1035.95 34.50
15622 62.5919 1026.40 1035.92 33.30
15623 62.5957 1023.10 1035.90 33.50
15624 62.5994 1027.20 1035.87 32.80
15625 62.6032 1052.40 1035.84 33.40
15626 62.6069 1107.10 1035.82 34.60
15627 62.6107 1030.10 1035.79 33.40
15628 62.6144 1128.30 1035.77 35.10
15629 62.6182 1133.50 1035.74 35.20
15630 62.6220 1066.00 1035.71 33.40
15631 62.6257 1046.90 1035.69 33.40
15632 62.6295 1093.80 1035.66 34.10
15633 62.6332 1024.70 1035.64 33.30
15634 62.6370 1058.90 1035.61 33.70
15635 62.6407 1023.60 1035.58 32.60
15636 62.6445 1047.30 1035.56 33.20
15637 62.6482 1036.90 1035.53 33.40
15638 62.6520 1050.30 1035.51 34.10
15639 62.6558 1014.40 1035.48 33.10
15640 62.6595 1044.10 1035.45 33.00
15641 62.6633 1059.10 1035.43 33.70
15642 62.6670 1016.50 1035.40 32.80
15643 62.6708 1062.40 1035.38 33.80
15644 62.6745 1074.90 1035.35 34.40
15645 62.6783 1045.10 1035.33 33.70
15646 62.6820 1012.30 1035.30 33.30
15647 62.6858 1133.70 1035.27 35.40
15648 62.6895 1096.40 1035.25 34.40
15649 62.6933 1055.30 1035.22 33.70
15650 62.6970 1045.70 1035.20 33.60
15651 62.7008 1111.10 1035.17 34.60
15652 62.7046 1039.70 1035.15 33.60
15653 62.7083 995.70 1035.24 32.80
15654 62.7121 1076.10 1035.22 33.90
15655 62.7158 1074.20 1035.20 34.20
15656 62.7196 1071.60 1035.17 34.40
15657 62.7233 1076.40 1035.15 33.80
15658 62.7271 1082.30 1035.13 34.30
15659 62.7308 1053.60 1035.10 33.80
15660 62.7346 1077.20 1035.08 34.50
15661 62.7383 1053.50 1035.06 33.40
15662 62.7421 1073.50 1035.04 33.90
15663 62.7459 1049.70 1035.01 33.30
15664 62.7496 1076.50 1034.99 34.60
15665 62.7534 1031.60 1034.97 33.00
15666 62.7571 1077.40 1034.95 34.20
15667 62.7609 1057.60 1034.92 33.80
15668 62.7646 1111.00 1034.90 34.70
15669 62.7684 1014.00 1034.88 32.90
15670 62.7721 1045.70 1034.86 33.80
15671 62.7759 1031.20 1034.84 33.40
15672 62.7797 1116.50 1034.82 34.70
15673 62.7834 998.20 1034.80 33.00
15674 62.7872 1030.10 1034.77 33.70
15675 62.7909 1029.30 1034.75 33.80
15676 62.7947 1027.50 1034.73 33.60
15677 62.7984 1021.10 1034.71 33.60
15678 62.8022 1064.40 1034.69 34.40
15679 62.8060 1021.40 1034.67 33.30
15680 62.8097 1054.30 1034.65 33.80
15681 62.8135 1044.90 1034.63 33.80
15682 62.8172 1088.60 1034.61 34.70
15683 62.8210 1002.80 1034.59 33.00
15684 62.8247 1050.50 1034.57 33.60
15685 62.8285 1069.60 1034.55 34.20
15686 62.8322 991.10 1034.54 32.90
15687 62.8360 1057.80 1034.52 34.00
15688 62.8397 1044.20 1034.50 33.50
15689 62.8435 1079.00 1034.48 34.30
15690 62.8473 1016.40 1034.47 33.00
15691 62.8510 1047.00 1034.45 34.10
15692 62.8548 1069.70 1034.43 33.60
15693 62.8585 1042.80 1034.42 33.30
15694 62.8623 1096.20 1034.40 34.70
15695 62.8660 997.50 1034.38 32.90
15696 62.8698 1067.90 1034.37 34.30
15697 62.8736 1049.40 1034.35 33.80
15698 62.8773 1038.90 1034.34 33.70
15699 62.8811 1051.60 1034.33 34.10
15700 62.8848 1020.00 1034.31 33.50
15701 62.8886 1027.50 1034.30 33.90
15702 62.8923 1054.40 1034.29 34.10
15703 62.8961 1032.30 1034.28 33.90
15704 62.8998 1036.20 1034.27 33.90
15705 62.9036 1099.30 1034.26 34.80
15706 62.9073 1097.50 1034.25 35.00
15707 62.9111 1048.80 1034.24 33.30
15708 62.9149 1043.20 1034.24 33.70
15709 62.9186 987.20 1034.23 32.70
15710 62.9224 1049.40 1034.23 34.00
15711 62.9261 1046.00 1034.22 34.00
15712 62.9299 1029.40 1034.22 33.80
15713 62.9336 1058.60 1034.22 34.40
15714 62.9374 1055.60 1034.22 34.10
15715 62.9412 1035.80 1034.22 33.90
15716 62.9449 1025.80 1034.23 33.40
15717 62.9487 1080.10 1034.23 35.20
15718 62.9524 1025.90 1034.24 33.60
15719 62.9562 1027.00 1034.25 33.70
15720 62.9599 1025.60 1034.27 33.60
15721 62.9637 1074.70 1034.28 34.30
15722 62.9674 1050.50 1034.30 33.90
15723 62.9712 1052.10 1034.32 34.10
15724 62.9750 1066.00 1034.35 34.60
15725 62.9787 1081.60 1034.38 33.90
15726 62.9825 1093.10 1034.41 35.10
15727 62.9862 1056.90 1034.45 33.90
15728 62.9900 1094.30 1034.50 34.90
15729 62.9937 1025.30 1034.55 33.80
15730 62.9975 1069.40 1034.61 34.20
15731 63.0013 1060.30 1034.68 33.70
15732 63.0050 995.50 1034.75 32.80
15733 63.0088 1040.70 1034.84 33.40
15734 63.0125 1009.30 1034.94 33.40
15735 63.0163 1042.50 1035.05 33.70
15736 63.0200 1069.50 1035.18 34.10
15737 63.0238 1075.20 1035.32 33.90
15738 63.0275 1059.10 1035.49 34.20
15739 63.0313 1019.40 1035.68 33.60
15740 63.0350 1075.00 1035.90 34.70
15741 63.0388 1039.40 1036.16 34.10
15742 63.0426 1110.60 1036.45 34.70
15743 63.0463 1013.80 1036.80 33.30
15744 63.0501 1052.50 1037.20 35.20
15745 63.0538 1044.50 1037.68 34.10
15746 63.0576 1060.80 1038.25 34.40
15747 63.0614 1024.80 1038.94 33.30
15748 63.0651 1042.60 1039.77 34.00
15749 63.0689 1091.10 1040.78 35.20
15750 63.0726 1054.20 1042.04 34.30
15751 63.0764 1079.60 1043.62 33.60
15752 63.0801 1059.40 1045.66 34.40
15753 63.0839 1025.70 1048.34 33.50
15754 63.0876 1112.80 1051.97 35.30
15755 63.0914 1151.90 1056.98 35.90
15756 63.0951 1063.00 1063.98 34.60
15757 63.0989 1046.00 1073.80 33.30
15758 63.1027 1060.80 1087.30 34.30
15759 63.1064 1090.60 1104.98 34.60
15760 63.1102 1117.40 1125.78 35.60
15761 63.1139 1163.70 1144.81 35.70
15762 63.1177 1127.20 1152.92 34.90
15763 63.1214 1134.40 1144.73 35.60
15764 63.1252 1149.70 1125.65 35.90
15765 63.1290 1077.70 1104.81 34.90
15766 63.1327 1151.00 1087.05 35.90
15767 63.1365 1071.80 1073.52 34.20
15768 63.1402 1053.60 1063.69 34.20
15769 63.1440 1043.20 1056.64 33.40
15770 63.1478 1025.90 1051.59 34.00
15771 63.1515 1051.00 1047.92 34.70
15772 63.1553 1060.50 1045.18 34.50
15773 63.1590 1001.20 1043.10 33.00
15774 63.1628 990.80 1041.47 32.60
15775 63.1665 1046.30 1040.16 33.20
15776 63.1703 1091.90 1039.10 34.10
15777 63.1740 1021.30 1038.22 33.10
15778 63.1778 1068.70 1037.49 33.60
15779 63.1816 1035.80 1036.87 33.40
15780 63.1853 1085.80 1036.35 33.90
15781 63.1891 1032.80 1035.89 33.20
15782 63.1928 1088.30 1035.50 33.90
15783 63.1966 1070.10 1035.16 33.60
15784 63.2003 1023.50 1034.85 32.80
15785 63.2041 1057.20 1034.59 33.70
15786 63.2079 1022.10 1034.35 32.50
15787 63.2116 1006.00 1034.13 32.80
15788 63.2154 1037.70 1033.94 33.20
15789 63.2191 1056.30 1033.76 33.50
15790 63.2229 1150.40 1033.60 34.90
15791 63.2266 1005.00 1033.46 32.00
15792 63.2304 1068.20 1033.32 33.80
15793 63.2341 1072.80 1033.20 33.80
15794 63.2379 1086.70 1033.09 34.30
15795 63.2417 1034.80 1032.98 33.20
15796 63.2454 1035.70 1032.88 32.60
15797 63.2492 1088.10 1032.79 34.30
15798 63.2529 1089.50 1032.70 34.10
15799 63.2567 1011.00 1032.62 32.80
15800 63.2604 1060.80 1032.54 33.40
15801 63.2642 1091.30 1032.46 33.90
15802 63.2680 1059.50 1032.39 33.60
15803 63.2717 1009.80 1032.33 32.80
15804 63.2755 1032.50 1032.26 33.20
15805 63.2792 1008.60 1032.20 32.70
15806 63.2830 1066.80 1032.15 33.50
15807 63.2868 998.50 1032.09 32.70
15808 63.2905 995.40 1032.04 32.50
15809 63.2943 1070.00 1031.98 33.90
15810 63.2980 1102.90 1031.93 34.50
15811 63.3018 1017.60 1031.89 32.90
15812 63.3055 1050.60 1031.84 33.30
15813 63.3093 1045.70 1031.79 33.70
15814 63.3130 1084.40 1031.75 34.20
15815 63.3168 1038.00 1031.71 33.40
15816 63.3206 1041.80 1031.66 33.40
15817 63.3243 1026.10 1031.62 33.10
15818 63.3281 1037.80 1031.58 33.50
15819 63.3318 1032.50 1031.54 33.00
15820 63.3356 1022.80 1031.51 33.00
15821 63.3394 1027.80 1031.47 33.00
15822 63.3431 1099.60 1031.43 33.50
15823 63.3469 1072.40 1031.39 33.30
15824 63.3506 1041.80 1031.36 34.30
15825 63.3544 1052.60 1031.32 33.40
15826 63.3581 1003.60 1031.29 32.50
15827 63.3619 1061.10 1031.26 33.50
15828 63.3657 1070.20 1031.22 33.60
15829 63.3694 1002.60 1031.19 32.70
15830 63.3732 1069.70 1031.16 33.80
15831 63.3769 1134.80 1031.13 35.00
15832 63.3807 1029.40 1031.10 33.20
15833 63.3844 1079.40 1031.06 33.70
15834 63.3882 1055.30 1031.03 33.30
15835 63.3919 1051.30 1031.00 33.30
15836 63.3957 984.90 1030.97 32.30
15837 63.3995 1096.20 1030.94 34.30
15838 63.4032 1036.60 1030.91 33.10
15839 63.4070 983.40 1030.88 32.70
15840 63.4107 1005.10 1030.86 32.60
15841 63.4145 1007.50 1030.83 32.90
15842 63.4183 1042.50 1030.80 33.50
15843 63.4220 1000.80 1030.77 32.40
15844 63.4258 1015.90 1030.74 32.20
15845 63.4295 1081.00 1030.71 34.20
15846 63.4333 1024.70 1030.69 32.20
15847 63.4370 981.10 1030.66 32.60
15848 63.4408 1078.10 1030.63 34.10
15849 63.4446 1024.80 1030.61 32.90
15850 63.4483 962.40 1030.58 31.40
15851 63.4521 1036.30 1030.55 33.90
15852 63.4558 1034.40 1030.53 33.20
15853 63.4596 975.40 1030.50 31.90
15854 63.4633 1075.20 1030.47 33.40
15855 63.4671 956.00 1030.45 31.80
15856 63.4709 1039.40 1030.42 33.50
15857 63.4746 1049.60 1030.40 33.80
15858 63.4784 1089.80 1030.37 34.50
15859 63.4821 1033.60 1030.34 33.60
15860 63.4859 1117.50 1030.32 34.90
15861 63.4897 1034.20 1030.29 33.30
15862 63.4934 1074.10 1030.27 34.30
15863 63.4972 1023.50 1030.24 33.20
15864 63.5009 1007.10 1030.22 33.10
15865 63.5047 992.30 1030.19 32.40
15866 63.5084 1005.30 1030.17 32.80
15867 63.5122 1034.10 1030.14 32.90
15868 63.5159 1027.00 1030.12 33.20
15869 63.5197 1027.70 1030.09 33.50
15870 63.5235 1092.00 1030.07 34.20
15871 63.5272 1085.60 1030.04 34.20
15872 63.5310 982.60 1029.90 32.40
15873 63.5347 1112.90 1029.88 34.40
15874 63.5385 1099.30 1029.85 34.10
15875 63.5423 988.60 1029.83 32.80
15876 63.5460 1036.30 1029.81 32.90
15877 63.5498 1099.40 1029.79 35.00
15878 63.5535 1028.50 1029.77 33.40
15879 63.5573 1067.30 1029.74 34.00
15880 63.5611 1062.00 1029.72 33.80
15881 63.5648 1018.00 1029.70 32.60
15882 63.5686 1071.10 1029.68 34.10
15883 63.5723 1021.00 1029.66 33.10
15884 63.5761 1055.30 1029.63 33.20
15885 63.5798 1063.60 1029.61 33.80
15886 63.5836 1056.30 1029.59 33.40
15887 63.5873 1087.60 1029.57 34.30
15888 63.5911 1002.10 1029.55 33.20
15889 63.5949 1005.80 1029.52 33.10
15890 63.5986 1073.80 1029.50 34.10
15891 63.6024 1093.50 1029.48 34.10
15892 63.6061 1018.20 1029.46 33.10
15893 63.6099 1075.60 1029.44 34.10
15894 63.6137 1080.50 1029.42 34.40
15895 63.6174 1037.40 1029.39 33.70
15896 63.6212 1020.80 1029.37 33.30
15897 63.6249 1080.40 1029.35 33.70
15898 63.6287 1074.20 1029.33 34.20
15899 63.6325 1042.30 1029.31 33.50
15900 63.6362 1007.70 1029.28 33.30
15901 63.6400 1049.40 1029.26 34.30
15902 63.6437 1070.70 1029.24 33.60
15903 63.6475 1109.90 1029.22 33.90
15904 63.6512 1020.40 1029.20 33.50
15905 63.6550 1056.20 1029.18 33.30
15906 63.6587 1101.00 1029.15 33.80
15907 63.6625 1014.20 1029.13 32.30
15908 63.6663 1039.60 1029.11 32.80
15909 63.6700 1021.60 1029.09 32.60
15910 63.6738 1074.90 1029.07 33.70
15911 63.6775 1019.80 1029.05 33.20
15912 63.6813 1043.00 1029.02 33.00
15913 63.6851 1105.80 1029.00 34.40
15914 63.6888 1102.20 1028.98 34.20
15915 63.6926 1101.50 1028.96 34.00
15916 63.6963 1051.10 1028.94 33.40
15917 63.7001 1032.40 1028.92 32.10
15918 63.7038 1017.60 1028.89 32.80
15919 63.7076 1008.30 1028.87 32.60
15920 63.7114 1058.10 1028.85 32.80
15921 63.7151 1038.90 1028.83 32.70
15922 63.7189 1069.30 1028.81 33.50
15923 63.7226 1071.70 1028.79 33.60
15924 63.7264 1038.80 1028.77 32.80
15925 63.7302 986.60 1028.74 32.40
15926 63.7339 1026.50 1028.72 33.30
15927 63.7377 1016.30 1028.70 32.80
15928 63.7414 1048.20 1028.68 33.50
15929 63.7452 1039.40 1028.66 32.80
15930 63.7490 1073.90 1028.64 33.80
15931 63.7527 1034.20 1028.62 33.40
15932 63.7565 997.20 1028.59 32.50
15933 63.7602 1069.10 1028.57 33.60
15934 63.7640 1040.00 1028.55 33.00
15935 63.7677 1089.00 1028.53 34.00
15936 63.7715 1126.70 1028.51 33.70
15937 63.7752 1064.20 1028.49 33.80
15938 63.7790 1066.70 1028.47 33.50
15939 63.7828 1080.90 1028.45 33.70
15940 63.7865 1108.10 1028.42 34.20
15941 63.7903 1006.10 1028.40 32.60
15942 63.7940 1088.60 1028.38 33.60
15943 63.7978 1024.30 1028.36 33.10
15944 63.8016 1095.50 1028.34 34.00
15945 63.8053 988.20 1028.32 32.50
15946 63.8091 1041.90 1028.30 33.20
15947 63.8128 1057.30 1028.28 33.00
15948 63.8166 1042.80 1028.26 33.50
15949 63.8204 1069.20 1028.23 33.80
15950 63.8241 1067.50 1028.21 33.70
15951 63.8279 1036.60 1028.19 32.60
15952 63.8316 1001.90 1028.17 32.60
15953 63.8354 1025.30 1028.15 33.20
15954 63.8391 1006.70 1028.13 32.30
15955 63.8429 1097.60 1028.11 33.80
15956 63.8467 1046.80 1028.09 32.70
15957 63.8504 1061.30 1028.07 33.70
15958 63.8542 1046.90 1028.04 33.50
15959 63.8579 1094.00 1028.02 33.50
15960 63.8617 1074.70 1028.00 33.50
15961 63.8655 997.80 1027.98 31.70
15962 63.8692 1047.90 1027.96 33.40
15963 63.8730 1114.80 1027.94 34.60
15964 63.8767 1073.20 1027.92 33.90
15965 63.8805 1008.00 1027.90 32.70
15966 63.8843 1035.50 1027.88 33.10
15967 63.8880 1088.00 1027.86 33.80
15968 63.8918 1062.90 1027.84 33.50
15969 63.8955 1031.20 1027.81 33.30
15970 63.8993 1051.10 1027.79 33.30
15971 63.9030 1062.40 1027.77 33.10
15972 63.9068 1094.70 1027.75 34.20
15973 63.9106 1140.00 1027.73 35.20
15974 63.9143 1009.60 1027.71 32.50
15975 63.9181 1008.70 1027.69 32.70
15976 63.9218 1045.60 1027.67 33.40
15977 63.9256 1077.10 1027.65 33.70
15978 63.9294 1120.50 1027.63 35.00
15979 63.9331 1061.10 1027.61 33.00
15980 63.9369 1102.70 1027.59 34.30
15981 63.9406 1058.90 1027.56 33.50
15982 63.9444 1060.50 1027.54 33.10
15983 63.9481 1022.70 1027.52 33.30
15984 63.9519 1082.40 1027.50 34.40
15985 63.9557 1080.80 1027.48 33.90
15986 63.9594 1039.60 1027.46 33.10
15987 63.9632 1094.70 1027.44 34.00
15988 63.9669 1047.80 1027.42 33.40
15989 63.9707 1033.10 1027.40 33.10
15990 63.9744 1045.30 1027.38 33.40
15991 63.9782 1023.20 1027.36 33.00
15992 63.9820 1055.70 1027.34 33.50
15993 63.9857 1057.20 1027.32 33.10
15994 63.9895 1105.90 1027.30 33.90
15995 63.9933 1045.00 1027.28 33.30
15996 63.9970 1103.00 1027.26 34.30
15997 64.0008 1116.60 1027.23 34.70
15998 64.0045 1060.60 1027.21 33.60
15999 64.0083 1083.00 1027.19 33.80
16000 64.0120 1022.70 1027.17 32.90
16001 64.0158 1115.90 1027.15 34.60
16002 64.0195 1015.00 1027.13 32.40
16003 64.0233 1051.70 1027.11 33.50
16004 64.0271 1086.50 1027.09 33.70
16005 64.0308 1077.90 1027.07 34.10
16006 64.0346 1082.10 1027.05 33.90
16007 64.0384 1067.00 1027.03 33.90
16008 64.0421 1088.60 1027.01 33.90
16009 64.0459 1088.00 1026.99 33.60
16010 64.0496 1070.00 1026.97 34.20
16011 64.0534 1098.40 1026.95 34.40
16012 64.0571 1074.80 1026.93 34.10
16013 64.0609 1071.80 1026.91 33.80
16014 64.0647 1104.10 1026.89 34.30
16015 64.0684 1082.20 1026.87 34.00
16016 64.0722 1037.30 1026.85 33.20
16017 64.0759 1074.20 1026.83 34.10
16018 64.0797 1074.30 1026.81 34.00
16019 64.0835 1108.30 1026.79 34.30
16020 64.0872 1089.90 1026.77 34.00
16021 64.0910 1076.20 1026.75 34.00
16022 64.0947 1031.90 1026.73 32.60
16023 64.0985 1116.40 1026.71 34.60
16024 64.1022 1084.00 1059.87 33.40
16025 64.1060 1111.10 1060.46 34.50
16026 64.1098 1107.60 1061.07 34.60
16027 64.1135 1124.60 1061.69 34.70
16028 64.1173 1098.00 1062.34 34.60
16029 64.1210 1018.40 1063.00 33.20
16030 64.1248 1127.70 1063.68 34.40
16031 64.1286 1098.70 1064.38 33.70
16032 64.1323 1106.70 1065.10 34.00
16033 64.1361 1107.00 1065.84 34.10
16034 64.1398 1049.50 1066.61 33.40
16035 64.1436 1076.60 1067.40 33.40
16036 64.1473 1082.10 1068.22 32.90
16037 64.1511 1162.50 1069.06 35.60
16038 64.1549 1078.10 1069.93 34.00
16039 64.1586 1055.90 1070.83 33.00
16040 64.1624 1118.70 1071.75 34.30
16041 64.1661 1110.20 1072.71 34.10
16042 64.1699 1110.00 1073.70 34.10
16043 64.1737 1070.90 1074.72 33.60
16044 64.1774 1093.70 1075.77 34.10
16045 64.1812 1103.70 1076.87 33.60
16046 64.1849 1076.50 1078.00 33.20
16047 64.1887 1089.30 1079.17 33.70
16048 64.1925 1111.20 1080.38 34.10
16049 64.1962 1080.60 1081.64 33.90
16050 64.2000 1105.80 1082.94 33.80
16051 64.2037 1097.90 1084.29 34.20
16052 64.2075 1132.20 1085.69 34.50
16053 64.2113 1141.20 1087.14 34.60
16054 64.2150 1197.30 1088.65 35.60
16055 64.2188 1044.40 1090.21 33.20
16056 64.2225 1078.30 1091.84 33.50
16057 64.2263 1122.30 1093.53 34.20
16058 64.2300 1085.20 1095.28 33.80
16059 64.2338 1147.70 1097.11 34.80
16060 64.2376 1190.80 1099.01 35.20
16061 64.2413 1156.10 1100.99 34.50
16062 64.2451 1201.60 1103.07 35.60
16063 64.2488 1119.20 1105.22 33.90
16064 64.2526 1186.50 1107.46 36.10
16065 64.2564 1177.90 1109.81 35.60
16066 64.2601 1122.10 1112.26 34.10
16067 64.2639 1122.40 1114.81 34.10
16068 64.2676 1152.80 1117.49 35.10
16069 64.2714 1169.60 1120.30 35.30
16070 64.2751 1223.60 1123.23 35.90
16071 64.2789 1157.20 1126.30 34.80
16072 64.2827 1147.00 1129.54 34.70
16073 64.2864 1083.10 1132.91 34.00
16074 64.2902 1128.40 1136.46 34.80
16075 64.2940 1181.30 1140.20 35.20
16076 64.2977 1193.40 1144.13 35.60
16077 64.3015 1142.50 1148.26 34.90
16078 64.3052 1237.80 1152.61 36.20
16079 64.3090 1192.90 1157.21 35.30
16080 64.3127 1209.00 1162.06 35.60
16081 64.3165 1133.70 1167.17 34.50
16082 64.3203 1237.80 1172.62 36.20
16083 64.3240 1176.50 1178.35 35.40
16084 64.3278 1181.20 1184.43 35.60
16085 64.3315 1283.40 1190.90 36.70
16086 64.3353 1231.00 1197.77 36.10
16087 64.3391 1256.60 1205.05 36.80
16088 64.3428 1255.40 1212.83 36.60
16089 64.3466 1257.80 1221.14 36.10
16090 64.3503 1281.20 1229.97 36.70
16091 64.3541 1230.80 1239.44 36.30
16092 64.3579 1287.30 1249.63 37.00
16093 64.3616 1256.40 1260.47 36.40
16094 64.3654 1325.20 1272.19 37.20
16095 64.3691 1429.30 1284.80 38.90
16096 64.3729 1370.80 1298.37 38.00
16097 64.3766 1337.10 1313.04 37.80
16098 64.3804 1346.30 1328.92 37.60
16099 64.3842 1442.40 1346.19 39.10
16100 64.3879 1410.20 1364.93 38.70
16101 64.3917 1421.50 1385.32 38.70
16102 64.3954 1419.50 1407.77 38.80
16103 64.3992 1442.90 1432.19 39.30
16104 64.4030 1457.40 1459.07 39.30
16105 64.4067 1456.50 1488.75 39.10
16106 64.4105 1562.80 1521.56 40.80
16107 64.4142 1626.50 1557.83 41.80
16108 64.4180 1569.40 1598.35 40.60
16109 64.4218 1642.00 1643.65 41.40
16110 64.4255 1650.50 1694.29 41.70
16111 64.4293 1772.20 1751.48 43.30
16112 64.4330 1807.90 1816.64 44.40
16113 64.4368 1888.00 1890.16 45.40
16114 64.4406 1941.60 1974.80 45.70
16115 64.4443 1937.20 2072.33 45.40
16116 64.4481 2114.60 2185.24 46.50
16117 64.4518 2251.60 2317.15 50.60
16118 64.4556 2407.40 2472.48 50.40
16119 64.4594 2422.80 2657.37 50.80
16120 64.4631 2760.30 2878.80 54.70
16121 64.4669 3016.80 3146.84 57.50
16122 64.4706 3479.90 3478.68 62.30
16123 64.4744 3794.50 3889.83 65.60
16124 64.4781 4578.80 4413.19 71.60
16125 64.4819 5109.70 5094.44 76.20
16126 64.4857 6496.10 6001.26 87.40
16127 64.4894 7755.20 7230.47 95.40
16128 64.4932 9828.20 8936.12 107.70
16129 64.4969 12535.70 11308.00 124.50
16130 64.5007 16581.10 14559.70 146.90
16131 64.5044 21407.40 18891.80 168.00
16132 64.5082 26933.60 24228.40 193.30
16133 64.5120 31272.70 29550.90 210.30
16134 64.5157 33470.50 32774.20 217.50
16135 64.5195 32022.70 31876.50 213.20
16136 64.5232 28309.10 27476.20 198.80
16137 64.5270 21772.70 21953.10 168.50
16138 64.5308 16441.30 16985.50 145.90
16139 64.5345 12023.50 13105.90 120.60
16140 64.5383 8972.10 10240.70 104.70
16141 64.5420 7002.70 8174.59 90.20
16142 64.5458 5573.30 6677.02 79.80
16143 64.5496 4701.90 5594.69 72.40
16144 64.5533 4200.10 4793.45 70.30
16145 64.5571 3689.60 4182.99 64.00
16146 64.5608 3238.20 3708.86 59.70
16147 64.5646 2871.30 3334.14 55.60
16148 64.5684 2631.70 3030.66 53.30
16149 64.5721 2428.30 2782.37 51.90
16150 64.5759 2278.90 2577.45 49.60
16151 64.5796 2129.50 2405.57 47.20
16152 64.5834 2027.10 2259.61 47.00
16153 64.5872 2007.10 2136.18 46.50
16154 64.5909 1835.20 2029.97 44.70
16155 64.5947 1769.50 1937.98 43.50
16156 64.5984 1687.90 1858.07 42.50
16157 64.6022 1664.90 1788.12 42.80
16158 64.6059 1630.90 1726.43 42.30
16159 64.6097 1594.00 1671.96 41.60
16160 64.6135 1566.10 1623.47 41.00
16161 64.6172 1597.50 1580.40 41.60
16162 64.6210 1486.20 1541.46 39.90
16163 64.6247 1393.30 1506.62 38.20
16164 64.6285 1458.40 1475.21 39.40
16165 64.6323 1472.60 1446.66 39.90
16166 64.6360 1424.80 1420.72 39.30
16167 64.6398 1397.80 1397.17 38.90
16168 64.6435 1408.50 1375.57 38.70
16169 64.6473 1373.20 1355.77 37.70
16170 64.6511 1347.80 1337.63 39.00
16171 64.6548 1272.70 1320.96 36.40
16172 64.6586 1361.60 1305.46 38.40
16173 64.6623 1275.90 1291.24 36.70
16174 64.6661 1267.10 1278.05 36.80
16175 64.6699 1289.70 1265.78 37.40
16176 64.6736 1212.60 1254.39 36.30
16177 64.6774 1272.00 1243.78 37.10
16178 64.6811 1263.70 1233.86 37.00
16179 64.6849 1240.90 1224.62 36.60
16180 64.6887 1250.20 1215.95 36.70
16181 64.6924 1236.90 1207.87 36.60
16182 64.6962 1207.30 1200.22 36.00
16183 64.6999 1197.90 1193.07 35.90
16184 64.7037 1222.10 1186.33 36.30
16185 64.7074 1155.90 1180.00 35.30
16186 64.7112 1232.70 1174.02 36.60
16187 64.7150 1191.30 1168.38 35.90
16188 64.7187 1142.70 1163.04 35.00
16189 64.7225 1175.70 1157.98 35.40
16190 64.7262 1231.60 1153.20 36.30
16191 64.7300 1229.50 1148.68 36.70
16192 64.7338 1157.80 1144.36 35.40
16193 64.7375 1106.40 1140.28 34.60
16194 64.7413 1129.40 1136.39 34.90
16195 64.7450 1148.60 1132.69 35.10
16196 64.7488 1168.60 1129.18 35.40
16197 64.7525 1095.30 1125.82 35.20
16198 64.7563 1072.00 1122.62 34.00
16199 64.7601 1181.00 1119.57 35.80
16200 64.7638 1156.10 1116.65 34.30
16201 64.7676 1113.00 1113.87 34.60
16202 64.7713 1114.60 1111.20 34.30
16203 64.7751 1163.90 1108.64 35.70
16204 64.7789 1170.60 1106.19 35.40
16205 64.7826 1095.90 1103.86 34.80
16206 64.7864 1162.80 1101.61 35.60
16207 64.7902 1073.80 1099.44 33.80
16208 64.7939 1213.90 1097.38 36.30
16209 64.7977 1163.60 1095.39 35.50
16210 64.8014 1117.10 1093.48 34.00
16211 64.8052 1099.30 1091.64 34.50
16212 64.8089 1118.10 1089.88 34.40
16213 64.8127 1144.20 1088.18 35.30
16214 64.8165 1164.40 1086.54 35.80
16215 64.8202 1200.40 1084.96 36.20
16216 64.8240 1078.10 1083.44 34.30
16217 64.8277 1075.40 1081.96 34.10
16218 64.8315 1085.70 1080.55 34.10
16219 64.8353 1129.30 1079.18 34.90
16220 64.8390 1060.20 1077.86 33.90
16221 64.8428 1122.40 1076.58 34.40
16222 64.8465 1072.40 1075.35 33.60
16223 64.8503 1103.90 1074.16 34.80
16224 64.8540 1053.10 1073.00 34.30
16225 64.8578 1017.50 1071.89 33.00
16226 64.8616 1107.60 1070.81 34.60
16227 64.8653 1110.60 1069.76 34.70
16228 64.8691 1089.50 1068.75 34.30
16229 64.8728 1066.10 1067.76 33.90
16230 64.8766 1110.90 1066.81 34.70
16231 64.8803 1030.70 1065.89 33.20
16232 64.8841 1017.30 1064.99 33.00
16233 64.8879 1116.30 1064.12 34.10
16234 64.8916 1071.50 1063.27 34.30
16235 64.8954 1005.80 1062.45 32.90
16236 64.8991 1093.10 1061.66 34.50
16237 64.9029 1123.70 1060.88 34.40
16238 64.9067 1052.70 1060.13 33.30
16239 64.9104 1074.10 1059.40 34.00
16240 64.9142 1054.20 1058.69 34.00
16241 64.9180 1051.10 1058.00 33.60
16242 64.9217 1065.90 1057.33 33.70
16243 64.9255 1010.30 1056.67 33.10
16244 64.9292 1074.20 1056.03 33.90
16245 64.9330 1073.60 1055.41 34.40
16246 64.9367 1043.30 1022.43 33.40
16247 64.9405 1083.90 1022.41 34.30
16248 64.9443 1001.30 1022.39 33.20
16249 64.9480 1066.80 1022.38 33.50
16250 64.9518 1099.20 1022.36 35.00
16251 64.9555 1104.00 1022.34 34.40
16252 64.9593 1127.90 1022.32 34.70
16253 64.9631 975.70 1022.30 32.60
16254 64.9668 998.70 1022.28 33.00
16255 64.9706 1059.00 1022.27 33.90
16256 64.9743 1021.50 1022.25 33.30
16257 64.9781 1054.40 1022.23 33.60
16258 64.9818 1097.80 1022.21 34.30
16259 64.9856 1002.40 1022.19 33.10
16260 64.9894 1023.60 1022.17 33.80
16261 64.9931 1005.80 1022.16 33.00
16262 64.9969 1072.80 1022.14 34.30
16263 65.0006 1018.50 1022.12 33.60
16264 65.0044 1023.50 1022.10 33.30
16265 65.0082 1058.40 1022.08 33.90
16266 65.0119 1013.70 1022.06 32.70
16267 65.0157 987.20 1022.05 33.00
16268 65.0194 985.20 1022.03 32.90
16269 65.0232 1053.90 1022.01 33.80
16270 65.0269 1111.00 1021.99 34.50
16271 65.0307 1015.70 1021.97 33.50
16272 65.0345 1019.70 1021.96 33.40
16273 65.0382 1111.50 1021.94 35.10
16274 65.0420 1033.00 1021.92 33.50
16275 65.0458 1095.60 1021.90 34.00
16276 65.0495 1044.20 1021.88 33.20
16277 65.0533 1016.30 1021.86 34.00
16278 65.0570 1033.80 1021.85 33.70
16279 65.0608 1001.70 1021.83 33.20
16280 65.0645 1046.70 1021.81 33.90
16281 65.0683 1087.80 1021.79 33.70
16282 65.0721 992.20 1021.77 32.60
16283 65.0758 1018.80 1021.76 33.00
16284 65.0796 1001.40 1021.74 33.20
16285 65.0833 1050.70 1021.72 34.30
16286 65.0871 976.10 1021.70 32.00
16287 65.0909 1035.10 1021.68 33.10
16288 65.0946 1048.00 1021.67 33.20
16289 65.0984 1055.50 1021.65 32.90
16290 65.1021 1026.30 1021.63 32.70
16291 65.1059 1032.80 1021.61 33.00
16292 65.1096 1019.10 1021.59 32.60
16293 65.1134 989.90 1021.57 32.30
16294 65.1172 1023.50 1021.56 32.60
16295 65.1209 1000.00 1021.54 32.10
16296 65.1247 1022.50 1021.52 32.60
16297 65.1284 1035.90 1021.50 32.90
16298 65.1322 1037.40 1021.48 33.20
16299 65.1360 1044.80 1021.47 32.90
16300 65.1397 1041.50 1021.45 33.10
16301 65.1435 1026.40 1021.43 32.60
16302 65.1472 1052.50 1021.41 32.90
16303 65.1510 1098.80 1021.39 34.40
16304 65.1547 982.30 1021.38 32.30
16305 65.1585 1014.70 1021.36 32.60
16306 65.1623 1041.40 1021.34 33.00
16307 65.1660 1018.70 1021.32 32.50
16308 65.1698 1005.80 1021.30 32.40
16309 65.1736 1066.80 1021.29 33.70
16310 65.1773 1036.70 1021.27 32.80
16311 65.1811 1071.20 1021.25 33.70
16312 65.1848 1024.50 1021.23 32.50
16313 65.1886 1020.40 1021.21 32.60
16314 65.1923 977.40 1021.20 32.10
16315 65.1961 998.90 1021.18 32.50
16316 65.1999 1048.50 1021.16 33.20
16317 65.2036 1013.10 1021.14 32.70
16318 65.2074 1068.20 1021.12 33.40
16319 65.2111 1093.50 1021.11 33.90
16320 65.2149 1039.20 1021.09 33.30
16321 65.2187 958.70 1021.07 31.70
16322 65.2224 1114.30 1021.05 33.80
16323 65.2262 988.30 1021.03 32.20
16324 65.2299 1014.80 1021.02 32.60
16325 65.2337 1014.50 1021.00 32.10
16326 65.2374 1041.10 1020.98 32.70
16327 65.2412 1023.70 1020.96 33.00
16328 65.2450 964.70 1020.94 31.50
16329 65.2487 997.10 1020.93 32.00
16330 65.2525 1071.80 1020.91 34.40
16331 65.2562 1036.90 1020.89 33.50
16332 65.2600 1048.40 1020.87 33.20
16333 65.2637 1011.60 1020.85 32.20
16334 65.2675 1074.10 1020.84 33.50
16335 65.2713 1040.80 1020.82 33.00
16336 65.2750 1031.30 1020.80 32.80
16337 65.2788 1067.00 1020.78 33.50
16338 65.2825 1008.50 1020.76 32.80
16339 65.2863 1036.10 1020.75 33.20
16340 65.2901 1076.80 1020.73 33.80
16341 65.2938 1049.30 1020.71 33.50
16342 65.2976 1042.90 1020.69 33.30
16343 65.3013 1063.20 1020.68 33.60
16344 65.3051 971.00 1020.66 31.90
16345 65.3089 989.60 1020.64 32.30
16346 65.3126 1011.40 1020.62 32.20
16347 65.3164 982.30 1020.60 31.70
16348 65.3201 1012.10 1020.59 32.50
16349 65.3239 1005.30 1020.57 32.50
16350 65.3277 980.60 1020.55 31.90
16351 65.3314 1042.30 1020.53 33.40
16352 65.3352 994.20 1020.51 31.70
16353 65.3389 991.90 1020.50 32.30
16354 65.3427 1044.20 1020.48 33.20
16355 65.3464 984.50 1020.46 32.10
16356 65.3502 966.70 1020.44 31.80
16357 65.3540 1002.90 1020.42 33.10
16358 65.3577 1066.10 1020.41 33.30
16359 65.3615 1026.30 1020.39 32.80
16360 65.3652 995.80 1020.37 32.10
16361 65.3690 1040.80 1020.35 33.30
16362 65.3727 967.10 1020.34 31.90
16363 65.3765 1086.40 1020.32 33.50
16364 65.3803 1058.90 1020.30 33.50
16365 65.3840 949.60 1020.28 31.80
16366 65.3878 1033.20 1020.26 33.00
16367 65.3915 997.80 1020.25 32.70
16368 65.3953 1022.80 1020.23 32.90
16369 65.3991 956.30 1020.21 31.80
16370 65.4028 968.40 1020.19 31.70
16371 65.4066 1048.40 1020.17 33.40
16372 65.4103 988.40 1020.16 32.30
16373 65.4141 1020.10 1020.14 32.50
16374 65.4178 973.60 1020.12 32.10
16375 65.4216 1015.40 1020.10 32.70
16376 65.4254 983.20 1020.09 32.10
16377 65.4291 985.20 1020.07 32.20
16378 65.4329 1012.30 1020.05 32.90
16379 65.4366 975.50 1020.03 32.10
16380 65.4404 993.40 1020.01 32.40
16381 65.4442 1047.30 1020.00 33.30
16382 65.4479 1018.10 1019.98 32.30
16383 65.4517 979.30 1019.96 32.20
16384 65.4554 995.70 1019.94 32.70
16385 65.4592 1014.80 1019.93 32.30
16386 65.4630 1056.00 1019.91 33.20
16387 65.4667 1064.30 1019.89 33.60
16388 65.4705 988.80 1019.87 32.40
16389 65.4742 1005.60 1019.85 32.50
16390 65.4780 931.20 1020.38 31.30
16391 65.4817 1044.60 1020.37 33.60
16392 65.4855 1002.40 1020.37 32.70
16393 65.4893 997.30 1020.36 32.30
16394 65.4930 1012.20 1020.35 32.50
16395 65.4968 997.00 1020.34 32.20
16396 65.5005 987.60 1020.34 31.90
16397 65.5043 1016.60 1020.33 32.90
16398 65.5080 1074.30 1020.33 33.60
16399 65.5118 1023.10 1020.32 33.00
16400 65.5156 979.10 1020.32 32.40
16401 65.5193 1039.90 1020.31 33.20
16402 65.5231 965.80 1020.31 31.90
16403 65.5268 1058.30 1020.30 33.00
16404 65.5306 1025.10 1020.30 33.20
16405 65.5343 989.60 1020.30 32.20
16406 65.5381 1032.90 1020.29 33.30
16407 65.5419 1032.90 1020.29 32.90
16408 65.5456 1023.30 1020.29 32.50
16409 65.5494 1022.80 1020.29 32.50
16410 65.5531 1014.50 1020.29 33.40
16411 65.5569 1057.20 1020.29 33.70
16412 65.5607 965.80 1020.29 31.80
16413 65.5644 992.90 1020.29 32.70
16414 65.5682 1013.80 1020.29 32.60
16415 65.5719 1076.20 1020.29 33.70
16416 65.5757 1021.10 1020.30 32.70
16417 65.5795 1049.60 1020.30 33.40
16418 65.5832 1051.10 1020.31 33.20
16419 65.5870 1037.80 1020.31 33.10
16420 65.5907 1057.00 1020.32 33.00
16421 65.5945 1016.60 1020.33 32.70
16422 65.5982 1035.80 1020.33 33.10
16423 65.6020 1001.30 1020.34 32.60
16424 65.6058 1047.10 1020.35 33.30
16425 65.6095 977.90 1020.36 32.30
16426 65.6133 999.60 1020.38 32.60
16427 65.6170 1037.50 1020.39 33.30
16428 65.6208 1000.20 1020.41 32.10
16429 65.6245 1029.90 1020.42 32.90
16430 65.6283 1090.60 1020.44 34.10
16431 65.6321 1072.90 1020.46 33.90
16432 65.6358 981.70 1020.48 32.00
16433 65.6396 1009.10 1020.50 32.70
16434 65.6433 952.60 1020.53 31.80
16435 65.6471 1043.60 1020.55 33.00
16436 65.6509 1000.50 1020.58 31.90
16437 65.6546 1019.50 1020.61 33.60
16438 65.6584 982.50 1020.64 32.30
16439 65.6621 1079.50 1020.68 33.50
16440 65.6659 992.30 1020.72 32.50
16441 65.6696 1013.10 1020.76 32.60
16442 65.6734 1050.50 1020.80 33.30
16443 65.6771 960.90 1020.85 32.10
16444 65.6809 1025.70 1020.90 33.00
16445 65.6847 1039.20 1020.95 33.50
16446 65.6884 1070.10 1021.01 34.00
16447 65.6922 997.20 1021.07 32.70
16448 65.6959 980.60 1021.13 32.50
16449 65.6997 978.00 1021.20 31.90
16450 65.7035 948.70 1021.28 31.80
16451 65.7072 981.20 1021.36 32.30
16452 65.7110 999.50 1021.44 32.60
16453 65.7147 1028.40 1021.54 33.40
16454 65.7185 1048.60 1021.64 33.20
16455 65.7223 1007.70 1021.74 32.70
16456 65.7260 1051.90 1021.86 33.70
16457 65.7298 1024.10 1021.98 33.00
16458 65.7335 1073.00 1022.12 34.00
16459 65.7373 1040.10 1022.26 33.50
16460 65.7410 1012.70 1022.42 32.30
16461 65.7448 1018.90 1022.59 32.90
16462 65.7486 986.60 1022.77 32.00
16463 65.7523 1031.90 1022.96 33.50
16464 65.7561 1039.60 1023.18 32.70
16465 65.7598 1019.30 1023.41 33.00
16466 65.7636 974.20 1023.66 32.10
16467 65.7673 1071.80 1023.94 33.40
16468 65.7711 977.20 1024.24 32.40
16469 65.7749 1006.80 1024.58 32.70
16470 65.7786 1008.90 1024.94 32.80
16471 65.7824 987.80 1025.34 32.50
16472 65.7861 1091.50 1025.78 34.20
16473 65.7899 1002.80 1026.27 32.80
16474 65.7936 1009.10 1026.81 32.70
16475 65.7974 1020.90 1027.41 33.10
16476 65.8011 984.90 1028.08 32.30
16477 65.8049 1007.00 1028.84 32.70
16478 65.8087 996.30 1029.69 32.40
16479 65.8124 999.00 1030.65 32.70
16480 65.8162 960.50 1031.73 32.10
16481 65.8199 1008.80 1032.98 32.70
16482 65.8237 986.00 1034.40 32.00
16483 65.8275 1034.20 1036.05 33.10
16484 65.8312 971.70 1037.95 31.50
16485 65.8350 1019.00 1040.20 33.20
16486 65.8387 970.40 1042.82 32.20
16487 65.8425 1044.50 1045.95 33.30
16488 65.8462 1023.50 1049.71 32.90
16489 65.8500 1052.10 1054.29 32.90
16490 65.8538 1078.80 1059.88 34.50
16491 65.8575 1072.20 1066.88 34.10
16492 65.8613 1019.10 1075.74 32.90
16493 65.8650 1043.00 1087.27 33.30
16494 65.8688 1068.60 1102.54 33.70
16495 65.8725 1063.50 1123.12 33.70
16496 65.8763 1148.40 1151.47 35.30
16497 65.8801 1194.30 1190.46 35.70
16498 65.8838 1269.60 1244.02 37.40
16499 65.8876 1364.20 1314.83 38.60
16500 65.8913 1384.60 1401.06 38.50
16501 65.8951 1500.00 1487.08 39.60
16502 65.8988 1521.80 1537.93 40.00
16503 65.9026 1478.10 1522.40 40.00
16504 65.9064 1361.00 1450.77 38.10
16505 65.9101 1342.20 1361.53 38.00
16506 65.9139 1193.10 1281.22 35.80
16507 65.9176 1148.80 1218.13 34.90
16508 65.9214 1131.40 1171.46 34.40
16509 65.9251 1135.10 1137.55 34.90
16510 65.9289 1110.00 1112.99 34.20
16511 65.9327 1044.90 1094.92 33.30
16512 65.9364 1047.50 1081.43 33.40
16513 65.9402 1072.80 1071.20 33.90
16514 65.9439 1065.10 1063.18 33.80
16515 65.9477 1009.40 1056.83 32.30
16516 65.9514 1044.10 1051.65 33.60
16517 65.9552 1040.50 1047.44 33.80
16518 65.9590 995.00 1043.95 32.60
16519 65.9627 1009.10 1041.02 32.50
16520 65.9665 1089.80 1038.52 34.90
16521 65.9702 940.20 1036.41 31.60
16522 65.9740 1058.90 1034.59 33.40
16523 65.9777 1027.20 1033.02 32.80
16524 65.9815 983.50 1031.64 32.50
16525 65.9853 1005.60 1030.43 32.70
16526 65.9890 1030.10 1029.37 33.00
16527 65.9928 1086.20 1028.42 34.20
16528 65.9965 993.30 1027.58 32.40
16529 66.0003 998.80 1026.83 32.60
16530 66.0040 1000.80 1026.15 32.50
16531 66.0078 988.00 1025.54 32.40
16532 66.0116 980.20 1024.99 32.20
16533 66.0153 1015.70 1024.49 33.20
16534 66.0191 1001.10 1024.03 32.80
16535 66.0228 963.50 1023.61 31.90
16536 66.0266 1065.10 1023.23 33.90
16537 66.0303 997.80 1022.87 32.50
16538 66.0341 1052.00 1022.55 33.40
16539 66.0378 1031.90 1022.24 33.40
16540 66.0416 1039.30 1021.96 33.30
16541 66.0454 985.00 1021.70 32.70
16542 66.0491 995.80 1021.46 32.30
16543 66.0529 946.80 1021.23 32.70
16544 66.0566 1035.90 1021.02 34.00
16545 66.0604 1048.20 1020.82 33.70
16546 66.0641 1023.20 1020.64 33.40
16547 66.0679 1011.00 1020.46 32.70
16548 66.0717 978.40 1020.30 32.40
16549 66.0754 1011.20 1020.14 33.30
16550 66.0792 982.60 1020.00 33.20
16551 66.0829 1031.10 1019.86 33.70
16552 66.0867 961.70 1019.72 32.60
16553 66.0904 962.50 1019.60 31.80
16554 66.0942 1021.40 1019.48 33.70
16555 66.0980 1035.60 1019.36 33.80
16556 66.1017 936.00 1019.26 32.00
16557 66.1055 1037.90 1019.15 33.10
16558 66.1092 979.40 1019.05 33.00
16559 66.1130 970.40 1018.96 32.10
16560 66.1167 1024.20 1018.87 33.50
16561 66.1205 1041.40 1018.78 34.00
16562 66.1243 1079.90 1018.70 35.00
16563 66.1280 981.40 1018.62 32.90
16564 66.1318 975.20 1018.54 33.20
16565 66.1355 983.40 1018.46 32.70
16566 66.1393 1031.30 1018.39 34.00
16567 66.1430 991.60 1018.32 32.90
16568 66.1468 1027.70 1018.25 33.50
16569 66.1506 963.70 1018.19 32.00
16570 66.1543 1027.40 1018.13 34.70
16571 66.1581 1034.20 1018.07 34.40
16572 66.1618 1011.40 1018.01 33.00
16573 66.1656 1000.60 1017.95 33.20
16574 66.1693 1065.60 1017.89 33.90
16575 66.1731 976.10 1017.84 32.90
16576 66.1768 1045.70 1017.78 33.50
16577 66.1806 988.00 1017.73 33.20
16578 66.1844 992.00 1017.68 32.90
16579 66.1881 978.50 1017.63 33.30
16580 66.1919 1011.30 1017.59 33.50
16581 66.1956 941.80 1017.54 32.10
16582 66.1994 1010.30 1017.49 33.30
16583 66.2031 969.50 1017.45 32.50
16584 66.2069 1033.90 1017.41 33.30
16585 66.2106 1020.90 1017.36 32.60
16586 66.2144 1064.70 1017.32 34.00
16587 66.2182 984.90 1017.28 32.90
16588 66.2219 1016.00 1017.24 32.90
16589 66.2257 979.20 1017.20 33.00
16590 66.2294 1020.70 1017.16 33.20
16591 66.2332 961.90 1017.12 32.70
16592 66.2369 1033.80 1017.09 33.40
16593 66.2407 1008.30 1017.05 33.40
16594 66.2445 994.60 1017.01 32.90
16595 66.2482 1019.00 1016.98 33.40
16596 66.2520 966.60 1016.94 31.90
16597 66.2557 1009.70 1016.91 34.20
16598 66.2595 981.00 1016.87 32.60
16599 66.2632 986.20 1016.84 32.80
16600 66.2670 1040.60 1016.81 33.60
16601 66.2707 963.40 1016.77 32.50
16602 66.2745 1045.40 1016.74 33.70
16603 66.2783 983.80 1016.71 33.00
16604 66.2820 1032.40 1016.68 33.80
16605 66.2858 992.20 1016.65 32.60
16606 66.2895 988.00 1016.62 32.80
16607 66.2933 992.40 1016.59 33.10
16608 66.2970 974.20 1016.56 32.50
16609 66.3008 996.20 1016.53 32.40
16610 66.3045 952.30 1016.50 32.20
16611 66.3083 981.50 1016.47 32.50
16612 66.3121 1015.80 1016.44 33.30
16613 66.3158 968.60 1016.41 32.70
16614 66.3196 1007.10 1016.38 32.20
16615 66.3233 964.00 1015.81 32.60
16616 66.3271 965.20 1015.79 32.30
16617 66.3308 1048.30 1015.78 33.90
16618 66.3346 990.50 1015.76 32.30
16619 66.3383 1013.40 1015.74 33.50
16620 66.3421 971.50 1015.72 32.30
16621 66.3458 1040.10 1015.70 34.20
16622 66.3496 948.80 1015.69 31.90
16623 66.3534 1004.20 1015.67 33.10
16624 66.3571 992.70 1015.65 33.40
16625 66.3609 1010.20 1015.63 33.20
16626 66.3646 1009.60 1015.61 32.70
16627 66.3684 997.70 1015.59 32.80
16628 66.3721 1027.20 1015.58 33.60
16629 66.3759 976.20 1015.56 32.70
16630 66.3796 977.50 1015.54 33.20
16631 66.3834 990.70 1015.52 32.70
16632 66.3872 971.90 1015.50 33.00
16633 66.3909 976.10 1015.48 32.60
16634 66.3947 954.70 1015.47 32.00
16635 66.3984 1052.40 1015.45 34.20
16636 66.4022 968.20 1015.43 32.40
16637 66.4059 1024.50 1015.41 33.60
16638 66.4097 990.20 1015.39 33.30
16639 66.4135 1010.90 1015.37 33.30
16640 66.4172 977.90 1015.36 33.10
16641 66.4210 956.00 1015.34 32.40
16642 66.4247 1010.50 1015.32 33.00
16643 66.4285 1056.40 1015.30 34.20
16644 66.4322 1004.40 1015.28 33.60
16645 66.4360 994.80 1015.26 33.20
16646 66.4397 947.10 1015.25 32.60
16647 66.4435 1021.40 1015.23 33.80
16648 66.4473 945.50 1015.21 32.30
16649 66.4510 1047.90 1015.19 33.50
16650 66.4548 995.80 1015.17 33.90
16651 66.4585 1029.40 1015.15 33.80
16652 66.4623 1060.80 1015.13 34.40
16653 66.4660 985.50 1015.12 32.90
16654 66.4698 1026.00 1015.10 33.20
16655 66.4735 1035.60 1015.08 33.50
16656 66.4773 1053.40 1015.06 34.40
16657 66.4810 1023.00 1015.04 33.30
16658 66.4848 961.70 1015.02 32.60
16659 66.4886 1044.80 1015.01 33.60
16660 66.4923 968.80 1014.99 32.40
16661 66.4961 1020.50 1014.97 33.30
16662 66.4998 1033.90 1014.95 33.90
16663 66.5036 1009.60 1014.93 33.30
16664 66.5073 1018.20 1014.91 33.10
16665 66.5111 1011.30 1014.89 33.30
16666 66.5148 941.00 1014.88 32.20
16667 66.5186 994.70 1014.86 32.90
16668 66.5223 1047.70 1014.84 34.00
16669 66.5261 936.40 1014.82 32.30
16670 66.5299 997.90 1014.80 33.00
16671 66.5336 1019.20 1014.78 33.40
16672 66.5374 912.40 1014.76 31.50
16673 66.5411 989.30 1014.75 33.00
16674 66.5449 1034.50 1014.73 33.50
16675 66.5486 1002.60 1014.71 32.90
16676 66.5524 1038.70 1014.69 33.40
16677 66.5561 979.30 1014.67 32.90
16678 66.5599 1039.40 1014.65 33.80
16679 66.5637 997.40 1014.63 32.50
16680 66.5674 979.00 1014.62 32.30
16681 66.5712 983.30 1014.60 32.50
16682 66.5749 1013.80 1014.58 33.20
16683 66.5787 962.10 1014.56 31.40
16684 66.5824 985.20 1014.54 32.50
16685 66.5862 1005.50 1014.52 33.10
16686 66.5899 954.60 1014.50 32.20
16687 66.5937 1027.30 1014.49 33.30
16688 66.5974 987.20 1014.47 32.70
16689 66.6012 1027.90 1014.45 32.70
16690 66.6050 975.20 1014.43 32.00
16691 66.6087 965.70 1014.41 32.50
16692 66.6125 928.80 1014.39 31.60
16693 66.6162 1019.50 1014.37 33.40
16694 66.6200 958.80 1014.35 32.20
16695 66.6237 995.20 1014.34 32.50
16696 66.6275 996.70 1014.32 33.00
16697 66.6312 1002.80 1014.30 32.70
16698 66.6350 989.70 1014.28 32.00
16699 66.6387 989.60 1014.26 32.70
16700 66.6425 991.90 1014.24 32.50
16701 66.6462 953.20 1014.22 32.20
16702 66.6500 1007.00 1014.20 32.00
16703 66.6538 988.90 1014.19 33.20
16704 66.6575 1038.10 1014.17 34.00
16705 66.6613 1008.20 1014.15 32.90
16706 66.6650 991.00 1014.13 32.30
16707 66.6688 983.40 1014.11 32.40
16708 66.6725 1031.00 1014.09 33.20
16709 66.6763 986.70 1014.07 32.80
16710 66.6800 993.20 1014.05 32.60
16711 66.6838 1024.80 1014.03 33.20
16712 66.6875 1038.10 1014.02 33.30
16713 66.6913 963.30 1014.00 32.40
16714 66.6951 962.20 1013.98 32.40
16715 66.6988 950.50 1013.96 31.90
16716 66.7026 983.20 1013.94 31.80
16717 66.7063 970.50 1013.92 31.80
16718 66.7101 1022.30 1013.90 33.00
16719 66.7138 954.00 1013.88 32.00
16720 66.7176 1033.80 1013.86 33.40
16721 66.7213 996.80 1013.85 32.90
16722 66.7251 1000.10 1013.83 32.80
16723 66.7288 1028.10 1013.81 33.40
16724 66.7326 955.00 1013.79 32.30
16725 66.7364 991.50 1013.77 32.70
16726 66.7401 1044.40 1013.75 33.70
16727 66.7439 1020.90 1013.73 32.90
16728 66.7476 945.30 1013.71 32.00
16729 66.7514 1015.50 1013.69 32.70
16730 66.7551 955.10 1013.67 32.40
16731 66.7589 1005.20 1013.66 33.00
16732 66.7626 978.10 1013.64 32.60
16733 66.7664 1022.30 1013.62 33.20
16734 66.7701 1018.20 1013.60 32.90
16735 66.7739 983.70 1013.58 33.10
16736 66.7776 1014.60 1013.56 33.00
16737 66.7814 1012.80 1013.54 32.30
16738 66.7851 975.80 1013.52 32.90
16739 66.7889 1005.10 1013.50 32.70
16740 66.7927 970.00 1013.48 32.20
16741 66.7964 1026.80 1013.47 33.30
16742 66.8002 999.70 1013.45 32.30
16743 66.8039 973.20 1013.43 32.60
16744 66.8077 978.20 1013.41 32.40
16745 66.8114 997.60 1013.39 32.40
16746 66.8152 1033.60 1013.37 33.30
16747 66.8189 955.40 1013.35 32.50
16748 66.8227 981.10 1013.33 32.60
16749 66.8264 1014.00 1013.31 33.20
16750 66.8302 989.30 1013.29 32.50
16751 66.8339 1069.30 1013.27 34.40
16752 66.8377 985.10 1013.25 32.50
16753 66.8415 985.60 1013.23 32.60
16754 66.8452 1039.50 1013.22 33.70
16755 66.8490 1015.60 1013.20 33.00
16756 66.8527 1000.00 1013.18 32.60
16757 66.8565 1036.60 1013.16 34.10
16758 66.8602 1003.80 1013.14 33.20
16759 66.8640 1054.20 1013.12 33.90
16760 66.8677 1073.40 1013.10 34.00
16761 66.8715 1013.00 1013.08 33.10
16762 66.8752 969.50 1013.06 32.50
16763 66.8790 971.70 1013.04 32.10
16764 66.8827 986.20 1013.02 32.80
16765 66.8865 954.50 1013.00 32.30
16766 66.8902 969.60 1012.98 32.60
16767 66.8940 1059.10 1012.96 34.00
16768 66.8978 1031.70 1012.95 33.80
16769 66.9015 1007.60 1012.93 33.30
16770 66.9053 983.60 1012.91 32.50
16771 66.9090 992.70 1012.89 33.10
16772 66.9128 1001.30 1012.87 33.20
16773 66.9165 1020.00 1012.85 33.40
16774 66.9203 1011.00 1012.83 32.90
16775 66.9240 983.90 1012.81 32.40
16776 66.9278 977.10 1012.79 32.10
16777 66.9315 1009.60 1012.77 33.20
16778 66.9353 1035.10 1012.75 34.20
16779 66.9390 971.60 1012.73 32.60
16780 66.9428 1014.50 1012.71 33.30
16781 66.9465 1001.40 1012.69 33.20
16782 66.9503 971.00 1012.67 32.30
16783 66.9540 1023.90 1012.65 33.50
16784 66.9578 961.40 1012.63 32.20
16785 66.9615 990.40 1012.61 32.90
16786 66.9653 1002.50 1012.59 32.60
16787 66.9690 981.60 1012.58 32.80
16788 66.9728 997.30 1012.56 33.10
16789 66.9765 1016.90 1012.54 33.60
16790 66.9803 989.30 1012.52 33.10
16791 66.9841 974.80 1012.50 32.00
16792 66.9878 975.40 1012.48 32.50
16793 66.9911 994.20 1012.46 32.80
16794 66.9948 974.90 1012.44 32.90
16795 66.9986 968.50 1012.42 32.60
16796 67.0023 974.00 1012.40 32.40
16797 67.0061 958.10 1012.38 32.40
16798 67.0098 998.50 1012.36 33.20
16799 67.0136 1028.20 1012.34 33.50
16800 67.0174 1004.60 1012.32 33.20
16801 67.0211 989.60 1012.30 33.20
16802 67.0249 1030.60 1012.28 33.60
16803 67.0286 964.90 1012.26 32.50
16804 67.0324 1024.10 1012.24 33.40
16805 67.0361 1030.40 1012.22 33.70
16806 67.0399 1018.30 1012.20 33.20
16807 67.0436 981.50 1012.18 32.50
16808 67.0474 984.70 1012.16 32.50
16809 67.0511 975.20 1012.14 32.80
16810 67.0549 1042.50 1012.12 33.90
16811 67.0586 985.50 1012.10 32.30
16812 67.0624 993.00 1012.09 32.50
16813 67.0662 1025.30 1012.07 33.20
16814 67.0699 970.20 1012.05 32.40
16815 67.0737 965.90 1012.03 31.50
16816 67.0774 969.20 1012.01 32.30
16817 67.0812 987.30 1011.99 32.70
16818 67.0849 986.10 1011.97 32.70
16819 67.0887 988.20 1011.95 32.60
16820 67.0924 1028.60 1011.93 33.40
16821 67.0962 1003.70 1011.91 32.30
16822 67.1000 1002.70 1011.89 32.50
16823 67.1037 1001.40 1011.87 33.10
16824 67.1075 965.10 1011.85 32.30
16825 67.1112 1029.70 1011.83 33.50
16826 67.1150 978.00 1011.81 32.50
16827 67.1187 1030.80 1011.79 33.10
16828 67.1225 988.50 1011.77 32.80
16829 67.1262 1065.50 1011.75 33.70
16830 67.1300 1004.20 1011.73 32.30
16831 67.1338 1061.20 1011.71 33.90
16832 67.1375 984.90 1011.69 32.40
16833 67.1413 985.70 1011.67 32.80
16834 67.1450 981.30 1011.65 31.60
16835 67.1488 967.00 1011.63 32.80
16836 67.1525 979.00 1011.61 33.00
16837 67.1563 1023.30 1011.59 33.20
16838 67.1600 1076.50 1011.56 33.70
16839 67.1638 1037.10 1011.54 33.30
16840 67.1675 1028.00 1011.52 33.10
16841 67.1713 977.60 1011.50 32.60
16842 67.1750 1000.20 1011.48 32.70
16843 67.1788 978.60 1011.46 32.40
16844 67.1825 1034.20 1011.44 33.30
16845 67.1863 1049.90 1011.42 33.90
16846 67.1901 997.80 1011.40 33.00
16847 67.1938 1001.60 1011.38 32.80
16848 67.1976 1033.90 1011.36 32.60
16849 67.2013 978.30 1011.34 31.90
16850 67.2051 1006.40 1011.32 32.70
16851 67.2088 994.10 1011.30 32.70
16852 67.2126 1066.00 1011.28 33.90
16853 67.2163 953.20 1011.26 32.20
16854 67.2193 919.20 1011.25 30.90
16855 67.2230 979.70 1011.23 32.00
16856 67.2268 958.80 1011.20 31.40
16857 67.2305 977.70 1011.18 31.90
16858 67.2343 987.00 1011.16 32.20
16859 67.2380 1007.00 1011.14 32.40
16860 67.2418 991.30 1011.12 32.30
16861 67.2455 987.40 1011.10 32.20
16862 67.2493 983.50 1011.08 31.90
16863 67.2530 1032.40 1011.06 33.20
16864 67.2568 944.10 1011.04 31.80
16865 67.2605 997.90 1011.02 32.30
16866 67.2643 954.80 1011.00 31.20
16867 67.2681 981.00 1010.98 31.70
16868 67.2718 960.50 1010.96 31.90
16869 67.2756 1024.10 1010.94 32.70
16870 67.2793 1027.90 1010.92 32.80
16871 67.2831 972.40 1010.90 32.10
16872 67.2868 954.50 1010.88 31.60
16873 67.2906 962.10 1010.86 31.90
16874 67.2943 938.00 1010.84 31.40
16875 67.2981 948.90 1010.82 31.80
16876 67.3018 983.40 1010.80 32.10
16877 67.3056 977.80 1010.77 32.10
16878 67.3093 1024.30 1010.75 33.10
16879 67.3131 962.40 1010.73 31.60
16880 67.3168 991.50 1010.71 32.20
16881 67.3206 955.80 1010.69 31.70
16882 67.3243 958.40 1010.67 31.80
16883 67.3281 958.00 1010.65 31.70
16884 67.3318 964.80 1010.63 31.90
16885 67.3356 1000.90 1010.61 32.30
16886 67.3394 974.10 1010.59 31.90
16887 67.3431 1004.80 1010.57 32.30
16888 67.3469 988.20 1010.55 32.00
16889 67.3506 979.00 1010.53 31.60
16890 67.3544 1007.70 1010.51 33.00
16891 67.3581 1040.80 1010.48 33.20
16892 67.3619 953.60 1010.46 32.00
16893 67.3656 969.90 1010.44 32.00
16894 67.3694 937.00 1010.42 30.80
16895 67.3732 1006.50 1010.40 32.60
16896 67.3769 960.60 1010.38 31.50
16897 67.3807 958.90 1010.36 31.70
16898 67.3844 979.80 1010.34 32.20
16899 67.3882 1036.90 1010.32 33.00
16900 67.3919 971.40 1010.30 32.20
16901 67.3957 988.60 1010.28 32.40
16902 67.3994 1002.50 1010.25 32.60
16903 67.4032 974.60 1010.23 32.20
16904 67.4069 980.60 1010.21 31.90
16905 67.4107 1011.00 1010.19 32.60
16906 67.4144 951.60 1010.17 31.80
16907 67.4182 976.50 1010.15 32.20
16908 67.4220 897.90 1010.13 30.30
16909 67.4257 1049.20 1010.11 33.30
16910 67.4295 946.70 1010.09 31.50
16911 67.4332 1020.60 1010.07 32.80
16912 67.4370 986.10 1010.04 32.10
16913 67.4407 934.60 1010.02 31.70
16914 67.4445 1015.20 1010.00 32.60
16915 67.4482 1000.50 1009.98 32.20
16916 67.4520 952.80 1009.96 31.50
16917 67.4557 998.60 1009.94 33.10
16918 67.4595 970.70 1009.92 32.10
16919 67.4632 935.20 1009.90 31.40
16920 67.4670 949.10 1009.87 31.20
16921 67.4707 974.40 1009.85 32.00
16922 67.4745 944.40 1009.83 31.40
16923 67.4783 969.00 1009.81 31.90
16924 67.4820 988.60 1009.79 32.70
16925 67.4858 1021.90 1009.77 33.00
16926 67.4895 970.60 1009.75 32.00
16927 67.4933 960.10 1009.73 31.90
16928 67.4970 983.20 1009.70 32.10
16929 67.5008 1043.00 1009.68 33.20
16930 67.5045 1001.90 1009.66 32.80
16931 67.5083 999.40 1009.64 32.50
16932 67.5120 969.80 1009.62 32.20
16933 67.5158 1027.80 1009.60 32.80
16934 67.5195 970.00 1009.58 32.00
16935 67.5233 958.20 1009.55 32.00
16936 67.5271 973.50 1009.53 32.20
16937 67.5308 963.00 1009.51 31.60
16938 67.5346 952.80 1009.49 31.50
16939 67.5383 980.60 1009.47 32.30
16940 67.5421 1011.90 1009.45 33.00
16941 67.5458 942.10 1009.43 31.30
16942 67.5496 960.80 1009.40 31.50
16943 67.5533 1003.10 1009.38 33.30
16944 67.5571 993.40 1009.36 32.50
16945 67.5609 1006.70 1009.34 32.60
16946 67.5646 954.70 1009.32 31.10
16947 67.5684 968.30 1009.30 31.90
16948 67.5721 989.80 1009.28 32.60
16949 67.5759 981.50 1009.25 32.40
16950 67.5796 947.90 1009.23 31.50
16951 67.5834 972.80 1009.21 32.20
16952 67.5871 920.70 1009.19 31.20
16953 67.5909 1012.60 1009.17 32.90
16954 67.5947 1027.80 1009.14 32.90
16955 67.5984 959.00 1009.12 31.90
16956 67.6022 972.90 1009.10 32.30
16957 67.6059 1049.80 1009.08 33.50
16958 67.6097 988.00 1009.06 32.50
16959 67.6134 1067.30 1009.04 33.50
16960 67.6172 973.70 1009.01 32.30
16961 67.6209 970.70 1008.99 31.80
16962 67.6247 966.00 1008.97 32.00
16963 67.6284 1011.50 1008.95 32.70
16964 67.6322 974.60 1008.93 32.30
16965 67.6359 1012.30 1008.91 32.60
16966 67.6397 968.20 1008.88 32.10
16967 67.6435 1005.30 1008.86 32.40
16968 67.6472 994.10 1008.84 32.50
16969 67.6510 1021.60 1008.82 32.30
16970 67.6547 1070.10 1008.80 34.50
16971 67.6585 968.80 1008.77 32.20
16972 67.6622 1015.00 1008.75 32.60
16973 67.6660 991.70 1008.73 32.10
16974 67.6697 964.40 1008.71 31.90
16975 67.6735 991.80 1008.69 32.50
16976 67.6773 993.60 1008.66 32.70
16977 67.6810 1001.90 1008.64 32.30
16978 67.6848 996.90 1008.62 32.90
16979 67.6885 982.50 1008.60 31.90
16980 67.6923 989.80 1008.58 32.30
16981 67.6960 985.80 1008.55 32.60
16982 67.6998 1012.10 1008.53 32.70
16983 67.7035 984.60 1008.51 32.40
16984 67.7073 958.00 1008.49 31.90
16985 67.7111 980.00 1008.46 32.20
16986 67.7148 1010.60 1008.44 32.70
16987 67.7186 938.50 1008.42 31.60
16988 67.7223 1010.10 1008.40 32.80
16989 67.7261 971.20 1008.38 31.90
16990 67.7298 1017.50 1008.35 32.90
16991 67.7336 1041.90 1008.33 33.60
16992 67.7373 938.80 1008.31 31.60
16993 67.7411 1028.70 1008.29 33.30
16994 67.7449 1013.40 1008.26 32.70
16995 67.7486 998.80 1008.24 32.50
16996 67.7524 1000.00 1008.22 32.10
16997 67.7561 997.40 1008.20 33.30
16998 67.7599 968.40 1008.17 32.10
16999 67.7636 1017.90 1008.15 32.80
17000 67.7674 996.10 1008.13 32.80
17001 67.7711 981.50 1008.11 32.20
17002 67.7749 1000.70 1008.08 32.90
17003 67.7787 1032.30 1008.06 33.40
17004 67.7824 971.40 1008.04 32.20
17005 67.7862 1018.60 1008.02 32.90
17006 67.7899 957.70 1007.99 31.80
17007 67.7937 1008.40 1007.97 33.10
17008 67.7974 957.90 1007.95 31.80
17009 67.8012 967.90 1007.93 32.20
17010 67.8049 880.20 1007.90 30.70
17011 67.8087 1005.50 1007.88 32.50
17012 67.8124 994.70 1007.86 32.60
17013 67.8162 1022.60 1007.84 33.30
17014 67.8200 1033.00 1007.81 33.30
17015 67.8237 974.10 1007.79 32.20
17016 67.8275 954.30 1007.77 31.80
17017 67.8312 979.00 1007.75 32.20
17018 67.8350 1005.50 1007.72 32.80
17019 67.8387 979.50 1007.70 32.40
17020 67.8425 984.50 1007.68 32.70
17021 67.8463 970.50 1007.65 32.30
17022 67.8500 967.70 1007.63 31.60
17023 67.8538 959.50 1007.61 32.30
17024 67.8575 968.40 1007.59 32.70
17025 67.8613 988.60 1007.56 33.10
17026 67.8650 945.90 1007.54 31.50
17027 67.8688 954.80 1007.52 31.90
17028 67.8726 993.30 1007.49 32.70
17029 67.8763 987.70 1007.47 32.40
17030 67.8801 930.20 1007.45 31.60
17031 67.8838 994.00 1007.43 32.60
17032 67.8876 972.90 1007.40 32.50
17033 67.8913 1020.70 1007.38 33.60
17034 67.8951 947.50 1007.36 32.00
17035 67.8988 1000.50 1007.33 32.80
17036 67.9026 952.80 1007.31 32.40
17037 67.9064 983.10 1007.29 32.50
17038 67.9101 976.60 1007.26 32.50
17039 67.9139 1006.90 1007.24 33.20
17040 67.9176 994.00 1007.22 32.60
17041 67.9214 977.90 1007.20 32.80
17042 67.9251 1070.30 1007.17 34.00
17043 67.9289 1004.20 1007.15 32.80
17044 67.9326 1009.90 1007.13 33.40
17045 67.9364 1028.60 1007.10 33.30
17046 67.9402 929.30 1007.08 31.40
17047 67.9439 986.30 1007.06 32.90
17048 67.9477 939.70 1007.03 31.70
17049 67.9514 971.40 1007.01 31.50
17050 67.9552 995.40 1006.99 33.60
17051 67.9589 1003.90 1006.96 33.40
17052 67.9627 959.80 1006.94 32.00
17053 67.9665 981.40 1006.92 32.10
17054 67.9702 996.80 1006.89 32.70
17055 67.9740 1006.20 1006.87 33.00
17056 67.9777 1010.70 1006.85 33.00
17057 67.9815 1000.10 1006.82 32.90
17058 67.9852 1013.40 1006.80 33.30
17059 67.9890 1027.90 1006.78 33.20
17060 67.9928 979.10 1006.75 32.70
17061 67.9965 1008.80 1006.73 32.90
17062 68.0003 1007.00 1006.71 33.30
17063 68.0040 1027.00 1006.68 33.50
17064 68.0078 977.30 1006.66 32.90
17065 68.0115 953.70 1006.64 32.30
17066 68.0153 1034.40 1006.61 33.50
17067 68.0190 931.00 1006.59 31.80
17068 68.0228 1014.70 1006.57 33.40
17069 68.0266 983.40 1006.54 32.70
17070 68.0303 927.00 1006.52 31.70
17071 68.0341 992.30 1006.49 32.70
17072 68.0378 938.50 1006.47 32.00
17073 68.0416 1015.60 1006.45 33.00
17074 68.0453 952.40 1006.42 32.30
17075 68.0491 925.70 1006.40 31.10
17076 68.0529 964.20 1006.38 32.00
17077 68.0566 973.70 1006.35 33.00
17078 68.0604 1022.30 1006.33 33.40
17079 68.0641 960.70 1006.30 32.20
17080 68.0679 983.40 1006.28 32.50
17081 68.0716 1031.00 1006.26 33.60
17082 68.0754 946.90 1006.23 31.90
17083 68.0791 1006.30 1006.21 33.20
17084 68.0829 977.80 1006.19 32.90
17085 68.0867 959.30 1006.16 32.50
17086 68.0904 1006.20 1006.14 32.90
17087 68.0942 974.20 1006.11 32.30
17088 68.0979 979.70 1006.09 32.50
17089 68.1017 1028.50 1006.07 33.50
17090 68.1055 1001.30 1006.04 33.20
17091 68.1092 942.40 1006.02 32.20
17092 68.1130 975.80 1005.99 32.70
17093 68.1167 945.70 1005.97 32.20
17094 68.1205 976.10 1005.95 32.60
17095 68.1242 996.20 1005.92 32.70
17096 68.1280 932.80 1005.90 31.70
17097 68.1317 989.40 1005.87 32.90
17098 68.1355 1006.60 1005.85 33.10
17099 68.1393 1005.30 1005.83 32.80
17100 68.1430 971.00 1005.80 32.60
17101 68.1468 1011.90 1005.78 33.30
17102 68.1505 953.40 1005.75 32.00
17103 68.1543 1014.10 1005.73 33.30
17104 68.1580 959.30 1005.70 32.80
17105 68.1618 1028.30 1005.68 33.40
17106 68.1656 954.20 1005.66 31.70
17107 68.1693 1032.40 1005.63 33.00
17108 68.1731 992.70 1005.61 33.10
17109 68.1768 1066.60 1005.58 34.00
17110 68.1806 982.50 1005.56 32.80
17111 68.1843 990.20 1005.53 32.40
17112 68.1881 995.80 1005.51 32.50
17113 68.1919 963.80 1005.73 32.20
17114 68.1956 962.80 1005.71 31.80
17115 68.1994 985.40 1005.69 32.30
17116 68.2031 973.60 1005.67 32.50
17117 68.2069 953.10 1005.65 31.90
17118 68.2106 1019.40 1005.63 33.10
17119 68.2144 979.60 1005.61 32.50
17120 68.2182 925.10 1005.59 31.60
17121 68.2219 1027.70 1005.57 33.30
17122 68.2257 959.40 1005.55 31.80
17123 68.2294 1014.60 1005.53 32.90
17124 68.2332 1004.30 1005.51 33.10
17125 68.2370 1014.10 1005.50 33.20
17126 68.2407 966.20 1005.48 32.30
17127 68.2445 998.30 1005.46 33.00
17128 68.2482 1003.20 1005.44 32.70
17129 68.2520 940.80 1005.42 31.40
17130 68.2557 1002.30 1005.40 33.30
17131 68.2595 977.90 1005.39 32.40
17132 68.2632 976.50 1005.37 32.20
17133 68.2670 991.30 1005.35 32.50
17134 68.2708 979.30 1005.33 32.40
17135 68.2745 995.50 1005.32 33.20
17136 68.2783 921.20 1005.30 31.20
17137 68.2820 1027.30 1005.29 33.60
17138 68.2858 965.00 1005.27 32.20
17139 68.2896 1066.40 1005.25 34.00
17140 68.2933 991.90 1005.24 32.90
17141 68.2971 950.40 1005.22 31.80
17142 68.3008 984.70 1005.21 32.10
17143 68.3046 1010.20 1005.19 33.10
17144 68.3083 1015.20 1005.18 33.30
17145 68.3121 1008.80 1005.16 33.00
17146 68.3158 1005.90 1005.15 33.00
17147 68.3196 1001.30 1005.14 32.70
17148 68.3234 952.00 1005.13 32.30
17149 68.3271 938.90 1005.11 31.50
17150 68.3309 938.20 1005.10 31.80
17151 68.3346 964.50 1005.09 32.30
17152 68.3384 910.20 1005.08 31.10
17153 68.3421 1004.70 1005.07 33.00
17154 68.3459 980.00 1005.06 32.20
17155 68.3497 955.90 1005.05 31.90
17156 68.3534 996.90 1005.04 31.60
17157 68.3572 995.10 1005.04 33.30
17158 68.3609 965.70 1005.03 32.60
17159 68.3647 990.50 1005.02 32.50
17160 68.3684 997.40 1005.02 32.50
17161 68.3722 1010.60 1005.01 32.70
17162 68.3760 1032.70 1005.01 32.90
17163 68.3797 993.00 1005.01 32.40
17164 68.3835 1060.90 1005.01 34.10
17165 68.3872 944.30 1005.01 31.70
17166 68.3910 980.20 1005.01 32.30
17167 68.3948 982.60 1005.01 31.80
17168 68.3985 989.80 1005.01 32.70
17169 68.4023 975.10 1005.02 32.60
17170 68.4060 965.90 1005.03 32.10
17171 68.4098 967.30 1005.04 32.40
17172 68.4136 995.00 1005.05 32.90
17173 68.4173 978.30 1005.06 32.30
17174 68.4211 969.10 1005.07 32.60
17175 68.4248 967.50 1005.09 32.40
17176 68.4286 985.70 1005.11 32.50
17177 68.4323 1010.80 1005.13 32.80
17178 68.4361 952.00 1005.16 32.10
17179 68.4399 958.50 1005.18 32.40
17180 68.4436 978.10 1005.21 32.50
17181 68.4474 960.90 1005.25 32.30
17182 68.4511 948.90 1005.29 31.60
17183 68.4549 1036.40 1005.33 33.30
17184 68.4586 917.90 1005.38 31.80
17185 68.4624 1009.80 1005.43 33.10
17186 68.4662 1021.70 1005.49 33.00
17187 68.4699 1000.80 1005.56 32.60
17188 68.4737 999.00 1005.63 32.50
17189 68.4774 981.00 1005.71 32.50
17190 68.4812 981.80 1005.79 33.10
17191 68.4849 1083.00 1005.89 34.40
17192 68.4887 949.10 1006.00 32.10
17193 68.4925 976.40 1006.12 32.60
17194 68.4962 968.00 1006.25 32.40
17195 68.5000 1039.60 1006.39 33.80
17196 68.5037 949.70 1006.55 32.20
17197 68.5075 992.30 1006.74 33.00
17198 68.5113 974.50 1006.94 32.40
17199 68.5150 992.80 1007.16 32.60
17200 68.5188 925.70 1007.41 32.00
17201 68.5225 945.90 1007.69 32.20
17202 68.5263 995.60 1008.01 32.80
17203 68.5300 936.90 1008.37 31.60
17204 68.5338 974.60 1008.78 32.70
17205 68.5376 1019.60 1009.24 33.40
17206 68.5413 991.70 1009.77 33.00
17207 68.5451 1015.50 1010.38 33.30
17208 68.5488 970.30 1011.08 32.80
17209 68.5526 974.50 1011.90 31.90
17210 68.5564 940.10 1012.85 32.70
17211 68.5601 1005.80 1013.98 33.30
17212 68.5639 953.90 1015.31 32.10
17213 68.5676 1026.30 1016.92 33.60
17214 68.5714 986.40 1018.85 32.80
17215 68.5751 993.40 1021.21 32.90
17216 68.5789 994.20 1024.14 32.90
17217 68.5827 1043.20 1027.83 33.60
17218 68.5864 1045.10 1032.52 33.80
17219 68.5902 1027.90 1038.65 33.40
17220 68.5939 1046.10 1046.77 33.90
17221 68.5977 1033.30 1057.70 33.40
17222 68.6014 1043.00 1072.57 33.90
17223 68.6052 1122.10 1092.88 35.00
17224 68.6090 1087.80 1120.01 34.30
17225 68.6127 1173.80 1154.35 36.10
17226 68.6165 1132.90 1192.09 35.40
17227 68.6202 1105.10 1221.86 34.60
17228 68.6240 1143.00 1227.76 35.30
17229 68.6278 1084.30 1205.98 34.30
17230 68.6315 1128.80 1169.60 34.90
17231 68.6353 1071.40 1132.79 34.10
17232 68.6390 1011.50 1102.72 33.70
17233 68.6428 1057.90 1079.74 33.60
17234 68.6466 1046.90 1062.79 33.50
17235 68.6503 1054.70 1050.38 33.60
17236 68.6541 981.60 1041.20 31.90
17237 68.6578 949.90 1034.29 32.50
17238 68.6616 1000.10 1029.03 32.30
17239 68.6653 963.30 1024.92 32.00
17240 68.6691 997.40 1021.66 32.40
17241 68.6729 1020.00 1019.03 32.80
17242 68.6766 1005.50 1016.88 32.40
17243 68.6804 988.50 1015.11 32.80
17244 68.6841 972.70 1013.62 32.50
17245 68.6879 1059.20 1012.36 33.90
17246 68.6917 963.90 1011.29 32.60
17247 68.6954 1028.50 1010.37 33.50
17248 68.6992 946.40 1009.57 31.80
17249 68.7029 941.30 1008.87 31.80
17250 68.7067 1040.20 1008.26 33.60
17251 68.7104 993.80 1007.72 32.40
17252 68.7142 990.20 1007.23 32.90
17253 68.7180 964.90 1006.80 32.10
17254 68.7217 993.80 1006.42 32.80
17255 68.7255 951.30 1006.07 32.20
17256 68.7292 1033.70 1005.75 33.30
17257 68.7330 948.30 1005.46 31.80
17258 68.7367 983.60 1005.20 32.20
17259 68.7405 991.70 1004.96 32.90
17260 68.7443 982.40 1004.73 32.70
17261 68.7480 1019.90 1004.53 33.10
17262 68.7518 1013.00 1004.34 32.40
17263 68.7555 967.00 1004.16 32.20
17264 68.7593 1012.00 1004.00 33.50
17265 68.7631 976.40 1003.84 32.40
17266 68.7668 1006.20 1003.70 32.50
17267 68.7706 962.50 1003.56 31.90
17268 68.7743 968.80 1003.44 32.20
17269 68.7781 981.40 1003.31 32.70
17270 68.7819 944.70 1003.20 31.80
17271 68.7856 1031.50 1003.09 32.60
17272 68.7894 990.20 1002.99 32.70
17273 68.7931 984.30 1002.89 32.30
17274 68.7969 980.60 1002.80 32.50
17275 68.8007 1019.90 1002.71 33.10
17276 68.8044 919.10 1002.62 31.60
17277 68.8082 954.50 1002.54 31.20
17278 68.8119 957.50 1002.46 32.20
17279 68.8157 987.80 1002.38 32.70
17280 68.8194 986.60 1002.31 32.40
17281 68.8232 1025.50 1002.24 33.30
17282 68.8270 968.00 1002.17 32.60
17283 68.8307 981.40 1002.10 32.40
17284 68.8345 973.00 1002.04 31.70
17285 68.8382 987.40 1001.98 32.30
17286 68.8420 972.20 1001.91 32.50
17287 68.8458 973.60 1001.85 32.30
17288 68.8495 944.60 1001.80 31.40
17289 68.8533 962.00 1001.74 31.60
17290 68.8570 1014.90 1001.69 33.70
17291 68.8608 982.00 1001.63 32.50
17292 68.8645 942.30 1001.58 31.20
17293 68.8683 1022.80 1001.53 33.20
17294 68.8721 974.70 1001.48 32.10
17295 68.8758 987.60 1001.43 32.30
17296 68.8796 998.40 1001.38 32.80
17297 68.8833 990.60 1001.33 32.60
17298 68.8871 940.40 1001.28 32.10
17299 68.8909 994.40 1001.24 32.70
17300 68.8946 954.30 1001.19 32.20
17301 68.8984 968.30 1001.15 32.00
17302 68.9021 1002.40 1001.10 33.00
17303 68.9059 965.70 1001.06 32.10
17304 68.9097 961.90 1001.02 32.30
17305 68.9134 978.50 1000.97 32.20
17306 68.9172 962.60 1000.93 32.70
17307 68.9209 1030.30 1000.89 33.80
17308 68.9247 972.00 1000.85 32.50
17309 68.9285 1003.60 1000.81 32.90
17310 68.9322 973.40 1000.77 32.50
17311 68.9360 1032.90 1000.73 33.40
17312 68.9397 1032.40 1000.69 33.60
17313 68.9435 1025.40 1000.65 33.20
17314 68.9472 952.30 1000.61 32.30
17315 68.9510 962.00 1000.58 31.70
17316 68.9548 980.70 1000.54 32.10
17317 68.9585 947.40 1000.50 32.60
17318 68.9623 1025.60 1000.46 32.60
17319 68.9660 964.60 1000.42 32.40
17320 68.9698 1053.40 1000.39 33.70
17321 68.9736 974.60 1000.35 32.10
17322 68.9773 1002.30 1000.32 32.20
17323 68.9811 996.10 1000.28 33.00
17324 68.9848 971.80 1000.24 32.50
17325 68.9886 952.50 1000.21 32.40
17326 68.9923 989.30 1000.17 32.70
17327 68.9961 981.40 1000.14 32.50
17328 68.9999 1015.90 1000.10 33.10
17329 69.0036 999.20 1000.07 33.30
17330 69.0074 980.60 1000.03 32.50
17331 69.0111 970.10 1000.00 32.50
17332 69.0149 995.50 999.96 33.20
17333 69.0187 1052.60 999.93 33.60
17334 69.0224 942.40 999.89 32.20
17335 69.0262 1019.00 999.86 33.40
17336 69.0299 1020.90 999.83 33.50
17337 69.0337 942.80 999.79 31.80
17338 69.0375 1042.80 999.76 33.90
17339 69.0412 1064.50 999.72 34.30
17340 69.0450 1004.30 999.69 33.00
17341 69.0487 994.00 999.66 32.80
17342 69.0525 945.20 999.62 31.50
17343 69.0563 972.90 999.35 32.90
17344 69.0600 945.40 999.32 32.10
17345 69.0638 1002.40 999.29 33.10
17346 69.0675 916.00 999.26 31.30
17347 69.0713 987.10 999.23 32.60
17348 69.0751 1011.40 999.20 33.10
17349 69.0788 963.10 999.17 32.30
17350 69.0826 970.10 999.14 32.40
17351 69.0863 978.90 999.11 32.30
17352 69.0901 982.20 999.09 32.60
17353 69.0938 958.80 999.05 32.50
17354 69.0976 973.50 999.03 32.40
17355 69.1014 1009.40 999.00 33.00
17356 69.1051 920.90 998.97 31.70
17357 69.1089 970.20 998.94 32.20
17358 69.1126 1002.90 998.91 32.80
17359 69.1164 1012.40 998.88 33.30
17360 69.1201 978.00 998.85 32.80
17361 69.1239 1048.00 998.82 33.20
17362 69.1277 974.60 998.79 32.10
17363 69.1314 982.90 998.76 32.00
17364 69.1352 971.70 998.73 32.10
17365 69.1389 997.50 998.70 32.30
17366 69.1427 976.30 998.67 31.90
17367 69.1465 1065.60 998.64 33.50
17368 69.1502 1005.80 998.61 32.40
17369 69.1540 1018.10 998.58 32.60
17370 69.1578 984.30 998.55 32.40
17371 69.1615 943.80 998.53 31.90
17372 69.1653 989.40 998.49 32.00
17373 69.1690 1041.60 998.47 32.80
17374 69.1728 984.30 998.44 32.30
17375 69.1765 1009.90 998.41 32.70
17376 69.1803 950.30 998.38 31.90
17377 69.1841 998.50 998.35 32.70
17378 69.1878 1003.80 998.32 32.60
17379 69.1916 962.70 998.29 31.80
17380 69.1953 1008.90 998.26 33.00
17381 69.1991 969.50 998.23 32.30
17382 69.2029 1052.00 998.20 33.40
17383 69.2066 966.20 998.17 32.00
17384 69.2104 1001.90 998.14 33.10
17385 69.2141 976.70 998.11 32.20
17386 69.2179 999.30 998.08 32.70
17387 69.2217 1061.70 998.05 33.90
17388 69.2254 1002.00 998.02 33.00
17389 69.2292 1049.40 997.99 33.20
17390 69.2329 1005.30 997.96 32.60
17391 69.2367 985.30 997.93 32.60
17392 69.2404 1027.70 997.90 32.90
17393 69.2442 976.10 997.87 32.10
17394 69.2480 914.10 997.84 31.10
17395 69.2517 995.90 997.81 32.30
17396 69.2555 989.50 997.78 31.90
17397 69.2592 978.20 997.75 32.80
17398 69.2630 1026.30 997.72 32.80
17399 69.2668 961.90 997.68 31.50
17400 69.2705 974.10 997.66 32.10
17401 69.2743 1042.50 997.62 33.50
17402 69.2780 991.00 997.59 32.60
17403 69.2818 950.10 997.56 32.00
17404 69.2856 943.50 997.53 31.90
17405 69.2893 1009.20 997.50 32.60
17406 69.2931 924.40 997.47 31.50
17407 69.2968 979.30 997.44 31.60
17408 69.3006 1012.00 997.41 32.70
17409 69.3044 1022.70 997.38 33.00
17410 69.3081 932.50 997.35 31.30
17411 69.3119 1029.10 997.32 33.30
17412 69.3156 956.40 997.29 32.00
17413 69.3194 1036.20 997.26 33.30
17414 69.3232 997.50 997.23 33.10
17415 69.3269 961.70 997.20 31.90
17416 69.3307 960.40 997.17 31.80
17417 69.3344 1022.20 997.14 33.20
17418 69.3382 1032.20 997.11 33.10
17419 69.3420 987.10 997.08 32.60
17420 69.3457 1022.50 997.04 33.30
17421 69.3495 970.10 997.01 32.00
17422 69.3532 942.30 996.98 31.30
17423 69.3570 1015.20 996.95 33.50
17424 69.3607 1002.90 996.92 33.00
17425 69.3645 1017.60 996.89 33.30
17426 69.3683 988.20 996.86 32.50
17427 69.3720 1023.80 996.83 33.10
17428 69.3758 962.10 996.80 32.20
17429 69.3795 987.70 996.77 32.20
17430 69.3833 1029.90 996.74 33.10
17431 69.3871 1005.50 996.71 32.90
17432 69.3908 939.80 996.67 31.50
17433 69.3946 1003.80 996.64 32.90
17434 69.3984 1015.70 996.61 33.10
17435 69.4021 991.50 996.58 32.80
17436 69.4059 942.80 996.55 32.00
17437 69.4096 968.10 996.52 32.20
17438 69.4134 979.80 996.49 32.50
17439 69.4171 955.50 996.46 31.90
17440 69.4209 1044.50 996.43 33.80
17441 69.4247 1005.90 996.39 32.90
17442 69.4284 968.70 996.36 32.40
17443 69.4322 961.90 996.33 31.60
17444 69.4359 1031.90 996.30 33.40
17445 69.4397 1024.10 996.27 32.90
17446 69.4435 964.80 996.24 32.00
17447 69.4472 1018.00 996.21 32.50
17448 69.4510 970.80 996.18 32.30
17449 69.4547 939.10 996.14 31.30
17450 69.4585 1034.70 996.11 34.30
17451 69.4622 981.10 996.08 32.70
17452 69.4660 1033.90 996.05 33.00
17453 69.4698 953.30 996.02 31.30
17454 69.4735 964.60 995.99 32.30
17455 69.4773 1025.10 995.96 33.20
17456 69.4810 1029.50 995.92 33.60
17457 69.4848 1006.30 995.89 33.00
17458 69.4886 956.80 995.86 32.10
17459 69.4923 943.00 995.83 31.60
17460 69.4961 1013.50 995.80 33.00
17461 69.4998 1018.40 995.77 33.10
17462 69.5036 937.80 995.73 31.60
17463 69.5074 1047.40 995.70 34.00
17464 69.5111 962.00 995.67 32.00
17465 69.5149 993.90 995.64 33.10
17466 69.5186 989.70 995.61 32.50
17467 69.5224 1011.10 995.58 33.20
17468 69.5262 1003.50 995.54 32.90
17469 69.5299 1010.40 1011.58 32.70
17470 69.5337 1047.70 1011.83 33.70
17471 69.5374 994.80 1012.09 32.80
17472 69.5412 1028.10 1012.35 33.30
17473 69.5450 988.10 1012.63 32.80
17474 69.5487 942.70 1012.91 31.50
17475 69.5525 997.00 1013.20 32.40
17476 69.5562 983.00 1013.49 32.60
17477 69.5600 997.20 1013.80 32.80
17478 69.5638 1020.90 1014.12 33.20
17479 69.5675 1005.30 1014.44 32.70
17480 69.5713 1005.50 1014.78 33.30
17481 69.5750 1039.80 1015.13 33.50
17482 69.5788 1013.40 1015.49 33.00
17483 69.5826 944.20 1015.86 32.30
17484 69.5863 993.60 1016.24 32.80
17485 69.5901 955.50 1016.63 31.80
17486 69.5938 1000.00 1017.04 33.00
17487 69.5976 1052.50 1017.46 33.70
17488 69.6013 1006.70 1017.90 33.50
17489 69.6051 997.70 1018.35 33.00
17490 69.6089 1036.40 1018.81 33.10
17491 69.6126 1055.00 1019.29 33.00
17492 69.6164 1039.70 1019.79 33.00
17493 69.6201 1040.70 1020.30 33.40
17494 69.6239 982.70 1020.84 32.20
17495 69.6277 1028.00 1021.39 32.80
17496 69.6314 1027.90 1021.96 32.90
17497 69.6352 974.40 1022.55 32.40
17498 69.6389 1056.30 1023.17 33.40
17499 69.6427 1016.30 1023.80 32.60
17500 69.6465 1007.30 1024.46 32.70
17501 69.6502 972.70 1025.15 31.90
17502 69.6540 1030.70 1025.86 32.50
17503 69.6577 1052.20 1026.60 34.20
17504 69.6615 1083.20 1027.37 33.90
17505 69.6653 1031.60 1028.16 33.10
17506 69.6690 1032.50 1028.99 32.70
17507 69.6728 982.60 1029.86 32.30
17508 69.6765 1042.40 1030.75 33.30
17509 69.6803 1079.80 1031.69 33.70
17510 69.6841 1059.80 1032.66 33.80
17511 69.6878 1087.70 1033.68 34.10
17512 69.6916 1078.80 1034.73 34.00
17513 69.6953 1100.90 1035.83 34.30
17514 69.6991 1076.50 1036.99 33.70
17515 69.7029 1077.20 1038.19 34.00
17516 69.7066 1041.30 1039.45 33.00
17517 69.7104 1016.10 1040.76 32.70
17518 69.7141 1094.20 1042.14 34.50
17519 69.7179 1024.10 1043.57 32.60
17520 69.7216 1051.90 1045.08 33.60
17521 69.7254 1024.90 1046.66 32.80
17522 69.7292 1045.10 1048.32 33.10
17523 69.7329 1060.50 1050.06 33.40
17524 69.7367 1106.10 1051.89 34.10
17525 69.7404 1064.60 1053.81 33.40
17526 69.7442 1039.30 1055.83 33.20
17527 69.7480 1028.60 1057.96 32.90
17528 69.7517 1030.20 1060.20 32.70
17529 69.7555 1117.40 1062.56 34.20
17530 69.7592 1090.40 1065.07 34.80
17531 69.7630 1095.80 1067.70 34.00
17532 69.7668 1065.20 1070.49 33.30
17533 69.7705 1059.60 1073.44 33.50
17534 69.7743 1082.90 1076.57 34.10
17535 69.7780 1097.60 1079.89 34.00
17536 69.7818 1039.50 1083.42 33.40
17537 69.7856 1092.10 1087.17 34.20
17538 69.7893 1146.60 1091.17 35.00
17539 69.7931 1070.40 1095.44 33.80
17540 69.7968 1043.00 1099.98 33.40
17541 69.8006 1156.70 1104.84 34.90
17542 69.8044 1083.80 1110.06 33.90
17543 69.8081 1140.80 1115.63 34.90
17544 69.8119 1101.40 1121.62 34.30
17545 69.8156 1086.50 1128.06 34.10
17546 69.8194 1129.00 1135.04 34.90
17547 69.8232 1184.70 1142.54 35.50
17548 69.8269 1182.90 1150.66 35.70
17549 69.8307 1147.50 1159.45 35.10
17550 69.8344 1192.90 1169.03 35.80
17551 69.8382 1219.10 1179.41 36.20
17552 69.8419 1235.90 1190.79 36.00
17553 69.8457 1180.80 1203.24 35.40
17554 69.8495 1191.60 1216.90 35.70
17555 69.8532 1210.20 1231.91 35.20
17556 69.8570 1263.80 1248.51 36.80
17557 69.8607 1278.20 1266.82 37.20
17558 69.8645 1219.20 1287.24 36.10
17559 69.8683 1332.70 1309.98 38.10
17560 69.8720 1328.50 1335.44 37.80
17561 69.8758 1353.80 1364.06 38.00
17562 69.8795 1331.30 1396.53 37.80
17563 69.8833 1374.40 1433.19 38.40
17564 69.8871 1474.30 1475.18 40.40
17565 69.8908 1528.70 1523.40 41.20
17566 69.8946 1550.10 1579.01 41.60
17567 69.8983 1625.80 1643.69 42.40
17568 69.9021 1603.90 1719.65 41.80
17569 69.9059 1782.40 1809.24 44.40
17570 69.9096 1807.30 1916.27 44.70
17571 69.9134 2038.70 2045.21 47.80
17572 69.9171 2222.80 2201.66 50.10
17573 69.9209 2418.70 2395.26 52.00
17574 69.9247 2663.00 2637.45 54.90
17575 69.9284 3002.50 2943.94 58.70
17576 69.9322 3369.90 3340.48 61.50
17577 69.9359 4157.60 3864.88 69.50
17578 69.9397 4924.80 4560.31 75.30
17579 69.9435 6198.20 5501.30 86.40
17580 69.9472 7713.10 6779.39 97.10
17581 69.9510 9488.90 8484.70 106.60
17582 69.9547 11822.00 10650.30 120.80
17583 69.9585 14038.70 13068.40 137.00
17584 69.9622 14948.00 15033.10 140.00
17585 69.9660 15145.30 15551.60 138.90
17586 69.9698 13609.30 14297.00 130.90
17587 69.9735 11488.60 12003.30 119.30
17588 69.9773 8889.40 9645.82 104.40
17589 69.9810 6811.10 7673.54 90.20
17590 69.9848 5296.30 6170.27 78.80
17591 69.9886 4309.50 5051.64 70.10
17592 69.9923 3547.90 4229.34 63.70
17593 69.9961 2944.30 3613.78 57.80
17594 69.9998 2627.80 3153.28 54.20
17595 70.0036 2355.50 2799.48 51.00
17596 70.0074 2061.10 2523.06 48.00
17597 70.0111 1893.80 2303.97 46.10
17598 70.0149 1811.30 2128.26 44.70
17599 70.0186 1741.80 1984.41 43.70
17600 70.0224 1595.10 1865.72 42.10
17601 70.0262 1609.70 1767.06 42.30
17602 70.0299 1429.20 1683.79 39.40
17603 70.0337 1563.00 1612.70 41.50
17604 70.0374 1448.60 1552.28 40.10
17605 70.0412 1428.90 1500.06 39.60
17606 70.0450 1363.60 1454.64 38.60
17607 70.0487 1362.30 1415.04 38.40
17608 70.0525 1238.00 1380.26 36.30
17609 70.0562 1273.40 1349.49 37.10
17610 70.0600 1267.50 1322.24 38.00
17611 70.0638 1299.10 1297.91 37.60
17612 70.0675 1246.10 1276.26 36.70
17613 70.0713 1238.30 1256.63 36.40
17614 70.0750 1142.10 1239.03 35.10
17615 70.0788 1122.30 1223.13 34.90
17616 70.0825 1151.50 1208.65 36.10
17617 70.0863 1195.30 1195.46 35.70
17618 70.0901 1162.70 1183.47 35.00
17619 70.0938 1205.90 1172.45 36.20
17620 70.0976 1174.70 1162.34 35.10
17621 70.1013 1145.10 1153.06 34.50
17622 70.1051 1112.60 1144.52 34.30
17623 70.1089 1144.20 1136.57 34.90
17624 70.1126 1137.80 1129.26 34.80
17625 70.1164 1097.50 1122.46 34.40
17626 70.1201 1195.60 1116.15 35.80
17627 70.1239 1159.30 1110.28 35.30
17628 70.1276 1112.80 1104.80 34.10
17629 70.1314 1097.50 1099.67 33.90
17630 70.1352 1084.30 1094.89 33.80
17631 70.1389 1103.60 1090.39 34.50
17632 70.1427 1114.60 1086.18 34.30
17633 70.1464 1058.90 1082.22 33.60
17634 70.1502 1052.90 1078.51 33.40
17635 70.1540 1058.60 1075.00 33.20
17636 70.1577 1069.20 1071.70 33.90
17637 70.1615 1123.90 1068.58 35.30
17638 70.1652 1064.50 1065.63 33.60
17639 70.1690 1069.30 1062.83 33.30
17640 70.1728 1053.10 1060.19 33.40
17641 70.1765 1052.20 1057.69 33.20
17642 70.1803 1023.50 1055.31 32.90
17643 70.1840 1081.60 1053.04 33.90
17644 70.1878 1052.50 1050.90 33.60
17645 70.1916 1046.30 1048.85 33.40
17646 70.1953 1112.20 1046.91 34.50
17647 70.1991 1075.50 1045.05 33.90
17648 70.2028 1092.60 1043.28 34.20
17649 70.2066 1086.90 1041.58 33.50
17650 70.2104 1048.60 1039.97 33.60
17651 70.2141 1051.40 1038.42 33.30
17652 70.2179 980.60 1036.94 32.30
17653 70.2216 1079.70 1035.53 34.00
17654 70.2254 1019.30 1034.17 32.70
17655 70.2291 989.90 1032.87 32.30
17656 70.2329 962.20 1031.62 31.60
17657 70.2367 987.20 1030.42 32.60
17658 70.2404 1041.00 1029.27 33.80
17659 70.2442 1014.40 1028.16 33.10
17660 70.2479 1018.80 1027.10 32.70
17661 70.2517 1020.40 1026.07 32.10
17662 70.2555 1050.80 1025.09 32.80
17663 70.2592 1024.20 1024.13 33.40
17664 70.2630 993.20 1023.22 32.50
17665 70.2667 1025.40 1022.34 33.00
17666 70.2705 987.20 1021.48 32.40
17667 70.2742 1053.90 1020.66 33.60
17668 70.2780 973.50 1019.87 32.30
17669 70.2818 1006.60 1019.10 32.60
17670 70.2855 984.10 1018.35 32.20
17671 70.2893 976.40 1017.64 32.20
17672 70.2930 970.60 1016.94 32.20
17673 70.2968 972.20 1016.27 31.80
17674 70.3006 1003.90 1015.62 32.70
17675 70.3043 989.60 1014.99 32.60
17676 70.3081 996.80 1014.37 32.50
17677 70.3118 973.90 1013.78 32.10
17678 70.3156 1023.70 1013.20 33.20
17679 70.3194 1025.30 1012.64 32.90
17680 70.3231 967.10 1012.10 32.20
17681 70.3269 1064.70 1011.58 33.10
17682 70.3306 978.20 1011.06 32.30
17683 70.3344 984.40 1010.57 32.40
17684 70.3382 1012.50 1010.08 33.30
17685 70.3419 1057.80 1009.61 33.30
17686 70.3457 999.90 1009.16 32.80
17687 70.3494 1041.50 1008.71 33.70
17688 70.3532 969.40 1008.28 31.80
17689 70.3569 954.40 1007.85 31.70
17690 70.3607 949.20 1007.44 32.10
17691 70.3645 1047.20 1007.04 33.20
17692 70.3682 1001.30 1006.65 32.70
17693 70.3720 1011.20 1006.27 32.80
17694 70.3757 1030.50 1005.90 33.60
17695 70.3795 999.80 1005.54 32.80
17696 70.3832 964.30 1005.19 31.70
17697 70.3870 955.40 1004.84 32.40
17698 70.3908 1017.20 1004.50 32.90
17699 70.3945 981.70 1004.17 31.80
17700 70.3983 1036.70 1003.85 33.80
17701 70.4020 944.50 1003.54 31.80
17702 70.4058 1009.90 987.54 33.10
17703 70.4096 978.10 987.50 32.30
17704 70.4133 937.60 987.46 31.80
17705 70.4171 984.50 987.43 32.70
17706 70.4208 1024.80 987.39 33.40
17707 70.4246 1009.40 987.35 33.10
17708 70.4284 996.20 987.32 32.90
17709 70.4321 980.60 987.28 32.20
17710 70.4359 1021.50 987.24 33.20
17711 70.4396 1004.40 987.21 32.70
17712 70.4434 990.20 987.17 32.90
17713 70.4472 1020.90 987.13 33.30
17714 70.4509 918.40 987.10 31.40
17715 70.4547 1032.20 987.06 32.90
17716 70.4584 988.60 987.02 32.80
17717 70.4622 1006.60 986.99 33.40
17718 70.4660 996.50 986.95 32.90
17719 70.4697 946.40 986.91 31.80
17720 70.4735 949.30 986.88 32.10
17721 70.4772 913.90 986.84 31.40
17722 70.4810 977.60 986.80 32.70
17723 70.4847 1022.10 986.77 33.10
17724 70.4885 1011.40 986.73 33.20
17725 70.4923 1003.90 986.69 32.60
17726 70.4960 938.90 986.65 31.80
17727 70.4998 990.90 986.62 32.90
17728 70.5035 954.90 986.58 32.10
17729 70.5073 940.20 986.54 32.10
17730 70.5110 1010.70 986.51 32.70
17731 70.5148 1007.60 986.47 32.80
17732 70.5186 975.50 986.43 32.90
17733 70.5223 959.00 986.39 32.60
17734 70.5261 1042.00 986.36 33.80
17735 70.5298 970.10 986.32 32.60
17736 70.5336 973.90 986.28 32.30
17737 70.5374 959.70 986.25 32.30
17738 70.5411 988.80 986.21 32.70
17739 70.5449 1021.10 986.17 33.50
17740 70.5486 964.30 986.13 32.20
17741 70.5524 1015.10 986.10 33.10
17742 70.5562 959.00 986.06 31.80
17743 70.5599 1019.80 986.02 34.20
17744 70.5637 972.20 985.98 32.90
17745 70.5674 999.80 985.95 32.00
17746 70.5712 929.10 985.91 30.90
17747 70.5749 980.60 985.87 32.00
17748 70.5787 1006.30 985.84 32.60
17749 70.5825 971.10 985.80 31.60
17750 70.5862 955.60 985.76 31.40
17751 70.5900 994.50 985.72 32.30
17752 70.5937 1002.70 985.69 32.20
17753 70.5975 1042.10 985.65 33.00
17754 70.6012 983.20 985.61 31.90
17755 70.6050 971.20 985.57 32.10
17756 70.6088 977.10 985.54 32.00
17757 70.6125 987.20 985.50 32.10
17758 70.6163 987.40 985.46 32.20
17759 70.6200 956.80 985.42 31.80
17760 70.6238 938.40 985.39 31.20
17761 70.6275 961.00 985.35 31.70
17762 70.6313 990.40 985.31 32.00
17763 70.6351 962.10 985.27 31.60
17764 70.6388 939.50 985.24 31.50
17765 70.6426 980.80 985.20 31.40
17766 70.6463 1042.90 985.16 33.20
17767 70.6501 1002.00 985.12 32.20
17768 70.6539 1005.10 985.09 32.50
17769 70.6576 986.80 985.05 31.90
17770 70.6614 959.60 985.01 32.60
17771 70.6651 945.30 984.97 31.60
17772 70.6689 1017.10 984.93 32.40
17773 70.6727 945.60 984.90 31.70
17774 70.6764 977.30 984.86 32.00
17775 70.6802 971.40 984.82 32.10
17776 70.6839 959.20 984.78 31.90
17777 70.6877 983.20 984.74 31.80
17778 70.6914 1014.30 984.71 32.90
17779 70.6952 1025.00 984.67 32.90
17780 70.6990 973.00 984.63 32.20
17781 70.7027 995.60 984.59 32.40
17782 70.7065 1006.90 984.55 32.80
17783 70.7102 1001.70 984.52 32.40
17784 70.7140 1016.30 984.48 32.50
17785 70.7178 990.20 984.44 32.30
17786 70.7215 983.00 984.40 32.20
17787 70.7253 970.20 984.36 32.00
17788 70.7290 1006.20 984.33 32.60
17789 70.7328 983.30 984.29 31.90
17790 70.7365 952.40 984.25 31.80
17791 70.7403 1029.70 984.21 33.10
17792 70.7441 966.50 984.17 31.90
17793 70.7478 983.80 984.14 32.20
17794 70.7516 969.10 984.10 32.00
17795 70.7553 937.00 984.06 31.10
17796 70.7591 937.10 984.02 31.60
17797 70.7628 987.00 983.98 32.70
17798 70.7666 1016.10 983.95 32.90
17799 70.7704 1003.80 983.91 32.40
17800 70.7741 910.70 983.87 30.60
17801 70.7779 937.10 983.83 31.20
17802 70.7816 924.30 983.79 31.10
17803 70.7854 973.60 983.76 31.90
17804 70.7891 920.00 983.72 31.20
17805 70.7929 1026.80 983.68 33.20
17806 70.7967 1017.50 983.64 32.80
17807 70.8004 1010.30 983.60 32.40
17808 70.8042 957.70 983.56 31.90
17809 70.8079 1001.90 983.53 32.40
17810 70.8117 959.00 983.49 31.80
17811 70.8155 944.60 983.45 31.30
17812 70.8192 985.00 983.41 32.30
17813 70.8230 982.70 983.37 32.00
17814 70.8267 975.80 983.33 32.00
17815 70.8305 966.20 983.29 31.70
17816 70.8342 912.60 983.26 31.10
17817 70.8380 957.80 983.22 31.50
17818 70.8418 990.90 983.18 32.70
17819 70.8455 975.80 983.14 32.00
17820 70.8493 988.30 983.10 32.30
17821 70.8530 989.80 983.06 32.40
17822 70.8568 1027.80 983.03 32.60
17823 70.8605 989.80 982.99 32.60
17824 70.8643 994.60 982.95 32.70
17825 70.8681 944.30 982.91 31.10
17826 70.8718 966.40 982.87 31.60
17827 70.8756 960.30 982.83 31.70
17828 70.8793 957.80 982.79 31.70
17829 70.8831 989.80 982.76 32.50
17830 70.8868 928.00 982.72 31.50
17831 70.8906 922.60 982.68 31.20
17832 70.8944 917.70 982.64 31.20
17833 70.8981 991.90 982.60 32.30
17834 70.9019 985.20 982.56 32.20
17835 70.9056 967.40 982.52 31.80
17836 70.9094 969.80 982.48 32.20
17837 70.9131 919.20 982.45 31.20
17838 70.9169 948.70 982.41 31.70
17839 70.9207 1004.60 982.37 32.90
17840 70.9244 949.20 982.33 31.80
17841 70.9282 954.10 982.29 31.70
17842 70.9319 995.10 982.25 32.40
17843 70.9357 961.50 982.21 31.80
17844 70.9395 987.70 982.17 32.80
17845 70.9432 931.70 982.13 31.40
17846 70.9470 983.90 982.09 32.30
17847 70.9507 990.30 982.06 32.60
17848 70.9545 928.50 982.02 31.00
17849 70.9582 956.70 981.98 31.40
17850 70.9620 948.20 981.94 32.40
17851 70.9658 977.30 981.90 32.00
17852 70.9695 1012.80 981.86 32.80
17853 70.9733 995.70 981.82 32.20
17854 70.9770 1003.40 981.78 32.60
17855 70.9808 965.40 981.74 32.00
17856 70.9845 933.30 981.71 31.30
17857 70.9883 950.40 981.67 31.90
17858 70.9921 980.00 981.63 32.50
17859 70.9958 987.30 981.59 32.30
17860 70.9996 974.50 981.55 32.10
17861 71.0033 968.40 981.51 32.00
17862 71.0071 985.60 981.47 32.10
17863 71.0108 1023.30 981.43 33.20
17864 71.0146 952.20 981.39 31.70
17865 71.0184 986.80 981.35 32.50
17866 71.0221 971.90 981.31 32.00
17867 71.0259 916.00 981.28 31.00
17868 71.0296 991.50 981.24 32.10
17869 71.0334 997.00 981.20 32.30
17870 71.0371 932.30 981.16 31.50
17871 71.0409 970.70 981.12 31.90
17872 71.0446 956.00 981.08 32.10
17873 71.0484 954.90 981.04 32.30
17874 71.0522 946.60 981.00 31.80
17875 71.0559 1002.00 980.96 32.10
17876 71.0597 949.00 980.92 32.30
17877 71.0634 936.10 980.88 31.70
17878 71.0672 919.70 980.84 31.00
17879 71.0710 979.90 980.80 31.80
17880 71.0747 978.70 980.76 31.80
17881 71.0785 959.60 980.72 31.80
17882 71.0822 960.80 980.68 31.90
17883 71.0860 973.30 980.65 32.10
17884 71.0897 974.50 980.61 32.10
17885 71.0935 951.70 980.57 31.90
17886 71.0973 991.30 980.53 32.50
17887 71.1010 996.20 980.49 32.80
17888 71.1048 933.60 980.45 31.50
17889 71.1085 979.00 980.41 32.50
17890 71.1123 963.50 980.37 31.80
17891 71.1160 911.50 980.33 31.20
17892 71.1198 923.60 980.29 31.40
17893 71.1236 1010.10 980.25 32.60
17894 71.1273 970.20 980.21 32.10
17895 71.1311 966.50 980.17 32.10
17896 71.1348 953.30 980.13 31.80
17897 71.1386 959.90 980.09 32.10
17898 71.1423 976.60 980.05 32.20
17899 71.1461 931.10 980.01 31.60
17900 71.1498 1018.60 979.97 33.10
17901 71.1536 1000.40 979.93 32.50
17902 71.1574 943.20 979.90 31.10
17903 71.1611 1014.20 979.85 33.50
17904 71.1649 984.00 979.82 32.40
17905 71.1686 1052.60 979.78 33.40
17906 71.1724 947.50 979.74 31.50
17907 71.1761 976.40 979.70 32.20
17908 71.1799 915.40 979.66 31.10
17909 71.1836 1018.50 979.62 32.80
17910 71.1874 941.20 979.58 31.60
17911 71.1912 924.00 979.54 31.10
17912 71.1949 992.50 979.50 32.70
17913 71.1987 1012.90 979.46 32.50
17914 71.2024 1021.80 979.42 33.60
17915 71.2062 988.30 979.38 32.70
17916 71.2100 976.90 979.34 32.10
17917 71.2137 943.00 979.30 32.00
17918 71.2175 964.00 979.26 31.90
17919 71.2212 869.00 979.22 30.50
17920 71.2250 952.20 979.18 31.70
17921 71.2287 994.50 979.14 32.50
17922 71.2325 932.00 979.10 31.50
17923 71.2363 1019.70 979.06 32.90
17924 71.2400 1080.70 979.02 34.40
17925 71.2438 996.30 978.98 32.60
17926 71.2475 948.40 978.94 31.70
17927 71.2513 937.10 978.90 31.60
17928 71.2550 967.90 978.86 31.70
17929 71.2588 938.20 978.82 31.90
17930 71.2625 975.90 978.78 32.20
17931 71.2663 988.00 978.74 32.40
17932 71.2701 998.50 978.70 32.60
17933 71.2738 991.10 978.66 32.40
17934 71.2776 969.80 978.62 32.20
17935 71.2813 984.90 978.58 32.50
17936 71.2851 951.20 978.54 31.60
17937 71.2888 954.20 978.50 31.80
17938 71.2926 999.60 978.46 32.90
17939 71.2963 1019.30 978.42 32.80
17940 71.3001 951.30 978.38 31.90
17941 71.3039 989.40 978.34 32.20
17942 71.3076 950.60 978.30 31.80
17943 71.3114 986.30 978.26 32.40
17944 71.3151 969.80 978.22 32.00
17945 71.3189 950.10 978.18 32.10
17946 71.3226 1030.10 978.14 33.50
17947 71.3264 967.00 978.10 32.10
17948 71.3301 1019.00 978.06 32.80
17949 71.3339 971.70 978.02 32.10
17950 71.3377 969.00 977.98 32.40
17951 71.3414 1027.60 977.94 33.10
17952 71.3452 960.30 977.90 32.20
17953 71.3489 905.60 977.86 30.90
17954 71.3527 977.10 977.82 32.40
17955 71.3564 970.90 977.78 31.70
17956 71.3602 953.50 977.74 32.50
17957 71.3640 953.20 977.70 32.10
17958 71.3677 938.10 977.66 31.80
17959 71.3715 999.40 977.62 32.70
17960 71.3752 969.90 977.58 32.20
17961 71.3790 951.10 977.54 31.80
17962 71.3827 979.60 977.50 32.70
17963 71.3865 960.00 977.46 32.20
17964 71.3902 983.10 977.42 32.50
17965 71.3940 964.50 977.38 32.20
17966 71.3978 920.80 977.34 31.30
17967 71.4015 913.70 977.29 31.40
17968 71.4053 924.90 977.26 31.50
17969 71.4090 983.60 977.21 32.60
17970 71.4128 975.40 977.17 32.00
17971 71.4165 968.10 977.13 32.10
17972 71.4203 1004.60 977.09 33.00
17973 71.4240 943.10 977.05 31.90
17974 71.4278 973.20 977.01 32.20
17975 71.4316 1007.00 976.97 32.90
17976 71.4353 965.80 976.93 32.00
17977 71.4391 978.60 976.89 32.40
17978 71.4428 952.40 976.85 31.60
17979 71.4466 938.70 976.81 32.00
17980 71.4503 935.50 976.77 31.70
17981 71.4541 936.40 976.73 30.70
17982 71.4578 945.80 976.69 31.40
17983 71.4616 974.60 976.65 32.90
17984 71.4653 959.80 976.61 32.00
17985 71.4691 990.50 976.57 32.00
17986 71.4729 962.30 976.53 31.50
17987 71.4766 956.10 976.49 31.70
17988 71.4804 957.20 976.45 31.90
17989 71.4841 998.80 976.41 33.00
17990 71.4879 916.40 976.36 31.20
17991 71.4916 960.00 976.33 31.90
17992 71.4954 964.00 976.28 32.20
17993 71.4992 983.30 976.24 32.50
17994 71.5029 966.60 976.20 32.20
17995 71.5067 973.00 976.16 32.40
17996 71.5104 996.90 976.12 32.50
17997 71.5142 987.20 976.08 32.60
17998 71.5179 940.40 976.04 32.00
17999 71.5217 1001.00 976.00 32.90
18000 71.5254 920.40 975.96 31.50
18001 71.5292 979.00 975.92 32.60
18002 71.5330 975.40 975.88 32.00
18003 71.5367 895.10 975.84 31.30
18004 71.5405 985.60 975.80 32.50
18005 71.5442 954.90 975.76 31.80
18006 71.5480 1001.10 975.72 32.90
18007 71.5517 976.20 975.68 32.30
18008 71.5555 959.10 975.64 31.40
18009 71.5592 1034.50 975.59 33.90
18010 71.5630 965.60 975.55 32.40
18011 71.5667 974.70 975.51 32.40
18012 71.5705 957.80 975.47 31.70
18013 71.5743 979.70 975.43 32.50
18014 71.5780 953.10 975.39 31.70
18015 71.5818 943.00 975.35 31.80
18016 71.5855 972.10 975.31 32.30
18017 71.5893 992.90 975.27 32.90
18018 71.5930 912.00 975.23 31.40
18019 71.5968 974.10 975.19 32.30
18020 71.6005 977.60 975.15 32.50
18021 71.6043 944.80 975.11 31.60
18022 71.6080 957.60 975.07 31.90
18023 71.6118 1004.60 975.03 33.00
18024 71.6156 946.70 974.98 31.70
18025 71.6193 946.70 974.94 32.10
18026 71.6231 990.40 974.90 32.70
18027 71.6268 930.40 974.86 31.40
18028 71.6306 972.30 974.82 32.60
18029 71.6343 951.20 974.78 31.90
18030 71.6381 945.20 974.74 32.30
18031 71.6418 1018.20 974.70 33.30
18032 71.6456 959.50 974.66 32.40
18033 71.6494 960.20 974.62 32.30
18034 71.6531 914.20 974.58 31.00
18035 71.6569 963.70 974.54 31.80
18036 71.6606 1058.50 974.49 34.80
18037 71.6644 1008.70 974.45 33.30
18038 71.6681 984.90 974.41 32.70
18039 71.6719 985.30 974.37 32.60
18040 71.6756 972.40 974.33 32.10
18041 71.6794 962.90 974.29 32.10
18042 71.6831 1020.50 974.25 33.20
18043 71.6869 946.50 974.21 32.20
18044 71.6907 960.50 974.17 32.10
18045 71.6944 958.30 974.13 32.20
18046 71.6982 1001.20 974.09 32.90
18047 71.7019 1006.30 974.04 33.10
18048 71.7057 945.00 974.01 32.20
18049 71.7094 950.70 973.96 32.10
18050 71.7132 947.70 973.92 32.30
18051 71.7169 954.10 973.88 32.10
18052 71.7207 957.70 973.84 32.10
18053 71.7244 996.70 973.80 33.00
18054 71.7282 980.20 973.76 32.80
18055 71.7319 1024.00 973.72 33.20
18056 71.7357 1002.60 973.68 33.30
18057 71.7395 984.20 973.64 32.80
18058 71.7432 956.30 973.60 32.30
18059 71.7470 1028.30 973.55 33.60
18060 71.7507 949.30 973.51 32.40
18061 71.7545 973.70 973.47 32.50
18062 71.7582 975.10 973.43 32.20
18063 71.7620 1034.80 973.39 33.70
18064 71.7657 1027.30 973.35 32.70
18065 71.7695 929.10 973.31 31.60
18066 71.7732 948.40 973.27 31.90
18067 71.7770 976.60 973.23 32.50
18068 71.7807 980.30 973.19 32.80
18069 71.7845 984.30 973.15 32.70
18070 71.7883 954.70 973.10 31.90
18071 71.7920 935.50 973.06 31.80
18072 71.7958 986.80 973.02 32.60
18073 71.7995 970.70 972.98 32.50
18074 71.8033 910.00 972.94 31.10
18075 71.8070 993.20 972.90 32.30
18076 71.8108 954.70 972.86 32.20
18077 71.8145 938.90 972.82 32.00
18078 71.8183 973.50 972.78 32.60
18079 71.8220 906.60 972.74 31.60
18080 71.8258 904.60 972.70 31.50
18081 71.8296 1065.40 972.65 34.00
18082 71.8333 968.00 972.61 32.40
18083 71.8371 915.10 972.57 31.10
18084 71.8408 988.80 972.53 32.90
18085 71.8446 975.50 972.49 32.60
18086 71.8483 988.50 972.45 32.80
18087 71.8521 935.90 972.41 31.70
18088 71.8558 946.90 972.37 31.90
18089 71.8596 951.30 972.33 32.20
18090 71.8633 989.30 972.28 33.20
18091 71.8671 1021.20 972.24 33.00
18092 71.8708 985.80 972.20 33.20
18093 71.8746 1002.60 972.16 32.80
18094 71.8783 989.70 972.12 32.70
18095 71.8821 942.90 972.08 32.10
18096 71.8859 957.10 972.04 32.30
18097 71.8896 1025.60 972.00 33.70
18098 71.8934 921.30 971.96 31.90
18099 71.8971 995.50 971.92 33.00
18100 71.9009 891.80 971.88 31.30
18101 71.9046 945.30 971.83 31.90
18102 71.9084 970.60 971.79 32.30
18103 71.9121 926.50 971.75 31.60
18104 71.9159 979.60 971.71 32.60
18105 71.9196 920.90 971.67 31.80
18106 71.9234 964.80 971.63 32.50
18107 71.9271 951.60 971.59 32.00
18108 71.9309 964.00 971.55 32.90
18109 71.9346 997.40 971.51 33.00
18110 71.9384 995.60 971.46 33.50
18111 71.9421 1013.50 971.42 33.50
18112 71.9459 995.20 971.38 32.70
18113 71.9497 1016.40 971.34 33.40
18114 71.9534 988.90 971.30 32.90
18115 71.9572 921.90 971.26 31.40
18116 71.9609 987.60 971.22 33.70
18117 71.9647 1008.90 971.18 33.60
18118 71.9684 968.90 971.14 32.80
18119 71.9722 957.80 971.09 32.30
18120 71.9759 961.20 971.05 32.40
18121 71.9797 927.50 971.01 31.40
18122 71.9834 946.30 970.97 32.20
18123 71.9872 1005.90 970.93 32.70
18124 71.9904 940.90 970.90 31.80
18125 71.9942 937.30 970.85 31.70
18126 71.9979 956.60 970.81 32.00
18127 72.0017 960.90 970.77 32.20
18128 72.0054 893.00 970.73 30.70
18129 72.0092 1050.50 970.69 33.70
18130 72.0129 983.20 970.65 32.80
18131 72.0167 972.80 970.61 32.40
18132 72.0204 948.50 970.57 32.00
18133 72.0242 955.60 970.53 32.20
18134 72.0279 1028.40 970.48 32.90
18135 72.0317 893.10 970.44 31.20
18136 72.0355 1013.70 970.40 33.00
18137 72.0392 906.40 970.36 30.90
18138 72.0430 930.50 970.32 31.70
18139 72.0467 1002.10 970.28 32.70
18140 72.0505 934.10 970.24 31.00
18141 72.0542 995.20 970.20 33.20
18142 72.0580 1003.20 970.16 33.00
18143 72.0618 969.70 970.11 32.30
18144 72.0655 1008.90 970.07 32.60
18145 72.0693 962.50 970.03 32.20
18146 72.0730 941.30 969.99 31.50
18147 72.0768 996.00 969.95 32.70
18148 72.0805 908.70 969.91 31.20
18149 72.0843 900.00 969.87 31.30
18150 72.0880 1021.00 969.83 33.20
18151 72.0918 946.10 969.79 31.80
18152 72.0955 931.20 969.74 31.70
18153 72.0993 980.30 969.70 32.20
18154 72.1031 965.60 969.66 32.10
18155 72.1068 927.80 969.62 31.60
18156 72.1106 943.70 969.58 31.60
18157 72.1143 966.00 969.54 32.40
18158 72.1181 992.40 969.50 32.70
18159 72.1218 958.20 969.46 31.90
18160 72.1256 971.30 969.42 32.60
18161 72.1293 962.20 969.38 32.10
18162 72.1331 934.90 969.34 32.10
18163 72.1368 990.80 969.29 32.80
18164 72.1406 946.20 969.25 32.20
18165 72.1443 998.70 969.21 33.00
18166 72.1481 980.20 969.17 32.20
18167 72.1519 963.70 969.13 31.80
18168 72.1556 1044.60 969.09 34.60
18169 72.1594 946.20 969.05 32.20
18170 72.1631 948.50 974.58 32.00
18171 72.1669 998.30 974.63 32.80
18172 72.1706 924.80 974.69 31.30
18173 72.1744 961.90 974.74 32.10
18174 72.1781 995.40 974.80 32.70
18175 72.1819 969.10 974.87 32.60
18176 72.1857 981.60 974.93 32.50
18177 72.1894 983.60 975.00 32.60
18178 72.1932 937.60 975.07 31.80
18179 72.1969 978.90 975.15 32.60
18180 72.2007 989.10 975.22 33.00
18181 72.2044 944.60 975.30 32.00
18182 72.2082 933.30 975.39 32.00
18183 72.2119 988.50 975.47 32.70
18184 72.2157 1017.10 975.56 33.10
18185 72.2194 977.30 975.66 32.70
18186 72.2232 1021.30 975.76 33.50
18187 72.2243 995.50 975.78 32.60
18188 72.2281 1014.70 975.89 33.20
18189 72.2318 933.80 976.00 31.90
18190 72.2356 995.30 976.11 32.70
18191 72.2393 956.90 976.22 32.30
18192 72.2431 932.10 976.35 31.90
18193 72.2468 938.20 976.47 31.70
18194 72.2506 1034.80 976.60 33.20
18195 72.2543 1021.10 976.74 32.90
18196 72.2581 1038.70 976.88 32.80
18197 72.2619 1019.00 977.03 33.90
18198 72.2656 1053.10 977.19 33.70
18199 72.2694 1026.20 977.35 33.60
18200 72.2731 992.10 977.52 32.40
18201 72.2769 983.20 977.69 32.40
18202 72.2806 968.40 977.87 32.40
18203 72.2844 943.40 978.06 31.20
18204 72.2881 988.50 978.26 32.50
18205 72.2919 971.50 978.46 32.00
18206 72.2956 994.40 978.68 33.10
18207 72.2994 1010.10 978.90 33.50
18208 72.3031 1010.70 979.13 33.00
18209 72.3069 1031.00 979.38 33.50
18210 72.3107 1022.70 979.63 33.50
18211 72.3144 990.20 979.89 32.50
18212 72.3182 983.50 980.17 31.90
18213 72.3219 1075.10 980.46 33.90
18214 72.3257 961.20 980.76 31.80
18215 72.3294 1048.20 981.07 33.80
18216 72.3332 1006.80 981.40 33.00
18217 72.3369 977.20 981.74 32.80
18218 72.3407 995.60 982.10 33.70
18219 72.3444 958.20 982.48 32.20
18220 72.3482 961.60 982.87 32.40
18221 72.3519 979.90 983.28 32.80
18222 72.3557 974.20 983.71 32.20
18223 72.3595 1009.90 984.16 33.40
18224 72.3632 977.10 984.64 32.70
18225 72.3670 1013.80 985.14 33.10
18226 72.3707 1022.40 985.66 33.30
18227 72.3745 949.90 986.20 32.20
18228 72.3782 1008.90 986.78 32.80
18229 72.3820 1060.10 987.39 33.70
18230 72.3857 996.20 988.02 33.20
18231 72.3895 943.50 988.69 32.10
18232 72.3932 996.30 989.40 33.00
18233 72.3970 1009.30 990.14 32.70
18234 72.4007 987.20 990.93 32.60
18235 72.4045 1012.40 991.76 33.30
18236 72.4083 1038.70 992.64 34.20
18237 72.4120 950.40 993.57 32.50
18238 72.4158 1054.10 994.55 34.00
18239 72.4195 994.60 995.59 33.40
18240 72.4233 1043.10 996.70 33.60
18241 72.4270 1033.20 997.87 33.30
18242 72.4308 1028.60 999.12 33.40
18243 72.4345 996.00 1000.44 33.20
18244 72.4383 985.50 1001.85 33.00
18245 72.4420 1064.20 1003.36 34.20
18246 72.4458 1049.30 1004.96 34.10
18247 72.4496 979.10 1006.69 32.30
18248 72.4533 1023.60 1008.52 33.80
18249 72.4571 1079.50 1010.50 34.20
18250 72.4608 1049.70 1012.62 34.70
18251 72.4646 1015.80 1014.90 33.80
18252 72.4683 1009.90 1017.35 33.00
18253 72.4721 990.60 1020.00 32.20
18254 72.4758 1135.50 1022.86 35.10
18255 72.4796 1022.00 1025.97 33.60
18256 72.4834 1104.50 1029.34 34.70
18257 72.4871 1047.70 1033.01 34.20
18258 72.4909 1054.30 1036.99 34.00
18259 72.4946 1026.70 1041.35 33.80
18260 72.4984 1117.90 1046.13 35.20
18261 72.5021 1130.70 1051.38 35.10
18262 72.5059 1102.20 1057.17 34.60
18263 72.5096 1072.30 1063.57 34.70
18264 72.5134 1126.50 1070.65 35.50
18265 72.5171 1086.80 1078.53 34.60
18266 72.5209 1066.80 1087.36 34.10
18267 72.5247 1085.70 1097.20 34.30
18268 72.5284 1129.40 1108.34 35.70
18269 72.5322 1168.90 1120.87 35.60
18270 72.5359 1117.60 1135.20 35.20
18271 72.5397 1166.90 1151.55 35.70
18272 72.5434 1076.10 1170.35 34.50
18273 72.5472 1178.60 1192.06 36.30
18274 72.5509 1180.10 1217.45 35.90
18275 72.5547 1258.80 1247.08 37.30
18276 72.5584 1312.10 1282.35 37.00
18277 72.5622 1313.70 1324.32 39.10
18278 72.5660 1421.20 1375.14 40.70
18279 72.5697 1390.20 1436.80 39.10
18280 72.5735 1552.00 1513.35 41.60
18281 72.5772 1698.80 1608.85 43.40
18282 72.5810 1746.30 1730.37 44.40
18283 72.5847 1969.00 1887.18 47.50
18284 72.5885 2239.60 2091.69 50.80
18285 72.5922 2538.70 2365.61 54.40
18286 72.5960 3062.70 2729.44 59.70
18287 72.5997 3776.70 3214.29 66.80
18288 72.6035 4452.50 3845.54 73.20
18289 72.6073 5183.50 4607.36 80.30
18290 72.6110 5794.60 5386.46 83.70
18291 72.6148 6091.60 5911.00 85.60
18292 72.6185 5801.60 5904.04 83.90
18293 72.6223 5202.40 5371.01 79.60
18294 72.6260 4491.90 4592.73 74.60
18295 72.6298 3628.60 3830.05 64.80
18296 72.6336 2974.90 3201.96 57.90
18297 72.6373 2424.00 2719.21 53.10
18298 72.6411 2113.90 2357.79 49.80
18299 72.6448 1805.80 2086.90 45.20
18300 72.6486 1697.30 1883.00 44.50
18301 72.6523 1558.80 1726.93 41.90
18302 72.6561 1438.50 1605.91 39.90
18303 72.6598 1392.10 1510.46 39.10
18304 72.6636 1354.10 1434.47 39.00
18305 72.6674 1296.70 1372.78 38.00
18306 72.6711 1201.70 1322.27 36.30
18307 72.6749 1176.30 1280.30 36.00
18308 72.6786 1178.10 1245.08 36.10
18309 72.6824 1176.00 1215.42 36.90
18310 72.6861 1171.00 1190.05 35.60
18311 72.6899 1111.00 1168.30 34.10
18312 72.6936 1155.80 1149.51 34.70
18313 72.6974 1123.30 1133.16 34.30
18314 72.7011 1071.20 1118.82 33.80
18315 72.7049 1085.40 1106.17 33.90
18316 72.7087 1092.30 1095.02 34.00
18317 72.7124 1056.00 1085.09 33.40
18318 72.7162 1052.80 1076.20 33.30
18319 72.7199 1093.60 1068.27 33.90
18320 72.7237 1079.60 1061.10 33.80
18321 72.7274 1022.40 1054.67 32.80
18322 72.7312 1016.70 1048.80 32.40
18323 72.7349 1006.60 1043.49 32.50
18324 72.7387 1021.60 1038.64 32.80
18325 72.7425 1054.60 1034.19 33.20
18326 72.7462 1027.00 1030.13 32.80
18327 72.7500 1055.00 1026.40 33.20
18328 72.7537 1020.70 1022.96 32.80
18329 72.7575 1035.00 1019.78 32.10
18330 72.7612 984.90 1016.85 32.50
18331 72.7650 1021.80 1014.12 33.00
18332 72.7688 998.20 1011.58 32.20
18333 72.7725 999.90 1009.23 32.10
18334 72.7763 1001.40 1007.04 32.10
18335 72.7800 1026.50 1004.98 32.50
18336 72.7838 1040.50 1003.06 33.30
18337 72.7875 1001.40 1001.27 32.40
18338 72.7913 1055.20 999.58 33.70
18339 72.7951 1026.30 998.00 32.80
18340 72.7988 989.20 996.51 32.50
18341 72.8026 976.60 995.10 32.00
18342 72.8063 978.10 993.78 32.40
18343 72.8101 1040.00 992.53 33.00
18344 72.8138 1025.10 991.35 32.90
18345 72.8176 957.00 990.23 31.60
18346 72.8213 940.60 989.16 31.60
18347 72.8251 958.30 988.16 31.80
18348 72.8289 991.20 987.20 32.20
18349 72.8326 1012.90 986.29 32.60
18350 72.8364 974.70 985.43 31.80
18351 72.8401 1053.10 984.60 33.00
18352 72.8439 971.30 983.82 32.00
18353 72.8476 999.30 983.07 32.50
18354 72.8514 1004.40 982.35 32.40
18355 72.8551 1000.60 981.66 32.10
18356 72.8589 1027.90 981.01 32.60
18357 72.8627 1010.20 980.38 33.10
18358 72.8664 952.30 979.78 31.60
18359 72.8702 1023.10 979.20 33.00
18360 72.8739 963.20 978.65 31.90
18361 72.8777 963.90 978.12 31.30
18362 72.8814 954.60 977.61 31.70
18363 72.8852 1016.60 977.12 33.00
18364 72.8889 1037.30 976.65 33.00
18365 72.8927 979.70 976.19 31.90
18366 72.8965 957.50 975.75 31.80
18367 72.9002 1019.10 975.33 32.10
18368 72.9040 1013.70 974.92 32.40
18369 72.9077 1030.20 974.53 32.90
18370 72.9115 945.60 974.15 31.30
18371 72.9153 957.80 973.78 31.80
18372 72.9190 1006.40 973.42 32.30
18373 72.9228 948.80 973.08 31.60
18374 72.9265 1018.60 972.75 32.50
18375 72.9303 1053.00 972.43 33.50
18376 72.9340 957.10 972.11 32.00
18377 72.9378 966.60 971.81 31.80
18378 72.9416 919.70 971.52 31.20
18379 72.9453 935.90 971.23 31.80
18380 72.9491 1027.90 970.96 33.20
18381 72.9528 1029.40 970.69 32.70
18382 72.9566 975.60 970.43 31.50
18383 72.9603 1018.70 970.17 33.10
18384 72.9641 1001.00 969.93 32.60
18385 72.9678 929.50 969.68 31.50
18386 72.9716 1018.60 969.45 32.40
18387 72.9754 981.80 969.22 31.90
18388 72.9791 1002.30 969.00 32.60
18389 72.9829 998.40 968.78 32.30
18390 72.9866 969.20 968.57 31.80
18391 72.9904 958.00 968.37 31.90
18392 72.9941 967.70 968.17 31.90
18393 72.9979 924.10 967.97 31.20
18394 73.0016 991.40 967.78 32.70
18395 73.0054 953.70 967.59 31.80
18396 73.0092 945.00 967.41 31.50
18397 73.0129 992.20 967.23 32.80
18398 73.0167 954.80 967.06 32.20
18399 73.0204 943.90 966.89 31.50
18400 73.0242 989.70 966.72 32.50
18401 73.0279 975.80 966.55 32.30
18402 73.0317 957.00 966.39 31.80
18403 73.0355 969.40 966.24 31.80
18404 73.0392 944.40 966.08 31.90
18405 73.0430 1016.10 965.93 32.50
18406 73.0467 995.60 965.78 32.50
18407 73.0505 1004.30 965.64 32.90
18408 73.0543 918.50 965.50 31.20
18409 73.0580 980.20 965.36 31.80
18410 73.0618 1002.80 965.22 33.30
18411 73.0655 966.00 965.08 32.00
18412 73.0693 927.50 964.95 30.90
18413 73.0730 991.60 959.32 32.10
18414 73.0768 948.30 959.28 31.70
18415 73.0806 965.50 959.24 32.10
18416 73.0843 954.60 959.20 31.60
18417 73.0881 897.00 959.16 30.80
18418 73.0918 957.60 959.12 32.00
18419 73.0956 921.10 959.09 31.00
18420 73.0993 1016.50 959.05 32.90
18421 73.1031 962.30 959.01 32.10
18422 73.1069 941.90 958.97 31.50
18423 73.1106 920.90 958.93 31.50
18424 73.1144 921.50 958.90 31.30
18425 73.1181 973.00 958.86 32.10
18426 73.1219 998.40 958.82 32.40
18427 73.1256 1016.10 958.78 32.90
18428 73.1294 930.00 958.74 31.30
18429 73.1331 939.20 958.71 31.50
18430 73.1369 981.50 958.67 32.00
18431 73.1407 945.90 958.63 31.70
18432 73.1444 984.10 958.59 32.10
18433 73.1482 998.20 958.55 32.30
18434 73.1519 904.70 958.52 30.70
18435 73.1557 977.30 958.48 31.70
18436 73.1595 996.30 958.44 33.00
18437 73.1632 946.00 958.40 32.50
18438 73.1670 1008.60 958.37 32.70
18439 73.1707 955.30 958.33 31.40
18440 73.1745 981.20 958.29 31.60
18441 73.1782 964.10 958.25 31.50
18442 73.1820 962.30 958.22 31.50
18443 73.1858 1009.70 958.18 32.30
18444 73.1895 981.30 958.14 31.90
18445 73.1933 988.80 958.10 32.10
18446 73.1970 965.30 958.07 31.90
18447 73.2008 929.00 958.03 31.10
18448 73.2046 998.40 957.99 31.90
18449 73.2083 990.70 957.95 31.90
18450 73.2121 969.20 957.92 32.10
18451 73.2158 985.90 957.88 32.10
18452 73.2196 992.80 957.84 32.40
18453 73.2233 995.80 957.80 32.50
18454 73.2271 993.60 957.77 32.10
18455 73.2309 984.90 957.73 32.20
18456 73.2346 913.50 957.69 31.00
18457 73.2384 957.10 957.65 31.50
18458 73.2421 1019.60 957.62 32.80
18459 73.2459 1034.50 957.58 33.30
18460 73.2496 953.80 957.54 31.40
18461 73.2534 989.10 957.51 32.20
18462 73.2572 1000.40 957.47 31.90
18463 73.2609 991.20 957.43 32.50
18464 73.2647 963.00 957.39 32.20
18465 73.2684 956.30 957.36 31.80
18466 73.2722 942.30 957.32 30.90
18467 73.2759 997.50 957.28 32.40
18468 73.2797 993.50 957.25 32.20
18469 73.2835 973.90 957.21 32.10
18470 73.2872 935.80 957.17 30.70
18471 73.2910 936.00 957.14 31.60
18472 73.2947 906.10 957.10 31.10
18473 73.2985 946.80 957.06 32.00
18474 73.3023 962.40 957.03 31.70
18475 73.3060 932.00 956.99 31.30
18476 73.3098 1005.00 956.95 32.70
18477 73.3135 990.20 956.91 32.70
18478 73.3173 920.40 956.88 31.20
18479 73.3210 929.60 956.84 31.00
18480 73.3248 991.90 956.80 32.60
18481 73.3286 926.70 956.77 31.50
18482 73.3323 948.80 956.73 31.70
18483 73.3361 946.90 956.70 31.80
18484 73.3398 966.90 956.66 32.50
18485 73.3436 939.10 956.62 31.20
18486 73.3474 899.60 956.59 31.30
18487 73.3511 983.80 956.55 32.40
18488 73.3549 928.50 956.51 31.50
18489 73.3586 947.10 956.48 31.40
18490 73.3624 966.00 956.44 32.50
18491 73.3661 915.30 956.40 31.20
18492 73.3699 993.20 956.37 32.40
18493 73.3737 974.80 956.33 32.00
18494 73.3774 936.50 956.29 31.70
18495 73.3812 992.10 956.26 31.90
18496 73.3849 928.60 956.22 31.20
18497 73.3887 979.50 956.19 32.40
18498 73.3924 1019.60 956.15 32.90
18499 73.3962 946.90 956.11 31.80
18500 73.4000 929.40 956.08 31.40
18501 73.4037 932.90 956.04 31.40
18502 73.4075 982.40 956.01 32.20
18503 73.4112 987.10 955.97 32.70
18504 73.4150 985.90 955.93 32.30
18505 73.4187 934.30 955.90 31.50
18506 73.4225 953.40 955.86 31.70
18507 73.4263 954.80 955.83 31.40
18508 73.4300 929.40 955.79 31.40
18509 73.4338 988.60 955.75 32.30
18510 73.4375 996.60 955.72 32.70
18511 73.4413 973.70 955.68 32.30
18512 73.4451 955.90 955.65 31.60
18513 73.4488 990.20 955.61 32.40
18514 73.4526 959.60 955.58 32.10
18515 73.4563 965.50 955.67 31.60
18516 73.4601 949.30 955.64 31.50
18517 73.4639 983.00 955.60 32.90
18518 73.4676 950.40 955.57 31.70
18519 73.4714 983.70 955.54 32.30
18520 73.4751 996.00 955.51 32.30
18521 73.4789 935.40 955.47 31.50
18522 73.4826 1009.20 955.44 33.10
18523 73.4864 945.10 955.41 32.20
18524 73.4902 1021.00 955.37 33.00
18525 73.4939 1011.00 955.34 32.70
18526 73.4977 967.10 955.31 32.60
18527 73.5014 992.30 955.28 32.70
18528 73.5052 973.10 955.24 32.50
18529 73.5090 957.20 955.21 31.70
18530 73.5127 980.20 955.18 32.40
18531 73.5165 884.90 955.15 30.80
18532 73.5202 968.70 955.11 32.30
18533 73.5240 1002.40 955.08 32.50
18534 73.5277 981.90 955.05 32.40
18535 73.5315 954.80 955.02 32.00
18536 73.5353 983.50 954.99 32.60
18537 73.5390 966.90 954.96 32.30
18538 73.5428 991.70 954.93 32.30
18539 73.5465 1023.50 954.90 33.00
18540 73.5503 959.60 954.86 31.90
18541 73.5540 952.20 954.83 31.60
18542 73.5578 982.90 954.80 31.90
18543 73.5616 950.50 954.77 32.80
18544 73.5653 936.90 954.74 32.40
18545 73.5691 969.70 954.71 32.10
18546 73.5729 1003.30 954.68 32.80
18547 73.5766 987.80 954.65 32.50
18548 73.5804 954.90 954.62 32.30
18549 73.5841 975.00 954.59 31.90
18550 73.5879 926.00 954.57 31.90
18551 73.5916 970.70 954.54 32.30
18552 73.5954 993.00 954.51 32.60
18553 73.5992 913.70 954.48 31.30
18554 73.6029 960.10 954.45 32.30
18555 73.6067 1001.40 954.42 32.60
18556 73.6104 1004.30 954.40 32.00
18557 73.6142 938.20 954.37 31.50
18558 73.6180 956.90 954.34 32.20
18559 73.6217 921.50 954.32 31.40
18560 73.6255 955.30 954.29 31.90
18561 73.6292 956.10 954.26 31.90
18562 73.6330 961.50 954.24 31.80
18563 73.6367 953.90 954.21 32.10
18564 73.6405 1016.60 954.19 33.20
18565 73.6443 938.00 954.16 32.20
18566 73.6480 1037.00 954.14 32.10
18567 73.6518 1000.10 954.11 31.70
18568 73.6555 957.90 954.09 31.00
18569 73.6593 958.00 954.07 30.90
18570 73.6631 997.10 954.04 32.30
18571 73.6668 971.30 954.02 31.40
18572 73.6706 1008.10 954.00 31.50
18573 73.6743 956.60 953.98 31.00
18574 73.6781 967.10 953.96 31.10
18575 73.6818 946.70 953.94 31.00
18576 73.6856 942.90 953.92 31.20
18577 73.6894 939.90 953.91 30.90
18578 73.6931 1001.60 953.89 31.80
18579 73.6969 941.60 953.87 31.20
18580 73.7006 969.60 953.86 31.70
18581 73.7044 888.20 953.84 30.10
18582 73.7082 983.90 953.83 31.50
18583 73.7119 994.90 953.82 31.70
18584 73.7157 1032.20 953.81 32.70
18585 73.7194 996.80 953.80 32.00
18586 73.7232 974.50 953.79 31.60
18587 73.7270 932.00 953.78 30.90
18588 73.7307 985.80 953.78 31.80
18589 73.7345 929.40 953.77 30.70
18590 73.7382 1008.30 953.77 31.90
18591 73.7420 991.80 953.77 31.70
18592 73.7458 990.30 953.77 31.70
18593 73.7495 969.00 953.78 31.40
18594 73.7533 979.20 953.78 31.70
18595 73.7570 973.40 953.79 31.60
18596 73.7608 1038.10 953.81 32.30
18597 73.7645 996.30 953.82 32.60
18598 73.7683 952.30 953.84 31.10
18599 73.7721 919.20 953.86 30.60
18600 73.7758 1005.80 953.89 31.60
18601 73.7796 967.70 953.92 31.60
18602 73.7833 972.80 953.96 31.30
18603 73.7871 942.10 954.00 30.90
18604 73.7909 982.90 954.05 32.00
18605 73.7946 917.10 954.10 30.20
18606 73.7984 1019.90 954.17 32.50
18607 73.8021 960.90 954.24 31.60
18608 73.8059 957.90 954.32 31.10
18609 73.8097 945.90 954.41 31.00
18610 73.8134 922.10 954.52 30.70
18611 73.8172 948.10 954.64 30.90
18612 73.8209 989.30 954.77 31.80
18613 73.8247 920.00 954.92 30.60
18614 73.8285 1022.70 955.09 32.20
18615 73.8322 943.40 955.29 30.80
18616 73.8360 962.80 955.51 31.00
18617 73.8397 983.80 955.77 32.00
18618 73.8435 1049.10 956.06 32.80
18619 73.8473 963.10 956.40 31.50
18620 73.8510 972.80 956.79 31.70
18621 73.8548 977.80 957.25 31.50
18622 73.8585 1004.30 957.78 31.60
18623 73.8623 1018.40 958.40 32.90
18624 73.8661 986.10 959.14 31.90
18625 73.8698 969.40 960.02 31.50
18626 73.8736 980.60 961.07 31.60
18627 73.8773 955.10 962.36 30.80
18628 73.8811 998.90 963.93 32.00
18629 73.8848 981.90 965.87 31.80
18630 73.8886 1018.90 968.32 32.90
18631 73.8924 949.70 971.44 31.00
18632 73.8961 1002.00 975.47 32.00
18633 73.8999 1109.40 980.78 33.90
18634 73.9036 977.70 987.81 31.90
18635 73.9074 1090.10 997.12 33.40
18636 73.9112 924.70 1009.40 30.80
18637 73.9149 1042.70 1025.03 32.80
18638 73.9187 1144.70 1043.25 33.90
18639 73.9224 1040.60 1061.02 33.00
18640 73.9262 1054.40 1072.02 32.70
18641 73.9299 1119.20 1070.61 34.00
18642 73.9337 1009.60 1057.60 32.30
18643 73.9375 1081.90 1039.19 33.30
18644 73.9412 1047.40 1021.27 33.20
18645 73.9450 968.90 1006.31 31.50
18646 73.9488 1009.20 994.62 32.10
18647 73.9525 985.40 985.78 32.00
18648 73.9563 964.70 979.08 31.10
18649 73.9600 972.90 974.03 31.30
18650 73.9638 1007.90 970.13 32.70
18651 73.9676 970.80 967.10 31.60
18652 73.9713 1026.90 964.70 32.40
18653 73.9751 925.80 962.79 30.60
18654 73.9788 970.90 961.22 31.70
18655 73.9826 954.80 959.93 31.10
18656 73.9864 972.00 958.85 31.30
18657 73.9901 966.40 957.94 31.40
18658 73.9939 959.90 957.16 31.50
18659 73.9976 950.60 956.50 31.30
18660 74.0014 952.20 955.92 31.10
18661 74.0051 957.70 955.42 31.40
18662 74.0089 869.60 954.98 30.00
18663 74.0127 971.60 954.59 31.60
18664 74.0164 943.60 954.24 30.80
18665 74.0202 943.80 953.93 31.20
18666 74.0239 940.60 953.65 31.00
18667 74.0277 946.00 953.40 31.10
18668 74.0315 992.30 953.16 31.80
18669 74.0352 935.40 952.96 30.70
18670 74.0390 985.30 952.76 31.90
18671 74.0427 977.90 952.59 31.60
18672 74.0465 996.80 952.42 32.00
18673 74.0502 997.40 952.27 32.30
18674 74.0540 984.40 952.13 31.70
18675 74.0578 923.80 951.99 30.30
18676 74.0615 969.90 951.87 32.30
18677 74.0653 1015.20 951.76 32.70
18678 74.0691 946.90 951.65 30.90
18679 74.0728 960.40 951.54 31.10
18680 74.0766 959.80 951.45 31.30
18681 74.0803 1006.00 951.35 32.30
18682 74.0841 1018.40 951.26 32.20
18683 74.0879 1009.80 951.18 32.30
18684 74.0916 916.10 951.10 30.50
18685 74.0954 996.80 951.02 32.00
18686 74.0991 920.00 950.95 30.80
18687 74.1029 989.80 950.88 31.80
18688 74.1067 976.70 950.81 31.80
18689 74.1104 944.90 950.74 31.10
18690 74.1142 939.30 950.68 31.30
18691 74.1179 935.80 950.62 30.60
18692 74.1217 980.30 950.56 31.80
18693 74.1255 1011.30 950.50 32.50
18694 74.1292 1021.80 950.44 32.30
18695 74.1330 1004.00 950.39 31.80
18696 74.1367 939.80 950.33 30.80
18697 74.1405 983.50 950.28 32.00
18698 74.1442 992.10 950.23 31.50
18699 74.1480 909.10 950.18 30.20
18700 74.1518 944.20 950.13 30.80
18701 74.1555 963.90 950.08 30.90
18702 74.1593 956.20 950.04 30.80
18703 74.1630 992.70 949.99 32.40
18704 74.1668 977.00 949.95 31.60
18705 74.1706 946.90 949.90 30.80
18706 74.1743 995.50 949.86 31.80
18707 74.1781 933.00 949.82 30.90
18708 74.1818 980.60 949.77 31.50
18709 74.1856 964.90 949.73 31.10
18710 74.1894 922.40 949.69 30.50
18711 74.1931 924.60 949.65 30.70
18712 74.1969 980.40 949.61 31.60
18713 74.2006 951.40 949.57 31.10
18714 74.2044 977.30 949.53 31.70
18715 74.2082 924.10 949.50 30.50
18716 74.2119 1010.10 949.46 32.10
18717 74.2157 994.60 949.42 32.00
18718 74.2194 957.80 949.39 31.00
18719 74.2232 1002.90 949.35 31.80
18720 74.2270 975.90 949.31 31.10
18721 74.2307 1006.80 949.28 32.00
18722 74.2345 970.50 949.24 30.90
18723 74.2382 963.20 949.21 31.40
18724 74.2420 957.70 949.17 31.40
18725 74.2458 960.20 949.14 30.90
18726 74.2495 954.90 949.10 31.30
18727 74.2533 1003.60 949.07 32.10
18728 74.2570 966.00 949.03 31.20
18729 74.2608 962.80 949.00 31.20
18730 74.2646 990.40 948.97 32.40
18731 74.2683 977.00 948.94 31.70
18732 74.2721 900.40 948.90 30.50
18733 74.2758 967.90 948.87 31.00
18734 74.2796 946.80 948.84 30.80
18735 74.2833 954.10 948.81 31.30
18736 74.2871 878.80 948.78 29.80
18737 74.2909 953.10 948.74 31.10
18738 74.2946 1004.50 948.71 32.20
18739 74.2984 993.00 948.68 32.10
18740 74.3021 925.20 948.65 30.80
18741 74.3059 1016.80 948.62 32.30
18742 74.3097 986.90 948.59 31.40
18743 74.3134 968.10 948.56 31.50
18744 74.3172 975.20 948.53 31.50
18745 74.3210 965.90 948.50 31.40
18746 74.3247 981.30 948.47 31.50
18747 74.3285 944.30 948.44 31.00
18748 74.3322 916.00 948.41 30.50
18749 74.3360 940.60 948.38 31.10
18750 74.3398 979.90 948.35 31.50
18751 74.3435 950.80 948.32 31.20
18752 74.3473 1001.80 948.29 32.00
18753 74.3510 953.30 948.26 31.30
18754 74.3548 949.90 948.23 30.90
18755 74.3586 930.70 948.20 30.40
18756 74.3623 1012.50 948.17 32.30
18757 74.3661 1020.30 948.15 32.30
18758 74.3698 994.30 948.12 31.80
18759 74.3736 976.30 948.09 31.70
18760 74.3773 975.20 948.06 31.50
18761 74.3811 952.10 948.03 31.10
18762 74.3849 988.40 948.01 31.80
18763 74.3886 977.10 947.98 31.40
18764 74.3924 953.00 947.95 31.10
18765 74.3961 940.40 947.92 30.70
18766 74.3999 922.60 947.90 30.60
18767 74.4037 911.70 947.74 30.40
18768 74.4074 1004.90 947.71 31.90
18769 74.4112 977.90 947.69 31.90
18770 74.4149 967.60 947.66 31.20
18771 74.4187 923.30 947.64 30.50
18772 74.4225 1010.90 947.61 32.20
18773 74.4262 976.90 947.59 31.30
18774 74.4300 929.40 947.56 30.40
18775 74.4337 932.40 947.54 30.50
18776 74.4375 945.90 947.51 30.80
18777 74.4413 921.40 947.49 30.60
18778 74.4450 938.20 947.46 30.60
18779 74.4488 993.10 947.44 31.60
18780 74.4525 966.70 947.41 31.70
18781 74.4563 977.80 947.39 31.30
18782 74.4601 955.00 947.36 30.70
18783 74.4638 975.80 947.34 32.20
18784 74.4676 932.90 947.31 31.00
18785 74.4713 1010.10 947.29 31.70
18786 74.4751 942.80 947.27 31.10
18787 74.4789 999.60 947.24 31.90
18788 74.4826 981.90 947.22 31.60
18789 74.4864 940.10 947.19 31.00
18790 74.4901 967.20 947.17 31.10
18791 74.4939 1013.40 947.14 31.90
18792 74.4977 967.40 947.12 31.40
18793 74.5014 961.60 947.10 31.40
18794 74.5052 1023.60 947.07 31.90
18795 74.5089 940.50 947.05 30.90
18796 74.5127 957.30 947.03 30.80
18797 74.5165 980.90 947.00 31.50
18798 74.5202 997.50 946.98 32.00
18799 74.5240 945.70 946.95 31.00
18800 74.5277 980.10 946.93 31.50
18801 74.5315 970.10 946.91 31.40
18802 74.5353 945.60 946.88 30.60
18803 74.5390 943.90 946.86 30.70
18804 74.5428 971.00 946.84 31.60
18805 74.5465 961.40 946.81 31.00
18806 74.5503 945.50 946.79 31.10
18807 74.5541 1003.00 946.77 31.80
18808 74.5578 956.30 946.74 30.70
18809 74.5616 935.80 946.72 30.60
18810 74.5653 959.30 946.70 32.00
18811 74.5691 1000.80 946.67 31.50
18812 74.5729 1001.50 946.65 32.00
18813 74.5766 972.20 946.63 30.90
18814 74.5804 948.70 946.60 30.90
18815 74.5841 1014.70 946.58 32.40
18816 74.5879 1005.80 946.56 31.90
18817 74.5917 977.50 946.54 31.60
18818 74.5954 938.10 946.52 30.90
18819 74.5992 926.10 946.49 30.80
18820 74.6029 995.20 946.47 31.90
18821 74.6067 929.80 946.45 30.70
18822 74.6105 990.00 946.42 32.60
18823 74.6142 1038.30 946.40 32.90
18824 74.6180 987.30 946.38 32.50
18825 74.6217 940.90 946.36 31.50
18826 74.6255 902.20 946.34 30.80
18827 74.6293 936.60 946.31 31.70
18828 74.6330 959.40 946.29 31.90
18829 74.6368 1006.10 946.27 32.80
18830 74.6405 972.80 946.25 31.90
18831 74.6443 894.40 946.23 30.90
18832 74.6481 1032.30 946.20 33.00
18833 74.6518 939.80 946.18 31.70
18834 74.6556 1031.70 946.16 32.90
18835 74.6593 894.80 946.14 30.60
18836 74.6631 970.00 946.12 32.30
18837 74.6668 953.90 946.10 32.10
18838 74.6706 977.10 946.07 32.20
18839 74.6744 918.10 946.05 31.20
18840 74.6781 968.00 946.03 32.00
18841 74.6819 909.70 946.01 31.40
18842 74.6857 993.90 945.99 32.30
18843 74.6894 970.40 945.97 32.00
18844 74.6932 1016.10 945.95 32.50
18845 74.6969 1031.90 945.93 33.10
18846 74.7007 962.10 945.91 32.00
18847 74.7045 991.00 945.88 32.60
18848 74.7082 988.10 945.86 32.50
18849 74.7120 976.00 945.84 32.10
18850 74.7157 954.80 945.82 32.20
18851 74.7195 993.50 945.80 32.70
18852 74.7233 980.60 945.78 32.50
18853 74.7270 935.50 945.76 31.60
18854 74.7308 967.40 945.74 31.70
18855 74.7345 918.80 945.72 31.20
18856 74.7383 975.30 945.70 32.20
18857 74.7421 970.00 956.29 32.00
18858 74.7458 998.30 956.44 32.80
18859 74.7496 1011.50 956.59 32.60
18860 74.7533 1018.70 956.74 33.00
18861 74.7571 957.40 956.90 32.10
18862 74.7609 934.90 957.06 31.20
18863 74.7646 974.50 957.22 32.80
18864 74.7684 1017.40 957.40 33.10
18865 74.7721 937.10 957.57 31.70
18866 74.7759 969.40 957.75 31.70
18867 74.7796 982.20 957.94 32.30
18868 74.7834 947.90 958.13 31.80
18869 74.7872 985.50 958.32 32.80
18870 74.7909 954.50 958.53 31.90
18871 74.7947 936.40 958.73 31.30
18872 74.7984 984.90 958.95 32.50
18873 74.8022 938.80 959.17 31.70
18874 74.8060 984.40 959.39 32.10
18875 74.8097 990.00 959.63 32.10
18876 74.8135 925.60 959.86 31.60
18877 74.8173 1000.80 960.11 32.60
18878 74.8210 943.80 960.37 31.80
18879 74.8248 977.00 960.63 32.40
18880 74.8285 1018.90 960.90 33.20
18881 74.8323 1004.70 961.18 32.60
18882 74.8361 1021.60 961.46 33.20
18883 74.8398 1019.20 961.76 33.20
18884 74.8436 961.60 962.06 32.40
18885 74.8473 970.50 962.38 32.10
18886 74.8511 927.50 962.70 31.40
18887 74.8549 1009.10 963.04 32.70
18888 74.8586 1037.90 963.38 32.90
18889 74.8624 971.40 963.74 32.50
18890 74.8661 974.40 964.11 32.80
18891 74.8699 1043.50 964.49 33.30
18892 74.8736 971.50 964.89 32.10
18893 74.8774 1005.10 965.29 32.70
18894 74.8812 968.40 965.71 32.20
18895 74.8849 982.70 966.15 32.30
18896 74.8887 1016.80 966.60 33.00
18897 74.8924 972.90 967.07 32.30
18898 74.8962 962.00 967.55 32.10
18899 74.9000 944.20 968.05 31.80
18900 74.9037 1013.80 968.56 32.80
18901 74.9075 963.50 969.10 32.50
18902 74.9112 992.80 969.66 32.50
18903 74.9150 991.40 970.23 32.30
18904 74.9188 934.70 970.83 31.80
18905 74.9225 1009.80 971.45 33.10
18906 74.9263 1016.00 972.10 33.00
18907 74.9301 976.30 972.77 32.30
18908 74.9338 981.60 973.47 32.40
18909 74.9376 1023.30 974.19 33.10
18910 74.9413 1024.30 974.94 33.20
18911 74.9451 923.10 975.73 31.60
18912 74.9488 988.30 976.54 32.80
18913 74.9526 1018.20 977.40 33.20
18914 74.9564 1030.90 978.28 33.10
18915 74.9601 944.40 979.20 31.20
18916 74.9639 1063.40 980.17 34.10
18917 74.9676 995.70 981.17 33.10
18918 74.9714 981.60 982.22 32.30
18919 74.9752 1007.90 983.32 32.60
18920 74.9789 1023.30 984.47 32.70
18921 74.9827 1027.90 985.67 33.20
18922 74.9864 1011.60 986.93 32.70
18923 74.9902 1042.00 988.25 33.60
18924 74.9940 1043.70 989.63 33.50
18925 74.9977 971.30 991.08 32.60
18926 75.0015 1000.30 992.60 32.90
18927 75.0052 1015.40 994.20 32.70
18928 75.0090 1049.60 995.89 33.50
18929 75.0128 1031.70 997.66 33.50
18930 75.0165 1042.20 999.52 33.60
18931 75.0203 1043.40 1001.49 33.80
18932 75.0240 961.20 1003.56 32.50
18933 75.0278 1054.60 1005.76 33.80
18934 75.0315 1080.80 1008.06 34.10
18935 75.0353 1046.50 1010.53 33.70
18936 75.0391 1058.70 1013.12 33.60
18937 75.0428 990.70 1015.88 33.20
18938 75.0466 1058.70 1018.80 33.50
18939 75.0503 1029.10 1021.91 32.90
18940 75.0541 1054.40 1025.22 34.10
18941 75.0579 1023.90 1028.76 32.80
18942 75.0616 1008.90 1032.52 33.00
18943 75.0654 1056.30 1036.54 34.30
18944 75.0692 1020.10 1040.85 32.90
18945 75.0729 1123.80 1045.46 34.50
18946 75.0767 1059.50 1050.41 33.60
18947 75.0804 1132.60 1055.74 34.80
18948 75.0842 1077.90 1061.48 34.30
18949 75.0880 1092.60 1067.67 34.60
18950 75.0917 1114.60 1074.38 34.70
18951 75.0955 1103.20 1081.64 34.50
18952 75.0992 1109.90 1089.50 34.60
18953 75.1030 1115.70 1098.08 34.40
18954 75.1068 1113.50 1107.44 34.60
18955 75.1105 1133.70 1117.66 35.00
18956 75.1143 1186.50 1128.85 35.80
18957 75.1180 1130.80 1141.24 34.90
18958 75.1218 1187.10 1154.81 35.30
18959 75.1255 1130.40 1169.87 35.00
18960 75.1293 1187.80 1186.60 35.70
18961 75.1331 1149.70 1205.17 34.60
18962 75.1368 1245.10 1225.97 36.10
18963 75.1406 1202.70 1249.47 36.10
18964 75.1443 1240.20 1275.80 36.60
18965 75.1481 1257.30 1305.70 36.10
18966 75.1519 1331.60 1339.76 38.10
18967 75.1556 1398.30 1378.87 38.50
18968 75.1594 1403.60 1423.87 38.60
18969 75.1631 1433.70 1476.09 39.70
18970 75.1669 1580.30 1537.24 42.00
18971 75.1707 1456.60 1609.30 39.30
18972 75.1744 1697.30 1694.77 43.00
18973 75.1782 1813.10 1797.53 44.60
18974 75.1819 1978.40 1922.00 46.70
18975 75.1857 2194.20 2074.89 49.30
18976 75.1895 2282.70 2265.70 50.40
18977 75.1932 2569.70 2506.95 52.70
18978 75.1970 2960.60 2814.58 58.10
18979 75.2007 3599.50 3217.98 64.10
18980 75.2045 4198.40 3744.48 70.00
18981 75.2083 4902.30 4437.23 75.70
18982 75.2120 6230.90 5342.65 85.00
18983 75.2158 7793.70 6499.21 96.50
18984 75.2195 9233.90 7881.44 107.00
18985 75.2233 10558.10 9339.71 115.20
18986 75.2271 11217.10 10473.20 118.20
18987 75.2308 11238.50 10801.60 117.80
18988 75.2346 10253.80 10150.00 112.50
18989 75.2383 8657.60 8847.04 103.50
18990 75.2421 6983.80 7388.31 92.00
18991 75.2458 5364.30 6071.58 78.40
18992 75.2496 4276.60 5003.15 70.30
18993 75.2534 3417.40 4176.30 62.10
18994 75.2571 3003.60 3545.07 58.30
18995 75.2609 2548.00 3066.94 52.50
18996 75.2646 2327.80 2700.00 51.80
18997 75.2684 1976.20 2416.49 47.40
18998 75.2722 1857.50 2195.13 45.30
18999 75.2759 1750.70 2018.73 43.30
19000 75.2797 1659.80 1875.70 42.30
19001 75.2834 1555.80 1759.63 41.70
19002 75.2872 1494.80 1663.38 40.60
19003 75.2910 1355.30 1582.74 38.40
19004 75.2947 1407.80 1514.80 38.80
19005 75.2985 1335.20 1456.96 38.00
19006 75.3022 1314.70 1407.25 38.10
19007 75.3060 1265.30 1364.40 37.40
19008 75.3098 1236.00 1327.08 37.00
19009 75.3135 1280.50 1294.44 37.00
19010 75.3173 1216.60 1265.81 36.10
19011 75.3210 1234.60 1240.50 36.50
19012 75.3248 1139.70 1217.99 35.30
19013 75.3286 1197.10 1197.95 36.10
19014 75.3323 1112.90 1180.01 35.00
19015 75.3361 1198.30 1163.88 35.90
19016 75.3398 1108.10 1149.29 34.80
19017 75.3436 1160.80 1136.15 35.90
19018 75.3474 1145.40 1124.18 35.10
19019 75.3511 1091.70 1113.30 34.70
19020 75.3549 1102.70 1103.35 34.30
19021 75.3586 1065.40 1094.26 33.70
19022 75.3624 1001.60 1085.91 32.50
19023 75.3661 1085.70 1078.22 34.80
19024 75.3699 1041.40 1071.13 33.50
19025 75.3737 1085.30 1064.62 34.10
19026 75.3774 1058.10 1058.53 33.50
19027 75.3812 1005.50 1052.92 32.50
19028 75.3849 1077.40 1047.71 34.40
19029 75.3887 1021.90 1042.85 33.20
19030 75.3925 1035.00 1038.32 33.40
19031 75.3962 1064.20 1034.10 33.80
19032 75.4000 1030.10 1030.13 33.20
19033 75.4037 1075.30 1026.43 34.20
19034 75.4075 1054.60 1022.95 33.60
19035 75.4112 1111.40 1019.70 34.30
19036 75.4150 1111.30 1016.62 34.80
19037 75.4188 1028.20 1013.73 33.10
19038 75.4225 1053.60 1011.00 33.80
19039 75.4263 1023.90 1008.44 33.10
19040 75.4301 1010.20 1006.00 33.10
19041 75.4338 1045.20 1003.71 33.80
19042 75.4376 1013.10 1001.53 33.20
19043 75.4413 931.60 999.47 31.50
19044 75.4451 1004.20 997.51 32.60
19045 75.4489 1029.60 995.66 33.10
19046 75.4526 1042.60 993.89 33.60
19047 75.4564 1054.20 992.22 33.90
19048 75.4601 977.50 990.62 32.20
19049 75.4639 1027.20 989.10 33.50
19050 75.4676 1017.00 987.65 33.70
19051 75.4714 998.90 986.27 32.90
19052 75.4752 1013.00 984.94 32.70
19053 75.4789 1003.20 983.68 32.60
19054 75.4827 1001.80 982.47 32.40
19055 75.4864 990.90 981.32 32.40
19056 75.4902 921.20 980.21 31.70
19057 75.4940 997.40 979.15 33.00
19058 75.4977 947.30 978.14 31.90
19059 75.5015 998.50 977.17 33.00
19060 75.5052 943.70 976.23 32.00
19061 75.5090 956.20 975.33 32.20
19062 75.5127 1025.70 974.47 33.70
19063 75.5165 998.00 973.64 32.90
19064 75.5203 953.40 972.84 32.30
19065 75.5240 1001.80 972.08 33.00
19066 75.5278 927.20 971.34 31.80
19067 75.5315 983.20 970.63 32.70
19068 75.5353 971.10 969.94 32.30
19069 75.5391 989.10 969.28 32.60
19070 75.5428 937.20 968.64 32.20
19071 75.5466 969.00 968.03 32.40
19072 75.5503 943.60 967.44 31.80
19073 75.5541 990.40 966.86 32.80
19074 75.5579 994.20 966.31 32.60
19075 75.5616 932.10 965.77 31.70
19076 75.5654 948.60 965.25 32.40
19077 75.5691 1003.60 964.75 33.10
19078 75.5729 948.60 964.27 32.00
19079 75.5767 963.90 963.80 32.20
19080 75.5804 937.90 963.35 31.70
19081 75.5842 986.20 962.91 32.60
19082 75.5879 984.10 962.48 32.60
19083 75.5917 979.00 962.07 32.80
19084 75.5954 1067.00 961.67 34.40
19085 75.5992 898.80 961.28 31.20
19086 75.6030 936.00 960.90 32.10
19087 75.6067 981.80 960.54 32.80
19088 75.6105 960.60 960.18 32.30
19089 75.6142 972.80 959.84 32.30
19090 75.6180 967.80 959.50 32.20
19091 75.6218 921.70 959.17 31.40
19092 75.6255 983.80 958.86 32.80
19093 75.6293 1015.70 958.55 33.90
19094 75.6330 946.90 958.25 32.20
19095 75.6368 1011.00 957.96 32.90
19096 75.6405 925.30 957.68 31.80
19097 75.6443 1041.80 957.40 34.00
19098 75.6481 1026.30 957.14 33.50
19099 75.6518 927.00 956.88 32.10
19100 75.6556 985.60 956.62 33.20
19101 75.6593 954.40 956.37 32.60
19102 75.6631 955.70 956.13 32.30
19103 75.6669 952.80 955.90 32.20
19104 75.6706 961.00 955.67 32.50
19105 75.6744 1007.90 955.44 33.20
19106 75.6781 977.40 955.23 32.30
19107 75.6819 1003.60 955.01 33.60
19108 75.6857 1031.80 954.81 33.20
19109 75.6894 978.50 954.60 32.20
19110 75.6932 992.90 954.41 33.20
19111 75.6969 977.60 954.22 32.50
19112 75.7007 992.10 954.03 32.90
19113 75.7044 941.10 953.84 32.20
19114 75.7082 962.60 953.66 32.60
19115 75.7120 963.10 953.49 32.90
19116 75.7157 960.70 953.32 32.60
19117 75.7195 965.20 942.58 32.70
19118 75.7232 946.40 942.58 32.50
19119 75.7270 966.60 942.58 32.80
19120 75.7308 945.80 942.57 32.50
19121 75.7345 989.60 942.57 33.00
19122 75.7383 971.90 942.57 32.40
19123 75.7420 977.50 942.56 32.40
19124 75.7458 987.10 942.56 32.90
19125 75.7495 1011.20 942.56 33.10
19126 75.7533 1014.20 942.56 33.50
19127 75.7571 929.40 942.55 31.70
19128 75.7608 902.30 942.55 31.20
19129 75.7646 943.00 942.55 32.40
19130 75.7683 984.30 942.55 33.30
19131 75.7721 948.20 942.55 32.20
19132 75.7759 995.90 942.54 32.70
19133 75.7796 921.80 942.54 31.80
19134 75.7834 970.10 942.54 32.40
19135 75.7871 968.70 942.54 32.80
19136 75.7909 976.20 942.54 32.20
19137 75.7946 974.00 942.54 32.60
19138 75.7984 962.70 942.53 32.50
19139 75.8022 1030.20 942.53 33.80
19140 75.8059 944.60 942.53 32.60
19141 75.8097 949.50 942.53 32.30
19142 75.8134 967.20 942.53 32.50
19143 75.8172 909.70 942.53 31.80
19144 75.8210 964.50 942.53 32.70
19145 75.8247 981.70 942.53 32.40
19146 75.8285 974.70 942.53 32.60
19147 75.8322 938.10 942.53 32.00
19148 75.8360 891.00 942.53 31.20
19149 75.8397 945.50 942.53 31.60
19150 75.8435 905.40 942.52 31.90
19151 75.8473 964.00 942.52 32.30
19152 75.8510 1002.00 942.52 33.60
19153 75.8548 956.40 942.52 32.10
19154 75.8585 986.60 942.52 32.80
19155 75.8623 937.50 942.52 32.00
19156 75.8661 976.00 942.52 33.40
19157 75.8698 963.90 942.52 32.30
19158 75.8736 949.10 942.52 31.60
19159 75.8773 935.60 942.52 32.00
19160 75.8811 924.20 942.52 31.60
19161 75.8848 937.20 942.52 32.10
19162 75.8886 935.60 942.52 32.60
19163 75.8924 989.70 942.52 33.10
19164 75.8961 944.70 942.53 32.30
19165 75.8999 872.70 942.53 30.60
19166 75.9036 972.90 942.53 32.60
19167 75.9074 978.90 942.53 32.90
19168 75.9111 946.20 942.53 32.00
19169 75.9149 945.50 942.53 32.20
19170 75.9187 898.80 942.53 30.80
19171 75.9224 955.10 942.53 32.20
19172 75.9262 992.40 942.53 33.30
19173 75.9299 874.50 942.53 31.10
19174 75.9337 958.40 942.53 32.60
19175 75.9374 982.90 942.53 32.50
19176 75.9412 922.40 942.54 31.50
19177 75.9450 982.00 942.54 33.30
19178 75.9487 970.70 942.54 32.80
19179 75.9525 964.90 942.54 32.80
19180 75.9562 970.70 942.54 32.60
19181 75.9600 885.50 942.54 31.10
19182 75.9638 936.70 942.55 31.40
19183 75.9675 977.80 942.55 33.40
19184 75.9713 1054.60 942.55 34.30
19185 75.9750 982.30 942.55 32.80
19186 75.9788 1007.90 942.55 32.90
19187 75.9825 930.90 942.56 32.10
19188 75.9863 905.00 942.56 31.50
19189 75.9901 980.40 942.56 32.80
19190 75.9938 991.80 942.56 33.00
19191 75.9976 1037.60 942.57 33.60
19192 76.0013 972.60 942.57 32.60
19193 76.0051 998.60 942.57 32.80
19194 76.0089 978.00 942.57 32.80
19195 76.0126 927.50 942.58 31.90
19196 76.0164 871.70 942.58 31.00
19197 76.0201 965.50 942.89 32.40
19198 76.0239 963.00 942.89 32.50
19199 76.0276 942.20 942.90 32.50
19200 76.0314 933.70 942.91 32.30
19201 76.0352 1005.80 942.92 33.30
19202 76.0389 936.00 942.93 31.50
19203 76.0427 1007.00 942.93 33.30
19204 76.0464 1023.80 942.94 33.90
19205 76.0502 967.90 942.95 32.90
19206 76.0539 919.40 942.96 31.30
19207 76.0577 953.10 942.97 31.30
19208 76.0614 1009.40 942.98 32.20
19209 76.0652 970.90 942.99 32.30
19210 76.0690 967.70 943.00 31.50
19211 76.0727 1023.40 943.01 32.80
19212 76.0765 991.30 943.02 31.90
19213 76.0803 955.30 943.03 31.40
19214 76.0840 929.90 943.04 31.60
19215 76.0878 1003.80 943.05 32.20
19216 76.0915 1009.80 943.06 32.50
19217 76.0953 965.70 943.08 32.10
19218 76.0990 926.30 943.09 31.30
19219 76.1028 987.50 943.10 32.50
19220 76.1065 960.00 943.11 32.00
19221 76.1103 935.50 943.12 31.70
19222 76.1141 952.20 943.14 32.10
19223 76.1178 978.90 943.15 32.50
19224 76.1216 942.10 943.16 31.00
19225 76.1253 988.30 943.18 32.50
19226 76.1291 942.20 943.19 31.60
19227 76.1328 916.80 943.21 31.10
19228 76.1366 900.60 943.22 30.80
19229 76.1404 1013.10 943.24 32.40
19230 76.1441 927.30 943.25 31.50
19231 76.1479 914.30 943.27 31.20
19232 76.1516 980.00 943.29 31.90
19233 76.1554 959.30 943.30 32.00
19234 76.1591 939.30 943.32 31.40
19235 76.1629 907.30 943.34 30.70
19236 76.1667 976.60 943.36 33.00
19237 76.1704 981.40 943.38 32.30
19238 76.1742 969.70 943.39 32.40
19239 76.1779 906.20 943.41 31.10
19240 76.1817 958.50 943.43 31.90
19241 76.1854 987.80 943.46 32.60
19242 76.1892 947.60 943.48 31.80
19243 76.1929 972.20 943.50 32.30
19244 76.1967 968.30 943.52 32.20
19245 76.2005 1001.80 943.54 32.60
19246 76.2042 938.70 943.57 31.40
19247 76.2080 941.80 943.59 31.80
19248 76.2117 935.30 943.62 31.30
19249 76.2155 990.70 943.64 32.40
19250 76.2193 916.20 943.67 31.00
19251 76.2230 921.60 943.70 31.30
19252 76.2268 998.20 943.73 32.60
19253 76.2305 953.60 943.76 32.00
19254 76.2343 1022.40 943.78 32.90
19255 76.2380 936.70 943.82 31.80
19256 76.2418 1053.50 943.85 33.30
19257 76.2456 984.40 943.88 32.60
19258 76.2493 982.70 943.92 32.30
19259 76.2531 983.60 943.95 32.40
19260 76.2568 941.50 943.99 32.10
19261 76.2606 933.90 944.03 31.20
19262 76.2643 926.20 944.07 31.50
19263 76.2681 943.00 944.11 32.30
19264 76.2719 981.70 944.15 32.90
19265 76.2756 998.50 944.20 32.10
19266 76.2794 972.90 944.24 32.10
19267 76.2831 912.70 944.29 31.10
19268 76.2869 928.90 944.34 31.50
19269 76.2906 963.20 944.39 32.20
19270 76.2944 958.30 944.45 32.10
19271 76.2981 1010.20 944.50 32.90
19272 76.3019 939.30 944.56 31.80
19273 76.3057 986.50 944.62 32.60
19274 76.3094 914.50 944.69 31.60
19275 76.3132 976.30 944.76 32.60
19276 76.3169 930.60 944.83 31.60
19277 76.3207 986.80 944.90 32.40
19278 76.3244 1002.70 944.98 32.80
19279 76.3282 930.00 945.06 31.10
19280 76.3319 974.00 945.15 32.30
19281 76.3357 1004.40 945.24 32.70
19282 76.3395 943.80 945.34 31.60
19283 76.3432 926.60 945.44 31.80
19284 76.3470 981.30 945.55 32.30
19285 76.3507 910.30 945.66 31.60
19286 76.3545 982.70 945.78 32.70
19287 76.3583 929.40 945.91 31.50
19288 76.3620 937.90 946.05 31.20
19289 76.3658 971.30 946.20 33.00
19290 76.3695 979.90 946.35 32.40
19291 76.3733 941.40 946.52 31.50
19292 76.3770 973.50 946.70 31.90
19293 76.3808 900.20 946.89 31.10
19294 76.3845 956.20 947.10 31.90
19295 76.3883 974.00 947.32 32.40
19296 76.3921 909.60 947.56 31.10
19297 76.3958 982.10 947.83 32.10
19298 76.3996 975.90 948.11 32.10
19299 76.4033 953.30 948.42 32.20
19300 76.4071 924.40 948.76 31.50
19301 76.4108 964.00 949.12 31.90
19302 76.4146 917.90 949.53 31.40
19303 76.4184 969.50 949.98 32.20
19304 76.4221 985.50 950.47 32.80
19305 76.4259 982.70 951.02 32.80
19306 76.4296 936.90 951.63 32.30
19307 76.4334 973.70 952.32 32.70
19308 76.4371 961.80 953.09 32.30
19309 76.4409 926.60 953.95 31.90
19310 76.4446 1017.80 954.93 33.10
19311 76.4484 1008.10 956.05 33.40
19312 76.4522 924.50 957.34 31.60
19313 76.4559 995.40 958.82 32.80
19314 76.4597 1005.50 960.54 32.90
19315 76.4634 975.20 962.56 31.90
19316 76.4672 1039.00 964.95 34.10
19317 76.4709 1002.00 967.79 33.20
19318 76.4747 996.00 971.21 32.70
19319 76.4784 961.90 975.39 31.60
19320 76.4822 1010.00 980.54 33.00
19321 76.4860 961.80 987.00 32.30
19322 76.4897 944.00 995.21 31.60
19323 76.4935 1030.60 1005.79 33.50
19324 76.4972 1025.20 1019.56 32.80
19325 76.5010 1109.90 1037.56 34.50
19326 76.5047 1124.00 1060.90 35.20
19327 76.5085 1092.60 1090.78 33.50
19328 76.5122 1160.40 1127.25 35.20
19329 76.5160 1236.40 1168.42 36.50
19330 76.5198 1217.10 1206.15 36.20
19331 76.5235 1214.90 1228.26 36.30
19332 76.5273 1226.60 1224.56 36.30
19333 76.5310 1150.90 1196.86 36.50
19334 76.5348 1212.10 1157.13 35.10
19335 76.5385 1116.40 1116.83 33.70
19336 76.5423 1068.00 1082.07 32.80
19337 76.5461 1101.70 1054.07 33.70
19338 76.5498 1086.10 1032.38 33.50
19339 76.5536 994.70 1015.66 31.80
19340 76.5573 997.70 1002.85 31.90
19341 76.5611 978.00 993.02 31.40
19342 76.5648 1019.20 985.34 32.10
19343 76.5686 984.40 979.32 32.10
19344 76.5723 1032.20 974.48 32.40
19345 76.5761 950.50 970.57 30.90
19346 76.5798 968.60 967.34 31.20
19347 76.5836 927.70 964.65 30.70
19348 76.5874 940.20 962.40 30.90
19349 76.5911 965.40 960.49 31.20
19350 76.5949 983.80 958.87 31.60
19351 76.5986 989.30 957.47 31.60
19352 76.6024 1033.00 956.26 32.30
19353 76.6061 999.50 955.20 32.10
19354 76.6099 957.70 954.28 31.50
19355 76.6136 961.50 953.46 31.40
19356 76.6174 956.70 952.75 31.20
19357 76.6211 963.20 952.11 31.20
19358 76.6249 947.80 951.54 31.20
19359 76.6287 952.10 951.03 30.90
19360 76.6324 926.20 950.58 30.80
19361 76.6362 946.00 950.16 31.00
19362 76.6399 984.50 949.79 31.80
19363 76.6437 929.30 949.46 30.90
19364 76.6474 991.80 949.15 32.20
19365 76.6512 984.20 948.88 32.10
19366 76.6550 967.80 948.62 31.60
19367 76.6587 984.30 948.39 31.70
19368 76.6625 943.60 948.18 30.70
19369 76.6662 989.10 947.99 31.90
19370 76.6700 991.00 947.81 32.30
19371 76.6737 995.40 947.65 32.00
19372 76.6775 929.80 947.49 30.90
19373 76.6812 946.60 947.35 31.00
19374 76.6850 967.80 947.23 31.90
19375 76.6888 967.60 947.11 31.40
19376 76.6925 1002.30 947.00 32.00
19377 76.6963 931.10 946.90 30.90
19378 76.7000 967.20 946.80 31.10
19379 76.7038 942.50 946.71 31.20
19380 76.7075 935.60 946.63 31.20
19381 76.7113 1013.50 946.56 32.20
19382 76.7150 1009.70 946.49 32.10
19383 76.7188 977.80 946.42 31.70
19384 76.7225 983.90 946.36 31.90
19385 76.7263 931.60 946.30 31.20
19386 76.7300 1010.60 946.25 32.50
19387 76.7338 972.50 946.20 31.60
19388 76.7376 994.40 946.16 31.70
19389 76.7413 1006.10 946.12 31.90
19390 76.7451 1012.40 946.08 32.70
19391 76.7488 956.30 946.04 31.10
19392 76.7526 939.60 946.01 31.30
19393 76.7563 961.80 945.98 31.30
19394 76.7601 937.60 945.95 30.90
19395 76.7638 956.70 945.92 31.10
19396 76.7676 1014.50 945.90 32.90
19397 76.7713 997.40 945.87 32.40
19398 76.7751 969.50 945.85 32.00
19399 76.7789 969.70 945.83 31.30
19400 76.7826 957.20 945.82 31.60
19401 76.7864 909.90 945.80 31.00
19402 76.7901 969.80 945.79 31.40
19403 76.7939 990.50 945.77 31.90
19404 76.7976 985.70 945.76 32.00
19405 76.8014 968.80 945.75 31.70
19406 76.8051 974.10 945.74 32.00
19407 76.8089 949.10 945.73 31.30
19408 76.8127 992.50 945.73 31.80
19409 76.8164 964.50 945.72 31.60
19410 76.8202 941.50 945.72 31.10
19411 76.8239 945.20 945.71 31.20
19412 76.8277 983.10 945.71 31.50
19413 76.8314 924.90 945.70 31.00
19414 76.8352 906.80 945.70 30.50
19415 76.8389 969.80 945.70 31.60
19416 76.8427 934.40 945.70 31.10
19417 76.8464 937.10 945.70 31.30
19418 76.8502 971.80 945.70 31.60
19419 76.8539 948.60 945.70 31.20
19420 76.8577 1006.10 945.71 32.30
19421 76.8615 941.30 945.71 30.80
19422 76.8652 941.20 945.71 30.90
19423 76.8690 920.10 945.72 31.10
19424 76.8727 956.90 945.72 31.60
19425 76.8765 951.00 945.73 31.20
19426 76.8802 1022.10 945.73 32.20
19427 76.8840 930.90 945.74 30.80
19428 76.8877 970.70 945.74 31.60
19429 76.8915 990.80 945.75 32.30
19430 76.8952 962.60 945.76 31.50
19431 76.8990 926.20 945.77 31.30
19432 76.9027 944.20 945.77 31.70
19433 76.9065 991.70 945.78 32.30
19434 76.9102 978.60 945.79 31.80
19435 76.9140 945.20 945.80 31.40
19436 76.9178 970.00 945.81 31.70
19437 76.9215 930.60 945.82 30.90
19438 76.9253 892.30 945.83 30.50
19439 76.9290 983.50 945.84 32.10
19440 76.9328 996.10 945.85 31.80
19441 76.9365 972.10 945.86 31.30
19442 76.9403 987.50 945.87 32.00
19443 76.9440 960.10 945.89 31.70
19444 76.9478 1012.40 945.90 32.80
19445 76.9515 963.10 945.91 31.70
19446 76.9553 981.00 945.92 31.90
19447 76.9591 914.70 945.93 30.90
19448 76.9628 965.30 945.95 31.20
19449 76.9666 1014.60 945.96 32.60
19450 76.9703 997.90 945.97 32.80
19451 76.9741 1005.40 945.99 32.40
19452 76.9778 980.80 946.00 31.70
19453 76.9816 938.60 946.02 31.20
19454 76.9853 966.70 946.03 31.50
19455 76.9891 927.40 946.04 31.10
19456 76.9928 973.60 946.06 31.60
19457 76.9960 973.20 946.07 32.20
19458 76.9997 982.70 946.09 32.80
19459 77.0035 1006.70 946.10 32.10
19460 77.0072 960.60 946.12 31.90
19461 77.0110 968.10 946.13 32.10
19462 77.0148 959.70 946.15 32.00
19463 77.0185 1016.80 946.16 33.10
19464 77.0223 930.60 946.18 31.50
19465 77.0260 991.50 946.20 33.80
19466 77.0298 976.30 946.21 31.40
19467 77.0335 959.80 945.93 31.10
19468 77.0373 959.20 945.95 31.00
19469 77.0411 940.70 945.97 31.00
19470 77.0448 977.80 945.99 31.70
19471 77.0486 1000.30 946.01 31.90
19472 77.0523 949.20 946.04 31.00
19473 77.0561 1027.90 946.06 32.20
19474 77.0598 949.60 946.08 30.90
19475 77.0636 953.10 946.10 31.60
19476 77.0673 965.60 946.12 31.30
19477 77.0711 964.60 946.14 31.10
19478 77.0749 924.50 946.16 30.50
19479 77.0786 1005.60 946.19 32.00
19480 77.0824 960.10 946.21 31.20
19481 77.0861 931.40 946.23 30.70
19482 77.0899 873.50 946.25 29.80
19483 77.0936 941.30 946.27 30.80
19484 77.0974 961.30 946.29 31.10
19485 77.1011 952.20 946.32 31.30
19486 77.1049 969.30 946.34 31.70
19487 77.1087 918.30 946.36 30.70
19488 77.1124 984.30 946.38 31.70
19489 77.1162 1017.90 946.41 32.10
19490 77.1199 953.50 946.43 31.30
19491 77.1237 970.80 946.45 31.20
19492 77.1274 981.90 946.47 31.80
19493 77.1312 944.10 946.49 31.00
19494 77.1349 959.50 946.52 31.40
19495 77.1387 933.10 946.54 31.00
19496 77.1424 938.90 946.56 31.30
19497 77.1462 957.90 946.59 31.60
19498 77.1499 961.00 946.61 31.50
19499 77.1537 1035.70 946.63 32.50
19500 77.1575 947.30 946.65 30.80
19501 77.1612 1016.00 946.67 32.30
19502 77.1650 1020.40 946.70 32.70
19503 77.1687 957.00 946.72 31.40
19504 77.1725 947.10 946.74 31.20
19505 77.1762 967.50 946.77 31.40
19506 77.1800 943.30 946.79 31.50
19507 77.1837 966.60 946.81 31.40
19508 77.1875 931.60 946.84 30.80
19509 77.1913 1016.80 946.86 32.40
19510 77.1950 968.20 946.88 31.20
19511 77.1988 945.30 946.91 31.20
19512 77.2025 1044.80 946.93 33.10
19513 77.2063 996.30 946.95 31.90
19514 77.2100 924.20 946.98 30.60
19515 77.2138 934.60 947.00 31.00
19516 77.2175 940.30 947.02 31.20
19517 77.2213 908.10 947.05 30.80
19518 77.2244 965.00 947.07 31.60
19519 77.2282 948.00 947.09 31.10
19520 77.2319 937.40 947.11 31.20
19521 77.2357 954.50 947.14 31.40
19522 77.2394 960.70 947.16 31.60
19523 77.2432 915.40 947.18 30.70
19524 77.2469 947.20 947.21 31.60
19525 77.2507 963.20 947.23 31.60
19526 77.2544 906.20 947.26 30.90
19527 77.2582 909.20 947.28 30.60
19528 77.2619 971.70 947.30 31.60
19529 77.2657 991.10 947.33 32.40
19530 77.2694 920.90 947.35 31.30
19531 77.2732 948.40 947.38 31.60
19532 77.2769 985.20 947.40 32.00
19533 77.2807 997.30 947.42 32.20
19534 77.2844 968.40 947.45 31.90
19535 77.2882 989.90 947.47 32.10
19536 77.2920 971.70 956.39 32.10
19537 77.2957 948.50 956.54 31.70
19538 77.2995 1039.30 956.70 33.30
19539 77.3032 935.30 956.86 31.60
19540 77.3070 998.40 957.02 32.50
19541 77.3107 942.20 957.19 31.80
19542 77.3145 931.90 957.36 31.40
19543 77.3182 1026.20 957.53 32.90
19544 77.3220 958.30 957.71 31.70
19545 77.3257 1002.10 957.89 32.50
19546 77.3295 1027.20 958.07 33.10
19547 77.3333 1019.30 958.26 33.20
19548 77.3370 913.50 958.45 31.10
19549 77.3408 985.80 958.64 32.30
19550 77.3445 968.30 958.84 32.30
19551 77.3483 954.40 959.04 31.80
19552 77.3520 997.50 959.25 32.80
19553 77.3558 1033.10 959.46 33.40
19554 77.3595 992.90 959.68 32.30
19555 77.3633 996.70 959.90 32.00
19556 77.3670 1041.20 960.13 33.50
19557 77.3708 968.00 960.36 32.10
19558 77.3745 1008.40 960.60 32.60
19559 77.3783 1003.30 960.84 32.70
19560 77.3820 960.10 961.09 31.40
19561 77.3858 1014.90 961.34 32.10
19562 77.3895 985.10 961.61 32.60
19563 77.3933 903.80 961.87 30.90
19564 77.3971 919.60 962.15 31.10
19565 77.4008 996.70 962.43 32.70
19566 77.4046 999.10 962.72 32.40
19567 77.4083 1014.60 963.01 32.60
19568 77.4121 954.30 963.31 31.90
19569 77.4158 969.00 963.62 32.10
19570 77.4196 980.10 963.94 32.20
19571 77.4233 985.10 964.27 32.50
19572 77.4271 983.50 964.61 32.10
19573 77.4308 972.60 964.95 31.70
19574 77.4346 933.80 965.31 31.30
19575 77.4383 1025.20 965.67 32.90
19576 77.4421 1037.10 966.05 33.50
19577 77.4459 925.40 966.43 31.60
19578 77.4496 947.40 966.83 31.70
19579 77.4534 977.20 967.24 32.30
19580 77.4571 936.00 967.66 31.60
19581 77.4609 942.10 968.09 31.30
19582 77.4646 984.10 968.54 32.10
19583 77.4684 931.80 969.00 31.80
19584 77.4721 1007.80 969.48 32.90
19585 77.4759 965.10 969.97 31.90
19586 77.4796 1044.70 970.47 33.20
19587 77.4834 978.20 971.00 32.00
19588 77.4872 973.90 971.54 31.90
19589 77.4909 959.00 972.10 31.90
19590 77.4947 931.70 972.67 31.30
19591 77.4984 1018.70 973.27 32.90
19592 77.5022 1043.30 973.89 33.20
19593 77.5059 968.80 974.53 32.00
19594 77.5097 1031.60 975.19 33.30
19595 77.5134 999.10 975.88 32.50
19596 77.5172 1026.80 976.59 33.10
19597 77.5209 1013.60 977.33 32.90
19598 77.5247 982.60 978.09 32.20
19599 77.5285 942.00 978.89 31.90
19600 77.5322 985.20 979.71 32.40
19601 77.5360 1012.10 980.57 32.80
19602 77.5397 999.60 981.47 32.60
19603 77.5435 954.50 982.40 32.00
19604 77.5472 954.00 983.37 32.30
19605 77.5510 1024.40 984.37 33.40
19606 77.5547 1067.40 985.43 34.00
19607 77.5585 1009.80 986.52 32.70
19608 77.5622 1033.70 987.67 32.50
19609 77.5660 1042.70 988.86 33.70
19610 77.5697 976.50 990.11 32.40
19611 77.5735 1001.50 991.43 32.50
19612 77.5773 992.10 992.79 31.80
19613 77.5810 1060.40 994.23 33.40
19614 77.5848 1039.50 995.73 33.00
19615 77.5885 984.80 997.32 32.80
19616 77.5923 977.10 998.97 32.20
19617 77.5960 987.80 1000.72 32.70
19618 77.5998 992.50 1002.56 33.00
19619 77.6036 987.30 1004.49 32.50
19620 77.6073 996.60 1006.52 32.90
19621 77.6111 1028.00 1008.67 33.10
19622 77.6148 974.40 1010.94 32.40
19623 77.6186 1025.30 1013.34 33.20
19624 77.6223 949.50 1015.88 32.20
19625 77.6261 1080.00 1018.57 34.10
19626 77.6298 1020.30 1021.44 33.60
19627 77.6336 1079.40 1024.47 34.20
19628 77.6373 1040.00 1027.70 33.50
19629 77.6411 1070.10 1031.12 33.70
19630 77.6449 1077.80 1034.80 34.10
19631 77.6486 1055.50 1038.70 33.50
19632 77.6524 1065.40 1042.89 34.00
19633 77.6561 1079.00 1047.38 34.20
19634 77.6599 1069.20 1052.19 33.50
19635 77.6636 1060.80 1057.35 33.60
19636 77.6674 1097.60 1062.92 35.00
19637 77.6786 1153.80 1082.44 35.50
19638 77.6824 1149.80 1090.09 36.00
19639 77.6861 1143.90 1098.36 35.10
19640 77.6899 1102.00 1107.43 33.90
19641 77.6937 1176.60 1117.33 35.50
19642 77.6974 1137.40 1128.17 34.80
19643 77.7012 1187.80 1140.10 35.80
19644 77.7049 1178.40 1153.20 35.70
19645 77.7087 1170.60 1167.83 35.50
19646 77.7124 1170.40 1183.96 35.60
19647 77.7162 1179.00 1201.92 35.80
19648 77.7199 1287.70 1222.04 37.00
19649 77.7237 1225.70 1244.63 36.40
19650 77.7275 1287.20 1270.12 37.50
19651 77.7312 1302.90 1299.06 37.50
19652 77.7350 1333.50 1331.86 38.10
19653 77.7387 1400.50 1369.55 38.90
19654 77.7425 1438.90 1412.91 39.00
19655 77.7462 1417.40 1463.39 39.40
19656 77.7500 1543.70 1522.16 40.60
19657 77.7538 1671.50 1591.64 42.60
19658 77.7575 1684.60 1674.09 42.80
19659 77.7613 1842.80 1772.91 44.00
19660 77.7650 1928.10 1893.21 45.50
19661 77.7688 2205.40 2041.05 50.20
19662 77.7725 2328.90 2225.97 50.90
19663 77.7763 2585.70 2460.57 53.50
19664 77.7800 2977.10 2760.70 57.80
19665 77.7838 3475.70 3147.80 63.20
19666 77.7875 4107.30 3649.57 67.60
19667 77.7913 5027.20 4298.77 75.80
19668 77.7951 6170.50 5126.26 86.50
19669 77.7988 7348.00 6138.22 93.90
19670 77.8026 8629.70 7294.95 103.40
19671 77.8063 9704.10 8421.72 110.20
19672 77.8101 10051.40 9213.05 110.60
19673 77.8138 9736.70 9346.59 107.80
19674 77.8176 8803.90 8755.37 104.70
19675 77.8214 7374.10 7705.54 94.30
19676 77.8251 5885.30 6535.21 83.90
19677 77.8289 4759.40 5461.79 73.10
19678 77.8326 3783.80 4567.71 65.80
19679 77.8364 3150.40 3860.68 59.50
19680 77.8401 2635.50 3309.27 53.40
19681 77.8439 2391.40 2886.14 51.50
19682 77.8476 2091.80 2557.50 47.80
19683 77.8514 1946.10 2302.45 46.40
19684 77.8551 1854.70 2102.25 45.40
19685 77.8589 1619.20 1942.14 41.70
19686 77.8627 1610.20 1813.23 40.40
19687 77.8664 1563.30 1707.26 41.70
19688 77.8702 1499.90 1619.70 40.20
19689 77.8739 1391.10 1546.16 38.80
19690 77.8777 1341.10 1484.02 38.10
19691 77.8814 1290.40 1430.90 36.80
19692 77.8852 1290.80 1385.14 37.20
19693 77.8889 1206.30 1345.61 35.80
19694 77.8927 1241.70 1311.25 36.80
19695 77.8965 1231.30 1281.03 36.60
19696 77.9002 1216.20 1254.48 36.40
19697 77.9040 1312.80 1230.98 37.60
19698 77.9077 1070.50 1210.14 33.90
19699 77.9115 1156.80 1191.49 35.30
19700 77.9152 1091.40 1174.81 34.40
19701 77.9190 1128.80 1159.78 34.90
19702 77.9228 1091.90 1146.19 34.00
19703 77.9265 1106.80 1133.91 34.80
19704 77.9303 1100.20 1122.77 34.20
19705 77.9340 1076.90 1112.59 34.00
19706 77.9378 1090.50 1103.31 34.20
19707 77.9415 1078.00 1094.81 33.70
19708 77.9453 1113.80 1087.01 34.60
19709 77.9491 1125.90 1079.85 34.30
19710 77.9528 1098.80 1073.23 34.40
19711 77.9566 1051.90 1067.09 33.30
19712 77.9603 1077.10 1061.45 34.00
19713 77.9641 1065.50 1056.20 32.70
19714 77.9678 1097.60 1051.32 34.50
19715 77.9716 1067.60 1046.78 33.30
19716 77.9753 1047.60 1042.55 33.50
19717 77.9791 1067.00 1038.60 33.80
19718 77.9829 1037.80 1034.90 32.70
19719 77.9866 1061.20 1031.46 33.70
19720 77.9904 1054.90 1028.21 33.50
19721 77.9941 1064.20 1025.17 33.30
19722 77.9979 1039.00 1022.31 32.50
19723 78.0129 1006.00 1012.42 32.60
19724 78.0167 1071.00 1010.29 33.60
19725 78.0204 1013.60 1008.26 32.70
19726 78.0242 1073.50 1006.35 34.00
19727 78.0279 991.00 1004.54 32.50
19728 78.0317 994.40 1002.82 32.50
19729 78.0355 978.50 1001.18 32.20
19730 78.0392 1008.80 999.63 32.60
19731 78.0430 999.00 998.15 32.40
19732 78.0467 953.10 996.76 31.90
19733 78.0505 942.10 995.41 31.90
19734 78.0542 1023.70 994.14 33.20
19735 78.0580 1015.90 992.92 32.90
19736 78.0617 1049.60 991.76 33.30
19737 78.0655 997.00 990.65 32.30
19738 78.0693 1028.30 989.59 33.40
19739 78.0730 962.70 988.58 32.00
19740 78.0768 1031.60 987.61 33.00
19741 78.0805 1019.90 986.68 32.80
19742 78.0843 1000.40 985.79 32.40
19743 78.0880 985.80 984.94 32.50
19744 78.0918 977.80 984.12 32.40
19745 78.0956 1023.60 983.34 33.20
19746 78.0993 985.20 982.59 32.10
19747 78.1031 1015.30 981.87 33.00
19748 78.1068 1033.40 981.17 33.40
19749 78.1106 1031.00 980.51 33.20
19750 78.1143 923.90 979.87 31.30
19751 78.1181 1027.00 979.25 33.20
19752 78.1218 1018.70 978.66 32.90
19753 78.1256 1044.10 978.09 33.10
19754 78.1294 972.10 977.53 32.00
19755 78.1331 995.50 977.01 32.70
19756 78.1369 1023.00 976.49 33.10
19757 78.1406 968.70 976.00 32.10
19758 78.1444 973.40 975.53 31.90
19759 78.1481 972.00 975.07 32.00
19760 78.1519 995.00 974.62 32.60
19761 78.1557 1005.60 974.20 32.80
19762 78.1594 999.50 973.78 32.80
19763 78.1632 978.00 973.39 32.20
19764 78.1669 963.60 973.00 32.40
19765 78.1707 957.90 972.63 31.90
19766 78.1745 943.70 972.27 31.50
19767 78.1782 1007.30 971.92 32.40
19768 78.1820 994.60 971.58 32.40
19769 78.1857 1006.50 971.26 32.70
19770 78.1895 1026.90 970.94 33.10
19771 78.1932 999.00 970.64 32.40
19772 78.1970 973.40 970.34 31.70
19773 78.2007 927.70 970.05 31.20
19774 78.2045 988.70 969.77 32.20
19775 78.2083 979.40 969.51 32.40
19776 78.2120 1029.80 969.24 33.00
19777 78.2158 997.10 968.99 32.50
19778 78.2195 982.80 968.74 32.50
19779 78.2233 1021.50 968.51 32.50
19780 78.2270 1004.80 968.28 32.70
19781 78.2308 949.80 968.05 31.70
19782 78.2346 973.80 967.84 32.30
19783 78.2383 974.20 967.62 31.70
19784 78.2421 927.30 967.42 31.10
19785 78.2458 925.60 967.22 31.40
19786 78.2496 1005.70 967.03 32.40
19787 78.2533 952.40 966.84 32.10
19788 78.2571 990.20 966.66 32.30
19789 78.2609 905.40 966.48 30.60
19790 78.2646 973.40 966.31 31.60
19791 78.2684 985.30 966.14 33.00
19792 78.2721 950.20 965.98 31.80
19793 78.2759 956.80 965.82 31.80
19794 78.2796 991.70 965.66 32.10
19795 78.2834 990.70 965.52 32.10
19796 78.2872 956.80 965.37 31.80
19797 78.2909 977.10 965.23 32.50
19798 78.2947 963.90 965.09 32.10
19799 78.2984 1016.60 964.96 32.50
19800 78.3022 960.10 964.83 32.00
19801 78.3059 986.70 964.70 31.80
19802 78.3097 979.80 964.58 32.20
19803 78.3135 965.70 964.46 32.00
19804 78.3172 947.60 964.34 31.60
19805 78.3210 968.20 964.22 32.00
19806 78.3247 1053.90 964.11 33.50
19807 78.3285 975.30 964.01 32.20
19808 78.3323 972.50 963.90 32.20
19809 78.3360 910.90 954.99 30.90
19810 78.3398 969.60 955.02 32.10
19811 78.3435 927.00 955.04 31.10
19812 78.3473 932.30 955.07 31.50
19813 78.3510 975.40 955.09 32.10
19814 78.3548 974.60 955.12 32.10
19815 78.3586 896.20 955.14 31.10
19816 78.3623 975.20 955.17 31.90
19817 78.3661 925.90 955.19 31.40
19818 78.3698 1047.40 955.22 33.50
19819 78.3736 983.50 955.24 32.20
19820 78.3773 955.10 955.27 31.50
19821 78.3811 970.10 955.29 32.10
19822 78.3849 1009.00 955.32 33.10
19823 78.3886 1002.00 955.34 32.80
19824 78.3924 967.80 955.37 32.00
19825 78.3961 968.60 955.39 31.70
19826 78.3999 1024.30 955.42 33.10
19827 78.4036 949.50 955.44 31.60
19828 78.4074 919.20 955.46 31.30
19829 78.4112 995.40 955.49 32.30
19830 78.4149 952.00 955.51 31.60
19831 78.4187 907.70 955.54 31.10
19832 78.4224 918.80 955.56 31.20
19833 78.4262 943.00 955.59 31.10
19834 78.4299 1036.30 955.61 33.50
19835 78.4337 984.50 955.63 32.00
19836 78.4375 908.80 955.66 31.20
19837 78.4412 991.00 955.68 31.70
19838 78.4450 985.30 955.70 32.40
19839 78.4487 947.10 955.73 31.30
19840 78.4525 1013.30 955.75 32.90
19841 78.4563 988.80 955.77 32.20
19842 78.4600 935.30 955.80 31.70
19843 78.4638 1004.90 955.82 32.50
19844 78.4675 999.40 955.84 33.00
19845 78.4713 989.40 955.87 32.30
19846 78.4750 950.80 955.89 31.20
19847 78.4788 961.20 955.91 31.90
19848 78.4826 957.80 955.94 32.20
19849 78.4863 991.20 955.96 32.40
19850 78.4901 967.90 955.98 32.20
19851 78.4938 1032.80 956.01 33.20
19852 78.4976 938.10 956.03 31.50
19853 78.5014 906.40 956.05 31.10
19854 78.5051 991.40 956.07 32.50
19855 78.5089 921.20 956.09 31.20
19856 78.5126 952.10 956.12 31.80
19857 78.5164 996.00 956.14 32.60
19858 78.5201 988.20 956.16 32.50
19859 78.5239 951.90 956.18 31.50
19860 78.5277 979.10 956.21 32.20
19861 78.5314 953.50 956.23 32.00
19862 78.5352 985.70 956.25 32.50
19863 78.5389 984.60 956.27 32.60
19864 78.5427 981.70 956.29 32.40
19865 78.5464 945.70 956.32 31.90
19866 78.5502 933.60 956.34 31.20
19867 78.5540 947.00 956.36 31.60
19868 78.5577 938.10 956.43 31.60
19869 78.5615 984.10 956.45 32.20
19870 78.5652 934.00 956.48 31.10
19871 78.5690 983.10 956.50 33.40
19872 78.5727 960.40 956.52 32.20
19873 78.5765 959.20 956.54 31.80
19874 78.5803 947.80 956.56 31.70
19875 78.5840 966.90 956.59 32.30
19876 78.5878 958.10 956.61 32.00
19877 78.5915 997.00 956.63 32.00
19878 78.5953 964.40 956.65 31.90
19879 78.5991 939.40 956.67 31.50
19880 78.6028 992.20 956.69 32.50
19881 78.6066 1024.70 956.71 33.20
19882 78.6103 1025.10 956.74 33.00
19883 78.6141 998.60 956.76 32.40
19884 78.6179 1016.90 956.78 32.70
19885 78.6216 965.80 956.80 31.80
19886 78.6254 926.70 956.82 31.30
19887 78.6291 928.50 956.84 31.50
19888 78.6329 944.60 956.86 31.70
19889 78.6366 957.60 956.88 32.10
19890 78.6404 983.80 956.90 32.50
19891 78.6442 905.50 956.92 31.20
19892 78.6479 973.00 956.95 32.40
19893 78.6517 948.30 956.97 31.80
19894 78.6554 952.80 956.99 32.10
19895 78.6592 997.80 957.01 32.90
19896 78.6629 967.30 957.03 32.30
19897 78.6667 903.10 957.05 30.50
19898 78.6705 986.90 957.07 33.30
19899 78.6742 1003.00 957.09 32.70
19900 78.6780 948.10 957.11 31.70
19901 78.6817 994.70 957.13 32.30
19902 78.6855 899.30 957.15 31.00
19903 78.6892 1006.00 957.17 31.10
19904 78.6968 982.80 957.21 30.70
19905 78.7005 941.00 957.23 31.80
19906 78.7043 996.10 957.25 32.40
19907 78.7081 957.40 957.27 32.00
19908 78.7118 1046.20 957.29 33.50
19909 78.7156 996.20 957.30 32.60
19910 78.7193 975.30 957.33 32.20
19911 78.7231 981.80 957.34 32.70
19912 78.7268 963.80 957.36 31.90
19913 78.7306 927.90 957.38 31.40
19914 78.7344 934.20 957.40 31.50
19915 78.7381 953.60 957.42 32.30
19916 78.7419 962.20 957.44 32.10
19917 78.7456 958.80 957.46 32.20
19918 78.7494 996.00 957.48 33.00
19919 78.7532 920.30 957.50 31.40
19920 78.7569 987.90 957.52 32.90
19921 78.7607 977.80 957.54 32.10
19922 78.7644 909.20 957.56 30.40
19923 78.7682 966.00 957.58 32.10
19924 78.7719 1010.70 957.59 33.40
19925 78.7757 993.00 957.61 32.80
19926 78.7795 1045.90 957.63 33.40
19927 78.7832 969.30 957.65 32.30
19928 78.7870 944.00 957.67 31.80
19929 78.7907 954.20 957.69 32.00
19930 78.7945 963.70 957.71 32.30
19931 78.7983 916.60 957.73 31.40
19932 78.8020 980.50 957.75 32.40
19933 78.8058 1007.40 957.77 33.00
19934 78.8095 957.20 957.79 31.80
19935 78.8133 964.10 957.81 32.40
19936 78.8170 962.30 957.83 32.00
19937 78.8208 1004.90 957.85 32.90
19938 78.8246 947.80 957.86 31.90
19939 78.8283 962.80 957.89 32.00
19940 78.8321 954.80 957.91 31.90
19941 78.8358 987.00 957.92 32.60
19942 78.8396 947.10 957.95 31.50
19943 78.8434 965.30 957.97 32.20
19944 78.8471 939.30 957.99 31.30
19945 78.8509 997.60 958.01 32.80
19946 78.8546 1015.60 958.03 33.00
19947 78.8584 978.00 958.05 32.30
19948 78.8622 937.00 958.07 31.60
19949 78.8659 908.40 958.09 30.40
19950 78.8697 925.90 958.11 32.00
19951 78.8734 957.40 958.14 31.90
19952 78.8772 882.00 958.16 30.40
19953 78.8809 954.40 958.18 31.70
19954 78.8847 958.50 958.21 32.00
19955 78.8885 955.50 958.23 31.90
19956 78.8922 933.40 958.26 31.40
19957 78.8960 963.60 958.28 31.80
19958 78.8997 948.90 958.31 31.90
19959 78.9035 949.00 958.33 31.40
19960 78.9073 943.20 958.36 31.70
19961 78.9110 910.80 958.39 31.00
19962 78.9148 959.10 958.42 32.10
19963 78.9185 934.80 958.45 31.30
19964 78.9223 943.60 958.48 31.60
19965 78.9260 1001.00 958.51 32.80
19966 78.9298 968.80 958.55 32.00
19967 78.9336 922.20 958.58 30.40
19968 78.9373 897.20 958.62 30.70
19969 78.9411 963.70 958.66 31.50
19970 78.9448 964.40 958.70 31.80
19971 78.9486 946.50 958.74 32.10
19972 78.9524 973.60 958.79 32.20
19973 78.9561 914.20 958.84 31.30
19974 78.9599 927.40 958.89 31.50
19975 78.9636 944.20 958.95 31.10
19976 78.9674 937.70 959.01 31.60
19977 78.9712 924.10 959.07 31.90
19978 78.9749 980.50 959.14 32.10
19979 78.9787 991.30 959.21 31.90
19980 78.9824 998.20 959.29 33.00
19981 78.9862 914.50 959.38 31.30
19982 78.9900 905.30 959.48 31.10
19983 78.9937 987.70 959.58 32.70
19984 78.9975 964.50 959.70 31.90
19985 79.0012 914.60 959.83 31.40
19986 79.0050 927.00 959.97 31.40
19987 79.0087 907.00 960.13 31.10
19988 79.0125 964.10 960.32 32.00
19989 79.0163 972.70 960.52 32.20
19990 79.0200 961.00 960.76 31.70
19991 79.0238 926.00 961.02 31.30
19992 79.0275 930.50 961.33 31.30
19993 79.0313 949.00 961.70 32.00
19994 79.0351 958.80 962.12 31.60
19995 79.0388 944.80 962.62 31.80
19996 79.0426 949.00 963.22 31.70
19997 79.0463 930.60 963.95 31.30
19998 79.0501 933.10 964.84 31.50
19999 79.0539 907.00 965.96 31.50
20000 79.0576 920.20 967.37 31.40
20001 79.0614 966.40 969.17 31.70
20002 79.0651 938.70 971.49 31.10
20003 79.0689 932.00 974.46 31.90
20004 79.0726 958.10 978.28 32.10
20005 79.0764 964.00 983.07 32.00
20006 79.0802 987.70 988.89 32.40
20007 79.0839 1015.50 995.42 32.80
20008 79.0877 1035.60 1001.76 32.70
20009 79.0915 970.50 1006.25 32.00
20010 79.0952 982.10 1007.14 32.30
20011 79.0990 1018.60 1004.07 33.10
20012 79.1027 1007.70 998.30 32.90
20013 79.1065 998.90 991.69 32.20
20014 79.1102 935.70 985.51 30.90
20015 79.1140 900.30 980.27 31.00
20016 79.1178 987.30 976.04 32.30
20017 79.1215 951.70 972.74 32.00
20018 79.1253 993.50 970.16 33.00
20019 79.1290 958.00 968.15 31.90
20020 79.1328 984.30 966.60 32.10
20021 79.1366 946.90 965.37 31.60
20022 79.1403 909.50 964.39 30.90
20023 79.1441 955.40 963.60 31.60
20024 79.1478 952.80 962.96 31.90
20025 79.1516 925.30 962.42 30.80
20026 79.1553 1006.70 961.97 32.60
20027 79.1591 901.90 961.59 31.00
20028 79.1629 893.00 961.27 30.50
20029 79.1666 991.50 960.99 31.90
20030 79.1704 970.90 960.75 32.60
20031 79.1741 861.70 960.54 30.10
20032 79.1779 909.90 960.35 30.80
20033 79.1817 938.20 960.19 31.30
20034 79.1854 949.70 960.04 31.60
20035 79.1892 932.10 959.91 31.20
20036 79.1929 922.40 959.80 31.10
20037 79.1967 949.10 959.69 31.70
20038 79.2004 890.10 959.60 30.50
20039 79.2042 914.50 959.51 31.20
20040 79.2080 932.90 959.44 31.60
20041 79.2117 922.80 959.37 31.20
20042 79.2155 953.30 959.30 31.60
20043 79.2193 901.80 959.24 30.90
20044 79.2230 960.70 959.18 31.90
20045 79.2268 930.50 959.13 31.30
20046 79.2305 954.70 959.09 31.60
20047 79.2343 936.50 959.04 31.40
20048 79.2381 930.40 959.00 31.40
20049 79.2418 930.60 958.96 31.30
20050 79.2456 968.40 958.92 32.00
20051 79.2493 999.00 958.89 32.80
20052 79.2531 932.70 958.86 31.80
20053 79.2568 920.50 958.83 31.50
20054 79.2606 949.70 958.79 31.70
20055 79.2644 1035.10 958.77 32.70
20056 79.2681 943.70 958.74 31.60
20057 79.2719 903.30 958.71 31.30
20058 79.2756 920.50 958.69 31.20
20059 79.2794 918.30 958.66 30.90
20060 79.2832 947.50 958.64 31.50
20061 79.2869 914.70 958.62 30.70
20062 79.2907 974.20 958.60 32.30
20063 79.2944 929.10 958.58 31.30
20064 79.2982 938.00 958.55 31.70
20065 79.3020 918.10 958.53 31.10
20066 79.3057 917.00 958.51 31.20
20067 79.3095 914.80 958.49 31.20
20068 79.3132 893.80 958.47 30.80
20069 79.3170 891.20 958.46 30.80
20070 79.3207 961.50 958.44 32.00
20071 79.3245 879.80 958.42 30.60
20072 79.3283 934.10 958.40 31.80
20073 79.3320 968.80 958.38 32.20
20074 79.3358 967.40 958.36 32.20
20075 79.3395 918.90 958.35 31.10
20076 79.3433 964.30 958.33 32.00
20077 79.3471 945.40 958.31 31.70
20078 79.3508 943.10 958.29 31.60
20079 79.3546 962.80 958.28 31.90
20080 79.3583 890.00 958.26 30.60
20081 79.3621 954.20 958.24 31.50
20082 79.3659 931.40 958.22 30.80
20083 79.3696 961.50 958.21 32.40
20084 79.3734 906.70 958.19 31.00
20085 79.3771 925.90 958.17 31.10
20086 79.3809 915.40 958.16 31.30
20087 79.3847 971.20 958.14 32.00
20088 79.3884 943.70 958.12 31.70
20089 79.3922 959.00 958.10 31.60
20090 79.3959 893.90 958.09 30.80
20091 79.3997 896.60 958.07 31.00
20092 79.4035 894.90 958.05 30.80
20093 79.4072 987.60 958.03 32.30
20094 79.4110 912.70 958.01 31.10
20095 79.4147 964.90 957.99 31.90
20096 79.4185 928.20 957.97 31.40
20097 79.4223 961.00 957.96 31.40
20098 79.4260 930.90 957.94 31.10
20099 79.4298 950.30 957.92 31.90
20100 79.4335 919.30 957.90 31.40
20101 79.4373 881.20 957.88 30.60
20102 79.4410 912.70 957.86 31.00
20103 79.4448 913.50 957.84 31.00
20104 79.4486 909.40 957.82 30.60
20105 79.4523 923.80 957.80 31.30
20106 79.4561 904.10 957.78 30.90
20107 79.4598 922.70 957.76 31.30
20108 79.4636 926.80 957.74 31.20
20109 79.4674 908.60 957.72 31.10
20110 79.4711 930.60 957.70 31.90
20111 79.4749 955.60 957.68 32.00
20112 79.4786 857.20 957.66 30.10
20113 79.4824 973.60 957.63 32.30
20114 79.4862 935.40 957.61 31.30
20115 79.4899 927.20 957.59 31.50
20116 79.4937 1014.80 957.57 32.90
20117 79.4974 934.70 957.54 31.30
20118 79.5012 930.50 957.52 31.20
20119 79.5050 978.50 957.50 32.00
20120 79.5087 873.60 957.48 30.90
20121 79.5125 899.80 957.45 31.10
20122 79.5162 926.00 957.43 31.40
20123 79.5200 956.70 957.41 32.00
20124 79.5238 969.80 957.38 32.30
20125 79.5275 919.60 957.36 31.20
20126 79.5313 932.00 957.33 31.30
20127 79.5350 942.40 957.31 31.60
20128 79.5388 947.10 957.28 31.70
20129 79.5425 944.50 957.26 31.30
20130 79.5463 989.00 957.23 32.50
20131 79.5501 928.40 957.20 31.30
20132 79.5538 926.10 957.18 31.60
20133 79.5576 953.10 957.15 31.80
20134 79.5613 948.80 957.12 31.60
20135 79.5651 910.40 957.10 30.60
20136 79.5689 871.00 957.07 31.10
20137 79.5726 946.20 957.04 31.90
20138 79.5764 966.70 957.02 32.00
20139 79.5801 971.60 956.99 31.60
20140 79.5839 916.10 956.96 31.20
20141 79.5877 918.90 956.93 31.50
20142 79.5914 911.70 956.90 31.20
20143 79.5952 933.00 956.87 31.50
20144 79.5989 974.00 956.84 32.20
20145 79.6027 982.40 956.81 32.10
20146 79.6065 981.80 956.78 32.30
20147 79.6102 938.00 956.75 31.70
20148 79.6140 928.10 956.72 31.20
20149 79.6177 906.00 956.69 30.60
20150 79.6215 1021.50 956.66 32.90
20151 79.6253 885.60 956.63 30.60
20152 79.6290 930.60 956.59 31.20
20153 79.6328 919.50 956.51 31.10
20154 79.6365 917.30 956.48 30.80
20155 79.6403 908.20 956.45 30.70
20156 79.6441 914.10 956.42 30.80
20157 79.6478 911.40 956.38 30.20
20158 79.6516 973.00 956.35 31.70
20159 79.6553 995.50 956.32 32.60
20160 79.6591 964.10 956.28 31.70
20161 79.6628 941.00 956.25 31.30
20162 79.6666 966.10 956.22 31.50
20163 79.6704 937.70 956.18 31.90
20164 79.6741 923.10 956.15 31.20
20165 79.6779 895.40 956.11 30.80
20166 79.6816 944.70 956.07 31.40
20167 79.6854 923.10 956.04 31.00
20168 79.6892 917.10 956.00 30.80
20169 79.6929 966.50 955.97 31.70
20170 79.6967 985.20 955.93 31.90
20171 79.7004 958.10 955.89 31.00
20172 79.7042 891.30 955.85 30.60
20173 79.7080 926.20 955.82 31.20
20174 79.7117 892.20 955.78 30.60
20175 79.7155 974.30 955.74 32.00
20176 79.7192 954.20 955.70 31.20
20177 79.7230 914.40 955.66 31.20
20178 79.7268 989.40 955.62 32.10
20179 79.7305 997.30 955.58 32.50
20180 79.7343 938.20 955.54 31.40
20181 79.7380 917.20 955.50 30.80
20182 79.7418 889.00 955.46 30.20
20183 79.7456 917.00 955.42 30.70
20184 79.7493 918.00 955.38 30.90
20185 79.7531 931.70 955.33 30.80
20186 79.7568 972.20 955.29 32.00
20187 79.7606 872.80 955.25 30.10
20188 79.7644 929.60 955.21 31.00
20189 79.7681 938.10 955.16 31.10
20190 79.7719 903.60 955.12 30.90
20191 79.7756 907.90 955.07 31.00
20192 79.7794 930.50 955.03 31.10
20193 79.7831 961.00 954.98 31.60
20194 79.7869 921.20 954.94 31.00
20195 79.7907 1014.50 954.89 32.10
20196 79.7944 954.40 954.85 31.40
20197 79.7982 914.70 954.80 30.90
20198 79.8019 965.40 954.75 31.80
20199 79.8057 977.50 954.71 31.80
20200 79.8095 938.30 954.66 31.40
20201 79.8132 921.60 954.61 31.00
20202 79.8170 967.70 965.08 31.70
20203 79.8207 939.70 965.18 31.10
20204 79.8245 878.40 965.28 30.40
20205 79.8283 908.80 965.38 30.80
20206 79.8320 925.60 965.48 31.10
20207 79.8358 936.70 965.59 31.10
20208 79.8395 916.70 965.70 31.10
20209 79.8433 953.60 965.81 31.30
20210 79.8471 953.90 965.93 31.60
20211 79.8508 949.30 966.04 31.80
20212 79.8546 1020.50 966.17 32.40
20213 79.8583 929.10 966.29 31.10
20214 79.8621 921.70 966.42 30.60
20215 79.8659 968.10 966.56 31.30
20216 79.8696 935.60 966.69 31.30
20217 79.8734 966.10 966.83 32.10
20218 79.8771 882.20 966.98 30.20
20219 79.8809 938.90 967.13 31.20
20220 79.8847 987.30 967.28 31.80
20221 79.8884 926.30 967.44 31.00
20222 79.8922 935.40 967.60 31.40
20223 79.8959 934.50 967.77 30.70
20224 79.8997 968.20 967.94 31.50
20225 79.9035 959.80 968.12 31.60
20226 79.9072 957.80 968.30 31.50
20227 79.9110 961.40 968.49 31.90
20228 79.9147 891.70 968.69 30.60
20229 79.9185 944.60 968.89 31.00
20230 79.9222 903.40 969.09 30.80
20231 79.9260 895.00 969.31 30.80
20232 79.9298 907.00 969.53 30.90
20233 79.9335 926.80 969.75 31.20
20234 79.9373 927.60 969.98 31.10
20235 79.9410 901.20 970.22 31.00
20236 79.9448 966.20 970.47 32.20
20237 79.9485 902.50 970.73 30.90
20238 79.9523 959.20 970.99 31.50
20239 79.9561 956.40 971.27 32.10
20240 79.9598 1025.00 971.55 32.80
20241 79.9636 921.90 971.84 31.00
20242 79.9673 929.10 972.14 31.00
20243 79.9711 909.80 972.45 31.30
20244 79.9749 929.40 972.77 31.20
20245 79.9786 946.10 973.10 31.60
20246 79.9824 953.90 973.44 31.70
20247 79.9862 976.50 973.79 31.80
20248 79.9899 1015.90 974.16 32.30
20249 79.9937 962.50 974.54 31.30
20250 79.9974 904.80 974.93 31.00
20251 80.0012 963.40 975.34 31.30
20252 80.0049 968.60 975.75 31.70
20253 80.0087 1004.80 976.19 32.50
20254 80.0125 970.00 976.64 31.40
20255 80.0162 948.50 977.10 31.50
20256 80.0200 956.30 977.59 31.60
20257 80.0237 951.60 978.09 31.60
20258 80.0275 966.90 978.60 31.90
20259 80.0313 977.70 979.14 32.00
20260 80.0350 930.50 979.70 30.90
20261 80.0388 970.50 980.28 32.50
20262 80.0425 928.80 980.88 31.00
20263 80.0463 933.20 981.50 30.80
20264 80.0501 963.20 982.15 31.40
20265 80.0538 960.30 982.82 31.20
20266 80.0576 982.40 983.52 32.30
20267 80.0613 1009.60 984.25 32.60
20268 80.0651 1032.80 985.01 32.50
20269 80.0688 985.10 985.79 32.40
20270 80.0726 896.50 986.61 31.00
20271 80.0764 994.60 987.47 32.10
20272 80.0801 975.70 988.35 31.90
20273 80.0839 959.80 989.28 31.50
20274 80.0876 932.10 990.25 31.50
20275 80.0914 968.10 991.26 32.30
20276 80.0952 1014.90 992.31 32.30
20277 80.0989 962.90 993.41 32.00
20278 80.1027 963.90 994.56 32.10
20279 80.1064 998.90 995.76 32.50
20280 80.1102 961.00 997.01 32.00
20281 80.1140 973.10 998.33 32.30
20282 80.1177 1020.80 999.70 33.00
20283 80.1215 947.10 1001.14 32.20
20284 80.1252 994.60 1002.66 32.80
20285 80.1290 1062.30 1004.24 33.70
20286 80.1328 980.10 1005.90 32.30
20287 80.1365 954.80 1007.65 32.10
20288 80.1403 981.10 1009.49 32.60
20289 80.1440 1035.30 1011.42 33.00
20290 80.1478 976.70 1013.46 31.90
20291 80.1516 987.90 1015.60 32.40
20292 80.1553 1037.00 1017.86 33.70
20293 80.1591 980.80 1020.24 32.70
20294 80.1628 1005.70 1022.77 32.90
20295 80.1666 999.90 1025.43 32.20
20296 80.1703 1035.20 1028.24 33.70
20297 80.1741 1031.60 1031.23 33.30
20298 80.1779 1012.20 1034.39 32.40
20299 80.1816 1065.40 1037.74 33.30
20300 80.1854 1045.80 1041.31 33.80
20301 80.1891 1016.40 1045.10 33.10
20302 80.1929 1045.20 1049.14 33.20
20303 80.1966 1024.10 1053.42 33.20
20304 80.2004 1088.50 1058.04 34.30
20305 80.2042 1049.40 1062.94 33.90
20306 80.2079 1064.80 1068.18 33.30
20307 80.2117 1072.20 1073.82 34.00
20308 80.2154 1080.20 1079.88 34.20
20309 80.2192 1072.00 1086.36 33.80
20310 80.2230 1100.30 1093.37 34.80
20311 80.2267 1053.50 1100.94 33.20
20312 80.2305 1049.70 1109.10 33.60
20313 80.2342 1124.30 1117.92 35.10
20314 80.2380 1102.40 1127.57 34.60
20315 80.2418 1103.80 1137.98 34.70
20316 80.2455 1106.90 1149.35 34.40
20317 80.2493 1190.30 1161.80 36.00
20318 80.2530 1131.90 1175.41 34.90
20319 80.2568 1155.10 1190.36 35.30
20320 80.2606 1146.30 1206.86 35.00
20321 80.2643 1252.40 1225.05 36.80
20322 80.2681 1233.30 1245.22 36.00
20323 80.2718 1304.10 1267.60 38.40
20324 80.2756 1344.90 1292.77 38.10
20325 80.2794 1302.20 1320.77 37.10
20326 80.2831 1363.40 1352.34 38.20
20327 80.2869 1367.60 1388.09 37.70
20328 80.2906 1395.40 1428.70 38.80
20329 80.2944 1461.00 1474.90 40.00
20330 80.2981 1563.30 1528.13 41.10
20331 80.3019 1575.90 1589.53 41.60
20332 80.3057 1682.10 1660.94 43.10
20333 80.3094 1820.50 1744.66 44.40
20334 80.3132 1848.30 1843.88 45.40
20335 80.3169 2014.80 1962.23 47.20
20336 80.3207 2146.30 2105.59 49.20
20337 80.3244 2472.70 2280.12 52.40
20338 80.3282 2690.40 2498.70 55.10
20339 80.3320 2970.50 2771.99 57.70
20340 80.3357 3551.90 3118.92 62.30
20341 80.3395 3976.60 3562.29 68.20
20342 80.3432 4842.70 4131.02 75.50
20343 80.3470 6040.70 4852.94 84.80
20344 80.3508 7024.50 5763.17 91.00
20345 80.3545 8695.00 6874.10 103.30
20346 80.3583 10383.70 8149.47 113.60
20347 80.3620 11528.00 9467.31 120.60
20348 80.3658 12227.10 10561.60 122.20
20349 80.3696 12537.80 11070.90 127.20
20350 80.3733 11538.70 10798.10 121.40
20351 80.3771 10098.20 9852.91 110.50
20352 80.3808 8197.30 8571.49 99.30
20353 80.3846 6503.40 7260.83 87.00
20354 80.3884 5020.50 6089.67 76.50
20355 80.3921 4051.20 5119.55 68.30
20356 80.3959 3510.30 4338.89 63.20
20357 80.3996 3064.50 3726.31 58.00
20358 80.4034 2613.50 3245.62 53.80
20359 80.4072 2336.10 2870.03 50.80
20360 80.4109 2164.00 2575.00 48.90
20361 80.4147 2053.60 2342.20 47.70
20362 80.4184 1761.90 2153.62 44.10
20363 80.4222 1817.70 2001.36 44.90
20364 80.4259 1673.10 1875.61 42.60
20365 80.4297 1535.70 1770.53 40.70
20366 80.4335 1467.70 1682.09 40.10
20367 80.4372 1490.00 1606.82 40.30
20368 80.4410 1438.20 1542.12 39.10
20369 80.4447 1393.90 1486.40 38.80
20370 80.4485 1320.40 1437.76 38.30
20371 80.4522 1252.90 1395.35 35.90
20372 80.4560 1207.50 1357.90 36.20
20373 80.4598 1196.40 1324.80 36.00
20374 80.4635 1182.30 1295.41 35.60
20375 80.4673 1185.90 1269.32 35.30
20376 80.4710 1168.10 1245.74 35.80
20377 80.4748 1158.80 1224.74 35.50
20378 80.4786 1169.60 1205.67 35.60
20379 80.4823 1155.30 1188.42 35.30
20380 80.4861 1132.60 1172.77 33.90
20381 80.4898 1015.10 1158.51 33.00
20382 80.4936 1091.30 1145.47 34.10
20383 80.4974 1087.20 1133.56 34.20
20384 80.5011 1112.80 1122.58 34.10
20385 80.5049 1091.10 1112.50 34.20
20386 80.5086 1083.80 1103.19 34.20
20387 80.5124 1114.00 1094.57 34.50
20388 80.5161 1072.30 1086.60 33.80
20389 80.5199 1023.80 1079.20 33.30
20390 80.5237 990.60 1072.27 32.80
20391 80.5274 1024.50 1065.87 33.00
20392 80.5312 1016.00 1059.87 32.80
20393 80.5349 1107.80 1054.27 33.90
20394 80.5387 1015.10 1049.00 33.00
20395 80.5425 992.90 1044.07 32.20
20396 80.5462 1066.90 1039.44 33.40
20397 80.5500 1017.80 1035.09 33.40
20398 80.5537 1011.70 1030.98 32.80
20399 80.5575 1022.00 1027.11 33.10
20400 80.5612 1049.40 1023.45 33.40
20401 80.5650 996.30 1019.99 32.80
20402 80.5688 974.00 1016.71 32.10
20403 80.5725 1039.00 1013.61 33.60
20404 80.5763 1010.00 1010.65 32.60
20405 80.5800 983.80 1007.85 31.90
20406 80.5838 961.30 1005.19 31.80
20407 80.5875 970.40 1002.65 32.20
20408 80.5913 1071.20 1000.22 33.30
20409 80.5951 995.50 997.92 32.30
20410 80.5988 984.20 995.71 32.10
20411 80.6026 941.40 993.61 31.20
20412 80.6064 991.10 991.58 32.60
20413 80.6101 953.40 989.65 31.60
20414 80.6139 953.40 987.80 32.00
20415 80.6176 921.40 986.02 31.30
20416 80.6214 916.90 984.32 31.10
20417 80.6251 963.30 982.68 31.80
20418 80.6289 1018.70 981.10 33.00
20419 80.6327 870.00 979.59 30.00
20420 80.6364 956.70 978.13 31.90
20421 80.6402 987.20 976.72 32.20
20422 80.6439 923.40 975.36 31.10
20423 80.6477 990.90 974.05 32.20
20424 80.6514 967.80 972.78 32.10
20425 80.6552 939.80 971.56 31.30
20426 80.6590 921.70 970.38 31.40
20427 80.6627 955.30 969.23 31.80
20428 80.6665 942.40 968.12 31.00
20429 80.6702 968.60 967.05 31.60
20430 80.6740 946.70 966.00 32.20
20431 80.6777 896.80 964.99 30.80
20432 80.6815 948.50 964.01 31.50
20433 80.6853 965.30 963.05 31.70
20434 80.6890 946.40 962.12 31.60
20435 80.6928 933.00 961.22 31.50
20436 80.6965 995.90 960.34 32.30
20437 80.7003 952.60 959.49 32.10
20438 80.7040 939.40 958.66 31.40
20439 80.7078 922.60 957.84 31.10
20440 80.7116 946.80 957.05 31.50
20441 80.7153 938.90 956.28 31.40
20442 80.7191 960.60 955.53 31.80
20443 80.7228 976.20 954.79 31.80
20444 80.7266 949.30 954.07 31.50
20445 80.7304 989.40 953.36 32.30
20446 80.7341 940.40 952.67 31.50
20447 80.7379 866.80 952.00 30.10
20448 80.7416 925.20 951.34 31.20
20449 80.7454 970.00 950.70 31.90
20450 80.7492 946.50 950.06 31.70
20451 80.7529 938.50 949.44 31.60
20452 80.7567 946.70 948.83 32.00
20453 80.7604 913.70 948.23 30.50
20454 80.7642 911.20 947.65 31.30
20455 80.7679 988.60 947.07 31.40
20456 80.7717 909.50 946.50 31.70
20457 80.7755 973.50 945.95 32.40
20458 80.7792 964.20 945.40 31.90
20459 80.7830 893.40 944.86 30.10
20460 80.7867 937.10 944.33 31.30
20461 80.7905 910.70 943.81 30.80
20462 80.7942 941.90 943.30 31.70
20463 80.7980 915.60 942.79 30.90
20464 80.8018 936.00 942.29 31.60
20465 80.8055 936.70 941.80 31.50
20466 80.8093 946.70 941.31 31.90
20467 80.8130 930.80 940.84 31.80
20468 80.8168 940.10 940.36 31.90
20469 80.8205 885.70 939.90 30.60
20470 80.8243 911.80 939.44 31.10
20471 80.8281 932.40 938.98 31.50
20472 80.8318 890.00 938.53 30.50
20473 80.8356 899.30 938.09 30.90
20474 80.8393 889.20 937.65 30.20
20475 80.8431 904.30 937.22 30.90
20476 80.8468 902.10 936.78 30.70
20477 80.8506 940.70 936.36 31.80
20478 80.8544 943.00 935.94 31.20
20479 80.8581 892.90 935.52 30.90
20480 80.8619 919.70 935.11 30.90
20481 80.8656 925.40 934.70 31.10
20482 80.8694 881.00 934.29 30.70
20483 80.8732 950.30 933.89 31.70
20484 80.8769 905.40 933.49 30.80
20485 80.8807 901.00 933.10 30.70
20486 80.8844 896.70 932.71 30.70
20487 80.8882 906.60 932.32 31.30
20488 80.8919 967.20 931.93 32.10
20489 80.8957 942.90 931.55 31.30
20490 80.8995 886.30 931.17 30.60
20491 80.9032 905.70 930.79 31.10
20492 80.9070 960.10 930.42 31.90
20493 80.9107 874.80 930.04 30.70
20494 80.9145 955.80 929.67 31.80
20495 80.9182 983.00 929.30 32.10
20496 80.9220 880.20 928.94 30.40
20497 80.9258 904.70 918.14 30.70
20498 80.9295 898.60 917.92 30.80
20499 80.9333 864.60 917.70 29.70
20500 80.9370 894.50 917.47 30.30
20501 80.9408 908.50 917.25 30.30
20502 80.9445 898.90 917.02 30.60
20503 80.9483 932.80 916.79 31.20
20504 80.9521 895.80 916.57 30.40
20505 80.9558 873.80 916.34 30.30
20506 80.9596 963.20 916.11 31.50
20507 80.9633 883.60 915.88 30.40
20508 80.9671 942.90 915.65 31.20
20509 80.9708 884.10 915.42 30.30
20510 80.9746 863.10 915.18 30.00
20511 80.9784 939.80 914.95 31.20
20512 80.9821 942.20 914.72 31.80
20513 80.9859 919.40 914.48 31.40
20514 80.9896 933.80 914.24 31.10
20515 80.9934 851.20 914.01 29.80
20516 80.9971 902.90 913.77 30.80
20517 81.0009 874.50 913.53 30.30
20518 81.0047 881.10 913.29 30.30
20519 81.0084 935.40 913.05 31.20
20520 81.0122 920.70 912.81 31.50
20521 81.0159 944.20 912.57 31.70
20522 81.0197 902.90 912.32 30.90
20523 81.0234 882.40 912.08 30.50
20524 81.0272 928.30 911.83 31.30
20525 81.0310 895.70 911.59 30.30
20526 81.0347 908.70 911.34 30.60
20527 81.0385 939.00 911.09 30.90
20528 81.0422 842.40 910.84 29.70
20529 81.0460 923.80 910.59 30.80
20530 81.0497 915.30 910.34 31.20
20531 81.0535 903.70 910.09 30.80
20532 81.0573 903.20 909.84 30.90
20533 81.0610 886.90 909.59 30.30
20534 81.0648 928.70 909.33 31.10
20535 81.0685 915.90 909.08 30.60
20536 81.0723 910.70 908.82 30.90
20537 81.0760 977.80 908.57 32.30
20538 81.0798 877.00 908.31 30.40
20539 81.0836 876.50 908.05 30.60
20540 81.0873 935.20 907.79 31.50
20541 81.0911 964.40 907.53 32.00
20542 81.0948 858.20 907.27 30.40
20543 81.0986 882.80 907.00 30.30
20544 81.1023 899.50 906.74 31.10
20545 81.1061 899.30 906.48 30.70
20546 81.1098 890.50 906.21 30.60
20547 81.1136 847.80 905.94 30.20
20548 81.1174 808.30 905.68 29.50
20549 81.1211 920.40 905.41 31.30
20550 81.1249 878.90 905.14 30.60
20551 81.1286 849.70 904.87 30.40
20552 81.1324 853.60 904.60 30.10
20553 81.1361 900.30 904.33 31.00
20554 81.1399 898.80 904.05 31.10
20555 81.1437 837.10 903.78 29.70
20556 81.1474 823.50 903.50 29.70
20557 81.1512 868.50 903.23 30.40
20558 81.1549 887.70 902.95 30.50
20559 81.1587 928.40 902.67 31.60
20560 81.1624 905.40 902.39 31.10
20561 81.1662 893.80 902.11 30.70
20562 81.1700 852.30 901.83 29.80
20563 81.1737 934.70 901.55 32.40
20564 81.1775 871.80 901.27 30.50
20565 81.1812 930.90 900.98 31.80
20566 81.1850 856.30 900.70 30.30
20567 81.1887 888.10 900.41 30.20
20568 81.1925 847.60 900.12 30.30
20569 81.1963 899.90 899.84 31.20
20570 81.2000 888.80 899.55 31.00
20571 81.2038 907.90 899.26 30.80
20572 81.2075 951.00 898.97 32.30
20573 81.2113 820.00 898.67 29.90
20574 81.2150 870.90 898.38 30.70
20575 81.2188 897.80 898.09 31.30
20576 81.2225 908.10 897.79 31.10
20577 81.2263 946.40 897.50 32.10
20578 81.2301 842.10 897.20 30.10
20579 81.2338 850.10 896.90 30.30
20580 81.2376 912.30 896.60 30.70
20581 81.2413 912.00 896.30 31.50
20582 81.2451 900.10 896.00 31.20
20583 81.2488 915.70 895.70 31.80
20584 81.2526 873.40 895.40 31.00
20585 81.2563 893.70 895.09 31.00
20586 81.2601 907.60 894.78 31.30
20587 81.2639 876.30 894.48 30.70
20588 81.2676 942.60 894.17 30.80
20589 81.2714 879.20 893.86 31.00
20590 81.2751 921.70 893.55 32.20
20591 81.2789 885.20 893.24 30.80
20592 81.2827 910.50 892.93 31.10
20593 81.2864 943.60 892.62 32.10
20594 81.2902 842.40 892.30 30.50
20595 81.2939 881.20 891.99 30.80
20596 81.2977 862.40 891.67 30.30
20597 81.3014 847.10 891.36 30.20
20598 81.3052 889.50 891.04 31.10
20599 81.3089 931.60 890.72 31.50
20600 81.3127 910.40 890.40 31.40
20601 81.3165 879.40 890.08 30.80
20602 81.3202 838.60 889.76 30.10
20603 81.3240 901.60 889.43 31.60
20604 81.3277 909.10 889.11 31.50
20605 81.3315 945.40 888.78 32.30
20606 81.3352 849.30 888.46 30.40
20607 81.3390 847.60 888.13 30.30
20608 81.3428 905.10 887.80 31.60
20609 81.3465 900.90 887.47 31.50
20610 81.3503 859.00 887.14 30.70
20611 81.3540 912.90 886.80 31.50
20612 81.3578 851.70 886.47 30.20
20613 81.3615 900.70 886.14 31.50
20614 81.3653 890.90 885.80 31.10
20615 81.3690 914.80 885.47 30.90
20616 81.3728 900.70 885.13 31.80
20617 81.3765 863.20 884.79 30.70
20618 81.3803 856.20 884.45 29.70
20619 81.3841 861.30 884.11 30.70
20620 81.3878 918.00 883.77 31.50
20621 81.3916 871.00 883.42 30.70
20622 81.3953 924.10 883.08 31.70
20623 81.3991 930.70 882.73 31.90
20624 81.4028 933.60 882.39 31.70
20625 81.4066 923.60 882.04 31.30
20626 81.4103 885.80 881.69 30.70
20627 81.4141 889.70 881.34 30.70
20628 81.4179 860.10 880.99 30.50
20629 81.4216 840.00 880.63 29.90
20630 81.4254 912.60 880.28 31.70
20631 81.4291 920.30 879.92 31.70
20632 81.4329 933.20 879.57 32.00
20633 81.4366 852.30 879.21 30.30
20634 81.4404 845.20 878.85 30.50
20635 81.4442 886.70 878.49 30.40
20636 81.4479 910.10 878.13 31.60
20637 81.4517 875.90 877.77 30.80
20638 81.4554 925.90 877.41 31.60
20639 81.4592 887.70 877.04 30.50
20640 81.4629 842.20 876.68 30.20
20641 81.4667 844.50 876.31 29.50
20642 81.4704 879.60 875.94 30.90
20643 81.4742 900.80 875.58 30.90
20644 81.4780 903.40 875.21 31.20
20645 81.4817 887.60 874.83 30.70
20646 81.4855 826.60 874.46 29.80
20647 81.4892 933.70 874.09 32.00
20648 81.4930 852.10 873.71 30.50
20649 81.4967 947.20 873.34 32.10
20650 81.5005 820.80 872.96 29.90
20651 81.5042 899.10 872.58 31.50
20652 81.5080 858.60 872.20 30.40
20653 81.5117 873.70 871.82 30.90
20654 81.5155 899.30 871.44 31.50
20655 81.5193 860.00 871.05 30.60
20656 81.5230 899.70 870.67 31.00
20657 81.5268 894.00 870.28 31.40
20658 81.5305 905.30 869.90 31.50
20659 81.5343 849.00 869.51 29.80
20660 81.5380 901.60 869.12 30.60
20661 81.5418 920.20 868.73 30.90
20662 81.5455 889.40 868.34 30.30
20663 81.5493 898.80 867.94 30.80
20664 81.5530 903.70 867.55 30.60
20665 81.5568 885.20 867.15 30.30
20666 81.5606 832.80 866.76 29.60
20667 81.5643 858.30 866.36 29.90
20668 81.5681 894.70 865.96 30.10
20669 81.5718 884.40 865.56 30.90
20670 81.5756 878.20 865.16 30.60
20671 81.5793 842.60 864.75 29.60
20672 81.5831 869.30 864.35 30.00
20673 81.5868 904.70 863.94 30.90
20674 81.5906 879.90 863.53 30.70
20675 81.5944 866.10 863.13 30.10
20676 81.5981 947.90 862.72 31.80
20677 81.6019 932.60 862.31 31.50
20678 81.6056 925.00 861.90 31.10
20679 81.6094 834.40 861.48 29.90
20680 81.6131 887.30 861.07 30.40
20681 81.6169 841.50 860.65 29.60
20682 81.6206 835.10 860.23 29.50
20683 81.6244 790.40 859.81 28.60
20684 81.6282 914.80 859.40 30.90
20685 81.6319 914.60 858.97 30.70
20686 81.6357 933.00 858.55 31.10
20687 81.6394 862.60 858.13 30.40
20688 81.6432 880.10 857.70 30.40
20689 81.6469 904.60 857.28 30.80
20690 81.6507 877.10 856.85 30.50
20691 81.6544 906.80 856.42 30.30
20692 81.6582 819.60 855.99 29.50
20693 81.6619 865.80 855.56 30.30
20694 81.6657 836.60 855.12 29.70
20695 81.6694 840.10 854.69 29.40
20696 81.6732 913.30 854.25 30.90
20697 81.6770 903.00 853.82 31.10
20698 81.6807 909.00 853.38 30.90
20699 81.6845 917.10 852.94 31.00
20700 81.6882 824.20 852.50 29.10
20701 81.6920 861.50 852.05 30.20
20702 81.6957 828.80 851.61 29.50
20703 81.6995 867.20 851.17 30.20
20704 81.7032 909.40 850.72 30.40
20705 81.7070 863.80 850.27 30.10
20706 81.7107 902.40 849.82 30.80
20707 81.7145 849.00 849.37 29.90
20708 81.7182 888.20 848.92 30.50
20709 81.7220 908.30 848.47 30.70
20710 81.7258 865.20 848.01 30.20
20711 81.7295 857.20 847.56 29.90
20712 81.7333 844.70 847.10 29.30
20713 81.7370 875.60 846.64 30.30
20714 81.7408 920.70 846.18 30.90
20715 81.7445 909.40 845.72 30.80
20716 81.7483 879.60 845.26 30.40
20717 81.7520 811.90 844.79 29.20
20718 81.7558 911.10 844.33 31.00
20719 81.7596 857.20 843.86 30.10
20720 81.7633 837.20 843.39 29.30
20721 81.7671 835.00 842.92 29.40
20722 81.7708 940.40 842.45 31.20
20723 81.7746 878.40 841.98 30.70
20724 81.7783 888.10 841.50 30.30
20725 81.7821 957.30 841.03 31.70
20726 81.7858 873.00 840.55 30.40
20727 81.7896 858.50 840.07 30.20
20728 81.7933 886.50 839.59 30.40
20729 81.7971 823.70 839.11 29.60
20730 81.8008 856.60 838.63 30.20
20731 81.8046 909.70 838.14 31.00
20732 81.8084 845.20 837.66 29.90
20733 81.8121 892.90 837.17 30.60
20734 81.8159 863.30 836.68 30.30
20735 81.8196 873.80 836.19 30.30
20736 81.8234 869.10 835.70 30.20
20737 81.8271 902.40 835.21 30.90
20738 81.8309 854.20 834.72 30.40
20739 81.8346 905.90 834.22 30.90
20740 81.8384 874.50 833.72 30.20
20741 81.8421 831.90 833.22 29.70
20742 81.8459 851.30 832.72 29.60
20743 81.8496 887.30 832.22 30.60
20744 81.8534 878.00 831.72 30.50
20745 81.8571 898.70 831.22 31.00
20746 81.8609 894.00 830.71 30.70
20747 81.8647 897.40 830.20 31.00
20748 81.8684 881.40 829.69 30.40
20749 81.8722 903.20 829.18 30.70
20750 81.8759 875.00 828.67 30.90
20751 81.8797 842.10 828.16 30.10
20752 81.8834 909.00 827.64 31.00
20753 81.8872 830.40 827.13 29.30
20754 81.8909 867.40 826.61 30.30
20755 81.8947 886.10 826.09 30.70
20756 81.8984 870.40 825.57 30.50
20757 81.9022 845.50 825.04 29.70
20758 81.9059 907.00 824.52 30.90
20759 81.9097 884.20 824.00 30.20
20760 81.9135 907.40 823.47 30.90
20761 81.9172 844.10 822.94 29.90
20762 81.9210 846.10 822.41 29.80
20763 81.9247 908.50 821.88 30.70
20764 81.9285 870.20 821.34 30.20
20765 81.9322 828.90 820.81 29.60
20766 81.9360 856.30 820.27 30.30
20767 81.9397 799.40 819.74 29.20
20768 81.9435 850.50 819.20 29.90
20769 81.9472 850.70 818.66 29.50
20770 81.9510 874.80 818.11 30.00
20771 81.9547 897.20 817.57 30.20
20772 81.9585 889.70 817.03 30.40
20773 81.9622 875.90 816.48 30.50
20774 81.9660 884.70 815.93 29.80
20775 81.9697 861.90 815.38 30.20
20776 81.9735 866.00 814.83 30.80
20777 81.9773 861.00 814.27 30.20
20778 81.9810 854.10 813.72 29.70
20779 81.9848 885.20 813.16 29.40
20780 81.9885 880.00 812.60 29.60
20781 81.9923 867.30 812.04 30.60
20782 81.9960 884.50 811.48 30.80
20783 81.9998 855.90 810.92 29.40
20784 82.0035 892.00 810.36 29.40
20785 82.0073 874.70 809.79 28.50
20786 82.0110 915.20 809.22 28.40
loop_
_pd_proc_info_excluded_regions
'from 2.179 to 3.839'
loop_
_refln_index_h
_refln_index_k
_refln_index_l
_refln_F_squared_calc
_refln_F_squared_meas
_refln_F_squared_sigma
_refln_observed_status
_refln_d_spacing
0 0 1 44.65 43.49 1.09 o 3.942582
1 0 1 1774.78 1690.40 32.14 o 2.787827
1 1 1 248.26 288.82 5.41 o 2.276251
0 0 2 3033.71 2958.29 57.15 o 1.971291
1 0 2 10.10 11.13 0.35 o 1.763176
1 1 2 1134.40 1139.29 21.47 o 1.609553
2 0 2 1837.41 1796.47 34.45 o 1.393913
0 0 3 3.06 3.19 0.17 o 1.314194
2 1 2 3.06 3.19 0.17 o 1.314194
1 0 3 819.28 814.30 15.26 o 1.246754
1 1 3 67.48 64.84 1.23 o 1.188733
2 2 2 1270.87 1281.67 24.62 o 1.138126
2 0 3 1.05 0.98 0.14 o 1.093476
2 1 3 628.15 639.06 11.89 o 1.053699
0 0 4 946.10 965.87 18.76 o 0.985646
2 2 3 0.45 0.44 0.08 o 0.956217
1 0 4 0.45 0.44 0.08 o 0.956217
3 0 3 497.84 521.78 9.70 o 0.929276
1 1 4 497.84 521.78 9.70 o 0.929276
3 1 3 32.02 30.21 0.78 o 0.904490
2 0 4 735.24 721.70 13.69 o 0.881588
2 1 4 0.26 0.36 0.09 o 0.860342
3 2 3 402.20 398.02 7.46 o 0.840561
2 2 4 586.64 584.26 11.09 o 0.804776
0 0 5 0.21 0.18 0.12 o 0.788516
3 0 4 0.21 0.18 0.12 o 0.788516
1 0 5 328.80 332.54 6.12 o 0.773204
3 1 4 328.80 332.54 6.12 o 0.773204
3 3 3 17.92 16.13 0.62 o 0.758750
1 1 5 17.92 16.13 0.62 o 0.758750
2 0 5 0.21 0.13 0.06 o 0.732119
3 2 4 0.21 0.13 0.06 o 0.732119
2 1 5 271.00 262.20 4.86 o 0.719814
4 0 4 390.64 392.18 7.82 o 0.696957
4 1 4 0.23 0.21 0.11 o 0.686316
2 2 5 0.23 0.21 0.11 o 0.686316
3 3 4 224.67 224.15 4.17 o 0.676147
3 0 5 224.67 224.15 4.17 o 0.676147
3 1 5 10.67 11.02 0.55 o 0.666418
0 0 6 323.23 319.85 6.11 o 0.657097
4 2 4 323.23 319.85 6.11 o 0.657097
1 0 6 0.25 0.19 0.28 < 0.648157
3 2 5 187.12 189.65 3.49 o 0.639571
1 1 6 187.12 189.65 3.49 o 0.639571
