#------------------------------------------------------------------------------
#$Date: 2019-11-17 10:49:11 +0200 (Sun, 17 Nov 2019) $
#$Revision: 229430 $
#$URL: file:///home/coder/svn-repositories/cod/cif/7/04/66/7046676.cif $
#------------------------------------------------------------------------------
#
# This file is available in the Crystallography Open Database (COD),
# http://www.crystallography.net/
#
# All data on this site have been placed in the public domain by the
# contributors.
#
data_7046676
loop_
_publ_author_name
'Tchitchekova, Deyana S.'
'Frontera, Carlos'
'Ponrouch, Alexandre'
'Krich, Christopher'
'Bard\'e, Fanny'
'Palac\'in, M Rosa'
_publ_section_title
;
 Electrochemical calcium extraction from
 1D-Ca<sub>3</sub>Co<sub>2</sub>O<sub>6</sub>.
;
_journal_issue                   33
_journal_name_full
'Dalton transactions (Cambridge, England : 2003)'
_journal_page_first              11298
_journal_page_last               11302
_journal_paper_doi               10.1039/c8dt01754a
_journal_volume                  47
_journal_year                    2018
_chemical_formula_sum            'Ca1.155 Co O6'
_chemical_formula_weight         201.2
_space_group_IT_number           166
_space_group_name_Hall           '-R 3 2"'
_space_group_name_H-M_alt        'R -3 m :H'
_space_group_ssg_name            R-3m(00\g)0s
_symmetry_cell_setting           trigonal
_symmetry_space_group_name_Hall  '-R 3 2"'
_symmetry_space_group_name_H-M   'R -3 m :H'
_cell_angle_alpha                90
_cell_angle_beta                 90
_cell_angle_gamma                120
_cell_formula_units_Z            3
_cell_length_a                   9.1271
_cell_length_b                   9.1271
_cell_length_c                   2.4228
_cell_measurement_temperature    293
_cell_modulation_dimension       1
_cell_subsystems_number          2
_cell_volume                     174.789
_diffrn_ambient_temperature      293
_diffrn_radiation_probe          x-ray
_diffrn_radiation_wavelength     0.63556
_exptl_absorpt_coefficient_mu    7.081
_exptl_crystal_density_diffrn    5.7348
_exptl_crystal_F_000             152
_pd_instr_location               ' ?'
_pd_meas_2theta_range_inc        0.006
_pd_meas_2theta_range_max        68.094
_pd_meas_2theta_range_min        1.026
_pd_meas_number_of_points        11179
_pd_proc_2theta_range_inc        0.006
_pd_proc_2theta_range_max        68.094
_pd_proc_2theta_range_min        4.002
_pd_proc_ls_background_function  'Manual background'
_pd_proc_ls_pref_orient_corr     none
_pd_proc_ls_profile_function     Pseudo-Voigt
_pd_proc_ls_prof_R_factor        0.0440
_pd_proc_ls_prof_wR_expected     0.0046
_pd_proc_ls_prof_wR_factor       0.0586
_refine_ls_goodness_of_fit_all   12.84
_refine_ls_number_constraints    2
_refine_ls_number_parameters     22
_refine_ls_number_restraints     0
_refine_ls_R_factor_all          0.0514
_refine_ls_R_factor_gt           0.0505
_refine_ls_shift/su_max          10.6244
_refine_ls_shift/su_mean         3.8743
_refine_ls_weighting_scheme      sigma
_refine_ls_wR_factor_all         0.0613
_refine_ls_wR_factor_gt          0.0612
_cod_data_source_file            c8dt01754a1.cif
_cod_data_source_block           I
_cod_depositor_comments
;
The following automatic conversions were performed:

'_diffrn_radiation_probe' value 'X-ray' changed to 'x-ray' according
to
/home/data/users/saulius/crontab/automatic-downloads/rss-feeds/RSC/lib/dictionaries/cif_core.dic
dictionary named 'cif_core.dic' version 2.4.2 from 2011-04-26.

Automatic conversion script
Id: cif_fix_values 4973 2017-02-22 13:04:09Z antanas 

 Adding full bibliography for 7046676.cif.
;
_cod_original_cell_volume        174.7925
_cod_original_formula_sum        'Ca1.155 Co1 O6'
_cod_database_code               7046676
loop_
_space_group_symop_id
_space_group_symop_operation_xyz
1 x,y,z
2 -y,x-y,z
3 -x+y,-x,z
4 y,x,-z
5 -x,-x+y,-z
6 x-y,-y,-z
7 x+0.3333333333,y+0.6666666667,z+0.6666666667
8 -y+0.3333333333,x-y+0.6666666667,z+0.6666666667
9 -x+y+0.3333333333,-x+0.6666666667,z+0.6666666667
10 y+0.3333333333,x+0.6666666667,-z+0.6666666667
11 -x+0.3333333333,-x+y+0.6666666667,-z+0.6666666667
12 x-y+0.3333333333,-y+0.6666666667,-z+0.6666666667
13 x+0.6666666667,y+0.3333333333,z+0.3333333333
14 -y+0.6666666667,x-y+0.3333333333,z+0.3333333333
15 -x+y+0.6666666667,-x+0.3333333333,z+0.3333333333
16 y+0.6666666667,x+0.3333333333,-z+0.3333333333
17 -x+0.6666666667,-x+y+0.3333333333,-z+0.3333333333
18 x-y+0.6666666667,-y+0.3333333333,-z+0.3333333333
19 -x,-y,-z
20 y,-x+y,-z
21 x-y,x,-z
22 -y,-x,z
23 x,x-y,z
24 -x+y,y,z
25 -x+0.3333333333,-y+0.6666666667,-z+0.6666666667
26 y+0.3333333333,-x+y+0.6666666667,-z+0.6666666667
27 x-y+0.3333333333,x+0.6666666667,-z+0.6666666667
28 -y+0.3333333333,-x+0.6666666667,z+0.6666666667
29 x+0.3333333333,x-y+0.6666666667,z+0.6666666667
30 -x+y+0.3333333333,y+0.6666666667,z+0.6666666667
31 -x+0.6666666667,-y+0.3333333333,-z+0.3333333333
32 y+0.6666666667,-x+y+0.3333333333,-z+0.3333333333
33 x-y+0.6666666667,x+0.3333333333,-z+0.3333333333
34 -y+0.6666666667,-x+0.3333333333,z+0.3333333333
35 x+0.6666666667,x-y+0.3333333333,z+0.3333333333
36 -x+y+0.6666666667,y+0.3333333333,z+0.3333333333
loop_
_space_group_symop_ssg_id
_space_group_symop_ssg_operation_algebraic
1 x1,x2,x3,x4
2 -x2,x1-x2,x3,x4
3 -x1+x2,-x1,x3,x4
4 x2,x1,-x3,-x4+1/2
5 x1-x2,-x2,-x3,-x4+1/2
6 -x1,-x1+x2,-x3,-x4+1/2
7 -x1,-x2,-x3,-x4
8 x2,-x1+x2,-x3,-x4
9 x1-x2,x1,-x3,-x4
10 -x2,-x1,x3,x4+1/2
11 -x1+x2,x2,x3,x4+1/2
12 x1,x1-x2,x3,x4+1/2
13 x1+2/3,x2+1/3,x3+1/3,x4
14 -x2+2/3,x1-x2+1/3,x3+1/3,x4
15 -x1+x2+2/3,-x1+1/3,x3+1/3,x4
16 x2+2/3,x1+1/3,-x3+1/3,-x4+1/2
17 x1-x2+2/3,-x2+1/3,-x3+1/3,-x4+1/2
18 -x1+2/3,-x1+x2+1/3,-x3+1/3,-x4+1/2
19 -x1+2/3,-x2+1/3,-x3+1/3,-x4
20 x2+2/3,-x1+x2+1/3,-x3+1/3,-x4
21 x1-x2+2/3,x1+1/3,-x3+1/3,-x4
22 -x2+2/3,-x1+1/3,x3+1/3,x4+1/2
23 -x1+x2+2/3,x2+1/3,x3+1/3,x4+1/2
24 x1+2/3,x1-x2+1/3,x3+1/3,x4+1/2
25 x1+1/3,x2+2/3,x3+2/3,x4
26 -x2+1/3,x1-x2+2/3,x3+2/3,x4
27 -x1+x2+1/3,-x1+2/3,x3+2/3,x4
28 x2+1/3,x1+2/3,-x3+2/3,-x4+1/2
29 x1-x2+1/3,-x2+2/3,-x3+2/3,-x4+1/2
30 -x1+1/3,-x1+x2+2/3,-x3+2/3,-x4+1/2
31 -x1+1/3,-x2+2/3,-x3+2/3,-x4
32 x2+1/3,-x1+x2+2/3,-x3+2/3,-x4
33 x1-x2+1/3,x1+2/3,-x3+2/3,-x4
34 -x2+1/3,-x1+2/3,x3+2/3,x4+1/2
35 -x1+x2+1/3,x2+2/3,x3+2/3,x4+1/2
36 x1+1/3,x1-x2+2/3,x3+2/3,x4+1/2
loop_
_atom_site_label
_atom_site_type_symbol
_atom_site_fract_x
_atom_site_fract_y
_atom_site_fract_z
_atom_site_adp_type
_atom_site_U_iso_or_equiv
_atom_site_site_symmetry_multiplicity
_atom_site_occupancy
_atom_site_calc_flag
_atom_site_subsystem_code
Co Co 0 0 0 Uani 0.0106(4) 3 1 d 1
O O 0.155 0.155 0.5 Uiso 0.0052(11) 18 0.5 d 1
Ca0 Ca 0.333333 0 0.25 Uani 0.0262(13) 6 1 d 2
loop_
_atom_site_aniso_label
_atom_site_aniso_type_symbol
_atom_site_aniso_U_11
_atom_site_aniso_U_22
_atom_site_aniso_U_33
_atom_site_aniso_U_12
_atom_site_aniso_U_13
_atom_site_aniso_U_23
Co Co 0.0069(2) 0.0069(2) 0.0180(10) 0.00344(12) 0 0
Ca0 Ca 0.0239(16) 0.0239(16) 0.031(2) 0.0120(8) 0 0
loop_
_atom_site_displace_Fourier_atom_site_label
_atom_site_displace_Fourier_axis
_atom_site_displace_Fourier_wave_vector_seq_id
_atom_site_displace_Fourier_param_cos
_atom_site_displace_Fourier_param_sin
Co x 1 0 0
Co y 1 0 0
Co z 1 0 0
Co x 2 0 0
Co y 2 0 0
Co z 2 0 -0.023(2)
Co x 3 0 0
Co y 3 0 0
Co z 3 0 0
Co x 4 0 0
Co y 4 0 0
Co z 4 0 0.000(6)
Co x 5 0 0
Co y 5 0 0
Co z 5 0 0
Co x 6 0 0
Co y 6 0 0
Co z 6 0 -0.034(3)
O x 1 -0.0565(15) -0.0018(5)
O y 1 0.0565(15) -0.0018(5)
O z 1 0.037(6) 0
O x 2 -0.0152(12) 0.0475(13)
O y 2 -0.0152(12) -0.0475(13)
O z 2 0 0.008(6)
Ca0 x 1 0.0171(4) -0.0099(2)
Ca0 y 1 0 -0.0198(4)
Ca0 z 1 0 0
Ca0 x 2 -0.0002(11) -0.0001(7)
Ca0 y 2 0 -0.0003(13)
Ca0 z 2 0 0
Ca0 x 3 0 0
Ca0 y 3 0 0
Ca0 z 3 0 -0.019(4)
Ca0 x 4 -0.0068(18) 0.0039(10)
Ca0 y 4 0 0.008(2)
Ca0 z 4 0 0
Ca0 x 5 0.000(2) 0.0002(12)
Ca0 y 5 0 0.000(2)
Ca0 z 5 0 0
Ca0 x 6 0 0
Ca0 y 6 0 0
Ca0 z 6 0 0
loop_
_atom_site_Fourier_wave_vector_seq_id
_jana_atom_site_fourier_wave_vector_q1_coeff
1 1
2 2
3 3
4 4
5 5
6 6
loop_
_atom_site_occ_special_func_atom_site_label
_atom_site_occ_special_func_crenel_c
_atom_site_occ_special_func_crenel_w
O 0.25 0.5
loop_
_atom_type_symbol
_atom_type_scat_dispersion_real
_atom_type_scat_dispersion_imag
_atom_type_scat_source
Ca 0.1969 0.2505 'International Tables Vol C tables 4.2.6.8 and 6.1.1.1'
Co 0.3372 0.8017 'International Tables Vol C tables 4.2.6.8 and 6.1.1.1'
O 0.0087 0.0049 'International Tables Vol C tables 4.2.6.8 and 6.1.1.1'
loop_
_cell_subsystem_code
_cell_subsystem_description
_cell_subsystem_matrix_W_1_1
_cell_subsystem_matrix_W_1_2
_cell_subsystem_matrix_W_1_3
_cell_subsystem_matrix_W_1_4
_cell_subsystem_matrix_W_2_1
_cell_subsystem_matrix_W_2_2
_cell_subsystem_matrix_W_2_3
_cell_subsystem_matrix_W_2_4
_cell_subsystem_matrix_W_3_1
_cell_subsystem_matrix_W_3_2
_cell_subsystem_matrix_W_3_3
_cell_subsystem_matrix_W_3_4
_cell_subsystem_matrix_W_4_1
_cell_subsystem_matrix_W_4_2
_cell_subsystem_matrix_W_4_3
_cell_subsystem_matrix_W_4_4
1 '1-st subsystem' 1 0 0 0 0 1 0 0 0 0 1 0 0 0 0 1
2 '2-nd subsystem' 1 0 0 0 0 1 0 0 0 0 0 1 0 0 1 0
loop_
_cell_wave_vector_seq_id
_cell_wave_vector_x
_cell_wave_vector_y
_cell_wave_vector_z
1 0.000000 0.000000 0.579059
loop_
_geom_bond_atom_site_label_1
_geom_bond_atom_site_label_2
_geom_bond_site_ssg_symmetry_2
_geom_bond_distance_av
_geom_bond_distance_min
_geom_bond_distance_max
Co Co 1_5545 2.42(7) 2.04(9) 2.87(9)
Co Co 1_5565 2.42(7) 2.04(9) 2.87(9)
Co O 1_5545 2.09(17) 1.5(2) 3.5(2)
Co O . 2.09(17) 1.6(2) 3.7(2)
Co O 2_5545 2.1(2) 1.5(3) 3.5(3)
Co O 2_5555 2.1(2) 1.6(3) 3.7(3)
Co O 3_5545 2.09(19) 1.5(2) 3.5(2)
Co O 3_5555 2.09(19) 1.6(2) 3.7(2)
Co O 4_5555 2.03(17) 1.4(2) 3.6(2)
Co O 4_5565 2.05(17) 1.4(2) 3.7(2)
Co O 5_5555 2.0(2) 1.4(3) 3.6(3)
Co O 5_5565 2.1(2) 1.4(3) 3.7(3)
Co O 6_5555 2.03(19) 1.4(2) 3.6(2)
Co O 6_5565 2.05(19) 1.4(2) 3.7(2)
Co O 7_5555 2.03(17) 1.4(2) 3.6(2)
Co O 7_5565 2.06(17) 1.4(2) 3.7(2)
Co O 8_5555 2.0(2) 1.4(3) 3.6(3)
Co O 8_5565 2.1(2) 1.4(3) 3.7(3)
Co O 9_5555 2.03(19) 1.4(2) 3.6(2)
Co O 9_5565 2.06(19) 1.4(2) 3.7(2)
Co O 10_5545 2.08(17) 1.5(2) 3.5(2)
Co O 10_5555 2.09(17) 1.6(2) 3.7(2)
Co O 11_5545 2.1(2) 1.5(3) 3.5(3)
Co O 11_5555 2.1(2) 1.6(3) 3.7(3)
Co O 12_5545 2.08(19) 1.5(2) 3.5(2)
Co O 12_5555 2.09(19) 1.6(2) 3.7(2)
Co Ca0 1_3455 896(6) 1.77(11) 22.64(11)
Co Ca0 1_3465 788(5) 2.07(11) 23.08(11)
Co Ca0 . 404(6) 1.35(11) 18.15(11)
Co Ca0 13_2455 886(6) 1.48(11) 27.24(11)
Co Ca0 13_2465 868(5) 2.69(10) 25.53(10)
Co Ca0 13_3455 485(5) 0.87(10) 18.85(10)
Co Ca0 13_3465 507(4) 2.52(10) 17.32(10)
Co Ca0 13_4555 381(6) 2.95(11) 15.12(11)
Co Ca0 13_4565 411(5) 2.98(11) 15.71(11)
Co Ca0 13_5545 868(6) 3.15(9) 24.14(9)
Co Ca0 13_5555 671(5) 0.98(9) 23.18(9)
Co Ca0 13_5565 644(5) 1.70(9) 23.54(9)
Co Ca0 25_4455 339(4) 1.63(10) 12.88(10)
Co Ca0 25_4465 395(5) 1.55(9) 14.12(9)
Co Ca0 25_6555 908(5) 3.04(9) 28.21(9)
Co Ca0 2_5555 404(9) 1.35(14) 18.15(14)
Co Ca0 2_6455 896(9) 1.77(14) 22.64(14)
Co Ca0 2_6465 788(8) 2.07(14) 23.08(14)
Co Ca0 14_4455 381(6) 2.95(14) 15.12(14)
Co Ca0 14_4465 411(5) 2.98(13) 15.71(13)
Co Ca0 14_4545 868(9) 3.15(14) 24.14(14)
Co Ca0 14_4555 671(8) 0.98(14) 23.18(14)
Co Ca0 14_4565 644(7) 1.70(14) 23.54(14)
Co Ca0 14_5355 886(8) 1.48(14) 27.24(14)
Co Ca0 14_5365 868(8) 2.69(14) 25.53(14)
Co Ca0 14_5455 485(8) 0.87(14) 18.85(14)
Co Ca0 14_5465 507(7) 2.52(13) 17.32(13)
Co Ca0 26_4555 908(8) 3.04(14) 28.21(14)
Co Ca0 26_5455 339(7) 1.63(14) 12.88(14)
Co Ca0 26_5465 395(7) 1.55(14) 14.12(14)
Co Ca0 3_5555 404(6) 1.35(12) 18.15(12)
Co Ca0 3_6755 896(6) 1.77(12) 22.64(12)
Co Ca0 3_6765 788(5) 2.07(12) 23.08(12)
Co Ca0 15_4445 868(5) 3.15(8) 24.14(8)
Co Ca0 15_4455 671(5) 0.98(9) 23.18(9)
Co Ca0 15_4465 644(4) 1.70(9) 23.54(9)
Co Ca0 15_5555 381(7) 2.95(14) 15.12(14)
Co Ca0 15_5565 411(6) 2.98(13) 15.71(13)
Co Ca0 15_5655 485(5) 0.87(10) 18.85(10)
Co Ca0 15_5665 507(5) 2.52(9) 17.32(9)
Co Ca0 15_6755 886(5) 1.48(11) 27.24(11)
Co Ca0 15_6765 868(4) 2.69(9) 25.53(9)
Co Ca0 27_4355 908(5) 3.04(9) 28.21(9)
Co Ca0 27_5555 339(6) 1.63(12) 12.88(12)
Co Ca0 27_5565 395(6) 1.55(11) 14.12(11)
Co Ca0 7_5565 406(6) 1.48(11) 18.16(11)
Co Ca0 7_7655 785(5) 2.11(10) 23.08(10)
Co Ca0 7_7665 896(6) 1.66(11) 22.64(11)
Co Ca0 19_3465 907(5) 3.04(9) 28.21(9)
Co Ca0 19_5555 393(5) 1.54(9) 14.20(9)
Co Ca0 19_5565 337(4) 1.62(10) 12.84(10)
Co Ca0 31_4455 646(5) 1.96(9) 23.56(9)
Co Ca0 31_4465 672(5) 0.98(9) 23.19(9)
Co Ca0 31_4475 868(6) 3.15(9) 24.15(9)
Co Ca0 31_5455 414(5) 2.98(11) 15.73(11)
Co Ca0 31_5465 382(6) 2.94(11) 15.14(11)
Co Ca0 31_6555 509(4) 2.76(10) 17.28(10)
Co Ca0 31_6565 488(5) 0.86(10) 18.85(10)
Co Ca0 31_7555 869(5) 2.94(10) 25.50(10)
Co Ca0 31_7565 887(6) 1.50(11) 27.24(11)
Co Ca0 8_4655 785(8) 2.11(14) 23.08(14)
Co Ca0 8_4665 896(9) 1.66(14) 22.64(14)
Co Ca0 8_5565 406(9) 1.48(14) 18.16(14)
Co Ca0 20_4555 393(7) 1.54(14) 14.20(14)
Co Ca0 20_4565 337(7) 1.62(14) 12.84(14)
Co Ca0 20_5465 907(8) 3.04(14) 28.21(14)
Co Ca0 32_4555 509(7) 2.76(13) 17.28(13)
Co Ca0 32_4565 488(8) 0.86(14) 18.85(14)
Co Ca0 32_4655 869(8) 2.94(14) 25.50(14)
Co Ca0 32_4665 887(8) 1.50(14) 27.24(14)
Co Ca0 32_5455 646(7) 1.97(14) 23.56(14)
Co Ca0 32_5465 672(8) 0.98(14) 23.19(14)
Co Ca0 32_5475 868(9) 3.15(14) 24.15(14)
Co Ca0 32_5555 414(5) 2.98(13) 15.73(13)
Co Ca0 32_5565 382(6) 2.94(14) 15.14(14)
Co Ca0 9_4355 785(5) 2.11(11) 23.08(11)
Co Ca0 9_4365 896(6) 1.66(13) 22.64(13)
Co Ca0 9_5565 406(6) 1.48(11) 18.16(11)
Co Ca0 21_4455 393(6) 1.54(11) 14.20(11)
Co Ca0 21_4465 337(6) 1.62(12) 12.84(12)
Co Ca0 21_5665 907(5) 3.04(9) 28.21(9)
Co Ca0 33_3255 869(4) 2.94(9) 25.50(9)
Co Ca0 33_3265 887(5) 1.50(11) 27.24(11)
Co Ca0 33_4355 509(5) 2.76(9) 17.28(9)
Co Ca0 33_4365 488(5) 0.86(10) 18.85(10)
Co Ca0 33_4455 414(6) 2.98(13) 15.73(13)
Co Ca0 33_4465 382(7) 2.94(14) 15.14(14)
Co Ca0 33_5555 646(4) 1.97(9) 23.56(9)
Co Ca0 33_5565 672(5) 0.98(9) 23.19(9)
Co Ca0 33_5575 868(5) 3.15(8) 24.15(8)
O O 8_5565 2.3(2) 0.8(3) 3.8(3)
O O 9_5565 2.3(3) 0.8(4) 3.8(4)
O Ca0 1_3465 174(3) 2.0(2) 16.4(2)
O Ca0 1_5565 115(3) 1.5(2) 16.6(2)
O Ca0 13_5565 22.9(12) 0.8(2) 6.4(2)
O Ca0 2_6465 135(4) 0.5(3) 12.6(3)
O Ca0 2_6565 111(4) 2.0(2) 12.1(2)
O Ca0 14_4565 29.9(15) 2.1(3) 7.5(3)
O Ca0 26_5465 72(6) 1.7(3) 8.4(3)
O Ca0 3_6765 157(3) 2.3(3) 14.3(3)
O Ca0 15_4465 34.6(9) 0.91(16) 9.93(16)
O Ca0 15_5565 26.3(12) 2.3(3) 8.4(3)
O Ca0 27_5565 101(6) 2.1(3) 10.5(3)
O Ca0 19_5575 92(2) 2.1(2) 14.5(2)
O Ca0 31_6565 110(3) 1.8(2) 9.4(2)
O Ca0 31_7565 191(4) 1.0(2) 15.4(2)
O Ca0 8_5565 95(5) 2.3(2) 7.2(2)
O Ca0 20_5565 26.9(13) 2.4(2) 7.2(2)
O Ca0 32_4565 122(4) 1.1(3) 9.0(3)
O Ca0 32_4665 208(5) 2.2(3) 16.5(3)
O Ca0 32_5565 119(4) 2.0(3) 14.1(3)
O Ca0 32_5575 87(4) 2.4(2) 5.0(2)
O Ca0 9_5565 76(4) 1.8(2) 9.1(2)
O Ca0 33_4365 127(3) 2.1(2) 10.0(2)
Ca0 Ca0 13_3455 5.94(13) 1.37(16) 10.32(16)
Ca0 Ca0 13_4455 7.04(14) 1.96(16) 13.93(16)
Ca0 Ca0 13_4555 7.87(12) 4.03(16) 12.68(16)
Ca0 Ca0 25_5455 7.82(12) 4.00(16) 12.65(16)
Ca0 Ca0 25_5555 6.89(14) 2.02(16) 13.91(16)
Ca0 Ca0 25_6555 6.04(12) 1.28(15) 10.31(15)
Ca0 Ca0 2_3555 25.72(15) 3.98(16) 48.98(16)
Ca0 Ca0 2_4555 16.94(16) 0.45(18) 39.94(18)
Ca0 Ca0 2_5545 9.24(12) 4.13(14) 19.10(14)
Ca0 Ca0 2_5555 9.44(16) 1.91(18) 30.94(18)
Ca0 Ca0 2_6555 8.34(13) 1.77(18) 23.59(18)
Ca0 Ca0 2_7555 13.88(14) 1.18(18) 32.71(18)
Ca0 Ca0 2_8455 25.51(16) 2.52(18) 47.26(18)
Ca0 Ca0 2_8555 20.90(14) 2.49(17) 41.84(17)
Ca0 Ca0 14_3455 17.05(15) 3.20(16) 26.52(16)
Ca0 Ca0 14_4455 9.23(14) 0.77(17) 17.79(17)
Ca0 Ca0 14_5355 11.20(15) 2.13(17) 20.95(17)
Ca0 Ca0 14_5455 6.98(16) 2.41(18) 15.22(18)
Ca0 Ca0 26_5455 6.73(14) 0.81(18) 14.92(18)
Ca0 Ca0 26_5465 7.71(8) 3.90(17) 24.69(17)
Ca0 Ca0 26_5555 9.75(16) 2.84(18) 18.42(18)
Ca0 Ca0 26_6555 7.65(13) 2.60(17) 12.31(17)
Ca0 Ca0 26_7555 11.76(12) 1.84(14) 21.42(14)
Ca0 Ca0 3_3355 25.72(11) 3.98(11) 48.98(11)
Ca0 Ca0 3_4455 16.94(11) 0.45(14) 39.94(14)
Ca0 Ca0 3_5555 9.44(13) 1.91(18) 30.94(18)
Ca0 Ca0 3_5565 9.28(10) 4.09(14) 19.10(14)
Ca0 Ca0 3_6655 8.34(11) 1.77(18) 23.59(18)
Ca0 Ca0 3_7755 13.88(10) 1.18(15) 32.71(15)
Ca0 Ca0 3_8855 20.90(11) 2.49(18) 41.84(18)
Ca0 Ca0 3_9855 25.51(12) 2.52(17) 47.26(17)
Ca0 Ca0 15_4555 9.72(14) 2.85(18) 18.45(18)
Ca0 Ca0 15_5545 7.71(8) 3.90(13) 24.69(13)
Ca0 Ca0 15_5555 6.90(14) 0.79(18) 14.89(18)
Ca0 Ca0 15_5655 7.78(13) 2.58(18) 13.05(18)
Ca0 Ca0 15_6755 11.89(11) 1.81(17) 22.17(17)
Ca0 Ca0 27_4355 17.27(10) 4.01(11) 26.51(11)
Ca0 Ca0 27_5455 9.21(11) 0.99(15) 17.76(15)
Ca0 Ca0 27_6555 6.78(14) 2.35(18) 14.31(18)
Ca0 Ca0 27_7555 11.08(15) 2.24(18) 20.22(18)
Ca0 Ca0 7_5565 5.38(13) 1.85(14) 6.81(14)
Ca0 Ca0 7_6555 6.75(12) 3.43(14) 12.35(14)
Ca0 Ca0 7_6565 5.31(13) 3.22(15) 12.55(15)
Ca0 Ca0 7_7655 7.57(11) 2.61(15) 10.87(15)
Ca0 Ca0 19_4455 7.08(10) 4.12(15) 8.21(15)
Ca0 Ca0 19_4465 15.65(11) 3.55(15) 34.62(15)
Ca0 Ca0 19_5555 4.85(11) 3.73(13) 10.99(13)
Ca0 Ca0 19_5565 13.63(11) 4.03(12) 26.94(12)
Ca0 Ca0 19_8665 19.14(11) 2.77(13) 35.05(13)
Ca0 Ca0 31_4455 18.38(12) 2.55(13) 29.58(13)
Ca0 Ca0 31_5465 10.50(10) 4.09(12) 17.70(12)
Ca0 Ca0 31_6565 6.30(11) 2.32(15) 11.16(15)
Ca0 Ca0 31_7555 12.11(10) 2.57(12) 24.61(12)
Ca0 Ca0 31_7565 8.03(12) 2.58(14) 12.99(14)
Ca0 Ca0 31_8655 14.55(10) 2.70(11) 32.25(11)
Ca0 Ca0 8_4565 10.82(13) 2.31(15) 19.20(15)
Ca0 Ca0 8_5555 8.69(12) 2.48(18) 17.75(18)
Ca0 Ca0 8_5565 4.56(10) 2.42(15) 13.16(15)
Ca0 Ca0 8_5655 9.37(15) 3.85(17) 20.14(17)
Ca0 Ca0 8_6565 8.80(16) 2.14(16) 22.18(16)
Ca0 Ca0 8_6655 8.45(11) 1.91(16) 15.67(16)
Ca0 Ca0 8_7655 13.58(13) 2.17(16) 24.62(16)
Ca0 Ca0 20_4555 6.97(14) 3.01(17) 15.07(17)
Ca0 Ca0 20_4565 10.46(13) 2.66(17) 15.92(17)
Ca0 Ca0 20_5455 10.98(17) 2.95(17) 19.32(17)
Ca0 Ca0 20_5465 14.92(16) 2.16(17) 26.60(17)
Ca0 Ca0 20_5555 4.95(12) 2.97(17) 15.08(17)
Ca0 Ca0 20_5565 9.45(14) 2.78(17) 17.53(17)
Ca0 Ca0 20_5765 15.25(15) 2.63(17) 27.03(17)
Ca0 Ca0 20_6665 12.49(13) 2.80(17) 21.51(17)
Ca0 Ca0 32_4455 13.65(13) 3.56(16) 20.24(16)
Ca0 Ca0 32_4565 11.92(14) 3.02(17) 24.94(17)
Ca0 Ca0 32_5455 12.95(14) 2.54(18) 22.71(18)
Ca0 Ca0 32_5565 7.67(13) 2.22(17) 16.01(17)
Ca0 Ca0 32_5655 12.22(15) 1.85(17) 22.85(17)
Ca0 Ca0 32_6555 12.33(14) 3.86(17) 21.48(17)
Ca0 Ca0 32_6565 10.69(13) 4.12(17) 20.62(17)
Ca0 Ca0 32_6655 12.48(14) 3.02(18) 19.59(18)
Ca0 Ca0 9_4355 13.58(10) 2.17(12) 24.62(12)
Ca0 Ca0 9_4465 8.55(11) 2.10(12) 20.72(12)
Ca0 Ca0 9_5455 8.45(12) 1.91(14) 15.67(14)
Ca0 Ca0 9_5555 8.69(13) 2.48(16) 17.75(16)
Ca0 Ca0 9_5565 4.54(12) 2.46(14) 11.71(14)
Ca0 Ca0 9_6555 9.37(13) 3.85(17) 20.14(17)
Ca0 Ca0 9_6665 11.03(10) 2.35(11) 20.44(11)
Ca0 Ca0 21_3455 10.73(15) 2.74(16) 18.47(16)
Ca0 Ca0 21_3465 14.58(15) 2.20(18) 26.59(18)
Ca0 Ca0 21_4365 12.28(14) 2.78(18) 21.05(18)
Ca0 Ca0 21_4455 4.85(10) 2.95(16) 14.00(16)
Ca0 Ca0 21_4465 9.28(14) 2.82(18) 17.52(18)
Ca0 Ca0 21_5555 7.10(10) 3.02(13) 15.80(13)
Ca0 Ca0 21_5565 10.58(13) 2.66(18) 16.38(18)
Ca0 Ca0 21_6465 15.49(15) 2.57(18) 27.48(18)
Ca0 Ca0 33_4355 12.06(13) 3.85(17) 21.47(17)
Ca0 Ca0 33_4365 10.69(11) 4.12(15) 20.62(15)
Ca0 Ca0 33_4455 12.77(14) 2.66(18) 22.75(18)
Ca0 Ca0 33_5355 12.44(14) 3.04(18) 19.16(18)
Ca0 Ca0 33_5465 7.67(12) 2.22(16) 16.01(16)
Ca0 Ca0 33_5555 13.80(13) 3.51(18) 20.25(18)
Ca0 Ca0 33_6455 12.47(14) 2.05(18) 23.30(18)
Ca0 Ca0 33_6565 11.92(11) 3.02(17) 24.94(17)
loop_
_pd_proc_point_id
_pd_proc_2theta_corrected
_pd_proc_intensity_net
_pd_calc_intensity_net
_pd_proc_ls_weight
1 3.9920 311119.00 297082.00 953.44
2 3.9980 307876.00 296892.00 950.63
3 4.0040 307244.00 296702.00 955.28
4 4.0100 309211.00 296512.00 952.47
5 4.0160 305479.00 296320.00 954.08
6 4.0220 307787.00 296128.00 947.34
7 4.0280 306727.00 295936.00 945.26
8 4.0340 304675.00 295742.00 946.24
9 4.0400 305805.00 295549.00 949.23
10 4.0460 305319.00 295354.00 949.08
11 4.0520 305267.00 295159.00 948.90
12 4.0580 304344.00 294964.00 948.12
13 4.0640 306910.00 294768.00 945.42
14 4.0700 304879.00 294571.00 945.43
15 4.0760 305010.00 294374.00 943.54
16 4.0820 304402.00 294176.00 943.39
17 4.0880 304641.00 293977.00 941.54
18 4.0940 302932.00 293778.00 939.31
19 4.1000 304335.00 293578.00 943.34
20 4.1060 301321.00 293378.00 942.67
21 4.1120 302497.00 293177.00 939.49
22 4.1180 301273.00 292976.00 938.83
23 4.1240 300764.00 292774.00 940.69
24 4.1300 300772.00 292572.00 943.53
25 4.1360 299216.00 292369.00 937.45
26 4.1420 299739.00 292165.00 940.19
27 4.1480 298573.00 291961.00 935.16
28 4.1540 300037.00 291756.00 937.42
29 4.1600 298408.00 291551.00 941.27
30 4.1660 299634.00 291345.00 934.73
31 4.1720 297790.00 291139.00 936.92
32 4.1780 298291.00 290932.00 933.55
33 4.1840 296855.00 290725.00 937.09
34 4.1900 297626.00 290517.00 937.27
35 4.1960 296718.00 290308.00 937.41
36 4.2020 295276.00 290099.00 934.79
37 4.2080 296235.00 289889.00 931.00
38 4.2140 297395.00 289679.00 934.57
39 4.2200 295766.00 289469.00 929.80
40 4.2260 295492.00 289258.00 927.14
41 4.2320 295830.00 289046.00 931.79
42 4.2380 295427.00 288834.00 932.81
43 4.2440 296548.00 288621.00 928.88
44 4.2500 293033.00 288408.00 929.44
45 4.2560 293855.00 288194.00 933.52
46 4.2620 295362.00 287980.00 928.08
47 4.2680 292920.00 287765.00 925.17
48 4.2740 292259.00 287550.00 928.41
49 4.2800 293709.00 287334.00 925.38
50 4.2860 294485.00 287118.00 932.05
51 4.2920 293346.00 286901.00 926.78
52 4.2980 291938.00 286684.00 921.94
53 4.3040 292346.00 286466.00 920.56
54 4.3100 291086.00 286248.00 929.65
55 4.3160 289386.00 286030.00 930.35
56 4.3220 291013.00 285810.00 929.19
57 4.3280 291104.00 285591.00 930.62
58 4.3340 289129.00 285371.00 923.79
59 4.3400 288295.00 285150.00 925.17
60 4.3460 289404.00 284929.00 923.99
61 4.3520 287882.00 284708.00 925.09
62 4.3580 285358.00 284486.00 926.07
63 4.3640 288093.00 284263.00 923.85
64 4.3700 288958.00 284040.00 926.03
65 4.3760 287204.00 283817.00 924.53
66 4.3820 285357.00 283593.00 920.87
67 4.3880 285507.00 283369.00 922.71
68 4.3940 287165.00 283145.00 923.14
69 4.4000 286940.00 282920.00 921.07
70 4.4060 286162.00 282694.00 920.61
71 4.4120 284589.00 282468.00 921.83
72 4.4180 285911.00 282242.00 922.78
73 4.4240 286562.00 282015.00 923.00
74 4.4300 284881.00 281788.00 921.71
75 4.4360 284853.00 281560.00 920.88
76 4.4420 286017.00 281332.00 924.74
77 4.4480 283596.00 281104.00 919.65
78 4.4540 283857.00 280875.00 919.13
79 4.4600 284848.00 280645.00 921.34
80 4.4660 284826.00 280416.00 918.97
81 4.4720 282443.00 280186.00 918.94
82 4.4780 283465.00 279956.00 918.99
83 4.4840 281755.00 279725.00 915.79
84 4.4900 283727.00 279494.00 921.52
85 4.4960 282856.00 279262.00 923.04
86 4.5020 283352.00 279030.00 914.84
87 4.5080 283118.00 278798.00 916.14
88 4.5140 282830.00 278565.00 914.21
89 4.5200 281681.00 278332.00 917.71
90 4.5260 283264.00 278099.00 914.29
91 4.5320 282343.00 277866.00 918.87
92 4.5380 282086.00 277632.00 915.06
93 4.5440 281085.00 277397.00 917.06
94 4.5500 281748.00 277163.00 914.14
95 4.5560 280114.00 276975.00 914.42
96 4.5620 281788.00 276880.00 914.51
97 4.5680 279821.00 276785.00 913.61
98 4.5740 281327.00 276690.00 917.51
99 4.5800 279819.00 276595.00 913.73
100 4.5860 280241.00 276499.00 909.90
101 4.5920 279090.00 276403.00 912.81
102 4.5980 281220.00 276307.00 915.07
103 4.6040 278293.00 276211.00 909.55
104 4.6100 278434.00 276114.00 912.21
105 4.6160 279342.00 276018.00 913.07
106 4.6220 278920.00 275921.00 910.53
107 4.6280 276706.00 275824.00 906.77
108 4.6340 278105.00 275727.00 907.26
109 4.6400 277607.00 275630.00 907.53
110 4.6460 277336.00 275532.00 908.52
111 4.6520 275334.00 275435.00 904.46
112 4.6580 275227.00 275338.00 903.05
113 4.6640 275094.00 275240.00 903.94
114 4.6700 277040.00 275143.00 907.59
115 4.6760 275029.00 275046.00 903.53
116 4.6820 273636.00 274949.00 901.22
117 4.6880 274502.00 274853.00 907.63
118 4.6940 273909.00 274756.00 903.63
119 4.7000 273620.00 274660.00 908.67
120 4.7060 272739.00 274565.00 900.89
121 4.7120 274775.00 274470.00 899.32
122 4.7180 273032.00 274375.00 903.79
123 4.7240 275610.00 274281.00 902.30
124 4.7300 273247.00 274188.00 902.62
125 4.7360 272650.00 274096.00 900.13
126 4.7420 272209.00 274005.00 901.56
127 4.7480 269990.00 273915.00 899.45
128 4.7540 271346.00 273826.00 896.45
129 4.7600 272745.00 273738.00 900.19
130 4.7660 271298.00 273653.00 897.84
131 4.7720 270827.00 273568.00 896.21
132 4.7780 269469.00 273486.00 895.54
133 4.7840 270330.00 273406.00 897.56
134 4.7900 270630.00 273328.00 895.95
135 4.7960 269480.00 273253.00 897.38
136 4.8020 270329.00 273181.00 897.62
137 4.8080 272011.00 273112.00 897.26
138 4.8140 269406.00 273046.00 898.56
139 4.8200 269865.00 272983.00 898.43
140 4.8260 270267.00 272924.00 893.51
141 4.8320 267287.00 272870.00 891.80
142 4.8380 267732.00 272819.00 894.60
143 4.8440 269127.00 272774.00 892.35
144 4.8500 267620.00 272734.00 892.27
145 4.8560 267170.00 272699.00 892.34
146 4.8620 269125.00 272669.00 898.01
147 4.8680 268885.00 272646.00 895.70
148 4.8740 268185.00 272629.00 895.32
149 4.8800 269074.00 272619.00 891.63
150 4.8860 269158.00 272616.00 889.51
151 4.8920 266773.00 272620.00 893.57
152 4.8980 267591.00 272632.00 893.43
153 4.9040 267382.00 272652.00 892.43
154 4.9100 269281.00 272680.00 891.32
155 4.9160 267617.00 272717.00 889.21
156 4.9220 267174.00 272763.00 886.18
157 4.9280 267169.00 272817.00 893.26
158 4.9340 267894.00 272881.00 890.76
159 4.9400 266116.00 272954.00 891.04
160 4.9460 266696.00 273046.00 893.54
161 4.9520 265485.00 273139.00 889.49
162 4.9580 265128.00 273241.00 886.76
163 4.9640 265704.00 273352.00 886.04
164 4.9700 264819.00 273474.00 889.79
165 4.9760 264990.00 273605.00 892.16
166 4.9820 268468.00 273745.00 897.03
167 4.9880 268159.00 273895.00 901.03
168 4.9940 266127.00 274053.00 896.56
169 5.0000 265603.00 274220.00 893.62
170 5.0060 265487.00 274395.00 896.97
171 5.0120 266333.00 274578.00 897.47
172 5.0180 271167.00 274768.00 894.29
173 5.0240 269958.00 274964.00 890.14
174 5.0300 269511.00 275166.00 891.99
175 5.0360 269584.00 275373.00 892.06
176 5.0420 268509.00 275584.00 894.70
177 5.0480 268268.00 275798.00 891.96
178 5.0540 270854.00 276015.00 890.33
179 5.0600 269511.00 276232.00 891.35
180 5.0660 269348.00 276449.00 892.85
181 5.0720 269103.00 276665.00 890.94
182 5.0780 269166.00 276877.00 890.31
183 5.0840 268442.00 277086.00 893.38
184 5.0900 271776.00 277288.00 888.53
185 5.0960 269500.00 277483.00 890.79
186 5.1020 268050.00 277668.00 890.53
187 5.1080 270134.00 277842.00 892.25
188 5.1140 271054.00 278004.00 891.85
189 5.1200 269488.00 278150.00 893.86
190 5.1260 269884.00 278280.00 893.99
191 5.1320 272056.00 278391.00 891.31
192 5.1380 270426.00 278482.00 893.22
193 5.1440 271566.00 278550.00 892.80
194 5.1500 272595.00 278595.00 891.27
195 5.1560 270577.00 278614.00 895.65
196 5.1620 272710.00 278606.00 893.08
197 5.1680 274098.00 278570.00 894.70
198 5.1740 272160.00 278505.00 893.29
199 5.1800 272481.00 278410.00 895.67
200 5.1860 272610.00 278285.00 897.08
201 5.1920 271540.00 278129.00 894.31
202 5.1980 268741.00 277944.00 894.19
203 5.2040 271673.00 277729.00 890.24
204 5.2100 270528.00 277484.00 894.65
205 5.2160 268557.00 277212.00 890.10
206 5.2220 268213.00 276913.00 889.03
207 5.2280 268645.00 276589.00 889.66
208 5.2340 266543.00 276240.00 887.67
209 5.2400 267963.00 275870.00 884.52
210 5.2460 267664.00 275479.00 886.20
211 5.2520 266630.00 275070.00 884.33
212 5.2580 266020.00 274644.00 882.30
213 5.2640 266438.00 274204.00 883.51
214 5.2700 264679.00 273750.00 881.47
215 5.2760 264184.00 273286.00 884.39
216 5.2820 265984.00 272813.00 880.72
217 5.2880 264585.00 272332.00 882.76
218 5.2940 262887.00 271845.00 879.84
219 5.3000 263823.00 271354.00 878.46
220 5.3060 263557.00 270860.00 881.14
221 5.3120 262087.00 270365.00 879.75
222 5.3180 264339.00 269870.00 876.70
223 5.3240 261932.00 269376.00 877.90
224 5.3300 261330.00 268884.00 877.35
225 5.3360 260714.00 268395.00 877.26
226 5.3420 260649.00 267910.00 876.92
227 5.3480 259547.00 267431.00 876.56
228 5.3540 261272.00 266958.00 875.68
229 5.3600 261646.00 266491.00 874.30
230 5.3660 258989.00 266031.00 875.03
231 5.3720 261431.00 265579.00 876.71
232 5.3780 259581.00 265136.00 873.54
233 5.3840 258581.00 264701.00 869.87
234 5.3900 257103.00 264275.00 871.26
235 5.3960 260778.00 263858.00 869.30
236 5.4020 256244.00 263451.00 867.61
237 5.4080 258316.00 263053.00 874.32
238 5.4140 258502.00 262665.00 874.81
239 5.4200 257254.00 262287.00 874.19
240 5.4260 256713.00 261919.00 871.71
241 5.4320 258431.00 261560.00 869.84
242 5.4380 258003.00 261211.00 874.17
243 5.4440 255726.00 260872.00 868.28
244 5.4500 255375.00 260542.00 868.73
245 5.4560 255382.00 260221.00 869.98
246 5.4620 255266.00 259909.00 868.92
247 5.4680 255503.00 259605.00 870.86
248 5.4740 253636.00 259310.00 864.49
249 5.4800 254658.00 259023.00 869.51
250 5.4860 255510.00 258744.00 869.98
251 5.4920 254604.00 258473.00 865.86
252 5.4980 253507.00 258208.00 869.38
253 5.5040 253193.00 257951.00 867.29
254 5.5100 253324.00 257699.00 866.55
255 5.5160 253145.00 257454.00 862.67
256 5.5220 253593.00 257215.00 865.03
257 5.5280 253721.00 256981.00 867.05
258 5.5340 252393.00 256753.00 861.78
259 5.5400 249472.00 256529.00 860.83
260 5.5460 253107.00 256310.00 860.65
261 5.5520 251888.00 256095.00 861.66
262 5.5580 250421.00 255885.00 860.70
263 5.5640 250626.00 255678.00 857.74
264 5.5700 249926.00 255474.00 857.27
265 5.5760 250328.00 255273.00 857.87
266 5.5820 251268.00 255076.00 857.90
267 5.5880 250420.00 254881.00 855.87
268 5.5940 250069.00 254688.00 859.34
269 5.6000 249588.00 254498.00 859.41
270 5.6060 248601.00 254310.00 854.83
271 5.6120 249267.00 254124.00 857.29
272 5.6180 250149.00 253940.00 857.27
273 5.6240 249123.00 253757.00 854.58
274 5.6300 247966.00 253576.00 851.93
275 5.6360 248688.00 253396.00 859.89
276 5.6420 246546.00 253217.00 859.11
277 5.6480 248031.00 253040.00 858.77
278 5.6540 247140.00 252863.00 861.71
279 5.6600 249431.00 252687.00 854.44
280 5.6660 248746.00 252512.00 860.11
281 5.6720 248182.00 252338.00 861.02
282 5.6780 248362.00 252164.00 858.84
283 5.6840 246614.00 251991.00 857.97
284 5.6900 247813.00 251818.00 857.77
285 5.6960 247752.00 251646.00 857.84
286 5.7020 250480.00 251474.00 858.22
287 5.7080 247549.00 251303.00 861.95
288 5.7140 246274.00 251132.00 855.28
289 5.7200 248114.00 250961.00 861.88
290 5.7260 245553.00 250791.00 854.67
291 5.7320 247305.00 250620.00 858.28
292 5.7380 246151.00 250450.00 854.00
293 5.7440 245925.00 250323.00 859.22
294 5.7500 246813.00 250282.00 854.24
295 5.7560 246937.00 250241.00 857.73
296 5.7620 245716.00 250201.00 855.00
297 5.7680 245641.00 250160.00 855.03
298 5.7740 247127.00 250119.00 853.39
299 5.7800 246269.00 250079.00 858.37
300 5.7860 245148.00 250038.00 854.67
301 5.7920 245366.00 249998.00 855.08
302 5.7980 246611.00 249958.00 856.53
303 5.8040 244716.00 249917.00 855.53
304 5.8100 245335.00 249877.00 852.07
305 5.8160 245221.00 249837.00 854.39
306 5.8220 245072.00 249796.00 852.25
307 5.8280 244217.00 249756.00 853.36
308 5.8340 244037.00 249716.00 852.54
309 5.8400 245483.00 249676.00 854.46
310 5.8460 244070.00 249636.00 851.60
311 5.8520 243910.00 249596.00 852.84
312 5.8580 245309.00 249555.00 854.48
313 5.8640 245139.00 249515.00 853.48
314 5.8700 243577.00 249475.00 850.91
315 5.8760 243707.00 249435.00 851.38
316 5.8820 244137.00 249395.00 852.49
317 5.8880 244433.00 249355.00 851.37
318 5.8940 243326.00 249315.00 850.01
319 5.9000 243627.00 249274.00 854.59
320 5.9060 245065.00 249234.00 851.38
321 5.9120 244173.00 249194.00 852.33
322 5.9180 244094.00 249154.00 854.91
323 5.9240 244048.00 249114.00 850.94
324 5.9300 242216.00 249074.00 852.98
325 5.9360 243565.00 249034.00 855.74
326 5.9420 243538.00 248994.00 847.17
327 5.9480 242313.00 248954.00 849.31
328 5.9540 242289.00 248914.00 853.55
329 5.9600 243063.00 248874.00 848.58
330 5.9660 242108.00 248834.00 847.69
331 5.9720 242934.00 248794.00 847.36
332 5.9780 242378.00 248754.00 850.41
333 5.9840 242873.00 248714.00 854.34
334 5.9900 242363.00 248674.00 845.90
335 5.9960 242434.00 248634.00 849.52
336 6.0020 241143.00 248595.00 849.66
337 6.0080 240469.00 248555.00 849.38
338 6.0140 241363.00 248515.00 853.77
339 6.0200 242230.00 248475.00 846.92
340 6.0260 240903.00 248436.00 849.48
341 6.0320 241614.00 248396.00 847.02
342 6.0380 241383.00 248357.00 847.56
343 6.0440 241380.00 248318.00 849.34
344 6.0500 241479.00 248278.00 850.56
345 6.0560 241237.00 248239.00 850.16
346 6.0620 240844.00 248200.00 845.30
347 6.0680 241588.00 248161.00 848.68
348 6.0740 243598.00 248122.00 844.92
349 6.0800 240741.00 248083.00 847.74
350 6.0860 241972.00 248044.00 845.48
351 6.0920 241852.00 248005.00 847.73
352 6.0980 241732.00 247967.00 847.78
353 6.1040 241316.00 247928.00 846.70
354 6.1100 241612.00 247890.00 846.27
355 6.1160 240427.00 247851.00 845.47
356 6.1220 240291.00 247813.00 845.01
357 6.1280 241458.00 247775.00 845.65
358 6.1340 240165.00 247737.00 846.52
359 6.1400 240635.00 247699.00 849.47
360 6.1460 239715.00 247661.00 845.54
361 6.1520 240766.00 247624.00 845.65
362 6.1580 241013.00 247586.00 849.65
363 6.1640 240312.00 247549.00 843.84
364 6.1700 240721.00 247512.00 844.92
365 6.1760 241334.00 247475.00 845.40
366 6.1820 240396.00 247438.00 845.52
367 6.1880 241152.00 247401.00 844.34
368 6.1940 239459.00 247364.00 849.30
369 6.2000 240830.00 247328.00 844.95
370 6.2060 239890.00 247291.00 844.47
371 6.2120 240305.00 247255.00 846.90
372 6.2180 240787.00 247219.00 842.98
373 6.2240 240388.00 247183.00 847.02
374 6.2300 241025.00 247147.00 847.89
375 6.2360 241686.00 247112.00 847.16
376 6.2420 239704.00 247076.00 844.75
377 6.2480 240305.00 247041.00 843.95
378 6.2540 241452.00 247006.00 845.42
379 6.2600 240986.00 246971.00 846.12
380 6.2660 240134.00 246936.00 845.14
381 6.2720 241134.00 246902.00 845.97
382 6.2780 240347.00 246867.00 848.89
383 6.2840 240390.00 246833.00 838.79
384 6.2900 240107.00 246798.00 844.07
385 6.2960 239902.00 246764.00 843.26
386 6.3020 239965.00 246730.00 845.20
387 6.3080 238438.00 246696.00 847.37
388 6.3140 240907.00 246663.00 850.11
389 6.3200 239438.00 246629.00 849.46
390 6.3260 239678.00 246596.00 849.51
391 6.3320 239790.00 246562.00 847.85
392 6.3380 239442.00 246529.00 849.68
393 6.3440 239450.00 246496.00 848.89
394 6.3500 239255.00 246463.00 849.99
395 6.3560 239627.00 246430.00 850.29
396 6.3620 239698.00 246397.00 849.64
397 6.3680 238589.00 246365.00 847.42
398 6.3740 238813.00 246332.00 847.76
399 6.3800 239193.00 246300.00 848.41
400 6.3860 239227.00 246267.00 848.93
401 6.3920 238955.00 246235.00 847.81
402 6.3980 240478.00 246202.00 849.79
403 6.4040 238476.00 246170.00 847.90
404 6.4100 239366.00 246138.00 847.93
405 6.4160 239822.00 246106.00 846.38
406 6.4220 238044.00 246073.00 850.51
407 6.4280 239090.00 246041.00 845.44
408 6.4340 239386.00 246009.00 848.55
409 6.4400 239062.00 245976.00 851.20
410 6.4460 238732.00 245944.00 849.70
411 6.4520 238424.00 245912.00 848.37
412 6.4580 239632.00 245879.00 847.96
413 6.4640 238341.00 245847.00 849.81
414 6.4700 238475.00 245814.00 846.66
415 6.4760 239869.00 245782.00 847.99
416 6.4820 239687.00 245749.00 848.54
417 6.4880 238210.00 245716.00 850.04
418 6.4940 239062.00 245683.00 846.27
419 6.5000 237654.00 245649.00 848.66
420 6.5060 238479.00 245616.00 847.57
421 6.5120 238280.00 245583.00 849.02
422 6.5180 239840.00 245549.00 846.32
423 6.5240 238543.00 245515.00 846.82
424 6.5300 240833.00 245481.00 845.59
425 6.5360 237537.00 245446.00 849.10
426 6.5420 237933.00 245412.00 847.73
427 6.5480 238396.00 245377.00 850.30
428 6.5540 238293.00 245341.00 847.81
429 6.5600 239514.00 245306.00 849.07
430 6.5660 239066.00 245270.00 847.22
431 6.5720 239568.00 245234.00 848.36
432 6.5780 239604.00 245197.00 849.63
433 6.5840 238434.00 245160.00 847.37
434 6.5900 239451.00 245123.00 850.62
435 6.5960 239527.00 245086.00 846.09
436 6.6020 238968.00 245048.00 850.01
437 6.6080 240116.00 245010.00 849.54
438 6.6140 239378.00 244971.00 847.98
439 6.6200 238942.00 244932.00 851.94
440 6.6260 241127.00 244893.00 850.62
441 6.6320 239017.00 244853.00 846.61
442 6.6380 239570.00 244813.00 847.95
443 6.6440 239914.00 244772.00 848.38
444 6.6500 239645.00 244731.00 848.26
445 6.6560 238533.00 244690.00 847.00
446 6.6620 239636.00 244648.00 847.54
447 6.6680 240738.00 244606.00 847.60
448 6.6740 239593.00 244563.00 845.79
449 6.6800 240274.00 244521.00 854.20
450 6.6860 239221.00 244477.00 846.42
451 6.6920 240071.00 244434.00 849.76
452 6.6980 239958.00 244390.00 848.80
453 6.7040 239542.00 244346.00 849.44
454 6.7100 239544.00 244301.00 849.98
455 6.7160 239411.00 244256.00 850.02
456 6.7220 241332.00 244239.00 852.41
457 6.7280 241411.00 244250.00 847.52
458 6.7340 239101.00 244261.00 847.94
459 6.7400 241283.00 244271.00 849.30
460 6.7460 240957.00 244281.00 849.50
461 6.7520 240610.00 244291.00 849.23
462 6.7580 239458.00 244300.00 851.76
463 6.7640 240028.00 244310.00 847.64
464 6.7700 239986.00 244319.00 847.87
465 6.7760 239080.00 244327.00 846.94
466 6.7820 240496.00 244336.00 847.22
467 6.7880 238755.00 244344.00 850.62
468 6.7940 240325.00 244352.00 849.46
469 6.8000 240529.00 244360.00 849.26
470 6.8060 239956.00 244367.00 851.59
471 6.8120 240706.00 244375.00 848.60
472 6.8180 240947.00 244382.00 851.02
473 6.8240 239373.00 244389.00 849.47
474 6.8300 239992.00 244395.00 849.68
475 6.8360 239849.00 245322.00 847.35
476 6.8420 238895.00 245338.00 851.45
477 6.8480 238904.00 245354.00 847.48
478 6.8540 240818.00 245370.00 848.40
479 6.8600 241327.00 245386.00 849.72
480 6.8660 239465.00 245401.00 851.02
481 6.8720 240190.00 245417.00 850.90
482 6.8780 240623.00 245433.00 850.27
483 6.8840 240322.00 245449.00 849.62
484 6.8900 241872.00 245464.00 850.45
485 6.8960 241364.00 245480.00 851.61
486 6.9020 240977.00 245496.00 850.30
487 6.9080 241307.00 245511.00 854.35
488 6.9140 240916.00 245527.00 848.88
489 6.9200 241259.00 245542.00 850.15
490 6.9260 239991.00 245558.00 850.14
491 6.9320 240943.00 245574.00 851.89
492 6.9380 241921.00 245589.00 853.03
493 6.9440 241216.00 245604.00 850.84
494 6.9500 240370.00 245620.00 851.52
495 6.9560 240236.00 245635.00 847.78
496 6.9620 238983.00 245651.00 852.65
497 6.9680 242148.00 245666.00 852.21
498 6.9740 241097.00 245682.00 853.19
499 6.9800 242456.00 245697.00 854.15
500 6.9860 241174.00 245712.00 855.52
501 6.9920 243394.00 245727.00 855.90
502 6.9980 241502.00 245743.00 859.38
503 7.0040 240954.00 245758.00 857.36
504 7.0100 242300.00 245773.00 863.36
505 7.0160 244562.00 245788.00 855.32
506 7.0220 245070.00 245803.00 856.66
507 7.0280 245560.00 245818.00 853.44
508 7.0340 246332.00 245833.00 854.83
509 7.0400 244585.00 245848.00 857.18
510 7.0460 244543.00 245863.00 855.95
511 7.0520 245156.00 245878.00 854.19
512 7.0580 244076.00 245893.00 855.15
513 7.0640 243896.00 245908.00 856.11
514 7.0700 247040.00 245923.00 854.86
515 7.0760 244226.00 245938.00 853.85
516 7.0820 245728.00 245952.00 853.49
517 7.0880 246321.00 245967.00 854.28
518 7.0940 245670.00 245982.00 856.37
519 7.1000 245773.00 245997.00 856.43
520 7.1060 247190.00 246012.00 854.09
521 7.1120 246698.00 246026.00 856.56
522 7.1180 246078.00 246041.00 857.73
523 7.1240 246447.00 246056.00 857.04
524 7.1300 245423.00 246071.00 856.82
525 7.1360 245459.00 246086.00 855.91
526 7.1420 247131.00 246101.00 856.72
527 7.1480 246743.00 246116.00 855.62
528 7.1540 246408.00 246131.00 855.60
529 7.1600 246517.00 246146.00 858.51
530 7.1660 248345.00 246162.00 856.06
531 7.1720 246737.00 246177.00 856.38
532 7.1780 247602.00 246193.00 857.97
533 7.1840 248405.00 246209.00 857.74
534 7.1900 246588.00 246225.00 861.72
535 7.1960 247280.00 246318.00 856.96
536 7.2020 246195.00 246334.00 856.55
537 7.2080 247837.00 246352.00 856.66
538 7.2140 247115.00 246369.00 860.46
539 7.2200 249105.00 246387.00 858.51
540 7.2260 247636.00 246405.00 859.16
541 7.2320 248082.00 246423.00 856.77
542 7.2380 249127.00 246442.00 858.28
543 7.2440 248180.00 246461.00 860.34
544 7.2500 249307.00 246481.00 858.64
545 7.2560 249959.00 246502.00 860.52
546 7.2620 249340.00 246523.00 860.83
547 7.2680 248813.00 246544.00 860.21
548 7.2740 249813.00 246567.00 861.57
549 7.2800 249159.00 246590.00 859.27
550 7.2860 249362.00 246613.00 860.96
551 7.2920 249999.00 246638.00 859.96
552 7.2980 250243.00 246663.00 862.80
553 7.3040 250251.00 246690.00 862.59
554 7.3100 250279.00 246717.00 863.52
555 7.3160 251117.00 246745.00 863.88
556 7.3220 251516.00 246774.00 864.03
557 7.3280 250163.00 246805.00 865.07
558 7.3340 251930.00 246836.00 862.38
559 7.3400 251695.00 246869.00 863.91
560 7.3460 250189.00 246903.00 865.01
561 7.3520 252050.00 246939.00 864.86
562 7.3580 252074.00 246975.00 864.66
563 7.3640 252643.00 247014.00 866.49
564 7.3700 253669.00 247054.00 865.31
565 7.3760 253258.00 247096.00 866.56
566 7.3820 252019.00 247139.00 865.78
567 7.3880 252912.00 247184.00 867.54
568 7.3940 251822.00 247231.00 864.23
569 7.4000 253949.00 247281.00 868.67
570 7.4060 254771.00 247332.00 868.48
571 7.4120 253537.00 247385.00 868.38
572 7.4180 254430.00 247441.00 871.21
573 7.4240 255169.00 247500.00 870.66
574 7.4300 254017.00 247561.00 868.36
575 7.4360 253608.00 247624.00 870.92
576 7.4420 254255.00 247691.00 870.59
577 7.4480 255368.00 247760.00 870.72
578 7.4540 255209.00 247832.00 871.42
579 7.4600 253268.00 247908.00 873.28
580 7.4660 255467.00 247987.00 870.71
581 7.4720 255356.00 248070.00 871.08
582 7.4780 253649.00 248156.00 872.27
583 7.4840 255767.00 248247.00 869.33
584 7.4900 255983.00 248341.00 874.20
585 7.4960 254100.00 248444.00 872.70
586 7.5020 255248.00 248547.00 875.28
587 7.5080 255401.00 248656.00 872.50
588 7.5140 256637.00 248769.00 874.52
589 7.5200 257918.00 248888.00 875.08
590 7.5260 257017.00 249012.00 872.31
591 7.5320 257006.00 249142.00 875.69
592 7.5380 257017.00 249278.00 874.93
593 7.5440 257973.00 249421.00 876.75
594 7.5500 258182.00 249571.00 876.10
595 7.5560 258543.00 249728.00 876.36
596 7.5620 258217.00 249893.00 874.79
597 7.5680 259012.00 250066.00 874.17
598 7.5740 258615.00 250248.00 876.78
599 7.5800 259923.00 250439.00 876.45
600 7.5860 260936.00 250639.00 877.99
601 7.5920 259639.00 250850.00 880.78
602 7.5980 262096.00 251072.00 878.16
603 7.6040 261288.00 251305.00 877.43
604 7.6100 260328.00 251551.00 877.82
605 7.6160 262177.00 251810.00 880.17
606 7.6220 262347.00 252082.00 878.11
607 7.6280 263735.00 252370.00 877.66
608 7.6340 263616.00 252674.00 881.98
609 7.6400 262954.00 252995.00 882.38
610 7.6460 263262.00 253334.00 885.78
611 7.6520 263525.00 253692.00 887.22
612 7.6580 263856.00 254072.00 890.06
613 7.6640 264592.00 254474.00 885.13
614 7.6700 267283.00 254900.00 887.18
615 7.6760 266337.00 255352.00 889.41
616 7.6820 264941.00 255832.00 888.63
617 7.6880 264948.00 256343.00 891.43
618 7.6940 268753.00 256887.00 887.86
619 7.7000 267159.00 257466.00 893.22
620 7.7060 269187.00 258083.00 892.41
621 7.7120 269335.00 258743.00 895.35
622 7.7180 267971.00 259449.00 896.57
623 7.7240 270064.00 260204.00 896.26
624 7.7300 269315.00 261014.00 896.69
625 7.7360 271293.00 261883.00 900.68
626 7.7420 271294.00 262819.00 898.87
627 7.7480 273243.00 263826.00 897.21
628 7.7540 273057.00 264913.00 903.10
629 7.7600 271635.00 266087.00 900.60
630 7.7660 273422.00 267359.00 904.77
631 7.7720 275877.00 268740.00 903.39
632 7.7780 275379.00 270241.00 903.72
633 7.7840 279297.00 271877.00 908.31
634 7.7900 278868.00 273664.00 910.61
635 7.7960 279007.00 275621.00 914.64
636 7.8020 279487.00 277771.00 916.55
637 7.8080 283075.00 280138.00 916.03
638 7.8140 284873.00 282752.00 919.01
639 7.8200 286517.00 285649.00 918.99
640 7.8260 289466.00 288871.00 927.58
641 7.8320 290938.00 292467.00 929.62
642 7.8380 292160.00 296497.00 934.06
643 7.8440 294856.00 301031.00 940.49
644 7.8500 298887.00 306158.00 941.23
645 7.8560 302452.00 311983.00 948.61
646 7.8620 310239.00 318636.00 956.10
647 7.8680 313677.00 326280.00 968.35
648 7.8740 322517.00 335119.00 980.29
649 7.8800 330309.00 345411.00 994.42
650 7.8860 343921.00 357491.00 1009.31
651 7.8920 353903.00 371800.00 1032.23
652 7.8980 373603.00 388970.00 1060.03
653 7.9040 398965.00 409977.00 1094.39
654 7.9100 434733.00 436533.00 1144.86
655 7.9160 483642.00 471964.00 1205.87
656 7.9220 551283.00 522884.00 1285.75
657 7.9280 645198.00 602004.00 1392.46
658 7.9340 789986.00 731840.00 1533.86
659 7.9400 1017850.00 947498.00 1746.30
660 7.9460 1345480.00 1295710.00 2013.67
661 7.9520 1819170.00 1825390.00 2327.45
662 7.9580 2545160.00 2568490.00 2770.07
663 7.9640 3421830.00 3514230.00 3189.54
664 7.9700 4339060.00 4582160.00 3610.69
665 7.9760 5533560.00 5600530.00 4050.03
666 7.9820 6297180.00 6305950.00 4365.67
667 7.9880 6446460.00 6435340.00 4395.38
668 7.9940 5915670.00 5931640.00 4211.71
669 8.0000 4966770.00 5001040.00 3873.06
670 8.0060 3907260.00 3926620.00 3430.09
671 8.0120 2759860.00 2918610.00 2870.02
672 8.0180 1902390.00 2091300.00 2391.22
673 8.0240 1436540.00 1479650.00 2066.31
674 8.0300 1067900.00 1065600.00 1786.42
675 8.0360 821608.00 803850.00 1564.71
676 8.0420 662062.00 645175.00 1413.72
677 8.0480 553075.00 549453.00 1283.80
678 8.0540 465566.00 489400.00 1185.35
679 8.0600 412853.00 448915.00 1114.74
680 8.0660 380506.00 419380.00 1064.16
681 8.0720 354572.00 396442.00 1032.54
682 8.0780 339419.00 377891.00 1005.62
683 8.0840 328989.00 362528.00 990.95
684 8.0900 318705.00 349611.00 975.48
685 8.0960 309210.00 338644.00 960.43
686 8.1020 304579.00 329248.00 954.62
687 8.1080 300656.00 321143.00 947.65
688 8.1140 295307.00 314103.00 944.60
689 8.1200 292645.00 307950.00 933.99
690 8.1260 290015.00 302544.00 929.95
691 8.1320 287446.00 297767.00 928.42
692 8.1380 286574.00 293529.00 925.46
693 8.1440 283215.00 289751.00 922.17
694 8.1500 282926.00 286369.00 918.92
695 8.1560 280394.00 283329.00 915.97
696 8.1620 281285.00 280588.00 914.41
697 8.1680 278295.00 278107.00 913.68
698 8.1740 277082.00 275855.00 911.01
699 8.1800 276590.00 273805.00 909.02
700 8.1860 275762.00 271932.00 909.93
701 8.1920 275785.00 270219.00 906.90
702 8.1980 274450.00 268645.00 908.49
703 8.2040 274071.00 267198.00 904.99
704 8.2100 273404.00 265864.00 904.48
705 8.2160 273057.00 264631.00 902.70
706 8.2220 272750.00 263489.00 904.71
707 8.2280 271691.00 262430.00 901.55
708 8.2340 271383.00 261446.00 901.50
709 8.2400 271792.00 260530.00 900.39
710 8.2460 271120.00 259675.00 901.36
711 8.2520 269950.00 258877.00 897.10
712 8.2580 270558.00 258131.00 899.47
713 8.2640 269521.00 257432.00 899.03
714 8.2700 268623.00 256776.00 896.49
715 8.2760 268534.00 256159.00 892.92
716 8.2820 269713.00 255580.00 894.76
717 8.2880 268074.00 255034.00 896.75
718 8.2940 268647.00 254520.00 896.60
719 8.3000 266009.00 254034.00 898.03
720 8.3060 266936.00 253575.00 894.49
721 8.3120 267362.00 253141.00 896.51
722 8.3180 268642.00 252731.00 897.02
723 8.3240 266742.00 252341.00 896.96
724 8.3300 265314.00 251972.00 896.48
725 8.3360 266871.00 251621.00 897.25
726 8.3420 267586.00 251288.00 901.34
727 8.3480 266914.00 250971.00 897.44
728 8.3540 268196.00 250670.00 897.47
729 8.3600 267481.00 250383.00 899.44
730 8.3660 268232.00 250109.00 898.08
731 8.3720 268903.00 249848.00 901.21
732 8.3780 269849.00 249598.00 901.11
733 8.3840 268494.00 249360.00 901.53
734 8.3900 272075.00 249133.00 902.70
735 8.3960 270793.00 248916.00 903.92
736 8.4020 271141.00 248707.00 904.22
737 8.4080 272671.00 248508.00 904.44
738 8.4140 271122.00 248317.00 906.07
739 8.4200 271609.00 248134.00 902.88
740 8.4260 269825.00 247959.00 902.14
741 8.4320 270165.00 247791.00 900.34
742 8.4380 267701.00 247630.00 898.31
743 8.4440 266912.00 247475.00 899.98
744 8.4500 265199.00 247326.00 894.80
745 8.4560 264084.00 247183.00 894.98
746 8.4620 263549.00 247045.00 892.44
747 8.4680 264410.00 246913.00 888.60
748 8.4740 262853.00 246786.00 892.15
749 8.4800 261241.00 246663.00 886.93
750 8.4860 260930.00 246545.00 888.55
751 8.4920 260501.00 246435.00 888.57
752 8.4980 260626.00 246325.00 886.45
753 8.5040 260478.00 246220.00 885.85
754 8.5100 260828.00 246119.00 884.66
755 8.5160 260179.00 246021.00 884.42
756 8.5220 260292.00 245927.00 882.01
757 8.5280 259119.00 245836.00 886.77
758 8.5340 260200.00 245749.00 883.41
759 8.5400 257657.00 245664.00 886.45
760 8.5460 259491.00 245583.00 885.23
761 8.5520 258670.00 245504.00 884.01
762 8.5580 260492.00 245428.00 887.81
763 8.5640 256825.00 245355.00 882.41
764 8.5700 259269.00 245284.00 887.51
765 8.5760 257208.00 245216.00 882.84
766 8.5820 258161.00 245150.00 880.40
767 8.5880 258254.00 245087.00 883.65
768 8.5940 256501.00 245026.00 879.41
769 8.6000 256613.00 244966.00 882.56
770 8.6060 256953.00 244909.00 880.86
771 8.6120 256347.00 244854.00 881.01
772 8.6180 257147.00 244801.00 880.69
773 8.6240 258087.00 244750.00 879.80
774 8.6300 254732.00 244700.00 879.16
775 8.6360 257566.00 244652.00 879.69
776 8.6420 255609.00 244606.00 878.76
777 8.6480 256138.00 244561.00 877.47
778 8.6540 255678.00 244518.00 879.20
779 8.6600 255670.00 244477.00 876.65
780 8.6660 256036.00 244437.00 873.11
781 8.6720 255692.00 244398.00 878.32
782 8.6780 254310.00 244361.00 875.53
783 8.6840 253936.00 244325.00 877.66
784 8.6900 253367.00 244291.00 873.17
785 8.6960 253924.00 244258.00 873.91
786 8.7020 253655.00 244225.00 877.69
787 8.7080 253308.00 244195.00 876.69
788 8.7140 252878.00 244165.00 874.83
789 8.7200 253854.00 244136.00 873.46
790 8.7260 252403.00 244109.00 875.51
791 8.7320 253543.00 244082.00 870.77
792 8.7380 253042.00 244057.00 870.88
793 8.7440 251859.00 244033.00 874.07
794 8.7500 252512.00 244009.00 873.40
795 8.7560 251059.00 243987.00 873.68
796 8.7620 251279.00 243965.00 869.05
797 8.7680 250426.00 243944.00 870.01
798 8.7740 251780.00 243925.00 869.09
799 8.7800 249388.00 243906.00 866.45
800 8.7860 250149.00 243888.00 868.93
801 8.7920 248648.00 243870.00 868.09
802 8.7980 249527.00 243854.00 870.56
803 8.8040 250417.00 243838.00 865.41
804 8.8100 249758.00 243823.00 866.78
805 8.8160 249670.00 243808.00 869.70
806 8.8220 249176.00 243795.00 867.03
807 8.8280 248577.00 243782.00 867.20
808 8.8340 247618.00 243769.00 865.84
809 8.8400 248275.00 243758.00 866.06
810 8.8460 247763.00 243747.00 864.47
811 8.8520 248556.00 243736.00 862.39
812 8.8580 248147.00 243726.00 865.76
813 8.8640 248223.00 243717.00 864.07
814 8.8700 246776.00 243708.00 868.11
815 8.8760 248134.00 243700.00 863.49
816 8.8820 247418.00 243692.00 862.98
817 8.8880 247519.00 243685.00 861.60
818 8.8940 247363.00 243679.00 862.26
819 8.9000 246809.00 243672.00 863.00
820 8.9060 246776.00 243667.00 864.06
821 8.9120 246554.00 243662.00 862.67
822 8.9180 246000.00 243657.00 858.75
823 8.9240 246535.00 243653.00 862.47
824 8.9300 246736.00 243649.00 860.81
825 8.9360 246739.00 243645.00 861.86
826 8.9420 245210.00 243642.00 861.05
827 8.9480 244972.00 243640.00 860.51
828 8.9540 243984.00 243637.00 862.81
829 8.9600 245559.00 243636.00 856.63
830 8.9660 244376.00 243634.00 858.16
831 8.9720 244677.00 243634.00 857.01
832 8.9780 244188.00 243633.00 860.49
833 8.9840 244773.00 243633.00 859.73
834 8.9900 244568.00 243634.00 862.01
835 8.9960 244127.00 243634.00 864.28
836 9.0020 243722.00 243636.00 862.86
837 9.0080 244020.00 243638.00 860.10
838 9.0140 244623.00 243640.00 859.29
839 9.0200 246168.00 243643.00 860.20
840 9.0260 244940.00 243646.00 858.25
841 9.0320 245221.00 243650.00 856.99
842 9.0380 246227.00 243655.00 856.33
843 9.0440 245019.00 243660.00 856.83
844 9.0500 244790.00 243666.00 856.23
845 9.0560 243445.00 243673.00 857.83
846 9.0620 243485.00 243680.00 854.58
847 9.0680 243977.00 243688.00 855.55
848 9.0740 243922.00 243698.00 853.53
849 9.0800 244742.00 243708.00 853.31
850 9.0860 243344.00 243719.00 853.79
851 9.0920 243426.00 243732.00 852.74
852 9.0980 243898.00 243746.00 854.30
853 9.1040 242367.00 243761.00 852.75
854 9.1100 241851.00 243778.00 851.57
855 9.1160 244702.00 243796.00 850.65
856 9.1220 242096.00 243816.00 853.51
857 9.1280 242364.00 243838.00 852.97
858 9.1340 242089.00 243862.00 851.58
859 9.1400 240986.00 243888.00 851.43
860 9.1460 241318.00 243011.00 850.06
861 9.1520 243423.00 243051.00 848.76
862 9.1580 241396.00 243093.00 848.51
863 9.1640 241572.00 243138.00 848.61
864 9.1700 241285.00 243187.00 852.59
865 9.1760 240979.00 243238.00 847.07
866 9.1820 240690.00 243292.00 850.41
867 9.1880 240897.00 243350.00 847.56
868 9.1940 241998.00 243412.00 850.41
869 9.2000 239714.00 243477.00 848.09
870 9.2060 240356.00 243547.00 847.03
871 9.2120 239502.00 243621.00 849.81
872 9.2180 239983.00 243699.00 850.87
873 9.2240 239989.00 243782.00 848.21
874 9.2300 241354.00 243870.00 845.23
875 9.2360 239752.00 243963.00 846.21
876 9.2420 239330.00 244061.00 848.96
877 9.2480 239401.00 244165.00 846.54
878 9.2540 239271.00 244274.00 847.99
879 9.2600 240321.00 244390.00 848.26
880 9.2660 240549.00 244511.00 844.49
881 9.2720 239577.00 244638.00 846.99
882 9.2780 238441.00 244771.00 844.23
883 9.2840 238358.00 244911.00 846.80
884 9.2900 238952.00 245056.00 844.79
885 9.2960 237982.00 245208.00 846.59
886 9.3020 240981.00 245367.00 845.85
887 9.3080 239196.00 245483.00 843.87
888 9.3140 239349.00 245511.00 848.73
889 9.3200 239256.00 245544.00 845.10
890 9.3260 238413.00 245584.00 845.93
891 9.3320 238836.00 245629.00 846.29
892 9.3380 238908.00 245680.00 847.88
893 9.3440 240191.00 245736.00 842.67
894 9.3500 238769.00 245797.00 847.19
895 9.3560 238562.00 245862.00 845.92
896 9.3620 238793.00 245932.00 843.43
897 9.3680 238113.00 246006.00 846.58
898 9.3740 238411.00 246083.00 843.48
899 9.3800 240336.00 246162.00 845.33
900 9.3860 237995.00 246244.00 843.23
901 9.3920 238217.00 246328.00 841.92
902 9.3980 238574.00 246412.00 846.57
903 9.4040 238282.00 246496.00 842.94
904 9.4100 238367.00 246580.00 846.05
905 9.4160 239563.00 246662.00 844.38
906 9.4220 238869.00 246741.00 846.51
907 9.4280 238711.00 246817.00 844.73
908 9.4340 238064.00 246889.00 844.46
909 9.4400 239005.00 246954.00 847.70
910 9.4460 238041.00 247013.00 845.15
911 9.4520 239202.00 247065.00 846.79
912 9.4580 238960.00 247107.00 846.39
913 9.4640 238627.00 247138.00 845.22
914 9.4700 238866.00 247158.00 846.61
915 9.4760 237921.00 247166.00 845.90
916 9.4820 238081.00 247160.00 845.80
917 9.4880 239293.00 247138.00 848.01
918 9.4940 240268.00 247101.00 847.33
919 9.5000 239154.00 247046.00 846.56
920 9.5060 239355.00 246974.00 848.90
921 9.5120 240014.00 246884.00 850.28
922 9.5180 240519.00 246775.00 847.73
923 9.5240 239866.00 246646.00 851.47
924 9.5300 242023.00 246498.00 846.07
925 9.5360 239892.00 246330.00 847.63
926 9.5420 239321.00 246143.00 849.84
927 9.5480 238967.00 245937.00 846.17
928 9.5540 239143.00 245713.00 845.54
929 9.5600 239399.00 245472.00 846.58
930 9.5660 239250.00 245214.00 842.76
931 9.5720 237720.00 244939.00 841.47
932 9.5780 236717.00 244651.00 842.72
933 9.5840 237285.00 244348.00 843.40
934 9.5900 238272.00 244033.00 840.04
935 9.5960 236909.00 243708.00 841.79
936 9.6020 236168.00 243372.00 843.19
937 9.6080 238096.00 243027.00 838.60
938 9.6140 236679.00 242675.00 839.20
939 9.6200 236156.00 242316.00 841.24
940 9.6260 236488.00 241952.00 837.84
941 9.6320 235037.00 241584.00 836.03
942 9.6380 235014.00 241213.00 841.16
943 9.6440 236741.00 240840.00 836.94
944 9.6500 235238.00 240466.00 841.10
945 9.6560 234229.00 240093.00 843.99
946 9.6620 235226.00 239719.00 837.64
947 9.6680 234961.00 239346.00 839.66
948 9.6740 235047.00 238975.00 839.79
949 9.6800 234702.00 238608.00 840.69
950 9.6860 235785.00 238243.00 837.29
951 9.6920 233849.00 237882.00 839.42
952 9.6980 234663.00 237526.00 841.49
953 9.7040 236154.00 237174.00 836.57
954 9.7100 233433.00 236827.00 840.53
955 9.7160 233134.00 236487.00 838.01
956 9.7220 234838.00 236152.00 835.59
957 9.7280 234455.00 235823.00 835.44
958 9.7340 231888.00 235500.00 838.56
959 9.7400 232510.00 235184.00 837.18
960 9.7460 232642.00 234875.00 837.13
961 9.7520 230952.00 234573.00 834.38
962 9.7580 233404.00 234277.00 834.51
963 9.7640 232193.00 233989.00 833.25
964 9.7700 232024.00 233707.00 830.22
965 9.7760 231255.00 233433.00 831.42
966 9.7820 231210.00 233165.00 834.56
967 9.7880 230578.00 232905.00 832.27
968 9.7940 231300.00 232651.00 832.65
969 9.8000 230935.00 232403.00 834.13
970 9.8060 229640.00 232163.00 829.94
971 9.8120 229847.00 231929.00 829.88
972 9.8180 229593.00 231701.00 827.60
973 9.8240 229530.00 231479.00 830.81
974 9.8300 228752.00 231263.00 828.43
975 9.8360 231272.00 231053.00 830.64
976 9.8420 229068.00 230848.00 828.33
977 9.8480 227069.00 230649.00 825.95
978 9.8540 228722.00 230455.00 832.34
979 9.8600 229171.00 230266.00 830.23
980 9.8660 228794.00 230081.00 831.66
981 9.8720 230091.00 229902.00 828.71
982 9.8780 228278.00 229726.00 830.44
983 9.8840 227652.00 229555.00 829.96
984 9.8900 227617.00 229388.00 832.51
985 9.8960 227175.00 229225.00 830.26
986 9.9020 228040.00 229065.00 833.16
987 9.9080 227831.00 228908.00 827.28
988 9.9140 227635.00 228755.00 828.88
989 9.9200 227307.00 228605.00 830.57
990 9.9260 226483.00 228458.00 829.94
991 9.9320 226505.00 228314.00 829.94
992 9.9380 226815.00 228173.00 830.49
993 9.9440 227697.00 228033.00 825.67
994 9.9500 225987.00 227897.00 827.16
995 9.9560 227258.00 227762.00 826.05
996 9.9620 225921.00 227630.00 827.05
997 9.9680 225063.00 227500.00 826.43
998 9.9740 227008.00 227371.00 827.09
999 9.9800 225853.00 227245.00 825.46
1000 9.9860 225898.00 227120.00 825.99
1001 9.9920 225437.00 226996.00 826.66
1002 9.9980 225080.00 226875.00 823.75
1003 10.0040 224887.00 226755.00 828.18
1004 10.0100 225120.00 226636.00 827.06
1005 10.0160 225145.00 226519.00 826.01
1006 10.0220 226000.00 226402.00 825.18
1007 10.0280 225679.00 226288.00 821.10
1008 10.0340 223840.00 226174.00 825.51
1009 10.0400 224794.00 226061.00 823.71
1010 10.0460 223930.00 225950.00 825.46
1011 10.0520 224537.00 225839.00 826.81
1012 10.0580 225388.00 225730.00 824.37
1013 10.0640 224714.00 225621.00 824.09
1014 10.0700 224798.00 225514.00 819.99
1015 10.0760 224495.00 225407.00 825.41
1016 10.0820 223809.00 225301.00 824.13
1017 10.0880 224920.00 225196.00 820.66
1018 10.0940 223650.00 225092.00 822.29
1019 10.1000 223894.00 224988.00 819.95
1020 10.1060 223505.00 224886.00 823.23
1021 10.1120 224453.00 224784.00 821.63
1022 10.1180 223786.00 224682.00 824.17
1023 10.1240 222598.00 224581.00 820.35
1024 10.1300 223867.00 224481.00 819.82
1025 10.1360 223659.00 224381.00 821.67
1026 10.1420 223411.00 224282.00 817.68
1027 10.1480 222509.00 224184.00 821.25
1028 10.1540 222899.00 224086.00 818.27
1029 10.1600 222294.00 223988.00 823.67
1030 10.1660 222433.00 223891.00 821.63
1031 10.1720 223180.00 223794.00 818.17
1032 10.1780 223425.00 223698.00 822.10
1033 10.1840 223251.00 223602.00 817.69
1034 10.1900 223215.00 223506.00 820.55
1035 10.1960 222418.00 223411.00 823.28
1036 10.2020 223272.00 223316.00 818.47
1037 10.2080 221771.00 223221.00 819.17
1038 10.2140 222767.00 223126.00 817.21
1039 10.2200 221896.00 223032.00 820.41
1040 10.2260 222764.00 222938.00 819.09
1041 10.2320 221648.00 222844.00 819.77
1042 10.2380 221535.00 222750.00 820.20
1043 10.2440 222257.00 222656.00 816.65
1044 10.2500 222104.00 222562.00 816.75
1045 10.2560 221862.00 222468.00 815.03
1046 10.2620 221704.00 222374.00 819.61
1047 10.2680 221264.00 222280.00 813.26
1048 10.2740 220673.00 222186.00 817.15
1049 10.2800 221855.00 222092.00 820.85
1050 10.2860 221593.00 221998.00 815.33
1051 10.2920 221201.00 221904.00 814.67
1052 10.2980 220612.00 221810.00 815.83
1053 10.3040 219949.00 221715.00 816.98
1054 10.3100 220201.00 221620.00 814.95
1055 10.3160 220358.00 221525.00 817.43
1056 10.3220 219661.00 221430.00 818.66
1057 10.3280 220502.00 221335.00 815.99
1058 10.3340 219985.00 221239.00 819.54
1059 10.3400 219676.00 221143.00 813.84
1060 10.3460 219303.00 221047.00 817.50
1061 10.3520 219647.00 220950.00 817.15
1062 10.3580 220091.00 220854.00 816.88
1063 10.3640 219299.00 220757.00 814.35
1064 10.3700 219650.00 220659.00 816.46
1065 10.3760 219550.00 220561.00 817.36
1066 10.3820 218473.00 220463.00 814.84
1067 10.3880 218150.00 220365.00 812.72
1068 10.3940 217881.00 220267.00 815.08
1069 10.4000 218316.00 220168.00 813.34
1070 10.4060 218826.00 220069.00 814.09
1071 10.4120 218646.00 219969.00 811.21
1072 10.4180 216967.00 219870.00 813.75
1073 10.4240 217187.00 219770.00 812.06
1074 10.4300 218280.00 219670.00 813.52
1075 10.4360 217405.00 219570.00 812.41
1076 10.4420 217446.00 219470.00 812.31
1077 10.4480 216659.00 219369.00 812.89
1078 10.4540 216925.00 219269.00 810.42
1079 10.4600 216170.00 219168.00 809.90
1080 10.4660 216192.00 219068.00 812.99
1081 10.4720 216011.00 218967.00 810.01
1082 10.4780 217417.00 218867.00 811.36
1083 10.4840 216074.00 218766.00 808.47
1084 10.4900 214939.00 218666.00 808.74
1085 10.4960 215844.00 218566.00 809.50
1086 10.5020 214844.00 218558.00 808.74
1087 10.5080 214869.00 218459.00 809.54
1088 10.5140 214526.00 218359.00 805.83
1089 10.5200 216038.00 218260.00 808.00
1090 10.5260 215642.00 218161.00 807.08
1091 10.5320 214709.00 218063.00 808.06
1092 10.5380 214410.00 217965.00 808.21
1093 10.5440 213595.00 217867.00 807.00
1094 10.5500 213894.00 217770.00 812.27
1095 10.5560 214629.00 217673.00 806.11
1096 10.5620 213758.00 217577.00 808.41
1097 10.5680 213577.00 217482.00 805.21
1098 10.5740 213625.00 217387.00 807.56
1099 10.5800 213325.00 217293.00 804.88
1100 10.5860 212464.00 217200.00 803.36
1101 10.5920 213193.00 217107.00 803.70
1102 10.5980 212867.00 217015.00 803.71
1103 10.6040 213516.00 216924.00 806.59
1104 10.6100 212448.00 216834.00 801.76
1105 10.6160 211778.00 216745.00 802.99
1106 10.6220 212650.00 216657.00 807.54
1107 10.6280 212783.00 216570.00 803.45
1108 10.6340 212877.00 216484.00 801.73
1109 10.6400 212872.00 216399.00 801.58
1110 10.6460 212639.00 216315.00 803.31
1111 10.6520 211826.00 216232.00 801.22
1112 10.6580 210699.00 216151.00 799.33
1113 10.6640 211462.00 216071.00 803.10
1114 10.6700 211992.00 215992.00 797.08
1115 10.6760 211499.00 215914.00 802.53
1116 10.6820 210506.00 215838.00 796.72
1117 10.6880 209703.00 215764.00 799.98
1118 10.6940 209540.00 215691.00 795.97
1119 10.7000 210149.00 215619.00 799.83
1120 10.7060 209586.00 215549.00 800.29
1121 10.7120 209221.00 215481.00 795.44
1122 10.7180 209194.00 215415.00 799.42
1123 10.7240 209383.00 215350.00 795.88
1124 10.7300 208912.00 215287.00 795.28
1125 10.7360 209302.00 215226.00 797.26
1126 10.7420 208495.00 215167.00 797.51
1127 10.7480 209147.00 215110.00 794.85
1128 10.7540 207615.00 215055.00 793.61
1129 10.7600 208717.00 215002.00 795.52
1130 10.7660 208127.00 214952.00 794.49
1131 10.7720 207612.00 214903.00 793.34
1132 10.7780 207487.00 214857.00 794.93
1133 10.7840 207875.00 214814.00 790.93
1134 10.7900 207363.00 214773.00 792.58
1135 10.7960 206761.00 214734.00 791.76
1136 10.8020 206756.00 214698.00 791.51
1137 10.8080 206416.00 214665.00 790.53
1138 10.8140 207358.00 214634.00 794.20
1139 10.8200 205940.00 214607.00 793.78
1140 10.8260 207398.00 214582.00 789.40
1141 10.8320 206278.00 214560.00 791.44
1142 10.8380 206137.00 214542.00 789.99
1143 10.8440 205906.00 214526.00 791.17
1144 10.8500 206225.00 214514.00 790.80
1145 10.8560 206032.00 214506.00 790.23
1146 10.8620 206580.00 214501.00 789.82
1147 10.8680 206600.00 214500.00 790.64
1148 10.8740 205868.00 214502.00 793.79
1149 10.8800 206929.00 214508.00 790.72
1150 10.8860 205728.00 214519.00 790.32
1151 10.8920 206431.00 214533.00 789.84
1152 10.8980 206206.00 214552.00 787.79
1153 10.9040 206411.00 214575.00 793.37
1154 10.9100 205480.00 214603.00 788.10
1155 10.9160 206297.00 214633.00 791.38
1156 10.9220 205902.00 214655.00 787.81
1157 10.9280 204777.00 214682.00 786.69
1158 10.9340 204214.00 214714.00 788.65
1159 10.9400 206247.00 214752.00 785.97
1160 10.9460 204865.00 214796.00 789.78
1161 10.9520 204536.00 214845.00 787.13
1162 10.9580 203948.00 214900.00 786.60
1163 10.9640 203836.00 214962.00 787.59
1164 10.9700 204810.00 215031.00 788.89
1165 10.9760 204980.00 215106.00 785.44
1166 10.9820 205162.00 215189.00 790.22
1167 10.9880 205603.00 215280.00 791.73
1168 10.9940 205050.00 215378.00 788.77
1169 11.0000 204790.00 215485.00 790.59
1170 11.0060 203671.00 215600.00 790.44
1171 11.0120 204975.00 215725.00 791.67
1172 11.0180 207090.00 215860.00 789.01
1173 11.0240 206915.00 216004.00 786.64
1174 11.0300 206359.00 216160.00 788.25
1175 11.0360 205770.00 216327.00 787.06
1176 11.0420 206256.00 216507.00 789.42
1177 11.0480 205814.00 216699.00 790.78
1178 11.0540 207554.00 216905.00 786.71
1179 11.0600 207134.00 217126.00 790.12
1180 11.0660 207318.00 217362.00 788.85
1181 11.0720 207266.00 217615.00 791.10
1182 11.0780 206701.00 217885.00 790.08
1183 11.0840 207647.00 218175.00 790.21
1184 11.0900 208886.00 218485.00 788.63
1185 11.0960 208696.00 218816.00 789.22
1186 11.1020 207884.00 219172.00 793.28
1187 11.1080 208776.00 219551.00 791.07
1188 11.1140 209066.00 219958.00 793.84
1189 11.1200 209493.00 220394.00 793.39
1190 11.1260 209506.00 220860.00 796.13
1191 11.1320 211251.00 221360.00 794.02
1192 11.1380 210669.00 221895.00 795.01
1193 11.1440 211330.00 222469.00 797.40
1194 11.1500 211857.00 223083.00 796.99
1195 11.1560 211704.00 223742.00 798.53
1196 11.1620 212484.00 224447.00 799.74
1197 11.1680 215058.00 225204.00 799.32
1198 11.1740 214167.00 226014.00 802.63
1199 11.1800 215427.00 226882.00 801.28
1200 11.1860 215230.00 227812.00 805.98
1201 11.1920 216096.00 228807.00 809.51
1202 11.1980 216657.00 229873.00 808.87
1203 11.2040 218391.00 231014.00 809.09
1204 11.2100 219604.00 232235.00 810.60
1205 11.2160 220060.00 233540.00 815.69
1206 11.2220 221245.00 234935.00 815.59
1207 11.2280 221523.00 236425.00 818.78
1208 11.2340 223800.00 238017.00 819.76
1209 11.2400 225571.00 239713.00 821.43
1210 11.2460 227382.00 241521.00 825.78
1211 11.2520 228457.00 243447.00 829.10
1212 11.2580 229692.00 245495.00 831.34
1213 11.2640 231604.00 247673.00 833.52
1214 11.2700 233016.00 249985.00 838.06
1215 11.2760 234575.00 252439.00 839.35
1216 11.2820 237467.00 255038.00 843.82
1217 11.2880 240010.00 257790.00 848.61
1218 11.2940 242295.00 260699.00 852.68
1219 11.3000 243506.00 263770.00 856.27
1220 11.3060 246968.00 267009.00 863.01
1221 11.3120 249561.00 270421.00 867.41
1222 11.3180 254493.00 274010.00 872.81
1223 11.3240 256967.00 277780.00 875.66
1224 11.3300 260816.00 281734.00 887.28
1225 11.3360 263686.00 285874.00 890.70
1226 11.3420 266476.00 290206.00 896.57
1227 11.3480 271050.00 294729.00 904.91
1228 11.3540 277750.00 299445.00 910.22
1229 11.3600 281983.00 304353.00 918.65
1230 11.3660 286260.00 309455.00 928.09
1231 11.3720 290682.00 314749.00 932.38
1232 11.3780 296756.00 320231.00 942.91
1233 11.3840 302140.00 325902.00 953.48
1234 11.3900 308139.00 331753.00 964.48
1235 11.3960 316692.00 337781.00 971.24
1236 11.4020 325063.00 343979.00 988.29
1237 11.4080 330538.00 350340.00 995.59
1238 11.4140 338263.00 356853.00 1011.70
1239 11.4200 346237.00 363509.00 1022.48
1240 11.4260 355608.00 370294.00 1034.81
1241 11.4320 367834.00 377194.00 1046.51
1242 11.4380 376077.00 384193.00 1063.22
1243 11.4440 387188.00 391274.00 1080.27
1244 11.4500 396323.00 398416.00 1089.16
1245 11.4560 406466.00 405599.00 1107.68
1246 11.4620 417050.00 412797.00 1125.24
1247 11.4680 434816.00 419982.00 1139.52
1248 11.4740 444853.00 427128.00 1156.60
1249 11.4800 457324.00 434203.00 1171.77
1250 11.4860 469526.00 441173.00 1190.97
1251 11.4920 482405.00 448003.00 1203.41
1252 11.4980 492547.00 454656.00 1222.48
1253 11.5040 507778.00 461093.00 1238.75
1254 11.5100 519963.00 467274.00 1249.71
1255 11.5160 532124.00 473158.00 1264.48
1256 11.5220 543166.00 478706.00 1277.05
1257 11.5280 552701.00 483881.00 1290.95
1258 11.5340 560748.00 488643.00 1298.05
1259 11.5400 565235.00 492960.00 1308.22
1260 11.5460 578215.00 496802.00 1314.35
1261 11.5520 580701.00 500146.00 1318.67
1262 11.5580 584631.00 502973.00 1331.01
1263 11.5640 585835.00 505275.00 1322.83
1264 11.5700 585763.00 507049.00 1327.21
1265 11.5760 586201.00 508304.00 1329.48
1266 11.5820 589175.00 509056.00 1321.88
1267 11.5880 584947.00 509334.00 1323.60
1268 11.5940 578324.00 509176.00 1318.70
1269 11.6000 576870.00 508630.00 1322.27
1270 11.6060 571122.00 507753.00 1305.06
1271 11.6120 564217.00 506613.00 1306.15
1272 11.6180 565351.00 505283.00 1296.31
1273 11.6240 557729.00 503846.00 1290.25
1274 11.6300 550674.00 502391.00 1282.99
1275 11.6360 546937.00 501010.00 1277.39
1276 11.6420 540125.00 499800.00 1280.93
1277 11.6480 537540.00 498860.00 1272.11
1278 11.6540 533173.00 498291.00 1273.01
1279 11.6600 534459.00 498191.00 1265.16
1280 11.6660 529827.00 498658.00 1261.51
1281 11.6720 527780.00 499784.00 1264.61
1282 11.6780 529180.00 501657.00 1260.16
1283 11.6840 527763.00 504356.00 1261.63
1284 11.6900 528726.00 507952.00 1265.20
1285 11.6960 536612.00 512504.00 1262.90
1286 11.7020 540748.00 518059.00 1272.50
1287 11.7080 541611.00 524649.00 1278.28
1288 11.7140 548637.00 532285.00 1285.44
1289 11.7200 556821.00 540964.00 1294.42
1290 11.7260 565914.00 550664.00 1307.13
1291 11.7320 579817.00 561333.00 1321.38
1292 11.7380 592800.00 572905.00 1335.55
1293 11.7440 602948.00 585280.00 1356.19
1294 11.7500 622065.00 598333.00 1367.86
1295 11.7560 636400.00 611908.00 1383.80
1296 11.7620 649087.00 625823.00 1386.54
1297 11.7680 664717.00 639853.00 1415.61
1298 11.7740 686694.00 653751.00 1425.18
1299 11.7800 695142.00 667219.00 1450.26
1300 11.7860 708913.00 679942.00 1465.43
1301 11.7920 719442.00 691572.00 1471.25
1302 11.7980 730529.00 701742.00 1485.19
1303 11.8040 734309.00 710086.00 1490.17
1304 11.8100 742298.00 716247.00 1484.70
1305 11.8160 734830.00 719914.00 1487.86
1306 11.8220 731538.00 720832.00 1482.54
1307 11.8280 723896.00 718832.00 1477.71
1308 11.8340 711270.00 713845.00 1459.27
1309 11.8400 697185.00 705906.00 1451.06
1310 11.8460 680451.00 695153.00 1428.41
1311 11.8520 658513.00 681810.00 1414.38
1312 11.8580 639936.00 666177.00 1390.34
1313 11.8640 619438.00 648592.00 1370.19
1314 11.8700 597080.00 629411.00 1348.26
1315 11.8760 581266.00 609005.00 1322.79
1316 11.8820 556135.00 587713.00 1301.74
1317 11.8880 539943.00 565873.00 1272.52
1318 11.8940 517947.00 543772.00 1255.45
1319 11.9000 500479.00 521677.00 1235.49
1320 11.9060 482573.00 499812.00 1209.17
1321 11.9120 470710.00 478380.00 1196.48
1322 11.9180 452600.00 457537.00 1174.35
1323 11.9240 438686.00 437431.00 1150.27
1324 11.9300 422108.00 418168.00 1134.72
1325 11.9360 410957.00 399830.00 1115.55
1326 11.9420 397461.00 382487.00 1098.27
1327 11.9480 386180.00 366175.00 1079.05
1328 11.9540 375529.00 350923.00 1069.06
1329 11.9600 363981.00 336731.00 1047.92
1330 11.9660 350886.00 323600.00 1032.91
1331 11.9720 343801.00 311502.00 1017.09
1332 11.9780 335764.00 300410.00 1006.42
1333 11.9840 326250.00 290278.00 1001.92
1334 11.9900 322417.00 281061.00 985.01
1335 11.9960 312432.00 272705.00 975.69
1336 12.0020 307960.00 265151.00 964.18
1337 12.0080 301047.00 258342.00 957.33
1338 12.0140 294930.00 252215.00 948.35
1339 12.0200 290356.00 246713.00 938.47
1340 12.0260 284076.00 241774.00 928.53
1341 12.0320 278047.00 237347.00 915.54
1342 12.0380 271277.00 233374.00 908.17
1343 12.0440 264801.00 229808.00 895.69
1344 12.0500 259821.00 226602.00 888.34
1345 12.0560 253255.00 223714.00 879.76
1346 12.0620 247883.00 221106.00 866.26
1347 12.0680 243988.00 218742.00 859.73
1348 12.0740 239433.00 216593.00 849.46
1349 12.0800 233150.00 214630.00 840.40
1350 12.0860 229798.00 212832.00 834.07
1351 12.0920 224759.00 211175.00 824.48
1352 12.0980 220884.00 209642.00 817.62
1353 12.1040 217581.00 208217.00 812.49
1354 12.1100 216265.00 206888.00 810.71
1355 12.1160 213292.00 205642.00 801.76
1356 12.1220 209344.00 204470.00 797.52
1357 12.1280 208008.00 203363.00 791.83
1358 12.1340 206410.00 202313.00 790.44
1359 12.1400 204526.00 201317.00 788.61
1360 12.1460 203242.00 200366.00 782.91
1361 12.1520 202070.00 199459.00 782.34
1362 12.1580 201132.00 198590.00 781.06
1363 12.1640 199662.00 197756.00 778.92
1364 12.1700 198564.00 196956.00 776.16
1365 12.1760 198364.00 196185.00 773.75
1366 12.1820 197614.00 195442.00 773.80
1367 12.1880 197270.00 194726.00 770.23
1368 12.1940 196104.00 194034.00 772.96
1369 12.2000 195370.00 193366.00 768.91
1370 12.2060 194391.00 192719.00 767.51
1371 12.2120 194138.00 192093.00 768.11
1372 12.2180 194535.00 191486.00 765.16
1373 12.2240 193469.00 190898.00 766.89
1374 12.2300 194025.00 190327.00 765.44
1375 12.2360 192962.00 189773.00 765.67
1376 12.2420 193182.00 189234.00 762.84
1377 12.2480 192019.00 188722.00 761.71
1378 12.2540 191630.00 188213.00 761.64
1379 12.2600 191000.00 187718.00 758.06
1380 12.2660 190573.00 187237.00 759.18
1381 12.2720 190070.00 186767.00 756.59
1382 12.2780 189063.00 186310.00 757.62
1383 12.2840 188866.00 185865.00 752.63
1384 12.2900 187347.00 185430.00 753.32
1385 12.2960 186630.00 185005.00 751.14
1386 12.3020 184617.00 184591.00 747.22
1387 12.3080 183327.00 184186.00 747.28
1388 12.3140 183056.00 183790.00 744.49
1389 12.3200 181477.00 184205.00 742.60
1390 12.3260 180078.00 183833.00 740.18
1391 12.3320 178929.00 183468.00 736.79
1392 12.3380 177706.00 183111.00 737.13
1393 12.3440 177763.00 182761.00 731.52
1394 12.3500 176759.00 182418.00 734.06
1395 12.3560 175617.00 182081.00 730.99
1396 12.3620 174798.00 181750.00 728.61
1397 12.3680 174243.00 181425.00 729.16
1398 12.3740 174258.00 181105.00 726.78
1399 12.3800 173001.00 180790.00 725.48
1400 12.3860 171982.00 180480.00 721.70
1401 12.3920 171513.00 180174.00 722.71
1402 12.3980 171258.00 179872.00 721.18
1403 12.4040 170735.00 179574.00 720.69
1404 12.4100 170624.00 179280.00 720.45
1405 12.4160 170479.00 178989.00 716.90
1406 12.4220 169126.00 178700.00 719.80
1407 12.4280 169511.00 178415.00 715.96
1408 12.4340 168618.00 178132.00 715.91
1409 12.4400 168862.00 177852.00 717.35
1410 12.4460 167995.00 177574.00 714.48
1411 12.4520 167702.00 177298.00 715.01
1412 12.4580 167859.00 177024.00 712.15
1413 12.4640 167043.00 176753.00 714.17
1414 12.4700 166689.00 176483.00 710.74
1415 12.4760 166831.00 176216.00 713.04
1416 12.4820 165831.00 175951.00 710.41
1417 12.4880 165625.00 175687.00 709.05
1418 12.4940 165596.00 175426.00 710.38
1419 12.5000 165171.00 175168.00 708.98
1420 12.5060 164616.00 174911.00 707.27
1421 12.5120 164568.00 174657.00 706.24
1422 12.5180 164334.00 174405.00 707.03
1423 12.5240 164070.00 174156.00 705.23
1424 12.5300 164312.00 173909.00 705.11
1425 12.5360 163376.00 173665.00 707.64
1426 12.5420 163152.00 173423.00 706.58
1427 12.5480 162700.00 173185.00 706.91
1428 12.5540 162541.00 172949.00 704.33
1429 12.5600 162878.00 172716.00 705.58
1430 12.5660 162224.00 172486.00 704.99
1431 12.5720 163216.00 172259.00 700.56
1432 12.5780 161180.00 172035.00 703.19
1433 12.5840 161933.00 171814.00 700.67
1434 12.5900 161040.00 171597.00 701.32
1435 12.5960 161485.00 171382.00 699.76
1436 12.6020 161571.00 171171.00 701.34
1437 12.6080 161414.00 170962.00 700.58
1438 12.6140 161763.00 170757.00 701.11
1439 12.6200 160468.00 170555.00 701.07
1440 12.6260 160780.00 170357.00 698.07
1441 12.6320 160675.00 170161.00 698.55
1442 12.6380 160380.00 169969.00 697.68
1443 12.6440 160725.00 169779.00 697.27
1444 12.6500 159949.00 169593.00 697.47
1445 12.6560 159715.00 169410.00 696.82
1446 12.6620 158885.00 169229.00 695.13
1447 12.6680 159703.00 169052.00 693.96
1448 12.6740 159787.00 168878.00 695.74
1449 12.6800 158433.00 168706.00 695.28
1450 12.6860 158986.00 168537.00 692.29
1451 12.6920 158231.00 168371.00 694.67
1452 12.6980 158334.00 168208.00 693.61
1453 12.7040 157694.00 168047.00 694.85
1454 12.7100 158114.00 167889.00 692.53
1455 12.7160 157918.00 167733.00 693.55
1456 12.7220 158373.00 167580.00 693.40
1457 12.7280 158171.00 167429.00 691.37
1458 12.7340 157888.00 167280.00 693.11
1459 12.7400 157282.00 167133.00 690.01
1460 12.7460 157719.00 166988.00 692.23
1461 12.7520 157335.00 166845.00 691.78
1462 12.7580 157219.00 166704.00 691.90
1463 12.7640 157606.00 166565.00 690.77
1464 12.7700 157024.00 166427.00 689.63
1465 12.7760 156781.00 166291.00 690.50
1466 12.7820 156464.00 166156.00 686.90
1467 12.7880 156146.00 166023.00 688.47
1468 12.7940 155636.00 165891.00 689.45
1469 12.8000 156467.00 165760.00 685.17
1470 12.8060 155477.00 165630.00 687.80
1471 12.8120 155703.00 165501.00 687.28
1472 12.8180 154964.00 165373.00 688.18
1473 12.8240 155174.00 165246.00 686.08
1474 12.8300 154507.00 165120.00 685.98
1475 12.8360 154987.00 164995.00 685.24
1476 12.8420 154459.00 164870.00 683.93
1477 12.8480 154090.00 164746.00 686.10
1478 12.8540 154354.00 164622.00 682.25
1479 12.8600 154287.00 164499.00 684.10
1480 12.8660 153878.00 164376.00 684.41
1481 12.8720 153828.00 164254.00 684.86
1482 12.8780 154191.00 164132.00 682.82
1483 12.8840 153670.00 164010.00 680.82
1484 12.8900 153571.00 163888.00 682.98
1485 12.8960 153235.00 163767.00 681.70
1486 12.9020 153430.00 163660.00 680.79
1487 12.9080 152837.00 163585.00 682.89
1488 12.9140 153956.00 163509.00 679.36
1489 12.9200 153174.00 163433.00 680.54
1490 12.9260 152249.00 163357.00 679.61
1491 12.9320 153090.00 163281.00 681.40
1492 12.9380 152537.00 163205.00 679.65
1493 12.9440 152899.00 163149.00 680.41
1494 12.9500 152175.00 163073.00 680.33
1495 12.9560 152346.00 162997.00 678.22
1496 12.9620 151738.00 162921.00 680.73
1497 12.9680 152134.00 162845.00 677.28
1498 12.9740 151231.00 162769.00 678.32
1499 12.9800 151953.00 162692.00 679.73
1500 12.9860 151935.00 162615.00 679.52
1501 12.9920 152541.00 162538.00 681.12
1502 12.9980 151327.00 162461.00 677.65
1503 13.0040 151543.00 162383.00 681.70
1504 13.0100 151701.00 162306.00 681.53
1505 13.0160 151860.00 162227.00 678.59
1506 13.0220 152120.00 162149.00 678.74
1507 13.0280 152517.00 162070.00 675.18
1508 13.0340 152152.00 161991.00 677.58
1509 13.0400 152588.00 161912.00 677.18
1510 13.0460 152229.00 161832.00 679.44
1511 13.0520 152215.00 161751.00 677.30
1512 13.0580 152157.00 161671.00 679.70
1513 13.0640 152371.00 161590.00 678.72
1514 13.0700 153451.00 161509.00 675.99
1515 13.0760 152539.00 161427.00 679.36
1516 13.0820 152813.00 161346.00 677.46
1517 13.0880 153321.00 161264.00 680.14
1518 13.0940 152927.00 161181.00 679.48
1519 13.1000 153564.00 161099.00 678.93
1520 13.1060 154420.00 161016.00 680.17
1521 13.1120 154958.00 160934.00 681.28
1522 13.1180 154740.00 160851.00 684.61
1523 13.1240 155044.00 160768.00 683.50
1524 13.1300 156059.00 160685.00 684.70
1525 13.1360 155972.00 160603.00 686.90
1526 13.1420 157477.00 160521.00 685.99
1527 13.1480 158443.00 160439.00 690.25
1528 13.1540 158838.00 160357.00 688.13
1529 13.1600 159686.00 160276.00 694.26
1530 13.1660 160799.00 160196.00 695.39
1531 13.1720 161577.00 160116.00 697.03
1532 13.1780 163348.00 160037.00 700.67
1533 13.1840 165346.00 159959.00 702.21
1534 13.1900 166502.00 159883.00 711.02
1535 13.1960 168581.00 159807.00 711.79
1536 13.2020 170038.00 159733.00 717.91
1537 13.2080 173531.00 159660.00 721.85
1538 13.2140 176299.00 159589.00 729.71
1539 13.2200 180170.00 159519.00 736.34
1540 13.2260 183657.00 159451.00 742.24
1541 13.2320 185955.00 159386.00 748.58
1542 13.2380 189486.00 159322.00 754.43
1543 13.2440 191737.00 159261.00 762.04
1544 13.2500 194253.00 159203.00 764.95
1545 13.2560 196695.00 159147.00 766.85
1546 13.2620 196165.00 159094.00 768.54
1547 13.2680 194548.00 159044.00 763.52
1548 13.2740 192355.00 158998.00 763.34
1549 13.2800 188859.00 158954.00 753.68
1550 13.2860 184349.00 158915.00 745.16
1551 13.2920 181437.00 158879.00 737.43
1552 13.2980 176870.00 158847.00 728.10
1553 13.3040 173820.00 158820.00 724.94
1554 13.3100 171003.00 158797.00 715.50
1555 13.3160 166897.00 158778.00 710.29
1556 13.3220 165021.00 158765.00 704.74
1557 13.3280 162550.00 158756.00 700.07
1558 13.3340 160883.00 158753.00 694.67
1559 13.3400 159261.00 158756.00 689.31
1560 13.3460 157731.00 158765.00 691.08
1561 13.3520 155923.00 158780.00 684.83
1562 13.3580 154750.00 158802.00 683.62
1563 13.3640 154175.00 158830.00 680.90
1564 13.3700 154233.00 158866.00 678.07
1565 13.3760 152935.00 158910.00 677.44
1566 13.3820 152882.00 158962.00 675.56
1567 13.3880 151175.00 159023.00 676.06
1568 13.3940 150884.00 159093.00 673.74
1569 13.4000 151018.00 159173.00 675.18
1570 13.4060 151147.00 159263.00 673.24
1571 13.4120 150480.00 159364.00 672.08
1572 13.4180 149664.00 159476.00 673.03
1573 13.4240 150727.00 159601.00 671.86
1574 13.4300 149867.00 159739.00 671.77
1575 13.4360 149260.00 159891.00 670.92
1576 13.4420 149813.00 160058.00 670.78
1577 13.4480 149911.00 160241.00 671.66
1578 13.4540 149457.00 160439.00 669.03
1579 13.4600 149506.00 160657.00 672.68
1580 13.4660 149440.00 160894.00 669.27
1581 13.4720 148818.00 161152.00 670.48
1582 13.4780 148598.00 161432.00 669.44
1583 13.4840 149558.00 161736.00 668.94
1584 13.4900 149247.00 162066.00 670.79
1585 13.4960 149469.00 162423.00 669.74
1586 13.5020 148903.00 162811.00 672.32
1587 13.5080 149240.00 163231.00 671.59
1588 13.5140 149745.00 163685.00 671.60
1589 13.5200 150220.00 164177.00 671.42
1590 13.5260 150246.00 164709.00 671.58
1591 13.5320 150602.00 165286.00 674.91
1592 13.5380 150389.00 165910.00 672.00
1593 13.5440 150113.00 166585.00 675.15
1594 13.5500 151062.00 167316.00 673.93
1595 13.5560 152154.00 168108.00 675.41
1596 13.5620 152133.00 168964.00 677.66
1597 13.5680 152867.00 169892.00 674.41
1598 13.5740 153541.00 170896.00 678.85
1599 13.5800 154139.00 171983.00 679.04
1600 13.5860 155011.00 173159.00 682.91
1601 13.5920 155997.00 174432.00 683.67
1602 13.5980 156952.00 175810.00 685.39
1603 13.6040 157310.00 177302.00 688.11
1604 13.6100 159089.00 178917.00 690.04
1605 13.6160 160328.00 180666.00 693.98
1606 13.6220 161067.00 182559.00 694.03
1607 13.6280 161560.00 184610.00 695.44
1608 13.6340 164391.00 186832.00 700.19
1609 13.6400 164379.00 189241.00 703.16
1610 13.6460 166525.00 191854.00 708.12
1611 13.6520 168898.00 194691.00 714.47
1612 13.6580 170318.00 197774.00 718.50
1613 13.6640 172631.00 201129.00 720.71
1614 13.6700 176944.00 204785.00 726.54
1615 13.6760 178572.00 208774.00 736.01
1616 13.6820 182379.00 213139.00 739.25
1617 13.6880 186665.00 217922.00 750.45
1618 13.6940 190615.00 223282.00 756.02
1619 13.7000 195607.00 229080.00 768.90
1620 13.7060 201779.00 235494.00 779.78
1621 13.7120 209623.00 242621.00 792.14
1622 13.7180 219942.00 250569.00 816.11
1623 13.7240 232741.00 259480.00 833.89
1624 13.7300 244400.00 269527.00 858.55
1625 13.7360 258606.00 280934.00 885.27
1626 13.7420 277778.00 293992.00 918.09
1627 13.7480 306029.00 309113.00 955.50
1628 13.7540 336493.00 326876.00 1006.16
1629 13.7600 370028.00 348177.00 1053.81
1630 13.7660 410710.00 374391.00 1105.65
1631 13.7720 449566.00 407677.00 1162.95
1632 13.7780 507066.00 451341.00 1235.30
1633 13.7840 585186.00 510196.00 1321.86
1634 13.7900 667169.00 590974.00 1418.51
1635 13.7960 778490.00 702310.00 1531.32
1636 13.8020 924859.00 854281.00 1671.70
1637 13.8080 1084150.00 1057290.00 1800.30
1638 13.8140 1317720.00 1320230.00 1992.49
1639 13.8200 1645890.00 1647450.00 2216.69
1640 13.8260 2050670.00 2035890.00 2480.75
1641 13.8320 2550980.00 2470060.00 2774.52
1642 13.8380 3054650.00 2916190.00 3021.72
1643 13.8440 3491590.00 3315430.00 3247.23
1644 13.8500 3801860.00 3586710.00 3379.47
1645 13.8560 3970390.00 3655400.00 3475.04
1646 13.8620 3859090.00 3499460.00 3408.55
1647 13.8680 3479110.00 3166400.00 3244.67
1648 13.8740 2978720.00 2738760.00 3006.30
1649 13.8800 2439880.00 2290430.00 2712.23
1650 13.8860 2015120.00 1870090.00 2472.99
1651 13.8920 1627300.00 1503310.00 2219.15
1652 13.8980 1280000.00 1200270.00 1968.45
1653 13.9040 1035150.00 960592.00 1773.87
1654 13.9100 881242.00 777705.00 1631.09
1655 13.9160 752231.00 641969.00 1517.06
1656 13.9220 668170.00 542858.00 1417.40
1657 13.9280 584460.00 470811.00 1336.44
1658 13.9340 502722.00 417900.00 1233.92
1659 13.9400 429295.00 378195.00 1137.21
1660 13.9460 369021.00 347500.00 1060.38
1661 13.9520 323567.00 323023.00 988.03
1662 13.9580 286461.00 302939.00 935.39
1663 13.9640 260881.00 286094.00 884.93
1664 13.9700 235059.00 271723.00 845.42
1665 13.9760 215525.00 259309.00 805.29
1666 13.9820 200397.00 248493.00 780.82
1667 13.9880 190170.00 239000.00 760.08
1668 13.9940 182184.00 230621.00 740.01
1669 14.0000 176329.00 223185.00 735.71
1670 14.0060 170666.00 216558.00 719.50
1671 14.0120 166278.00 210626.00 711.47
1672 14.0180 162388.00 205295.00 701.42
1673 14.0240 159831.00 200486.00 695.88
1674 14.0300 156654.00 196132.00 688.87
1675 14.0360 155313.00 192177.00 683.39
1676 14.0420 153058.00 188574.00 683.83
1677 14.0480 151302.00 185280.00 677.30
1678 14.0540 149521.00 182261.00 673.52
1679 14.0600 148681.00 179487.00 672.55
1680 14.0660 147726.00 176929.00 668.46
1681 14.0720 146906.00 174568.00 667.70
1682 14.0780 146095.00 172380.00 664.24
1683 14.0840 145223.00 170351.00 664.09
1684 14.0900 145036.00 168463.00 660.34
1685 14.0960 143469.00 166703.00 659.72
1686 14.1020 142680.00 165059.00 659.03
1687 14.1080 143377.00 163522.00 656.84
1688 14.1140 142916.00 162080.00 659.35
1689 14.1200 142429.00 160726.00 655.74
1690 14.1260 142107.00 159453.00 654.61
1691 14.1320 141449.00 158253.00 655.41
1692 14.1380 141796.00 157120.00 653.75
1693 14.1440 140990.00 156050.00 655.15
1694 14.1500 141026.00 155037.00 650.18
1695 14.1560 139809.00 154076.00 652.93
1696 14.1620 140290.00 153164.00 650.75
1697 14.1680 139741.00 152298.00 649.89
1698 14.1740 138982.00 151473.00 648.86
1699 14.1800 138658.00 150687.00 648.49
1700 14.1860 137958.00 149937.00 646.66
1701 14.1920 137964.00 149221.00 643.83
1702 14.1980 137148.00 148535.00 646.07
1703 14.2040 136971.00 147880.00 642.34
1704 14.2100 136386.00 147251.00 642.01
1705 14.2160 136166.00 146648.00 642.20
1706 14.2220 136722.00 146069.00 642.35
1707 14.2280 135754.00 145512.00 641.87
1708 14.2340 135240.00 144977.00 639.70
1709 14.2400 135834.00 144461.00 638.87
1710 14.2460 135788.00 143963.00 640.72
1711 14.2520 134672.00 143483.00 636.50
1712 14.2580 135011.00 143108.00 638.85
1713 14.2640 134929.00 142766.00 636.24
1714 14.2700 134024.00 142438.00 637.26
1715 14.2760 134717.00 142124.00 635.93
1716 14.2820 134459.00 141824.00 635.09
1717 14.2880 133878.00 141535.00 637.39
1718 14.2940 134051.00 141259.00 635.02
1719 14.3000 133116.00 140993.00 637.71
1720 14.3060 133293.00 140738.00 634.30
1721 14.3120 133322.00 140493.00 635.98
1722 14.3180 134031.00 140258.00 636.04
1723 14.3240 133274.00 140057.00 634.69
1724 14.3300 133049.00 139839.00 636.49
1725 14.3360 132950.00 139629.00 635.08
1726 14.3420 132889.00 139427.00 636.10
1727 14.3480 132924.00 139233.00 633.76
1728 14.3540 133134.00 139046.00 633.98
1729 14.3600 132832.00 138865.00 635.29
1730 14.3660 132929.00 138691.00 634.25
1731 14.3720 133094.00 138523.00 637.57
1732 14.3780 132949.00 138361.00 633.06
1733 14.3840 132685.00 138204.00 636.07
1734 14.3900 132847.00 138053.00 632.97
1735 14.3960 132774.00 137907.00 634.11
1736 14.4020 132295.00 137766.00 634.48
1737 14.4080 132963.00 137630.00 633.93
1738 14.4140 132227.00 137498.00 635.09
1739 14.4200 133006.00 137371.00 633.89
1740 14.4260 132731.00 137247.00 635.22
1741 14.4320 133267.00 137128.00 633.19
1742 14.4380 133343.00 137013.00 635.47
1743 14.4440 132640.00 136901.00 636.58
1744 14.4500 132566.00 136793.00 634.33
1745 14.4560 133006.00 136688.00 636.69
1746 14.4620 132763.00 136586.00 634.42
1747 14.4680 133285.00 136488.00 634.65
1748 14.4740 133240.00 136393.00 636.65
1749 14.4800 132986.00 136301.00 635.77
1750 14.4860 133084.00 136211.00 637.19
1751 14.4920 132654.00 136125.00 635.46
1752 14.4980 132797.00 136041.00 636.16
1753 14.5040 132527.00 135959.00 635.09
1754 14.5100 132982.00 135880.00 635.12
1755 14.5160 133389.00 135803.00 636.14
1756 14.5220 132923.00 135729.00 634.90
1757 14.5280 132430.00 135657.00 636.33
1758 14.5340 133090.00 135587.00 633.96
1759 14.5400 132101.00 135520.00 637.48
1760 14.5460 132901.00 135454.00 635.55
1761 14.5520 132301.00 135390.00 635.94
1762 14.5580 132706.00 135328.00 637.01
1763 14.5640 131928.00 135268.00 633.88
1764 14.5700 132655.00 135210.00 638.50
1765 14.5760 132417.00 135154.00 634.79
1766 14.5820 132910.00 135099.00 634.55
1767 14.5880 132035.00 135046.00 633.97
1768 14.5940 132185.00 134995.00 632.73
1769 14.6000 132321.00 134945.00 636.19
1770 14.6060 132566.00 134896.00 635.74
1771 14.6120 132507.00 134850.00 635.42
1772 14.6180 132577.00 134804.00 635.54
1773 14.6240 134027.00 134760.00 636.75
1774 14.6300 132811.00 134808.00 636.41
1775 14.6360 133373.00 134767.00 635.60
1776 14.6420 133637.00 134728.00 638.24
1777 14.6480 133955.00 134689.00 634.95
1778 14.6540 133027.00 134652.00 637.74
1779 14.6600 134132.00 134616.00 636.17
1780 14.6660 134103.00 134582.00 637.03
1781 14.6720 134047.00 134548.00 637.51
1782 14.6780 133610.00 134516.00 636.78
1783 14.6840 132921.00 134484.00 638.11
1784 14.6900 133109.00 134454.00 634.55
1785 14.6960 133006.00 134425.00 634.84
1786 14.7020 132828.00 134397.00 635.96
1787 14.7080 132354.00 134370.00 635.06
1788 14.7140 132365.00 134344.00 634.77
1789 14.7200 132376.00 134319.00 634.56
1790 14.7260 131921.00 134295.00 635.15
1791 14.7320 132522.00 134272.00 632.24
1792 14.7380 132684.00 134250.00 632.79
1793 14.7440 132175.00 134228.00 634.98
1794 14.7500 132579.00 134208.00 635.14
1795 14.7560 132198.00 134189.00 634.86
1796 14.7620 132883.00 134170.00 634.36
1797 14.7680 132965.00 134152.00 636.79
1798 14.7740 134218.00 134135.00 635.74
1799 14.7800 133799.00 134119.00 636.29
1800 14.7860 133675.00 134104.00 637.15
1801 14.7920 134158.00 134101.00 636.92
1802 14.7980 134246.00 134087.00 640.73
1803 14.8040 135181.00 134074.00 639.38
1804 14.8100 135211.00 134062.00 640.51
1805 14.8160 135486.00 134051.00 640.88
1806 14.8220 135102.00 134041.00 642.43
1807 14.8280 135274.00 134031.00 640.13
1808 14.8340 134555.00 134022.00 638.89
1809 14.8400 135191.00 134014.00 641.43
1810 14.8460 134243.00 134006.00 638.60
1811 14.8520 134261.00 134000.00 636.21
1812 14.8580 134489.00 133994.00 637.57
1813 14.8640 134022.00 133988.00 638.01
1814 14.8700 133748.00 133984.00 637.94
1815 14.8760 134249.00 133980.00 638.58
1816 14.8820 133224.00 133977.00 636.76
1817 14.8880 133601.00 133974.00 633.60
1818 14.8940 133319.00 133972.00 636.11
1819 14.9000 133356.00 133971.00 634.25
1820 14.9060 133085.00 133970.00 635.80
1821 14.9120 132936.00 133970.00 635.23
1822 14.9180 132916.00 133971.00 633.65
1823 14.9240 133004.00 133972.00 635.23
1824 14.9300 132657.00 133974.00 631.48
1825 14.9360 132261.00 133977.00 634.13
1826 14.9420 132566.00 133980.00 633.03
1827 14.9480 132195.00 133984.00 633.25
1828 14.9540 132370.00 133988.00 635.30
1829 14.9600 132575.00 133994.00 634.23
1830 14.9660 132696.00 133999.00 633.28
1831 14.9720 132594.00 134006.00 634.32
1832 14.9780 132229.00 134013.00 633.67
1833 14.9840 132855.00 134020.00 636.05
1834 14.9900 132836.00 134028.00 635.36
1835 14.9960 132683.00 134037.00 636.17
1836 15.0020 132402.00 134046.00 634.48
1837 15.0080 132380.00 134056.00 636.71
1838 15.0140 132091.00 134067.00 633.58
1839 15.0200 132507.00 134078.00 633.39
1840 15.0260 132088.00 134089.00 631.86
1841 15.0320 132046.00 134101.00 631.55
1842 15.0380 132206.00 134114.00 631.41
1843 15.0440 132128.00 134127.00 629.51
1844 15.0500 131809.00 134141.00 631.15
1845 15.0560 131646.00 134156.00 631.27
1846 15.0620 131830.00 134171.00 630.37
1847 15.0680 131882.00 134186.00 631.96
1848 15.0740 131654.00 134202.00 628.75
1849 15.0800 131858.00 134219.00 628.75
1850 15.0860 131806.00 134236.00 629.53
1851 15.0920 131272.00 134254.00 628.95
1852 15.0980 131908.00 134272.00 629.33
1853 15.1040 131458.00 134291.00 630.13
1854 15.1100 131552.00 134311.00 631.41
1855 15.1160 132094.00 134331.00 627.82
1856 15.1220 131793.00 134352.00 630.77
1857 15.1280 131816.00 134373.00 629.96
1858 15.1340 131812.00 134394.00 630.31
1859 15.1400 131645.00 134417.00 629.98
1860 15.1460 131859.00 134439.00 630.56
1861 15.1520 132169.00 134463.00 630.33
1862 15.1580 132402.00 134487.00 628.74
1863 15.1640 132769.00 134511.00 631.60
1864 15.1700 132640.00 134536.00 631.36
1865 15.1760 132835.00 134562.00 631.87
1866 15.1820 133007.00 134588.00 634.39
1867 15.1880 133160.00 134615.00 633.39
1868 15.1940 133934.00 134643.00 634.37
1869 15.2000 133182.00 134670.00 633.76
1870 15.2060 133522.00 134699.00 634.83
1871 15.2120 133308.00 134729.00 633.40
1872 15.2180 133089.00 134758.00 634.54
1873 15.2240 132606.00 134789.00 634.31
1874 15.2300 132950.00 134820.00 631.02
1875 15.2360 132688.00 134852.00 630.50
1876 15.2420 132160.00 134885.00 631.15
1877 15.2480 131920.00 134909.00 630.32
1878 15.2540 131934.00 134916.00 631.25
1879 15.2600 132169.00 134924.00 631.77
1880 15.2660 132387.00 134932.00 630.38
1881 15.2720 132755.00 134942.00 630.94
1882 15.2780 132216.00 134952.00 631.77
1883 15.2840 131606.00 134962.00 630.04
1884 15.2900 132225.00 134974.00 630.22
1885 15.2960 131893.00 134987.00 632.59
1886 15.3020 132851.00 135001.00 631.03
1887 15.3080 132984.00 135015.00 631.76
1888 15.3140 133089.00 135031.00 632.27
1889 15.3200 132587.00 135048.00 632.49
1890 15.3260 132774.00 135065.00 631.74
1891 15.3320 132894.00 135084.00 633.70
1892 15.3380 133059.00 135104.00 634.41
1893 15.3440 133591.00 135126.00 632.58
1894 15.3500 133331.00 135148.00 633.68
1895 15.3560 133502.00 135173.00 633.14
1896 15.3620 133458.00 135204.00 632.75
1897 15.3680 133234.00 135231.00 634.59
1898 15.3740 133220.00 135260.00 632.75
1899 15.3800 134248.00 135291.00 633.67
1900 15.3860 133678.00 135323.00 633.76
1901 15.3920 133598.00 134555.00 634.57
1902 15.3980 134130.00 134597.00 634.66
1903 15.4040 134454.00 134641.00 635.91
1904 15.4100 133897.00 134688.00 636.03
1905 15.4160 134780.00 134736.00 637.47
1906 15.4220 135242.00 134787.00 638.69
1907 15.4280 135388.00 134840.00 636.43
1908 15.4340 135744.00 134896.00 639.74
1909 15.4400 136315.00 134955.00 640.87
1910 15.4460 136387.00 135017.00 641.78
1911 15.4520 137031.00 135082.00 642.39
1912 15.4580 138076.00 135151.00 644.40
1913 15.4640 138895.00 135223.00 646.29
1914 15.4700 139791.00 135299.00 647.45
1915 15.4760 140089.00 135380.00 650.44
1916 15.4820 141120.00 135464.00 652.73
1917 15.4880 142914.00 135554.00 656.91
1918 15.4940 144653.00 135648.00 660.63
1919 15.5000 146476.00 135748.00 664.72
1920 15.5060 147123.00 135854.00 667.00
1921 15.5120 149268.00 135966.00 670.98
1922 15.5180 150812.00 136085.00 673.21
1923 15.5240 151793.00 136212.00 678.19
1924 15.5300 154227.00 136347.00 679.11
1925 15.5360 153737.00 136490.00 682.80
1926 15.5420 154605.00 136643.00 681.76
1927 15.5480 154679.00 136807.00 682.12
1928 15.5540 155189.00 136983.00 683.86
1929 15.5600 155279.00 137172.00 684.05
1930 15.5660 155542.00 137375.00 683.15
1931 15.5720 155970.00 137595.00 682.28
1932 15.5780 155406.00 137834.00 683.96
1933 15.5840 156889.00 138095.00 684.48
1934 15.5900 156581.00 138383.00 686.20
1935 15.5960 157310.00 138701.00 687.77
1936 15.6020 158038.00 139058.00 690.58
1937 15.6080 159769.00 139460.00 689.23
1938 15.6140 159669.00 139918.00 693.69
1939 15.6200 161744.00 140448.00 695.60
1940 15.6260 162904.00 141064.00 697.01
1941 15.6320 163386.00 141788.00 699.12
1942 15.6380 164522.00 142645.00 704.59
1943 15.6440 166739.00 143666.00 706.18
1944 15.6500 167251.00 144885.00 711.10
1945 15.6560 168796.00 146341.00 715.10
1946 15.6620 170431.00 148078.00 716.28
1947 15.6680 171990.00 150140.00 718.54
1948 15.6740 172668.00 152573.00 720.77
1949 15.6800 173383.00 155423.00 724.84
1950 15.6860 175827.00 158728.00 723.87
1951 15.6920 175152.00 162517.00 728.45
1952 15.6980 176700.00 166814.00 729.73
1953 15.7040 177453.00 171615.00 729.54
1954 15.7100 178846.00 176906.00 734.50
1955 15.7160 181083.00 182641.00 737.84
1956 15.7220 184702.00 188741.00 742.97
1957 15.7280 188157.00 195089.00 752.00
1958 15.7340 192036.00 201524.00 763.60
1959 15.7400 196666.00 207817.00 770.66
1960 15.7460 201755.00 213696.00 780.88
1961 15.7520 207333.00 218825.00 791.05
1962 15.7580 215195.00 222851.00 801.98
1963 15.7640 220561.00 225448.00 813.07
1964 15.7700 226189.00 226376.00 821.39
1965 15.7760 229759.00 225548.00 831.03
1966 15.7820 232345.00 223047.00 835.83
1967 15.7880 231663.00 219106.00 835.00
1968 15.7940 229218.00 214052.00 831.34
1969 15.8000 225734.00 208237.00 822.65
1970 15.8060 217052.00 202002.00 809.79
1971 15.8120 208127.00 195624.00 790.33
1972 15.8180 197229.00 189331.00 769.36
1973 15.8240 187833.00 183292.00 752.11
1974 15.8300 178051.00 177625.00 730.53
1975 15.8360 169871.00 172413.00 713.76
1976 15.8420 162090.00 167703.00 698.16
1977 15.8480 155111.00 163518.00 684.02
1978 15.8540 149849.00 159859.00 673.46
1979 15.8600 146405.00 156711.00 665.41
1980 15.8660 143289.00 154045.00 658.41
1981 15.8720 141392.00 151828.00 650.97
1982 15.8780 138830.00 150022.00 648.37
1983 15.8840 137237.00 148586.00 645.51
1984 15.8900 136552.00 147483.00 643.76
1985 15.8960 136247.00 146682.00 641.64
1986 15.9020 135890.00 146158.00 641.29
1987 15.9080 135675.00 145899.00 641.45
1988 15.9140 136573.00 145907.00 642.34
1989 15.9200 136833.00 146206.00 644.92
1990 15.9260 138126.00 146843.00 647.04
1991 15.9320 139368.00 147900.00 650.32
1992 15.9380 141087.00 149497.00 654.63
1993 15.9440 143186.00 151793.00 658.51
1994 15.9500 146506.00 154982.00 665.05
1995 15.9560 149462.00 159278.00 671.62
1996 15.9620 153859.00 164894.00 683.35
1997 15.9680 158629.00 171995.00 692.55
1998 15.9740 164296.00 180656.00 704.60
1999 15.9800 171974.00 190793.00 721.18
2000 15.9860 180433.00 202069.00 739.49
2001 15.9920 189908.00 213760.00 758.67
2002 15.9980 197873.00 224608.00 774.87
2003 16.0040 204576.00 232834.00 788.15
2004 16.0100 208531.00 236568.00 795.27
2005 16.0160 207808.00 234772.00 794.30
2006 16.0220 203428.00 227901.00 784.44
2007 16.0280 195360.00 217600.00 765.62
2008 16.0340 184934.00 205773.00 748.64
2009 16.0400 175421.00 193913.00 731.05
2010 16.0460 165824.00 182939.00 708.60
2011 16.0520 159185.00 173327.00 695.89
2012 16.0580 152285.00 165253.00 680.08
2013 16.0640 147892.00 158696.00 667.13
2014 16.0700 143940.00 153510.00 658.43
2015 16.0760 140351.00 149497.00 653.55
2016 16.0820 138699.00 146433.00 646.07
2017 16.0880 135814.00 144104.00 641.04
2018 16.0940 134115.00 142326.00 635.94
2019 16.1000 132260.00 140950.00 630.86
2020 16.1060 130963.00 139865.00 629.52
2021 16.1120 130716.00 138988.00 629.06
2022 16.1180 129533.00 138264.00 627.43
2023 16.1240 128347.00 137655.00 623.18
2024 16.1300 127933.00 137133.00 622.68
2025 16.1360 127326.00 136682.00 620.59
2026 16.1420 127019.00 136288.00 619.99
2027 16.1480 127105.00 135941.00 619.37
2028 16.1540 126097.00 135635.00 618.68
2029 16.1600 126141.00 135364.00 618.68
2030 16.1660 125982.00 135124.00 617.91
2031 16.1720 125595.00 134909.00 616.81
2032 16.1780 126445.00 134718.00 617.26
2033 16.1840 125888.00 134548.00 616.71
2034 16.1900 125570.00 134396.00 616.39
2035 16.1960 125686.00 134261.00 617.78
2036 16.2020 125733.00 134331.00 616.03
2037 16.2080 125219.00 134224.00 615.99
2038 16.2140 125575.00 134129.00 614.12
2039 16.2200 125812.00 134046.00 617.38
2040 16.2260 126134.00 133973.00 616.58
2041 16.2320 125611.00 133908.00 617.97
2042 16.2380 125884.00 133853.00 616.21
2043 16.2440 125831.00 133805.00 615.10
2044 16.2500 125547.00 133764.00 615.85
2045 16.2560 126295.00 133739.00 615.12
2046 16.2620 125581.00 133728.00 615.53
2047 16.2680 125680.00 133723.00 615.27
2048 16.2740 125760.00 133723.00 615.50
2049 16.2800 125966.00 133729.00 617.26
2050 16.2860 125997.00 133739.00 616.01
2051 16.2920 126563.00 133754.00 616.09
2052 16.2980 125889.00 133773.00 618.13
2053 16.3040 125631.00 133796.00 617.00
2054 16.3100 126014.00 133822.00 618.17
2055 16.3160 126529.00 133853.00 617.10
2056 16.3220 126817.00 133887.00 620.97
2057 16.3280 126676.00 133923.00 618.70
2058 16.3340 126424.00 133963.00 619.15
2059 16.3400 126620.00 134006.00 619.10
2060 16.3460 126953.00 134051.00 620.78
2061 16.3520 127371.00 134098.00 620.44
2062 16.3580 127430.00 134148.00 621.49
2063 16.3640 127776.00 134200.00 621.77
2064 16.3700 128318.00 134254.00 622.41
2065 16.3760 128273.00 134310.00 623.58
2066 16.3820 128238.00 134368.00 624.60
2067 16.3880 128131.00 134427.00 622.96
2068 16.3940 128560.00 134487.00 624.30
2069 16.4000 128645.00 134549.00 623.99
2070 16.4060 129055.00 134612.00 625.45
2071 16.4120 129231.00 134676.00 624.61
2072 16.4180 129429.00 134741.00 626.35
2073 16.4240 129201.00 134807.00 626.70
2074 16.4300 129910.00 134873.00 626.36
2075 16.4360 129687.00 134940.00 626.40
2076 16.4420 130340.00 135008.00 628.26
2077 16.4480 129926.00 135076.00 627.97
2078 16.4540 130350.00 135145.00 627.93
2079 16.4600 130170.00 135214.00 628.22
2080 16.4660 130730.00 135206.00 630.91
2081 16.4720 130518.00 135275.00 629.90
2082 16.4780 131107.00 135345.00 630.99
2083 16.4840 131681.00 135415.00 630.17
2084 16.4900 130964.00 135484.00 630.15
2085 16.4960 131330.00 135554.00 632.23
2086 16.5020 131325.00 135624.00 633.02
2087 16.5080 131293.00 135695.00 630.53
2088 16.5140 131201.00 135765.00 631.53
2089 16.5200 131873.00 135836.00 631.37
2090 16.5260 132134.00 135907.00 632.83
2091 16.5320 131656.00 135978.00 632.54
2092 16.5380 131303.00 136050.00 632.83
2093 16.5440 131603.00 136123.00 634.94
2094 16.5500 131818.00 136197.00 635.15
2095 16.5560 132628.00 136271.00 635.17
2096 16.5620 131684.00 136347.00 633.50
2097 16.5680 132494.00 136423.00 635.33
2098 16.5740 132864.00 136502.00 635.29
2099 16.5800 132505.00 136581.00 635.79
2100 16.5860 132508.00 136663.00 633.39
2101 16.5920 132427.00 136746.00 634.21
2102 16.5980 133629.00 136832.00 635.59
2103 16.6040 133190.00 136920.00 636.12
2104 16.6100 133243.00 137010.00 636.09
2105 16.6160 133804.00 137103.00 638.21
2106 16.6220 134239.00 137198.00 639.18
2107 16.6280 134142.00 137297.00 639.28
2108 16.6340 134444.00 137398.00 636.83
2109 16.6400 134786.00 137502.00 639.38
2110 16.6460 135476.00 137609.00 640.48
2111 16.6520 135037.00 137720.00 639.57
2112 16.6580 134929.00 137833.00 641.20
2113 16.6640 135708.00 137949.00 640.98
2114 16.6700 136877.00 138069.00 641.90
2115 16.6760 136445.00 138192.00 643.05
2116 16.6820 136333.00 138317.00 643.14
2117 16.6880 136886.00 138445.00 644.88
2118 16.6940 137253.00 138576.00 645.37
2119 16.7000 137898.00 138710.00 647.23
2120 16.7060 137978.00 138845.00 648.13
2121 16.7120 139113.00 138982.00 649.82
2122 16.7180 139316.00 139122.00 650.00
2123 16.7240 139908.00 139262.00 650.70
2124 16.7300 140367.00 139403.00 651.49
2125 16.7360 141162.00 139545.00 653.67
2126 16.7420 141734.00 139687.00 656.83
2127 16.7480 142957.00 139828.00 656.59
2128 16.7540 143068.00 139969.00 659.74
2129 16.7600 144704.00 140108.00 661.36
2130 16.7660 145321.00 140245.00 663.27
2131 16.7720 146292.00 140380.00 666.71
2132 16.7780 148491.00 140511.00 670.34
2133 16.7840 149293.00 140639.00 672.65
2134 16.7900 151439.00 140762.00 675.85
2135 16.7960 152564.00 140880.00 681.65
2136 16.8020 154267.00 140993.00 683.75
2137 16.8080 156533.00 141100.00 687.78
2138 16.8140 158631.00 141201.00 695.60
2139 16.8200 160859.00 141295.00 699.68
2140 16.8260 163910.00 141382.00 704.37
2141 16.8320 165506.00 141461.00 707.69
2142 16.8380 168097.00 141533.00 713.27
2143 16.8440 169142.00 141598.00 716.69
2144 16.8500 170724.00 141655.00 719.99
2145 16.8560 172572.00 141705.00 723.42
2146 16.8620 174210.00 141748.00 724.04
2147 16.8680 174385.00 141784.00 727.63
2148 16.8740 174090.00 141814.00 728.27
2149 16.8800 173326.00 141839.00 722.91
2150 16.8860 171340.00 141859.00 721.16
2151 16.8920 170554.00 141874.00 718.21
2152 16.8980 167592.00 141885.00 712.38
2153 16.9040 165928.00 141894.00 707.58
2154 16.9100 162810.00 141900.00 702.52
2155 16.9160 160835.00 141905.00 697.48
2156 16.9220 158663.00 141909.00 691.67
2157 16.9280 156118.00 141913.00 688.09
2158 16.9340 153978.00 141918.00 683.11
2159 16.9400 152568.00 141924.00 678.05
2160 16.9460 150432.00 141932.00 674.97
2161 16.9520 149073.00 141943.00 672.34
2162 16.9580 147448.00 141958.00 669.10
2163 16.9640 146082.00 141976.00 665.27
2164 16.9700 145066.00 142000.00 664.43
2165 16.9760 144114.00 142028.00 659.34
2166 16.9820 143166.00 142063.00 659.63
2167 16.9880 142909.00 142104.00 658.48
2168 16.9940 142161.00 142151.00 657.67
2169 17.0000 141667.00 142207.00 656.65
2170 17.0060 141091.00 142269.00 656.15
2171 17.0120 140988.00 142341.00 657.20
2172 17.0180 142302.00 142420.00 653.36
2173 17.0240 142248.00 142509.00 654.91
2174 17.0300 142926.00 142608.00 656.98
2175 17.0360 143144.00 142716.00 656.78
2176 17.0420 144111.00 142834.00 660.81
2177 17.0480 144890.00 142964.00 662.16
2178 17.0540 147366.00 143103.00 665.77
2179 17.0600 149295.00 143255.00 670.54
2180 17.0660 151982.00 143417.00 676.15
2181 17.0720 153376.00 143592.00 679.48
2182 17.0780 155929.00 143778.00 684.77
2183 17.0840 158327.00 143977.00 692.17
2184 17.0900 161911.00 144189.00 697.70
2185 17.0960 164947.00 144413.00 702.93
2186 17.1020 167609.00 144651.00 710.95
2187 17.1080 168692.00 144902.00 712.76
2188 17.1140 170542.00 145166.00 716.91
2189 17.1200 170984.00 145444.00 717.98
2190 17.1260 170094.00 145737.00 717.58
2191 17.1320 169133.00 146043.00 711.32
2192 17.1380 165914.00 146364.00 705.68
2193 17.1440 163119.00 146698.00 700.69
2194 17.1500 160885.00 147048.00 694.54
2195 17.1560 157241.00 147412.00 688.55
2196 17.1620 154968.00 147791.00 684.10
2197 17.1680 153464.00 148185.00 677.72
2198 17.1740 151231.00 148594.00 673.03
2199 17.1800 150332.00 149018.00 671.79
2200 17.1860 148894.00 149457.00 669.53
2201 17.1920 148265.00 149910.00 669.98
2202 17.1980 147553.00 150380.00 668.66
2203 17.2040 147460.00 150863.00 666.12
2204 17.2100 147852.00 151362.00 665.82
2205 17.2160 147833.00 151876.00 668.04
2206 17.2220 147961.00 152404.00 668.18
2207 17.2280 147947.00 152947.00 667.60
2208 17.2340 148520.00 153505.00 668.68
2209 17.2400 148915.00 154076.00 670.82
2210 17.2460 149652.00 154662.00 669.14
2211 17.2520 150062.00 155261.00 672.17
2212 17.2580 150743.00 155874.00 673.72
2213 17.2640 151504.00 156500.00 674.82
2214 17.2700 151343.00 157139.00 675.90
2215 17.2760 152770.00 157790.00 679.21
2216 17.2820 153615.00 158453.00 679.18
2217 17.2880 154183.00 159128.00 680.78
2218 17.2940 154940.00 159814.00 682.95
2219 17.3000 155518.00 160510.00 684.34
2220 17.3060 156607.00 161217.00 686.97
2221 17.3120 157036.00 161933.00 688.98
2222 17.3180 158135.00 162657.00 689.28
2223 17.3240 158607.00 163390.00 690.40
2224 17.3300 159216.00 164130.00 692.21
2225 17.3360 159556.00 164878.00 693.69
2226 17.3420 159915.00 165631.00 693.13
2227 17.3480 160119.00 166389.00 695.16
2228 17.3540 160235.00 167152.00 696.75
2229 17.3600 161294.00 167919.00 693.46
2230 17.3660 160825.00 168689.00 697.13
2231 17.3720 161280.00 169460.00 695.10
2232 17.3780 161973.00 170234.00 697.95
2233 17.3840 161801.00 171008.00 697.84
2234 17.3900 162008.00 171782.00 699.00
2235 17.3960 162907.00 172556.00 700.06
2236 17.4020 163407.00 173328.00 700.53
2237 17.4080 163999.00 174099.00 701.94
2238 17.4140 164562.00 174869.00 705.25
2239 17.4200 164750.00 175637.00 705.14
2240 17.4260 165608.00 176405.00 707.03
2241 17.4320 166179.00 177171.00 704.91
2242 17.4380 166233.00 177939.00 708.31
2243 17.4440 166346.00 178708.00 705.43
2244 17.4500 167149.00 179481.00 708.10
2245 17.4560 167194.00 180261.00 709.33
2246 17.4620 167398.00 181051.00 709.94
2247 17.4680 168577.00 181856.00 712.72
2248 17.4740 169039.00 182680.00 711.81
2249 17.4800 169339.00 183531.00 713.10
2250 17.4860 170981.00 184416.00 717.10
2251 17.4920 172107.00 185346.00 718.38
2252 17.4980 172429.00 186334.00 721.32
2253 17.5040 174332.00 187395.00 725.36
2254 17.5100 175934.00 188550.00 728.05
2255 17.5160 178390.00 189821.00 730.97
2256 17.5220 180306.00 191242.00 734.90
2257 17.5280 182312.00 192848.00 741.49
2258 17.5340 184599.00 194688.00 744.10
2259 17.5400 186144.00 196817.00 750.30
2260 17.5460 190770.00 199306.00 755.56
2261 17.5520 193878.00 202238.00 762.44
2262 17.5580 197664.00 205708.00 769.74
2263 17.5640 201823.00 209829.00 777.08
2264 17.5700 205669.00 214731.00 784.14
2265 17.5760 211155.00 220556.00 795.06
2266 17.5820 218340.00 227455.00 806.70
2267 17.5880 225156.00 235595.00 820.59
2268 17.5940 233743.00 245140.00 837.07
2269 17.6000 241753.00 256252.00 850.97
2270 17.6060 252126.00 269075.00 866.62
2271 17.6120 262642.00 283747.00 887.30
2272 17.6180 276349.00 300357.00 907.98
2273 17.6240 293473.00 318961.00 936.30
2274 17.6300 310210.00 339534.00 960.57
2275 17.6360 328624.00 362012.00 989.68
2276 17.6420 348084.00 386219.00 1023.35
2277 17.6480 367901.00 411874.00 1048.47
2278 17.6540 393012.00 438557.00 1088.36
2279 17.6600 422818.00 465707.00 1122.96
2280 17.6660 451134.00 492556.00 1166.50
2281 17.6720 483840.00 518138.00 1200.70
2282 17.6780 513320.00 541322.00 1241.18
2283 17.6840 536404.00 560841.00 1268.62
2284 17.6900 561315.00 575451.00 1298.86
2285 17.6960 586752.00 584112.00 1324.90
2286 17.7020 602380.00 586172.00 1344.57
2287 17.7080 610927.00 581587.00 1354.07
2288 17.7140 610844.00 570811.00 1348.98
2289 17.7200 605066.00 554783.00 1346.58
2290 17.7260 593325.00 534695.00 1334.23
2291 17.7320 570780.00 511823.00 1307.95
2292 17.7380 542510.00 487361.00 1276.59
2293 17.7440 503267.00 462312.00 1232.95
2294 17.7500 465716.00 437500.00 1179.43
2295 17.7560 435275.00 413548.00 1142.60
2296 17.7620 405342.00 390916.00 1097.11
2297 17.7680 375518.00 369894.00 1060.22
2298 17.7740 349977.00 350693.00 1014.77
2299 17.7800 321317.00 333399.00 985.50
2300 17.7860 301029.00 318031.00 949.42
2301 17.7920 283815.00 304529.00 921.61
2302 17.7980 272896.00 292798.00 904.95
2303 17.8040 262493.00 282700.00 887.94
2304 17.8100 254046.00 274064.00 868.97
2305 17.8160 246108.00 266714.00 857.86
2306 17.8220 239408.00 260462.00 847.92
2307 17.8280 234232.00 255129.00 836.37
2308 17.8340 231098.00 250537.00 831.60
2309 17.8400 228326.00 246530.00 828.18
2310 17.8460 224954.00 242972.00 820.40
2311 17.8520 222204.00 239744.00 815.73
2312 17.8580 218460.00 236750.00 812.30
2313 17.8640 215485.00 233915.00 806.74
2314 17.8700 212464.00 231187.00 797.48
2315 17.8760 209028.00 228525.00 791.66
2316 17.8820 205375.00 225906.00 787.29
2317 17.8880 202889.00 223320.00 779.44
2318 17.8940 198753.00 220764.00 776.47
2319 17.9000 196113.00 218240.00 768.92
2320 17.9060 193138.00 215757.00 762.08
2321 17.9120 191585.00 213326.00 758.93
2322 17.9180 188617.00 210960.00 755.61
2323 17.9240 187500.00 208672.00 751.32
2324 17.9300 185477.00 206474.00 748.20
2325 17.9360 183503.00 204380.00 746.19
2326 17.9420 183266.00 202401.00 740.98
2327 17.9480 181966.00 200550.00 738.23
2328 17.9540 181359.00 198838.00 739.60
2329 17.9600 180829.00 197276.00 738.34
2330 17.9660 180620.00 195875.00 737.77
2331 17.9720 181025.00 194646.00 738.61
2332 17.9780 180795.00 193600.00 737.66
2333 17.9840 181618.00 192749.00 741.00
2334 17.9900 183120.00 192106.00 741.58
2335 17.9960 183304.00 191684.00 745.36
2336 18.0020 186107.00 191498.00 746.35
2337 18.0080 187322.00 191567.00 753.66
2338 18.0140 189245.00 191909.00 757.18
2339 18.0200 192535.00 192547.00 761.17
2340 18.0260 195078.00 193507.00 763.57
2341 18.0320 197380.00 194817.00 770.66
2342 18.0380 200887.00 196509.00 779.16
2343 18.0440 203997.00 198621.00 782.58
2344 18.0500 208773.00 201191.00 795.78
2345 18.0560 213264.00 204267.00 802.42
2346 18.0620 218929.00 207892.00 811.69
2347 18.0680 223521.00 212121.00 819.58
2348 18.0740 229379.00 217010.00 831.29
2349 18.0800 237166.00 222616.00 843.67
2350 18.0860 244756.00 228997.00 856.49
2351 18.0920 250786.00 236210.00 870.21
2352 18.0980 258033.00 244320.00 881.09
2353 18.1040 266075.00 253381.00 896.16
2354 18.1100 277885.00 263445.00 915.94
2355 18.1160 291406.00 274557.00 934.27
2356 18.1220 300497.00 286762.00 953.76
2357 18.1280 313552.00 300092.00 973.72
2358 18.1340 328064.00 314552.00 996.11
2359 18.1400 343540.00 330158.00 1014.66
2360 18.1460 358259.00 346894.00 1038.44
2361 18.1520 376694.00 364726.00 1064.70
2362 18.1580 396952.00 383597.00 1092.06
2363 18.1640 415488.00 403440.00 1123.29
2364 18.1700 437371.00 424146.00 1149.06
2365 18.1760 461599.00 445580.00 1178.29
2366 18.1820 482433.00 467567.00 1206.66
2367 18.1880 508567.00 489916.00 1236.90
2368 18.1940 534649.00 512379.00 1270.28
2369 18.2000 560582.00 534647.00 1296.70
2370 18.2060 586407.00 556404.00 1333.65
2371 18.2120 614698.00 577263.00 1360.89
2372 18.2180 639476.00 596802.00 1382.97
2373 18.2240 665781.00 614569.00 1417.05
2374 18.2300 691260.00 630111.00 1438.46
2375 18.2360 704828.00 642975.00 1460.91
2376 18.2420 724115.00 652754.00 1474.95
2377 18.2480 734369.00 659117.00 1486.12
2378 18.2540 739930.00 661842.00 1485.99
2379 18.2600 739094.00 660831.00 1489.69
2380 18.2660 735208.00 656127.00 1484.99
2381 18.2720 725219.00 647900.00 1471.24
2382 18.2780 707794.00 636448.00 1462.80
2383 18.2840 692488.00 622147.00 1440.92
2384 18.2900 666931.00 605439.00 1417.34
2385 18.2960 646158.00 586772.00 1389.39
2386 18.3020 618478.00 566610.00 1367.51
2387 18.3080 595044.00 545384.00 1338.94
2388 18.3140 574203.00 523515.00 1313.54
2389 18.3200 548456.00 501312.00 1289.40
2390 18.3260 524832.00 479105.00 1255.41
2391 18.3320 502505.00 457164.00 1232.26
2392 18.3380 481691.00 435697.00 1207.92
2393 18.3440 463515.00 414886.00 1177.52
2394 18.3500 445636.00 394891.00 1159.94
2395 18.3560 428049.00 375825.00 1135.96
2396 18.3620 410260.00 357764.00 1113.72
2397 18.3680 395862.00 340777.00 1091.95
2398 18.3740 379524.00 324900.00 1068.82
2399 18.3800 364686.00 310158.00 1050.92
2400 18.3860 352920.00 296543.00 1029.43
2401 18.3920 340289.00 284045.00 1015.09
2402 18.3980 328988.00 272637.00 997.92
2403 18.4040 316806.00 262283.00 979.83
2404 18.4100 308468.00 252929.00 961.59
2405 18.4160 298169.00 244529.00 947.61
2406 18.4220 288832.00 237025.00 934.80
2407 18.4280 283287.00 230351.00 920.77
2408 18.4340 273797.00 224471.00 911.17
2409 18.4400 267345.00 219274.00 898.94
2410 18.4460 260472.00 214724.00 886.26
2411 18.4520 255701.00 210758.00 879.96
2412 18.4580 251288.00 207323.00 867.73
2413 18.4640 245421.00 204365.00 862.83
2414 18.4700 243686.00 201835.00 856.09
2415 18.4760 239951.00 199688.00 853.69
2416 18.4820 237272.00 197884.00 845.94
2417 18.4880 234633.00 196386.00 841.27
2418 18.4940 233156.00 195163.00 840.98
2419 18.5000 232554.00 194186.00 837.08
2420 18.5060 230232.00 193431.00 836.10
2421 18.5120 229850.00 192878.00 834.48
2422 18.5180 230017.00 192508.00 834.04
2423 18.5240 229368.00 192307.00 831.02
2424 18.5300 229221.00 192264.00 832.99
2425 18.5360 230224.00 192368.00 833.47
2426 18.5420 229411.00 192612.00 832.80
2427 18.5480 229911.00 192990.00 837.74
2428 18.5540 231019.00 193498.00 838.84
2429 18.5600 232175.00 194134.00 841.23
2430 18.5660 232862.00 194895.00 839.72
2431 18.5720 235853.00 195782.00 842.23
2432 18.5780 235570.00 196795.00 845.70
2433 18.5840 237486.00 197936.00 845.16
2434 18.5900 238720.00 199206.00 851.79
2435 18.5960 241418.00 200608.00 852.57
2436 18.6020 243436.00 202126.00 857.55
2437 18.6080 246888.00 203803.00 865.08
2438 18.6140 250164.00 205624.00 867.72
2439 18.6200 252993.00 207591.00 876.40
2440 18.6260 256935.00 209713.00 879.78
2441 18.6320 259851.00 211993.00 888.72
2442 18.6380 265504.00 214436.00 894.42
2443 18.6440 270087.00 217048.00 901.68
2444 18.6500 275555.00 219837.00 912.15
2445 18.6560 279014.00 222806.00 917.90
2446 18.6620 283428.00 225964.00 925.50
2447 18.6680 290225.00 229315.00 935.45
2448 18.6740 295957.00 232867.00 944.47
2449 18.6800 299959.00 236625.00 952.24
2450 18.6860 307148.00 240594.00 959.82
2451 18.6920 310126.00 244783.00 968.06
2452 18.6980 315137.00 249198.00 973.22
2453 18.7040 318333.00 253840.00 985.14
2454 18.7100 322053.00 258714.00 987.64
2455 18.7160 324851.00 263827.00 991.95
2456 18.7220 327960.00 269182.00 995.73
2457 18.7280 330959.00 274780.00 996.55
2458 18.7340 331140.00 280623.00 999.54
2459 18.7400 332651.00 286715.00 999.25
2460 18.7460 333560.00 293053.00 1006.50
2461 18.7520 336172.00 299636.00 1006.95
2462 18.7580 337975.00 306463.00 1009.54
2463 18.7640 340874.00 313530.00 1014.31
2464 18.7700 344147.00 320834.00 1017.68
2465 18.7760 346139.00 328363.00 1024.74
2466 18.7820 350848.00 336113.00 1029.35
2467 18.7880 354066.00 344073.00 1034.58
2468 18.7940 358864.00 352231.00 1044.46
2469 18.8000 366454.00 360571.00 1048.20
2470 18.8060 371012.00 369082.00 1059.07
2471 18.8120 377186.00 377743.00 1066.48
2472 18.8180 382700.00 386531.00 1077.60
2473 18.8240 389670.00 395428.00 1086.56
2474 18.8300 395799.00 404406.00 1094.62
2475 18.8360 404273.00 413435.00 1104.95
2476 18.8420 411618.00 422481.00 1113.10
2477 18.8480 417741.00 431518.00 1124.18
2478 18.8540 425350.00 440500.00 1130.35
2479 18.8600 433959.00 449386.00 1145.64
2480 18.8660 441042.00 458133.00 1154.35
2481 18.8720 448592.00 466695.00 1167.43
2482 18.8780 457549.00 475022.00 1172.50
2483 18.8840 462186.00 483058.00 1179.97
2484 18.8900 468228.00 490754.00 1187.61
2485 18.8960 473425.00 498052.00 1195.20
2486 18.9020 478513.00 504895.00 1203.82
2487 18.9080 483167.00 511226.00 1210.02
2488 18.9140 489488.00 516997.00 1210.82
2489 18.9200 492981.00 522152.00 1216.95
2490 18.9260 494362.00 526643.00 1219.78
2491 18.9320 495398.00 530428.00 1224.10
2492 18.9380 497089.00 533474.00 1225.37
2493 18.9440 497951.00 535749.00 1227.64
2494 18.9500 498213.00 537235.00 1226.19
2495 18.9560 496373.00 537919.00 1221.22
2496 18.9620 493404.00 537799.00 1224.04
2497 18.9680 493035.00 536882.00 1217.89
2498 18.9740 487485.00 535184.00 1216.13
2499 18.9800 485062.00 532731.00 1212.24
2500 18.9860 480166.00 529552.00 1207.24
2501 18.9920 477498.00 525690.00 1200.07
2502 18.9980 469817.00 521192.00 1192.29
2503 19.0040 465813.00 516103.00 1190.74
2504 19.0100 460346.00 510478.00 1182.66
2505 19.0160 455662.00 504375.00 1175.29
2506 19.0220 449981.00 497846.00 1165.73
2507 19.0280 444779.00 490950.00 1153.85
2508 19.0340 436902.00 483742.00 1146.80
2509 19.0400 431507.00 476278.00 1138.15
2510 19.0460 424883.00 468607.00 1131.85
2511 19.0520 417893.00 460874.00 1122.14
2512 19.0580 411557.00 452933.00 1115.66
2513 19.0640 404926.00 444931.00 1103.31
2514 19.0700 401656.00 436899.00 1094.83
2515 19.0760 393693.00 428878.00 1088.21
2516 19.0820 388118.00 420903.00 1078.80
2517 19.0880 381515.00 413001.00 1072.07
2518 19.0940 375546.00 405202.00 1063.76
2519 19.1000 369492.00 397531.00 1055.01
2520 19.1060 364707.00 390012.00 1044.75
2521 19.1120 360448.00 382661.00 1038.74
2522 19.1180 354204.00 375498.00 1033.23
2523 19.1240 350763.00 368537.00 1025.65
2524 19.1300 345128.00 361797.00 1018.98
2525 19.1360 340504.00 355283.00 1012.42
2526 19.1420 336369.00 349009.00 1003.13
2527 19.1480 332744.00 343069.00 999.01
2528 19.1540 328999.00 337298.00 993.42
2529 19.1600 325729.00 331785.00 991.21
2530 19.1660 324004.00 326538.00 985.84
2531 19.1720 320806.00 321563.00 982.03
2532 19.1780 319778.00 316859.00 978.28
2533 19.1840 317698.00 312431.00 974.96
2534 19.1900 316260.00 308282.00 977.77
2535 19.1960 315092.00 304417.00 973.20
2536 19.2020 314232.00 300835.00 975.10
2537 19.2080 313962.00 297545.00 971.25
2538 19.2140 314146.00 294551.00 973.42
2539 19.2200 315432.00 291862.00 971.93
2540 19.2260 316453.00 289486.00 973.29
2541 19.2320 317061.00 287438.00 976.25
2542 19.2380 318504.00 285738.00 977.18
2543 19.2440 319843.00 284410.00 982.38
2544 19.2500 322126.00 283486.00 984.73
2545 19.2560 325432.00 283008.00 987.80
2546 19.2620 328065.00 283029.00 992.22
2547 19.2680 329719.00 283616.00 994.40
2548 19.2740 332050.00 284852.00 1000.08
2549 19.2800 334568.00 286840.00 1003.68
2550 19.2860 336026.00 289700.00 1006.21
2551 19.2920 339992.00 293580.00 1009.05
2552 19.2980 342521.00 298650.00 1013.92
2553 19.3040 347562.00 305101.00 1022.16
2554 19.3100 352244.00 313157.00 1027.95
2555 19.3160 358031.00 323056.00 1038.75
2556 19.3220 366538.00 335057.00 1050.31
2557 19.3280 379169.00 349422.00 1067.09
2558 19.3340 392315.00 366431.00 1087.04
2559 19.3400 408627.00 386348.00 1104.46
2560 19.3460 427255.00 409404.00 1134.20
2561 19.3520 445925.00 435799.00 1156.49
2562 19.3580 470882.00 465701.00 1190.44
2563 19.3640 500867.00 499183.00 1228.20
2564 19.3700 536062.00 536222.00 1266.81
2565 19.3760 570290.00 576711.00 1305.26
2566 19.3820 609767.00 620377.00 1348.20
2567 19.3880 642935.00 666779.00 1392.35
2568 19.3940 682969.00 715256.00 1431.56
2569 19.4000 733654.00 764936.00 1486.70
2570 19.4060 788663.00 814608.00 1536.76
2571 19.4120 838247.00 862759.00 1589.19
2572 19.4180 884931.00 907493.00 1630.13
2573 19.4240 936498.00 946726.00 1674.88
2574 19.4300 975047.00 978210.00 1709.90
2575 19.4360 1010830.00 999847.00 1743.04
2576 19.4420 1046930.00 1010020.00 1771.89
2577 19.4480 1060470.00 1007840.00 1785.68
2578 19.4540 1062530.00 993396.00 1783.42
2579 19.4600 1044950.00 967674.00 1774.52
2580 19.4660 1022890.00 932382.00 1749.74
2581 19.4720 977297.00 889656.00 1716.62
2582 19.4780 920497.00 841725.00 1661.90
2583 19.4840 854198.00 790694.00 1599.87
2584 19.4900 778125.00 738328.00 1529.15
2585 19.4960 708409.00 686146.00 1458.42
2586 19.5020 642689.00 635296.00 1391.76
2587 19.5080 582779.00 586608.00 1324.26
2588 19.5140 517407.00 540708.00 1247.44
2589 19.5200 459910.00 498006.00 1172.60
2590 19.5260 410947.00 458754.00 1113.60
2591 19.5320 372978.00 423035.00 1055.53
2592 19.5380 338801.00 390854.00 1009.66
2593 19.5440 312540.00 362117.00 969.98
2594 19.5500 287914.00 336667.00 927.71
2595 19.5560 267307.00 314270.00 893.73
2596 19.5620 249766.00 294697.00 866.49
2597 19.5680 235479.00 277679.00 837.33
2598 19.5740 224227.00 262930.00 818.92
2599 19.5800 215367.00 250185.00 801.97
2600 19.5860 206497.00 239183.00 787.03
2601 19.5920 198482.00 229685.00 768.42
2602 19.5980 192053.00 221466.00 759.03
2603 19.6040 186803.00 214333.00 747.94
2604 19.6100 181230.00 208114.00 734.69
2605 19.6160 177868.00 202662.00 730.02
2606 19.6220 175070.00 197850.00 720.59
2607 19.6280 170538.00 193573.00 712.66
2608 19.6340 167495.00 189748.00 706.07
2609 19.6400 163908.00 186299.00 702.18
2610 19.6460 162370.00 183170.00 697.51
2611 19.6520 160438.00 180314.00 693.74
2612 19.6580 157923.00 177693.00 690.20
2613 19.6640 156827.00 175274.00 684.81
2614 19.6700 155671.00 173033.00 680.05
2615 19.6760 152821.00 170949.00 678.79
2616 19.6820 151686.00 169006.00 672.93
2617 19.6880 150497.00 167188.00 671.48
2618 19.6940 149620.00 165484.00 669.81
2619 19.7000 148724.00 163884.00 668.88
2620 19.7060 147542.00 162377.00 663.22
2621 19.7120 146358.00 160958.00 661.29
2622 19.7180 145102.00 159618.00 660.65
2623 19.7240 144728.00 158352.00 657.13
2624 19.7300 143892.00 157153.00 657.35
2625 19.7360 143012.00 156018.00 655.98
2626 19.7420 141589.00 154942.00 652.99
2627 19.7480 141196.00 153920.00 648.26
2628 19.7540 140172.00 152949.00 649.54
2629 19.7600 139034.00 152026.00 643.86
2630 19.7660 138397.00 151147.00 642.36
2631 19.7720 137672.00 150310.00 641.57
2632 19.7780 137108.00 149512.00 640.03
2633 19.7840 136496.00 148750.00 637.80
2634 19.7900 134752.00 148022.00 636.30
2635 19.7960 134404.00 147327.00 635.70
2636 19.8020 134061.00 146662.00 633.45
2637 19.8080 133030.00 146025.00 630.06
2638 19.8140 132427.00 145416.00 630.44
2639 19.8200 132378.00 144832.00 627.51
2640 19.8260 130881.00 144273.00 625.62
2641 19.8320 130800.00 143736.00 627.06
2642 19.8380 130172.00 143221.00 624.16
2643 19.8440 129587.00 142726.00 622.78
2644 19.8500 129273.00 142251.00 621.49
2645 19.8560 128787.00 141795.00 623.29
2646 19.8620 129015.00 141356.00 620.99
2647 19.8680 128203.00 140934.00 621.86
2648 19.8740 127834.00 140529.00 619.60
2649 19.8800 126972.00 140139.00 617.51
2650 19.8860 126588.00 139764.00 617.22
2651 19.8920 126228.00 139402.00 616.01
2652 19.8980 126362.00 139055.00 617.37
2653 19.9040 125919.00 138721.00 614.40
2654 19.9100 125683.00 138400.00 616.15
2655 19.9160 125570.00 138090.00 615.39
2656 19.9220 125374.00 137793.00 612.53
2657 19.9280 124970.00 137507.00 615.41
2658 19.9340 124866.00 137232.00 612.82
2659 19.9400 124704.00 136968.00 610.76
2660 19.9460 124146.00 136715.00 612.98
2661 19.9520 124266.00 136472.00 610.66
2662 19.9580 124144.00 136239.00 612.61
2663 19.9640 123710.00 136015.00 608.55
2664 19.9700 123398.00 135801.00 610.59
2665 19.9760 124071.00 135597.00 608.70
2666 19.9820 123351.00 135401.00 610.35
2667 19.9880 123245.00 135215.00 610.07
2668 19.9940 123407.00 135037.00 607.99
2669 20.0000 123349.00 134869.00 611.15
2670 20.0060 123524.00 134646.00 609.47
2671 20.0120 123796.00 134495.00 611.10
2672 20.0180 123847.00 134352.00 608.62
2673 20.0240 123665.00 134217.00 610.92
2674 20.0300 123836.00 134091.00 610.12
2675 20.0360 123675.00 133972.00 609.21
2676 20.0420 123585.00 133862.00 611.43
2677 20.0480 124007.00 133760.00 610.79
2678 20.0540 124098.00 133665.00 611.55
2679 20.0600 124237.00 133578.00 612.25
2680 20.0660 124109.00 133499.00 612.09
2681 20.0720 124782.00 133427.00 612.01
2682 20.0780 124626.00 133363.00 611.24
2683 20.0840 124481.00 133307.00 612.73
2684 20.0900 124958.00 133257.00 610.61
2685 20.0960 124151.00 133215.00 610.24
2686 20.1020 123915.00 133180.00 612.58
2687 20.1080 124875.00 133152.00 612.22
2688 20.1140 125081.00 133130.00 615.64
2689 20.1200 125392.00 133115.00 613.37
2690 20.1260 125328.00 133107.00 613.35
2691 20.1320 125360.00 133105.00 614.38
2692 20.1380 125160.00 133109.00 613.78
2693 20.1440 125282.00 133119.00 615.21
2694 20.1500 125626.00 133134.00 613.24
2695 20.1560 125457.00 133155.00 616.10
2696 20.1620 126176.00 133180.00 615.46
2697 20.1680 126060.00 133210.00 616.84
2698 20.1740 126123.00 133245.00 615.59
2699 20.1800 126430.00 133284.00 618.11
2700 20.1860 126957.00 133326.00 617.83
2701 20.1920 127061.00 133372.00 617.56
2702 20.1980 127010.00 133421.00 619.91
2703 20.2040 127761.00 133472.00 618.66
2704 20.2100 127337.00 133524.00 618.17
2705 20.2160 127687.00 133578.00 619.80
2706 20.2220 128238.00 133633.00 621.38
2707 20.2280 127947.00 133688.00 620.67
2708 20.2340 127762.00 133743.00 619.62
2709 20.2400 128061.00 133796.00 619.61
2710 20.2460 127991.00 133848.00 618.47
2711 20.2520 127225.00 133897.00 617.40
2712 20.2580 127186.00 133944.00 618.38
2713 20.2640 127217.00 133986.00 616.36
2714 20.2700 126690.00 134024.00 616.85
2715 20.2760 126934.00 134057.00 616.01
2716 20.2820 126740.00 134084.00 615.23
2717 20.2880 126705.00 134104.00 615.94
2718 20.2940 126573.00 134118.00 616.34
2719 20.3000 126371.00 134123.00 616.60
2720 20.3060 126370.00 134121.00 616.00
2721 20.3120 126540.00 134109.00 617.66
2722 20.3180 127314.00 134089.00 617.39
2723 20.3240 126603.00 134060.00 617.48
2724 20.3300 126402.00 134021.00 616.79
2725 20.3360 126168.00 133973.00 616.50
2726 20.3420 125866.00 133916.00 616.01
2727 20.3480 126032.00 133849.00 615.09
2728 20.3540 125833.00 133773.00 615.88
2729 20.3600 125487.00 133689.00 613.90
2730 20.3660 124989.00 133627.00 612.01
2731 20.3720 124786.00 133527.00 615.00
2732 20.3780 124927.00 133419.00 612.41
2733 20.3840 124306.00 133305.00 613.08
2734 20.3900 124184.00 133184.00 610.33
2735 20.3960 123871.00 133058.00 611.01
2736 20.4020 123460.00 132927.00 609.34
2737 20.4080 123789.00 132792.00 609.99
2738 20.4140 123409.00 132653.00 610.57
2739 20.4200 123257.00 132512.00 607.76
2740 20.4260 122882.00 132367.00 609.27
2741 20.4320 123603.00 132221.00 608.74
2742 20.4380 122666.00 132073.00 607.37
2743 20.4440 122676.00 131925.00 608.60
2744 20.4500 122419.00 131776.00 607.17
2745 20.4560 122247.00 131627.00 607.89
2746 20.4620 122112.00 131479.00 605.96
2747 20.4680 122135.00 131332.00 606.96
2748 20.4740 122480.00 131186.00 607.49
2749 20.4800 122142.00 131041.00 607.18
2750 20.4860 122026.00 130898.00 606.33
2751 20.4920 122158.00 130758.00 607.45
2752 20.4980 122135.00 130620.00 607.23
2753 20.5040 122193.00 130484.00 607.33
2754 20.5100 122064.00 130352.00 606.28
2755 20.5160 122572.00 130222.00 606.97
2756 20.5220 122246.00 130095.00 606.62
2757 20.5280 123001.00 129973.00 608.72
2758 20.5340 122943.00 129853.00 608.37
2759 20.5400 122586.00 129737.00 610.18
2760 20.5460 123531.00 129624.00 610.29
2761 20.5520 123651.00 129515.00 613.70
2762 20.5580 124149.00 129410.00 611.20
2763 20.5640 123775.00 129309.00 611.95
2764 20.5700 124248.00 129211.00 613.91
2765 20.5760 124547.00 129117.00 612.00
2766 20.5820 124885.00 129028.00 613.60
2767 20.5880 124320.00 128942.00 612.14
2768 20.5940 124119.00 128860.00 610.63
2769 20.6000 124298.00 128782.00 611.68
2770 20.6060 123891.00 128708.00 611.78
2771 20.6120 123449.00 128638.00 610.59
2772 20.6180 123200.00 128572.00 609.75
2773 20.6240 123544.00 128510.00 608.96
2774 20.6300 122195.00 128452.00 607.61
2775 20.6360 121959.00 128398.00 605.02
2776 20.6420 121810.00 128347.00 606.73
2777 20.6480 121146.00 128301.00 603.26
2778 20.6540 120749.00 128259.00 604.06
2779 20.6600 120691.00 128220.00 601.78
2780 20.6660 120718.00 128186.00 602.06
2781 20.6720 120630.00 128155.00 601.71
2782 20.6780 120360.00 128128.00 601.58
2783 20.6840 119828.00 128106.00 601.72
2784 20.6900 119667.00 128087.00 599.68
2785 20.6960 119848.00 128072.00 601.13
2786 20.7020 119701.00 128061.00 601.64
2787 20.7080 119381.00 128055.00 601.57
2788 20.7140 119601.00 128052.00 600.13
2789 20.7200 119513.00 128054.00 599.86
2790 20.7260 119126.00 128060.00 599.30
2791 20.7320 119448.00 128070.00 598.42
2792 20.7380 119410.00 128085.00 598.26
2793 20.7440 119149.00 128104.00 598.91
2794 20.7500 119001.00 128128.00 598.38
2795 20.7560 118677.00 128157.00 598.12
2796 20.7620 118739.00 128190.00 598.10
2797 20.7680 118241.00 128229.00 597.71
2798 20.7740 118883.00 128174.00 597.71
2799 20.7800 118627.00 128202.00 597.91
2800 20.7860 118379.00 128236.00 597.27
2801 20.7920 118598.00 128275.00 597.03
2802 20.7980 118041.00 128320.00 598.11
2803 20.8040 118699.00 128372.00 597.29
2804 20.8100 118534.00 128430.00 598.28
2805 20.8160 118873.00 128495.00 598.84
2806 20.8220 118387.00 128568.00 599.15
2807 20.8280 118784.00 128648.00 597.48
2808 20.8340 118567.00 128736.00 597.73
2809 20.8400 118668.00 128833.00 598.87
2810 20.8460 118601.00 128940.00 598.24
2811 20.8520 118956.00 129056.00 597.97
2812 20.8580 119253.00 129183.00 598.48
2813 20.8640 118931.00 129322.00 599.20
2814 20.8700 119532.00 129472.00 600.42
2815 20.8760 119499.00 129637.00 601.32
2816 20.8820 119419.00 129824.00 600.34
2817 20.8880 120009.00 130018.00 599.50
2818 20.8940 119787.00 130230.00 601.53
2819 20.9000 120175.00 130461.00 600.20
2820 20.9060 120703.00 130711.00 602.86
2821 20.9120 120406.00 130984.00 602.50
2822 20.9180 120778.00 131280.00 603.54
2823 20.9240 121211.00 131603.00 604.20
2824 20.9300 121419.00 131954.00 603.82
2825 20.9360 121588.00 132334.00 606.47
2826 20.9420 122421.00 132748.00 605.88
2827 20.9480 122401.00 133197.00 606.85
2828 20.9540 122873.00 133685.00 610.02
2829 20.9600 123315.00 134213.00 610.22
2830 20.9660 124383.00 134786.00 611.87
2831 20.9720 124124.00 135406.00 611.28
2832 20.9780 124883.00 136077.00 615.19
2833 20.9840 125732.00 136801.00 615.95
2834 20.9900 126458.00 137582.00 618.44
2835 20.9960 127053.00 138424.00 621.15
2836 21.0020 128170.00 139330.00 621.95
2837 21.0080 129281.00 140304.00 626.39
2838 21.0140 130156.00 141348.00 626.02
2839 21.0200 131421.00 142468.00 629.07
2840 21.0260 132673.00 143666.00 631.79
2841 21.0320 134260.00 144947.00 636.45
2842 21.0380 136009.00 146314.00 639.61
2843 21.0440 137864.00 147771.00 642.40
2844 21.0500 139364.00 149323.00 647.29
2845 21.0560 141196.00 150976.00 652.00
2846 21.0620 143959.00 152733.00 657.53
2847 21.0680 147007.00 154601.00 665.85
2848 21.0740 149573.00 156586.00 669.32
2849 21.0800 152646.00 158698.00 675.82
2850 21.0860 156290.00 160948.00 683.44
2851 21.0920 158571.00 163348.00 690.33
2852 21.0980 162418.00 165921.00 697.11
2853 21.1040 166636.00 168693.00 707.95
2854 21.1100 170569.00 171702.00 717.21
2855 21.1160 176376.00 175000.00 725.82
2856 21.1220 181029.00 178664.00 738.18
2857 21.1280 185902.00 182796.00 744.24
2858 21.1340 190297.00 187528.00 756.60
2859 21.1400 196947.00 193040.00 767.89
2860 21.1460 204467.00 199550.00 784.44
2861 21.1520 212857.00 207323.00 800.13
2862 21.1580 222916.00 216659.00 814.14
2863 21.1640 232731.00 227893.00 835.50
2864 21.1700 244602.00 241355.00 855.94
2865 21.1760 259478.00 257355.00 879.44
2866 21.1820 275529.00 276124.00 910.36
2867 21.1880 294885.00 297789.00 942.03
2868 21.1940 319980.00 322252.00 979.72
2869 21.2000 343055.00 349087.00 1014.70
2870 21.2060 365492.00 377404.00 1048.74
2871 21.2120 390517.00 405554.00 1080.33
2872 21.2180 413602.00 431065.00 1114.10
2873 21.2240 430460.00 450729.00 1139.48
2874 21.2300 442303.00 461305.00 1149.77
2875 21.2360 441412.00 460628.00 1149.32
2876 21.2420 431709.00 448623.00 1135.78
2877 21.2480 411932.00 427344.00 1112.86
2878 21.2540 385714.00 400017.00 1074.68
2879 21.2600 355160.00 369912.00 1033.73
2880 21.2660 324558.00 339608.00 985.36
2881 21.2720 295071.00 310795.00 940.48
2882 21.2780 270042.00 284457.00 901.12
2883 21.2840 250699.00 261074.00 867.10
2884 21.2900 232776.00 240766.00 834.69
2885 21.2960 216242.00 223429.00 806.31
2886 21.3020 203583.00 208838.00 781.59
2887 21.3080 191924.00 196691.00 757.59
2888 21.3140 183394.00 186649.00 740.43
2889 21.3200 176356.00 178370.00 728.24
2890 21.3260 170348.00 171540.00 713.53
2891 21.3320 164620.00 165880.00 702.47
2892 21.3380 159580.00 161148.00 692.74
2893 21.3440 155573.00 157151.00 682.91
2894 21.3500 150382.00 153738.00 671.59
2895 21.3560 146297.00 150789.00 661.38
2896 21.3620 142689.00 148212.00 652.77
2897 21.3680 139352.00 145940.00 647.30
2898 21.3740 136125.00 143922.00 637.76
2899 21.3800 133783.00 142119.00 632.49
2900 21.3860 130825.00 140498.00 625.85
2901 21.3920 128354.00 139037.00 621.22
2902 21.3980 127459.00 137716.00 618.53
2903 21.4040 126346.00 136519.00 616.63
2904 21.4100 124947.00 135431.00 612.57
2905 21.4160 124352.00 134441.00 612.16
2906 21.4220 123800.00 133540.00 609.90
2907 21.4280 123364.00 132718.00 608.45
2908 21.4340 122321.00 131966.00 606.02
2909 21.4400 122460.00 131278.00 607.40
2910 21.4460 122308.00 130648.00 605.32
2911 21.4520 122046.00 130070.00 606.19
2912 21.4580 122244.00 129540.00 606.13
2913 21.4640 122115.00 129052.00 605.12
2914 21.4700 122554.00 128603.00 605.78
2915 21.4760 121977.00 128189.00 606.19
2916 21.4820 122005.00 127808.00 605.36
2917 21.4880 122065.00 127455.00 606.10
2918 21.4940 122048.00 127130.00 605.21
2919 21.5000 121893.00 126829.00 605.08
2920 21.5060 121210.00 126551.00 604.79
2921 21.5120 121022.00 126293.00 602.97
2922 21.5180 120857.00 126054.00 602.76
2923 21.5240 120138.00 125833.00 600.72
2924 21.5300 120279.00 125629.00 600.08
2925 21.5360 118979.00 125439.00 599.12
2926 21.5420 118530.00 125264.00 596.13
2927 21.5480 118356.00 125102.00 594.79
2928 21.5540 117783.00 124952.00 594.32
2929 21.5600 117221.00 124814.00 593.54
2930 21.5660 117033.00 124687.00 591.74
2931 21.5720 116235.00 124570.00 588.33
2932 21.5780 115777.00 124463.00 588.62
2933 21.5840 116106.00 124365.00 588.02
2934 21.5900 115154.00 124276.00 587.15
2935 21.5960 115104.00 124196.00 587.29
2936 21.6020 114391.00 124124.00 585.94
2937 21.6080 115167.00 124150.00 584.73
2938 21.6140 114494.00 124093.00 586.71
2939 21.6200 114415.00 124044.00 583.17
2940 21.6260 114622.00 124002.00 583.27
2941 21.6320 113783.00 123970.00 582.59
2942 21.6380 113919.00 123948.00 584.03
2943 21.6440 114321.00 123933.00 584.91
2944 21.6500 114066.00 123924.00 585.37
2945 21.6560 114085.00 123921.00 585.97
2946 21.6620 114302.00 123934.00 584.86
2947 21.6680 114820.00 123944.00 586.20
2948 21.6740 114654.00 123960.00 585.91
2949 21.6800 114737.00 123983.00 586.29
2950 21.6860 115080.00 124011.00 585.98
2951 21.6920 114958.00 124046.00 588.40
2952 21.6980 115316.00 124087.00 587.16
2953 21.7040 115736.00 124134.00 588.93
2954 21.7100 115875.00 124187.00 588.98
2955 21.7160 115569.00 124247.00 589.09
2956 21.7220 116621.00 124314.00 588.89
2957 21.7280 117142.00 124387.00 593.37
2958 21.7340 117085.00 124467.00 593.57
2959 21.7400 117343.00 124554.00 592.77
2960 21.7460 117455.00 124648.00 594.47
2961 21.7520 117831.00 124750.00 593.06
2962 21.7580 118423.00 124860.00 594.71
2963 21.7640 118987.00 124979.00 594.97
2964 21.7700 119209.00 125105.00 595.90
2965 21.7760 119597.00 125241.00 597.99
2966 21.7820 120289.00 125386.00 600.16
2967 21.7880 120418.00 125542.00 600.20
2968 21.7940 120807.00 125846.00 601.44
2969 21.8000 122118.00 126024.00 603.39
2970 21.8060 122400.00 126213.00 605.70
2971 21.8120 123256.00 126415.00 605.31
2972 21.8180 124085.00 126630.00 608.73
2973 21.8240 124784.00 126859.00 610.21
2974 21.8300 125334.00 127103.00 612.54
2975 21.8360 126722.00 127363.00 614.22
2976 21.8420 127185.00 127640.00 617.36
2977 21.8480 127939.00 127935.00 619.99
2978 21.8540 129438.00 128249.00 622.03
2979 21.8600 130773.00 128583.00 627.06
2980 21.8660 131818.00 128940.00 627.87
2981 21.8720 133319.00 129320.00 631.23
2982 21.8780 134384.00 129724.00 634.52
2983 21.8840 135568.00 130155.00 638.92
2984 21.8900 136701.00 130613.00 640.77
2985 21.8960 138251.00 131102.00 643.48
2986 21.9020 139627.00 131622.00 647.34
2987 21.9080 140802.00 132175.00 650.79
2988 21.9140 142715.00 132764.00 654.06
2989 21.9200 144245.00 133390.00 658.30
2990 21.9260 145314.00 134056.00 661.59
2991 21.9320 146373.00 134763.00 663.86
2992 21.9380 147763.00 135515.00 666.12
2993 21.9440 148457.00 136312.00 667.94
2994 21.9500 150113.00 137158.00 670.02
2995 21.9560 150463.00 138054.00 672.67
2996 21.9620 151480.00 139004.00 675.36
2997 21.9680 152005.00 140009.00 674.32
2998 21.9740 152893.00 141072.00 676.68
2999 21.9800 153327.00 142195.00 678.30
3000 21.9860 154394.00 143380.00 681.78
3001 21.9920 155376.00 144629.00 682.63
3002 21.9980 156018.00 145945.00 686.22
3003 22.0040 157408.00 147330.00 687.11
3004 22.0100 158700.00 148786.00 690.16
3005 22.0160 159836.00 150313.00 693.47
3006 22.0220 161851.00 151915.00 696.61
3007 22.0280 163613.00 153592.00 699.53
3008 22.0340 164600.00 155347.00 702.07
3009 22.0400 166118.00 157178.00 709.58
3010 22.0460 168258.00 159090.00 710.01
3011 22.0520 170501.00 161081.00 715.95
3012 22.0580 172656.00 163152.00 721.30
3013 22.0640 175789.00 165302.00 724.97
3014 22.0700 178179.00 167533.00 730.40
3015 22.0760 180381.00 169842.00 738.15
3016 22.0820 184433.00 172230.00 741.24
3017 22.0880 186738.00 174694.00 747.17
3018 22.0940 188427.00 177234.00 751.44
3019 22.1000 191967.00 179846.00 759.00
3020 22.1060 195067.00 182528.00 765.70
3021 22.1120 198653.00 185276.00 771.53
3022 22.1180 202541.00 188088.00 781.49
3023 22.1240 205453.00 190958.00 784.09
3024 22.1300 208679.00 193880.00 792.68
3025 22.1360 212344.00 196851.00 797.72
3026 22.1420 216462.00 199862.00 805.79
3027 22.1480 219988.00 202906.00 811.73
3028 22.1540 223086.00 205975.00 820.87
3029 22.1600 227213.00 209060.00 826.81
3030 22.1660 231208.00 212153.00 833.09
3031 22.1720 234197.00 215240.00 838.98
3032 22.1780 239215.00 218313.00 845.85
3033 22.1840 242550.00 221359.00 854.01
3034 22.1900 244853.00 224363.00 856.79
3035 22.1960 248293.00 227313.00 864.87
3036 22.2020 252220.00 230196.00 869.51
3037 22.2080 254423.00 232997.00 873.58
3038 22.2140 257918.00 235701.00 878.63
3039 22.2200 261197.00 238293.00 884.61
3040 22.2260 263511.00 240761.00 888.54
3041 22.2320 265062.00 243092.00 894.67
3042 22.2380 267999.00 245272.00 895.51
3043 22.2440 269562.00 247291.00 895.78
3044 22.2500 270306.00 249142.00 900.14
3045 22.2560 273224.00 250815.00 901.04
3046 22.2620 273091.00 252305.00 903.93
3047 22.2680 274038.00 253614.00 905.55
3048 22.2740 274600.00 254735.00 905.94
3049 22.2800 275812.00 255673.00 907.42
3050 22.2860 275390.00 256432.00 906.53
3051 22.2920 275932.00 257021.00 906.48
3052 22.2980 274745.00 257448.00 907.30
3053 22.3040 274220.00 257725.00 907.38
3054 22.3100 274396.00 257868.00 908.77
3055 22.3160 275063.00 257892.00 906.79
3056 22.3220 274537.00 257818.00 905.68
3057 22.3280 273140.00 257667.00 906.60
3058 22.3340 272813.00 257464.00 904.17
3059 22.3400 272514.00 257237.00 904.23
3060 22.3460 272042.00 257017.00 905.59
3061 22.3520 271738.00 256840.00 900.75
3062 22.3580 270777.00 256748.00 900.55
3063 22.3640 271102.00 256786.00 901.94
3064 22.3700 270619.00 257007.00 900.41
3065 22.3760 271180.00 257471.00 902.56
3066 22.3820 270277.00 258246.00 901.63
3067 22.3880 271045.00 259408.00 903.76
3068 22.3940 271809.00 261041.00 902.14
3069 22.4000 273285.00 263237.00 906.24
3070 22.4060 275900.00 266096.00 909.83
3071 22.4120 278208.00 269724.00 913.40
3072 22.4180 280711.00 274231.00 917.07
3073 22.4240 283300.00 279734.00 925.36
3074 22.4300 288688.00 286340.00 929.29
3075 22.4360 294292.00 294156.00 939.03
3076 22.4420 301247.00 303284.00 952.97
3077 22.4480 309299.00 313806.00 961.27
3078 22.4540 317708.00 325787.00 977.91
3079 22.4600 326761.00 339261.00 991.69
3080 22.4660 337823.00 354242.00 1009.73
3081 22.4720 352530.00 370691.00 1028.06
3082 22.4780 368146.00 388524.00 1053.41
3083 22.4840 386915.00 407592.00 1076.57
3084 22.4900 403005.00 427692.00 1099.55
3085 22.4960 419458.00 448500.00 1121.89
3086 22.5020 439200.00 469600.00 1152.23
3087 22.5080 460788.00 490470.00 1174.51
3088 22.5140 480678.00 510439.00 1203.08
3089 22.5200 502974.00 528723.00 1228.01
3090 22.5260 520321.00 544445.00 1248.67
3091 22.5320 531928.00 556722.00 1264.54
3092 22.5380 542043.00 564734.00 1278.06
3093 22.5440 549816.00 567856.00 1291.52
3094 22.5500 552193.00 565763.00 1290.58
3095 22.5560 552132.00 558478.00 1291.19
3096 22.5620 540198.00 546373.00 1276.39
3097 22.5680 531067.00 530118.00 1264.41
3098 22.5740 516430.00 510535.00 1246.25
3099 22.5800 493429.00 488521.00 1220.75
3100 22.5860 467121.00 464942.00 1182.31
3101 22.5920 440083.00 440571.00 1151.37
3102 22.5980 412580.00 416042.00 1111.70
3103 22.6040 385354.00 391881.00 1076.65
3104 22.6100 362038.00 368485.00 1042.49
3105 22.6160 338070.00 346158.00 1009.75
3106 22.6220 313657.00 325095.00 971.73
3107 22.6280 290741.00 305442.00 935.95
3108 22.6340 270843.00 287282.00 901.17
3109 22.6400 253521.00 270632.00 871.24
3110 22.6460 239958.00 255500.00 848.48
3111 22.6520 227107.00 241843.00 826.18
3112 22.6580 215424.00 229600.00 807.72
3113 22.6640 204121.00 218684.00 780.85
3114 22.6700 195571.00 209005.00 764.46
3115 22.6760 186868.00 200461.00 748.83
3116 22.6820 180809.00 192949.00 737.04
3117 22.6880 175873.00 186358.00 728.27
3118 22.6940 170094.00 180397.00 715.09
3119 22.7000 165571.00 175354.00 704.58
3120 22.7060 161325.00 170943.00 697.82
3121 22.7120 158336.00 167085.00 689.08
3122 22.7180 155043.00 163707.00 682.96
3123 22.7240 153104.00 160745.00 676.85
3124 22.7300 150140.00 158141.00 671.28
3125 22.7360 148487.00 155850.00 667.76
3126 22.7420 146562.00 153831.00 663.17
3127 22.7480 145310.00 152053.00 659.39
3128 22.7540 143363.00 150488.00 656.50
3129 22.7600 143054.00 149116.00 655.21
3130 22.7660 141872.00 147920.00 652.33
3131 22.7720 140787.00 146887.00 652.04
3132 22.7780 140565.00 146009.00 648.08
3133 22.7840 139660.00 145281.00 649.03
3134 22.7900 140025.00 144698.00 647.25
3135 22.7960 139446.00 144258.00 648.23
3136 22.8020 139772.00 143963.00 648.49
3137 22.8080 139960.00 143813.00 649.18
3138 22.8140 140232.00 143811.00 649.81
3139 22.8200 140671.00 143961.00 651.94
3140 22.8260 142015.00 144165.00 652.44
3141 22.8320 142012.00 144631.00 653.67
3142 22.8380 143549.00 145261.00 656.30
3143 22.8440 144154.00 146059.00 659.38
3144 22.8500 145479.00 147030.00 661.85
3145 22.8560 147433.00 148174.00 663.91
3146 22.8620 149543.00 149494.00 670.58
3147 22.8680 152098.00 150992.00 675.95
3148 22.8740 153637.00 152664.00 681.82
3149 22.8800 156258.00 154508.00 684.16
3150 22.8860 158641.00 156520.00 690.97
3151 22.8920 162122.00 158689.00 697.72
3152 22.8980 165370.00 161006.00 704.04
3153 22.9040 169584.00 163454.00 713.85
3154 22.9100 172970.00 166016.00 721.14
3155 22.9160 176168.00 168670.00 727.37
3156 22.9220 180815.00 171385.00 735.56
3157 22.9280 184811.00 174128.00 744.42
3158 22.9340 189881.00 176860.00 755.88
3159 22.9400 195567.00 179534.00 764.92
3160 22.9460 200080.00 182096.00 775.93
3161 22.9520 204142.00 184491.00 783.36
3162 22.9580 207763.00 186654.00 790.44
3163 22.9640 211554.00 188522.00 798.13
3164 22.9700 216420.00 190032.00 805.83
3165 22.9760 219394.00 191129.00 812.36
3166 22.9820 221762.00 191766.00 816.97
3167 22.9880 222775.00 191911.00 819.82
3168 22.9940 223561.00 191551.00 821.48
3169 23.0000 222197.00 190689.00 819.12
3170 23.0060 220224.00 189350.00 815.04
3171 23.0120 217289.00 187571.00 810.19
3172 23.0180 215133.00 185404.00 801.40
3173 23.0240 210795.00 182907.00 794.28
3174 23.0300 206686.00 180144.00 789.05
3175 23.0360 202674.00 177179.00 779.49
3176 23.0420 197684.00 174068.00 773.27
3177 23.0480 192012.00 170867.00 761.11
3178 23.0540 187942.00 167626.00 749.77
3179 23.0600 182807.00 164384.00 741.16
3180 23.0660 179199.00 161177.00 732.48
3181 23.0720 175370.00 158037.00 725.32
3182 23.0780 171124.00 154988.00 716.40
3183 23.0840 167293.00 152048.00 708.75
3184 23.0900 162809.00 149233.00 698.72
3185 23.0960 159851.00 146555.00 689.95
3186 23.1020 155630.00 144021.00 683.83
3187 23.1080 153004.00 141636.00 677.69
3188 23.1140 150240.00 139404.00 671.33
3189 23.1200 147395.00 137324.00 664.94
3190 23.1260 144391.00 135394.00 658.19
3191 23.1320 141973.00 133611.00 651.00
3192 23.1380 139297.00 131971.00 645.47
3193 23.1440 137484.00 130469.00 641.90
3194 23.1500 135959.00 129096.00 637.93
3195 23.1560 133530.00 127846.00 633.38
3196 23.1620 131848.00 126710.00 629.51
3197 23.1680 130847.00 125682.00 623.77
3198 23.1740 129092.00 124752.00 622.19
3199 23.1800 128167.00 123912.00 619.05
3200 23.1860 126615.00 123155.00 615.76
3201 23.1920 125415.00 122473.00 615.23
3202 23.1980 124679.00 121858.00 612.34
3203 23.2040 123723.00 121304.00 609.48
3204 23.2100 123276.00 120804.00 605.86
3205 23.2160 122386.00 120353.00 606.25
3206 23.2220 121871.00 119946.00 604.38
3207 23.2280 121224.00 119577.00 602.82
3208 23.2340 120739.00 119242.00 601.07
3209 23.2400 120091.00 118937.00 600.76
3210 23.2460 119920.00 118660.00 597.69
3211 23.2520 119571.00 118407.00 598.87
3212 23.2580 118778.00 118175.00 597.79
3213 23.2640 119074.00 117963.00 596.79
3214 23.2700 118371.00 117768.00 596.43
3215 23.2760 118215.00 117590.00 595.93
3216 23.2820 118450.00 117425.00 594.38
3217 23.2880 118350.00 117275.00 594.72
3218 23.2940 118140.00 117136.00 594.39
3219 23.3000 117959.00 117010.00 594.76
3220 23.3060 118092.00 116894.00 595.00
3221 23.3120 118225.00 116790.00 595.32
3222 23.3180 118390.00 116695.00 594.67
3223 23.3240 118449.00 116523.00 594.87
3224 23.3300 118532.00 116449.00 596.14
3225 23.3360 118524.00 116384.00 596.72
3226 23.3420 118779.00 116330.00 595.62
3227 23.3480 118420.00 116285.00 596.06
3228 23.3540 118634.00 116249.00 596.22
3229 23.3600 118664.00 116223.00 594.55
3230 23.3660 118622.00 116208.00 595.83
3231 23.3720 118331.00 116202.00 594.68
3232 23.3780 118828.00 116206.00 596.00
3233 23.3840 118557.00 116221.00 596.04
3234 23.3900 117929.00 116246.00 595.70
3235 23.3960 117896.00 116282.00 594.05
3236 23.4020 117999.00 116329.00 594.34
3237 23.4080 117573.00 116388.00 592.96
3238 23.4140 117249.00 116458.00 594.11
3239 23.4200 116954.00 116540.00 593.24
3240 23.4260 116614.00 116634.00 590.81
3241 23.4320 116347.00 116740.00 589.77
3242 23.4380 116007.00 116860.00 589.86
3243 23.4440 115558.00 116993.00 588.08
3244 23.4500 115237.00 117128.00 588.16
3245 23.4560 115139.00 117289.00 587.75
3246 23.4620 114993.00 117463.00 588.15
3247 23.4680 115093.00 117652.00 586.75
3248 23.4740 114878.00 117855.00 586.92
3249 23.4800 114860.00 118074.00 586.43
3250 23.4860 115001.00 118309.00 587.40
3251 23.4920 115026.00 118559.00 587.31
3252 23.4980 115149.00 118825.00 587.76
3253 23.5040 115592.00 119108.00 588.46
3254 23.5100 115914.00 119407.00 588.96
3255 23.5160 116288.00 119723.00 589.21
3256 23.5220 116083.00 120056.00 589.20
3257 23.5280 116260.00 120406.00 591.05
3258 23.5340 116461.00 120774.00 592.47
3259 23.5400 116312.00 121160.00 593.07
3260 23.5460 117663.00 121562.00 593.55
3261 23.5520 118116.00 121983.00 593.79
3262 23.5580 118580.00 122422.00 596.07
3263 23.5640 119117.00 122878.00 596.97
3264 23.5700 119507.00 123352.00 597.24
3265 23.5760 120149.00 123843.00 599.72
3266 23.5820 120967.00 124352.00 599.74
3267 23.5880 121578.00 124878.00 602.63
3268 23.5940 122011.00 125421.00 603.54
3269 23.6000 122792.00 125981.00 606.81
3270 23.6060 123038.00 126557.00 604.43
3271 23.6120 123728.00 127149.00 608.36
3272 23.6180 124725.00 127758.00 609.66
3273 23.6240 125659.00 128381.00 610.90
3274 23.6300 126039.00 129019.00 611.45
3275 23.6360 127099.00 129672.00 615.72
3276 23.6420 127171.00 130338.00 619.09
3277 23.6480 128112.00 131017.00 618.30
3278 23.6540 128998.00 131707.00 622.76
3279 23.6600 130241.00 132410.00 622.68
3280 23.6660 130669.00 133124.00 626.84
3281 23.6720 131758.00 133847.00 626.29
3282 23.6780 132326.00 134580.00 628.59
3283 23.6840 132968.00 135321.00 629.59
3284 23.6900 133751.00 136070.00 632.87
3285 23.6960 134880.00 136827.00 633.54
3286 23.7020 135182.00 137590.00 638.17
3287 23.7080 136360.00 138360.00 637.59
3288 23.7140 136646.00 139137.00 639.71
3289 23.7200 138042.00 139920.00 642.15
3290 23.7260 138634.00 140713.00 644.53
3291 23.7320 139543.00 141515.00 646.00
3292 23.7380 140597.00 142328.00 648.62
3293 23.7440 141110.00 143158.00 651.89
3294 23.7500 141797.00 144008.00 649.05
3295 23.7560 142589.00 144884.00 653.20
3296 23.7620 143514.00 145794.00 653.49
3297 23.7680 144267.00 146749.00 657.13
3298 23.7740 145823.00 147759.00 657.20
3299 23.7800 145839.00 148842.00 662.50
3300 23.7860 146881.00 150009.00 661.42
3301 23.7920 147062.00 151283.00 663.32
3302 23.7980 148629.00 152686.00 666.27
3303 23.8040 149976.00 154242.00 670.12
3304 23.8100 151516.00 155981.00 670.28
3305 23.8160 152450.00 157932.00 673.86
3306 23.8220 153985.00 160125.00 678.44
3307 23.8280 155666.00 162595.00 681.49
3308 23.8340 157311.00 165373.00 685.29
3309 23.8400 159729.00 168493.00 691.27
3310 23.8460 161757.00 171986.00 694.85
3311 23.8520 164627.00 175876.00 700.76
3312 23.8580 167868.00 180188.00 710.13
3313 23.8640 172003.00 184938.00 717.78
3314 23.8700 176123.00 190133.00 725.85
3315 23.8760 180445.00 195774.00 734.33
3316 23.8820 184518.00 201845.00 744.07
3317 23.8880 190748.00 208317.00 754.94
3318 23.8940 196518.00 215140.00 769.14
3319 23.9000 204337.00 222247.00 782.81
3320 23.9060 212327.00 229537.00 796.71
3321 23.9120 220225.00 236880.00 811.86
3322 23.9180 227790.00 244108.00 827.80
3323 23.9240 237103.00 251028.00 841.79
3324 23.9300 245440.00 257405.00 859.18
3325 23.9360 253928.00 262995.00 874.38
3326 23.9420 262409.00 267568.00 885.13
3327 23.9480 267564.00 270945.00 894.60
3328 23.9540 272369.00 272966.00 904.31
3329 23.9600 276291.00 273621.00 911.88
3330 23.9660 279005.00 272993.00 914.05
3331 23.9720 280445.00 271263.00 917.64
3332 23.9780 280251.00 268696.00 914.67
3333 23.9840 279155.00 265610.00 918.03
3334 23.9900 279314.00 262348.00 913.83
3335 23.9960 278178.00 259270.00 915.66
3336 24.0020 278812.00 256732.00 913.09
3337 24.0080 280036.00 255090.00 916.27
3338 24.0140 283107.00 254705.00 924.34
3339 24.0200 288956.00 255950.00 927.90
3340 24.0260 295038.00 259207.00 939.64
3341 24.0320 302790.00 264878.00 952.93
3342 24.0380 315391.00 273365.00 974.08
3343 24.0440 329058.00 285065.00 992.37
3344 24.0500 348146.00 300344.00 1022.95
3345 24.0560 371610.00 319521.00 1056.56
3346 24.0620 396992.00 342808.00 1091.28
3347 24.0680 424314.00 370237.00 1126.34
3348 24.0740 457358.00 401632.00 1171.86
3349 24.0800 497004.00 436420.00 1217.51
3350 24.0860 533458.00 473483.00 1261.13
3351 24.0920 573012.00 510941.00 1311.03
3352 24.0980 608126.00 546043.00 1348.89
3353 24.1040 634343.00 575192.00 1379.85
3354 24.1100 656039.00 594523.00 1402.90
3355 24.1160 666026.00 600899.00 1411.21
3356 24.1220 655329.00 593020.00 1402.82
3357 24.1280 631101.00 571927.00 1375.53
3358 24.1340 593343.00 540591.00 1333.03
3359 24.1400 551955.00 502782.00 1286.66
3360 24.1460 509774.00 462129.00 1236.12
3361 24.1520 464669.00 421439.00 1178.62
3362 24.1580 420959.00 382632.00 1122.34
3363 24.1640 381278.00 346827.00 1069.35
3364 24.1700 344563.00 314614.00 1018.89
3365 24.1760 312504.00 286185.00 966.71
3366 24.1820 287748.00 261492.00 928.25
3367 24.1880 265202.00 240308.00 890.99
3368 24.1940 244627.00 222328.00 855.43
3369 24.2000 228062.00 207197.00 825.22
3370 24.2060 212905.00 194527.00 800.76
3371 24.2120 199712.00 183948.00 772.94
3372 24.2180 190125.00 175121.00 754.82
3373 24.2240 180853.00 167734.00 736.82
3374 24.2300 172549.00 161514.00 717.80
3375 24.2360 164811.00 156240.00 702.81
3376 24.2420 158447.00 151727.00 687.89
3377 24.2480 152256.00 147828.00 674.18
3378 24.2540 146357.00 144425.00 660.23
3379 24.2600 141054.00 141428.00 649.60
3380 24.2660 135953.00 138767.00 636.94
3381 24.2720 131528.00 136386.00 624.85
3382 24.2780 127917.00 134242.00 618.16
3383 24.2840 124892.00 132302.00 610.44
3384 24.2900 121087.00 130538.00 600.79
3385 24.2960 118646.00 128929.00 594.74
3386 24.3020 116349.00 127456.00 591.37
3387 24.3080 114561.00 126103.00 585.52
3388 24.3140 113175.00 124858.00 580.20
3389 24.3200 111759.00 123709.00 579.32
3390 24.3260 110418.00 122647.00 574.33
3391 24.3320 109256.00 121663.00 572.61
3392 24.3380 108418.00 120749.00 571.19
3393 24.3440 107879.00 119900.00 566.78
3394 24.3500 107656.00 119108.00 567.35
3395 24.3560 106804.00 118371.00 565.58
3396 24.3620 106141.00 117681.00 564.83
3397 24.3680 105944.00 117036.00 563.13
3398 24.3740 105329.00 116432.00 562.37
3399 24.3800 104890.00 115866.00 562.29
3400 24.3860 104382.00 115335.00 558.84
3401 24.3920 103688.00 114835.00 557.31
3402 24.3980 103278.00 114365.00 557.61
3403 24.4040 102669.00 113923.00 554.62
3404 24.4100 102539.00 113506.00 555.19
3405 24.4160 101929.00 113113.00 552.58
3406 24.4220 101613.00 112743.00 552.81
3407 24.4280 101593.00 112393.00 550.54
3408 24.4340 100846.00 112063.00 549.82
3409 24.4400 100548.00 111751.00 550.62
3410 24.4460 100118.00 111457.00 548.38
3411 24.4520 100249.00 111179.00 549.20
3412 24.4580 99888.20 110916.00 546.38
3413 24.4640 99041.30 110669.00 545.70
3414 24.4700 99261.80 110435.00 545.60
3415 24.4760 99476.10 110214.00 547.89
3416 24.4820 98989.60 110007.00 544.71
3417 24.4880 98858.50 109811.00 544.86
3418 24.4940 98852.70 109628.00 544.94
3419 24.5000 98920.10 109456.00 545.14
3420 24.5060 98786.20 109295.00 544.10
3421 24.5120 98757.30 109145.00 545.10
3422 24.5180 98878.10 109005.00 545.94
3423 24.5240 98927.30 108876.00 543.95
3424 24.5300 99039.10 108758.00 545.82
3425 24.5360 99301.60 108649.00 545.81
3426 24.5420 98796.90 108551.00 545.11
3427 24.5480 99607.10 108465.00 548.13
3428 24.5540 99515.50 108387.00 549.04
3429 24.5600 99656.60 108320.00 548.35
3430 24.5660 100001.00 108263.00 549.66
3431 24.5720 100856.00 108216.00 550.01
3432 24.5780 100303.00 108181.00 549.70
3433 24.5840 101083.00 108156.00 549.81
3434 24.5900 101004.00 108142.00 551.23
3435 24.5960 101455.00 108165.00 551.90
3436 24.6020 101907.00 108174.00 553.26
3437 24.6080 102329.00 108194.00 555.05
3438 24.6140 103101.00 108226.00 555.88
3439 24.6200 103205.00 108271.00 557.01
3440 24.6260 104125.00 108327.00 558.95
3441 24.6320 104194.00 108395.00 560.87
3442 24.6380 105059.00 108476.00 560.93
3443 24.6440 105707.00 108568.00 563.24
3444 24.6500 106647.00 108673.00 565.58
3445 24.6560 106824.00 108789.00 565.47
3446 24.6620 107973.00 108917.00 568.44
3447 24.6680 109125.00 109056.00 572.76
3448 24.6740 110257.00 109206.00 574.09
3449 24.6800 111174.00 109366.00 578.94
3450 24.6860 112404.00 109535.00 579.98
3451 24.6920 113486.00 109713.00 583.12
3452 24.6980 114491.00 109898.00 585.19
3453 24.7040 115694.00 110090.00 590.01
3454 24.7100 116982.00 110286.00 593.59
3455 24.7160 118605.00 110486.00 597.19
3456 24.7220 119932.00 110687.00 599.61
3457 24.7280 121229.00 110887.00 602.04
3458 24.7340 122451.00 111084.00 604.15
3459 24.7400 123650.00 111275.00 607.80
3460 24.7460 124708.00 111458.00 613.51
3461 24.7520 125523.00 111631.00 612.66
3462 24.7580 126507.00 111791.00 617.31
3463 24.7640 126957.00 111934.00 616.17
3464 24.7700 126937.00 112059.00 616.00
3465 24.7760 127224.00 112165.00 617.88
3466 24.7820 126599.00 112250.00 616.23
3467 24.7880 125580.00 112314.00 614.76
3468 24.7940 124621.00 112357.00 612.65
3469 24.8000 123404.00 112381.00 607.83
3470 24.8060 122262.00 112387.00 606.01
3471 24.8120 120758.00 112377.00 602.45
3472 24.8180 119488.00 112354.00 599.65
3473 24.8240 118212.00 112320.00 597.19
3474 24.8300 116535.00 112278.00 591.81
3475 24.8360 115685.00 112232.00 589.65
3476 24.8420 114467.00 112183.00 584.86
3477 24.8480 112981.00 112136.00 580.72
3478 24.8540 112249.00 112091.00 579.87
3479 24.8600 111461.00 112052.00 578.82
3480 24.8660 110509.00 112020.00 576.82
3481 24.8720 109780.00 111997.00 575.35
3482 24.8780 109158.00 111985.00 571.37
3483 24.8840 108433.00 111985.00 569.78
3484 24.8900 108003.00 111999.00 568.00
3485 24.8960 107481.00 112028.00 568.64
3486 24.9020 107268.00 112073.00 568.21
3487 24.9080 107019.00 112134.00 567.04
3488 24.9140 106741.00 112214.00 565.62
3489 24.9200 106593.00 112312.00 564.33
3490 24.9260 106431.00 112430.00 563.88
3491 24.9320 106082.00 112568.00 564.27
3492 24.9380 105890.00 112727.00 563.67
3493 24.9440 106149.00 112907.00 565.22
3494 24.9500 105974.00 113111.00 563.68
3495 24.9560 105743.00 113338.00 562.87
3496 24.9620 105624.00 113590.00 562.29
3497 24.9680 105871.00 113867.00 562.72
3498 24.9740 105221.00 114170.00 562.73
3499 24.9800 105527.00 114501.00 564.59
3500 24.9860 105534.00 114862.00 563.72
3501 24.9920 106039.00 115253.00 564.82
3502 24.9980 105478.00 115677.00 562.63
3503 25.0040 105856.00 116135.00 563.32
3504 25.0100 106212.00 116630.00 565.88
3505 25.0160 106658.00 117164.00 566.61
3506 25.0220 107323.00 117741.00 567.37
3507 25.0280 107905.00 118364.00 568.15
3508 25.0340 108765.00 119038.00 571.93
3509 25.0400 109595.00 119768.00 574.99
3510 25.0460 110090.00 120560.00 574.57
3511 25.0520 110872.00 121448.00 577.73
3512 25.0580 112096.00 122388.00 581.21
3513 25.0640 113317.00 123416.00 582.87
3514 25.0700 115317.00 124547.00 586.08
3515 25.0760 116233.00 125793.00 589.94
3516 25.0820 118074.00 127175.00 593.87
3517 25.0880 119863.00 128713.00 599.59
3518 25.0940 121741.00 130433.00 604.34
3519 25.1000 124228.00 132365.00 610.32
3520 25.1060 126953.00 134545.00 615.98
3521 25.1120 129881.00 137013.00 623.41
3522 25.1180 132456.00 139816.00 629.13
3523 25.1240 136019.00 143005.00 638.76
3524 25.1300 139913.00 146639.00 647.72
3525 25.1360 143744.00 150786.00 657.02
3526 25.1420 149327.00 155510.00 667.75
3527 25.1480 154861.00 160889.00 679.98
3528 25.1540 159908.00 166996.00 691.83
3529 25.1600 166884.00 173915.00 707.53
3530 25.1660 174541.00 181721.00 723.62
3531 25.1720 183404.00 190488.00 740.93
3532 25.1780 193017.00 200289.00 760.18
3533 25.1840 204220.00 211182.00 779.85
3534 25.1900 215669.00 223214.00 804.16
3535 25.1960 228232.00 236411.00 826.93
3536 25.2020 242270.00 250790.00 852.79
3537 25.2080 257797.00 266331.00 879.65
3538 25.2140 275504.00 282975.00 908.69
3539 25.2200 295424.00 300629.00 940.40
3540 25.2260 316311.00 319158.00 972.25
3541 25.2320 336795.00 338353.00 1002.89
3542 25.2380 358207.00 357932.00 1034.32
3543 25.2440 380459.00 377543.00 1069.32
3544 25.2500 402828.00 396722.00 1099.96
3545 25.2560 426562.00 414915.00 1128.92
3546 25.2620 446738.00 431479.00 1156.45
3547 25.2680 461661.00 445733.00 1174.16
3548 25.2740 477705.00 457103.00 1195.45
3549 25.2800 486652.00 464746.00 1210.31
3550 25.2860 492476.00 468326.00 1215.32
3551 25.2920 494888.00 467627.00 1215.26
3552 25.2980 490201.00 462696.00 1210.91
3553 25.3040 481372.00 453852.00 1200.49
3554 25.3100 468167.00 441579.00 1181.68
3555 25.3160 450516.00 426535.00 1162.19
3556 25.3220 429427.00 409415.00 1134.88
3557 25.3280 406562.00 390901.00 1102.98
3558 25.3340 381258.00 371592.00 1067.43
3559 25.3400 355773.00 352012.00 1029.82
3560 25.3460 331633.00 332580.00 995.99
3561 25.3520 307927.00 313641.00 959.45
3562 25.3580 285609.00 295429.00 924.17
3563 25.3640 265638.00 278129.00 892.39
3564 25.3700 245699.00 261869.00 855.47
3565 25.3760 228648.00 246716.00 826.63
3566 25.3820 214735.00 232713.00 799.81
3567 25.3880 200903.00 219869.00 775.44
3568 25.3940 190143.00 208170.00 754.77
3569 25.4000 181189.00 197573.00 737.87
3570 25.4060 172263.00 188030.00 717.76
3571 25.4120 163883.00 179478.00 700.74
3572 25.4180 156720.00 171849.00 685.88
3573 25.4240 151649.00 165061.00 673.24
3574 25.4300 146771.00 159045.00 662.73
3575 25.4360 141622.00 153721.00 652.50
3576 25.4420 138137.00 149013.00 644.02
3577 25.4480 134145.00 144850.00 633.37
3578 25.4540 131108.00 141169.00 626.08
3579 25.4600 127715.00 137907.00 618.80
3580 25.4660 125247.00 135008.00 611.75
3581 25.4720 122762.00 132430.00 607.35
3582 25.4780 120613.00 130119.00 601.24
3583 25.4840 118990.00 128043.00 596.14
3584 25.4900 117119.00 126169.00 591.92
3585 25.4960 115518.00 124469.00 587.34
3586 25.5020 114384.00 122921.00 584.34
3587 25.5080 112931.00 121504.00 581.47
3588 25.5140 111433.00 120202.00 578.64
3589 25.5200 110551.00 119002.00 575.30
3590 25.5260 109149.00 117891.00 572.26
3591 25.5320 108051.00 116860.00 569.65
3592 25.5380 106933.00 115900.00 567.34
3593 25.5440 106461.00 115006.00 565.15
3594 25.5500 106356.00 114171.00 563.59
3595 25.5560 105700.00 113390.00 561.71
3596 25.5620 104979.00 112658.00 561.29
3597 25.5680 104671.00 111973.00 557.59
3598 25.5740 104082.00 111330.00 557.21
3599 25.5800 104031.00 110727.00 557.13
3600 25.5860 103487.00 110161.00 556.03
3601 25.5920 103306.00 109630.00 554.90
3602 25.5980 102783.00 109130.00 553.62
3603 25.6040 102234.00 108660.00 552.16
3604 25.6100 102479.00 108218.00 551.79
3605 25.6160 102268.00 107802.00 551.89
3606 25.6220 101945.00 107409.00 550.19
3607 25.6280 102064.00 107038.00 550.09
3608 25.6340 101863.00 106687.00 550.72
3609 25.6400 101373.00 106353.00 550.67
3610 25.6460 101045.00 106036.00 549.82
3611 25.6520 101481.00 105733.00 550.47
3612 25.6580 101204.00 105442.00 550.35
3613 25.6640 101355.00 105162.00 550.70
3614 25.6700 101403.00 104890.00 548.51
3615 25.6760 100970.00 104626.00 548.88
3616 25.6820 100962.00 104368.00 548.76
3617 25.6880 100530.00 104115.00 547.48
3618 25.6940 100238.00 103866.00 547.83
3619 25.7000 100392.00 103621.00 548.37
3620 25.7060 100350.00 103380.00 548.02
3621 25.7120 100315.00 103143.00 546.14
3622 25.7180 99730.00 102910.00 547.28
3623 25.7240 99714.20 102681.00 545.42
3624 25.7300 99899.80 102457.00 546.67
3625 25.7360 99580.80 102238.00 546.87
3626 25.7420 98998.50 102025.00 545.25
3627 25.7480 98896.20 101818.00 543.13
3628 25.7540 98781.70 101616.00 543.78
3629 25.7600 98546.40 101421.00 541.30
3630 25.7660 98731.20 101233.00 542.75
3631 25.7720 98139.70 101051.00 541.09
3632 25.7780 98166.80 100875.00 541.60
3633 25.7840 98222.80 100707.00 540.82
3634 25.7900 97611.00 100545.00 540.41
3635 25.7960 97538.90 100389.00 539.94
3636 25.8020 97659.50 100240.00 540.45
3637 25.8080 97479.30 100097.00 538.80
3638 25.8140 97600.50 99959.70 538.50
3639 25.8200 97486.80 99828.50 539.23
3640 25.8260 97482.80 99703.10 538.71
3641 25.8320 97229.20 99583.30 539.34
3642 25.8380 97230.70 99468.70 538.58
3643 25.8440 97044.90 99359.20 538.03
3644 25.8500 97011.80 99254.60 537.45
3645 25.8560 97178.70 99154.70 540.07
3646 25.8620 97049.10 99059.30 538.32
3647 25.8680 96927.80 98968.10 538.91
3648 25.8740 97052.00 98880.90 539.07
3649 25.8800 96905.10 98797.60 538.20
3650 25.8860 96809.90 98718.00 537.87
3651 25.8920 96611.90 98641.60 538.86
3652 25.8980 96854.50 98568.70 538.38
3653 25.9040 96867.30 98498.80 538.42
3654 25.9100 96930.40 98431.80 539.25
3655 25.9160 96749.90 98367.50 538.68
3656 25.9220 96792.00 98305.90 537.39
3657 25.9280 96824.80 98246.80 539.32
3658 25.9340 96424.80 98190.00 538.69
3659 25.9400 96916.00 98135.50 538.08
3660 25.9460 96563.30 98083.20 538.66
3661 25.9520 96680.10 98032.80 538.30
3662 25.9580 96475.50 97984.30 538.53
3663 25.9640 96330.70 97947.20 536.88
3664 25.9700 96438.50 97916.60 538.11
3665 25.9760 96752.30 97887.70 537.24
3666 25.9820 96357.50 97860.40 538.45
3667 25.9880 96429.30 97834.80 538.06
3668 25.9940 96588.40 97810.50 537.58
3669 26.0000 96460.20 97787.60 538.33
3670 26.0060 96452.40 97766.20 538.07
3671 26.0120 96560.70 97746.10 538.49
3672 26.0180 96526.30 97727.30 537.50
3673 26.0240 96584.00 97709.70 537.72
3674 26.0300 96359.20 97693.40 537.38
3675 26.0360 96133.50 97678.20 536.46
3676 26.0420 95850.90 97565.60 536.91
3677 26.0480 96023.80 97553.10 536.76
3678 26.0540 96122.90 97541.60 536.35
3679 26.0600 96055.90 97531.30 537.14
3680 26.0660 96036.70 97522.00 536.24
3681 26.0720 96086.00 97513.70 536.34
3682 26.0780 96185.10 97506.50 535.66
3683 26.0840 96130.20 97500.30 536.59
3684 26.0900 96339.30 97495.10 535.71
3685 26.0960 95828.70 97490.80 535.57
3686 26.1020 95382.90 97487.50 535.99
3687 26.1080 95902.50 97485.20 534.71
3688 26.1140 96177.00 97502.60 537.18
3689 26.1200 96186.30 97502.20 536.67
3690 26.1260 96089.40 97502.80 535.54
3691 26.1320 95805.90 97504.20 536.71
3692 26.1380 96022.50 97506.70 535.29
3693 26.1440 96007.40 97510.00 537.05
3694 26.1500 96164.80 97514.30 535.29
3695 26.1560 96068.20 97519.60 537.19
3696 26.1620 96434.00 97525.90 538.23
3697 26.1680 96716.60 97533.00 537.71
3698 26.1740 96634.60 97541.20 537.77
3699 26.1800 96973.80 97550.40 539.03
3700 26.1860 97172.10 97560.60 538.97
3701 26.1920 97151.20 97577.40 538.39
3702 26.1980 97267.10 97589.80 540.81
3703 26.2040 97697.40 97603.40 540.13
3704 26.2100 97524.20 97618.10 541.01
3705 26.2160 97847.10 97634.00 540.84
3706 26.2220 98064.70 97651.20 542.10
3707 26.2280 97939.20 97669.60 541.24
3708 26.2340 97825.80 97689.40 541.76
3709 26.2400 97965.90 97710.50 540.45
3710 26.2460 97950.00 97733.10 540.26
3711 26.2520 97648.00 97757.10 539.78
3712 26.2580 97537.50 97782.70 540.43
3713 26.2640 97275.50 97809.80 536.93
3714 26.2700 96844.00 97838.60 538.29
3715 26.2760 96748.50 97869.00 537.74
3716 26.2820 96666.70 97901.30 535.41
3717 26.2880 96336.10 97935.40 536.69
3718 26.2940 96099.30 97971.40 534.86
3719 26.3000 95481.90 98009.40 534.81
3720 26.3060 95419.90 98049.50 533.32
3721 26.3120 95388.50 98091.60 534.58
3722 26.3180 95509.40 98136.10 533.99
3723 26.3240 95398.30 98182.80 533.67
3724 26.3300 94940.70 98232.00 533.38
3725 26.3360 95045.40 98283.60 533.96
3726 26.3420 95172.90 98382.00 533.26
3727 26.3480 95022.20 98439.40 533.22
3728 26.3540 95230.00 98499.70 533.31
3729 26.3600 95035.80 98562.90 533.69
3730 26.3660 95483.90 98629.40 534.46
3731 26.3720 95200.80 98699.30 535.30
3732 26.3780 95276.60 98772.70 534.10
3733 26.3840 95314.30 98849.80 535.69
3734 26.3900 95337.20 98930.80 534.79
3735 26.3960 95809.10 99015.90 535.18
3736 26.4020 95639.20 99105.50 535.89
3737 26.4080 95969.20 99199.60 535.98
3738 26.4140 95968.30 99298.50 537.15
3739 26.4200 96033.10 99402.40 535.54
3740 26.4260 96175.90 99511.90 537.59
3741 26.4320 96691.10 99626.90 537.88
3742 26.4380 96614.60 99747.80 538.10
3743 26.4440 96490.50 99735.60 538.88
3744 26.4500 96890.20 99870.20 538.95
3745 26.4560 97140.00 100012.00 539.78
3746 26.4620 97414.10 100161.00 540.16
3747 26.4680 97837.00 100318.00 541.97
3748 26.4740 98353.10 100482.00 543.52
3749 26.4800 98186.80 100656.00 543.15
3750 26.4860 98653.00 100838.00 544.53
3751 26.4920 98754.90 101030.00 544.74
3752 26.4980 99126.70 101231.00 544.89
3753 26.5040 99539.80 101442.00 547.53
3754 26.5100 99943.50 101665.00 547.44
3755 26.5160 100189.00 101898.00 547.88
3756 26.5220 100459.00 102143.00 548.48
3757 26.5280 100818.00 102400.00 550.87
3758 26.5340 101027.00 102670.00 549.87
3759 26.5400 101037.00 102952.00 552.41
3760 26.5460 101684.00 103248.00 553.41
3761 26.5520 102293.00 103558.00 555.68
3762 26.5580 102835.00 103881.00 557.59
3763 26.5640 102663.00 104219.00 556.10
3764 26.5700 103488.00 104572.00 558.10
3765 26.5760 103846.00 104939.00 558.06
3766 26.5820 104582.00 105321.00 560.07
3767 26.5880 104403.00 105718.00 560.94
3768 26.5940 105069.00 106129.00 560.85
3769 26.6000 105533.00 106555.00 562.62
3770 26.6060 105893.00 106996.00 563.57
3771 26.6120 106402.00 107450.00 565.79
3772 26.6180 106966.00 107917.00 567.31
3773 26.6240 108014.00 108398.00 568.13
3774 26.6300 107982.00 108891.00 570.35
3775 26.6360 108593.00 109396.00 570.13
3776 26.6420 108927.00 109914.00 571.70
3777 26.6480 109473.00 110454.00 572.14
3778 26.6540 109735.00 110995.00 574.97
3779 26.6600 110655.00 111550.00 574.44
3780 26.6660 110999.00 112118.00 575.77
3781 26.6720 111254.00 112701.00 576.84
3782 26.6780 111548.00 113300.00 577.66
3783 26.6840 111750.00 113916.00 580.60
3784 26.6900 112125.00 114551.00 578.60
3785 26.6960 112663.00 115208.00 580.68
3786 26.7020 112905.00 115887.00 582.42
3787 26.7080 113134.00 116592.00 583.47
3788 26.7140 113677.00 117322.00 583.51
3789 26.7200 114260.00 118081.00 585.26
3790 26.7260 114235.00 118868.00 585.25
3791 26.7320 114996.00 119687.00 586.70
3792 26.7380 115553.00 120536.00 587.33
3793 26.7440 115911.00 121417.00 589.99
3794 26.7500 116557.00 122330.00 590.41
3795 26.7560 116842.00 123274.00 592.86
3796 26.7620 117584.00 124250.00 592.88
3797 26.7680 118065.00 125256.00 595.36
3798 26.7740 119192.00 126290.00 597.19
3799 26.7800 119946.00 127353.00 599.25
3800 26.7860 120308.00 128441.00 600.89
3801 26.7920 121253.00 129552.00 601.79
3802 26.7980 121755.00 130684.00 606.07
3803 26.8040 122825.00 131833.00 606.81
3804 26.8100 123651.00 132996.00 609.68
3805 26.8160 124770.00 134168.00 611.86
3806 26.8220 125290.00 135346.00 614.28
3807 26.8280 126407.00 136523.00 615.20
3808 26.8340 126744.00 137696.00 616.60
3809 26.8400 127776.00 138857.00 619.11
3810 26.8460 128333.00 140002.00 620.27
3811 26.8520 129587.00 141121.00 621.92
3812 26.8580 130119.00 142211.00 624.16
3813 26.8640 130488.00 143261.00 625.49
3814 26.8700 131127.00 144265.00 628.06
3815 26.8760 131962.00 145215.00 629.16
3816 26.8820 132062.00 146103.00 629.80
3817 26.8880 132994.00 146922.00 630.17
3818 26.8940 133275.00 147664.00 631.95
3819 26.9000 133002.00 148322.00 630.19
3820 26.9060 133574.00 148891.00 633.05
3821 26.9120 133227.00 149364.00 632.55
3822 26.9180 133653.00 149738.00 631.72
3823 26.9240 133330.00 150008.00 632.50
3824 26.9300 133094.00 150172.00 630.04
3825 26.9360 132953.00 150230.00 631.38
3826 26.9420 132604.00 150180.00 629.76
3827 26.9480 132091.00 150025.00 628.72
3828 26.9540 131616.00 149767.00 629.49
3829 26.9600 131116.00 149410.00 627.24
3830 26.9660 130761.00 148958.00 624.72
3831 26.9720 129790.00 148417.00 623.59
3832 26.9780 129385.00 147792.00 623.16
3833 26.9840 128563.00 147091.00 621.73
3834 26.9900 128158.00 146314.00 620.15
3835 26.9960 127113.00 145481.00 619.15
3836 27.0020 126272.00 144593.00 615.66
3837 27.0080 125932.00 143657.00 615.32
3838 27.0140 125092.00 142680.00 612.14
3839 27.0200 124534.00 141669.00 609.49
3840 27.0260 123331.00 140631.00 608.22
3841 27.0320 123020.00 139572.00 607.48
3842 27.0380 121995.00 138497.00 606.15
3843 27.0440 121334.00 137413.00 602.99
3844 27.0500 120258.00 136324.00 601.53
3845 27.0560 119523.00 135235.00 598.85
3846 27.0620 119029.00 134151.00 597.56
3847 27.0680 118536.00 133081.00 596.61
3848 27.0740 117747.00 132017.00 594.34
3849 27.0800 117107.00 130969.00 591.72
3850 27.0860 116724.00 129939.00 590.20
3851 27.0920 115910.00 128931.00 589.20
3852 27.0980 115395.00 127946.00 587.75
3853 27.1040 115020.00 126987.00 587.50
3854 27.1100 114155.00 126056.00 585.60
3855 27.1160 113949.00 125154.00 584.07
3856 27.1220 113689.00 124284.00 582.80
3857 27.1280 113197.00 123445.00 581.20
3858 27.1340 112703.00 122640.00 581.01
3859 27.1400 112088.00 121868.00 579.64
3860 27.1460 112025.00 121132.00 579.63
3861 27.1520 111660.00 120430.00 579.17
3862 27.1580 111490.00 119765.00 576.41
3863 27.1640 111303.00 119135.00 576.92
3864 27.1700 111277.00 118542.00 576.99
3865 27.1760 111211.00 117984.00 577.12
3866 27.1820 111007.00 117463.00 576.72
3867 27.1880 110887.00 116976.00 576.63
3868 27.1940 111115.00 116525.00 576.49
3869 27.2000 110958.00 116108.00 576.90
3870 27.2060 111172.00 115724.00 577.13
3871 27.2120 111246.00 115374.00 577.14
3872 27.2180 111178.00 115056.00 577.71
3873 27.2240 111620.00 114770.00 579.02
3874 27.2300 111903.00 114513.00 577.99
3875 27.2360 112343.00 114286.00 579.27
3876 27.2420 112613.00 114088.00 580.27
3877 27.2480 113139.00 113916.00 581.38
3878 27.2540 113127.00 113769.00 583.48
3879 27.2600 113392.00 113647.00 583.43
3880 27.2660 114033.00 113548.00 584.59
3881 27.2720 114579.00 113470.00 584.78
3882 27.2780 115162.00 113413.00 587.60
3883 27.2840 115416.00 113374.00 587.43
3884 27.2900 115895.00 113353.00 588.43
3885 27.2960 115972.00 113348.00 589.75
3886 27.3020 116629.00 113358.00 590.88
3887 27.3080 117216.00 113383.00 591.82
3888 27.3140 117838.00 113421.00 592.96
3889 27.3200 118184.00 113472.00 594.20
3890 27.3260 117896.00 113536.00 594.53
3891 27.3320 118632.00 113611.00 595.13
3892 27.3380 118549.00 113699.00 596.35
3893 27.3440 119086.00 113800.00 596.58
3894 27.3500 118918.00 113912.00 596.33
3895 27.3560 118876.00 114037.00 595.91
3896 27.3620 119024.00 114175.00 595.72
3897 27.3680 118762.00 114327.00 596.40
3898 27.3740 118629.00 114492.00 594.50
3899 27.3800 118962.00 114671.00 595.94
3900 27.3860 118665.00 114865.00 595.48
3901 27.3920 118227.00 115073.00 595.48
3902 27.3980 118571.00 115296.00 595.89
3903 27.4040 118689.00 115534.00 595.78
3904 27.4100 118581.00 115704.00 596.40
3905 27.4160 118727.00 115973.00 596.23
3906 27.4220 118973.00 116256.00 596.55
3907 27.4280 119330.00 116555.00 597.51
3908 27.4340 119060.00 116869.00 597.09
3909 27.4400 119505.00 117199.00 599.27
3910 27.4460 119670.00 117542.00 597.82
3911 27.4520 119776.00 117901.00 599.97
3912 27.4580 120444.00 118271.00 600.35
3913 27.4640 120693.00 118658.00 599.55
3914 27.4700 121087.00 119060.00 602.57
3915 27.4760 121331.00 119476.00 602.87
3916 27.4820 121860.00 119905.00 603.86
3917 27.4880 122357.00 120348.00 605.35
3918 27.4940 123044.00 120803.00 606.07
3919 27.5000 123350.00 121272.00 607.34
3920 27.5060 123893.00 121754.00 609.05
3921 27.5120 124373.00 122249.00 610.01
3922 27.5180 125073.00 122756.00 610.46
3923 27.5240 124457.00 123276.00 611.45
3924 27.5300 125318.00 123810.00 612.88
3925 27.5360 125648.00 124358.00 614.24
3926 27.5420 125897.00 124921.00 614.33
3927 27.5480 127044.00 125468.00 615.71
3928 27.5540 127041.00 126064.00 616.94
3929 27.5600 128418.00 126680.00 619.58
3930 27.5660 128886.00 127318.00 620.92
3931 27.5720 129663.00 127983.00 620.58
3932 27.5780 130410.00 128677.00 624.19
3933 27.5840 131450.00 129407.00 625.91
3934 27.5900 132389.00 130179.00 628.18
3935 27.5960 133003.00 130999.00 630.35
3936 27.6020 133921.00 131877.00 632.36
3937 27.6080 134928.00 132822.00 633.39
3938 27.6140 136374.00 133845.00 638.10
3939 27.6200 137850.00 134958.00 639.45
3940 27.6260 139035.00 136176.00 641.95
3941 27.6320 139880.00 137511.00 645.23
3942 27.6380 141302.00 138981.00 649.80
3943 27.6440 143184.00 140600.00 653.90
3944 27.6500 144741.00 142385.00 656.98
3945 27.6560 147103.00 144351.00 663.84
3946 27.6620 149366.00 146516.00 667.42
3947 27.6680 151537.00 148892.00 672.58
3948 27.6740 153908.00 151477.00 676.64
3949 27.6800 156712.00 154315.00 683.71
3950 27.6860 160192.00 157396.00 687.09
3951 27.6920 163188.00 160726.00 699.14
3952 27.6980 168158.00 164304.00 709.32
3953 27.7040 171886.00 168122.00 716.47
3954 27.7100 175755.00 172168.00 725.60
3955 27.7160 180550.00 176420.00 734.96
3956 27.7220 186408.00 180842.00 744.83
3957 27.7280 191249.00 185389.00 757.26
3958 27.7340 197318.00 189999.00 769.35
3959 27.7400 202001.00 194601.00 778.86
3960 27.7460 207076.00 199104.00 787.56
3961 27.7520 211434.00 203413.00 794.96
3962 27.7580 216907.00 207434.00 804.17
3963 27.7640 221433.00 211083.00 812.24
3964 27.7700 226379.00 214307.00 822.01
3965 27.7760 230790.00 217094.00 829.95
3966 27.7820 233407.00 219489.00 836.70
3967 27.7880 237233.00 221599.00 840.85
3968 27.7940 239489.00 223587.00 847.28
3969 27.8000 244553.00 225672.00 852.75
3970 27.8060 248359.00 228111.00 862.88
3971 27.8120 253613.00 231186.00 868.21
3972 27.8180 259181.00 235192.00 878.57
3973 27.8240 265855.00 240431.00 890.53
3974 27.8300 274122.00 247197.00 904.48
3975 27.8360 284960.00 255768.00 921.65
3976 27.8420 296770.00 266399.00 941.15
3977 27.8480 311959.00 279316.00 965.74
3978 27.8540 330257.00 294692.00 993.15
3979 27.8600 350822.00 312611.00 1023.81
3980 27.8660 370909.00 333059.00 1056.07
3981 27.8720 396845.00 355875.00 1088.21
3982 27.8780 424745.00 380654.00 1126.12
3983 27.8840 452007.00 406672.00 1164.40
3984 27.8900 480172.00 432818.00 1199.99
3985 27.8960 505281.00 457490.00 1229.93
3986 27.9020 525849.00 478678.00 1254.45
3987 27.9080 540031.00 494176.00 1273.11
3988 27.9140 549500.00 502034.00 1281.89
3989 27.9200 547964.00 501047.00 1280.74
3990 27.9260 535454.00 491139.00 1268.06
3991 27.9320 515903.00 473402.00 1244.05
3992 27.9380 490236.00 449705.00 1213.62
3993 27.9440 459348.00 422228.00 1173.49
3994 27.9500 426208.00 392996.00 1128.77
3995 27.9560 391169.00 363612.00 1083.03
3996 27.9620 357293.00 335234.00 1036.07
3997 27.9680 325361.00 308603.00 986.42
3998 27.9740 299573.00 284144.00 945.49
3999 27.9800 276296.00 262035.00 911.02
4000 27.9860 254344.00 242315.00 874.47
4001 27.9920 235314.00 224915.00 838.36
4002 27.9980 218706.00 209703.00 811.98
4003 28.0040 204867.00 196488.00 782.65
4004 28.0100 193060.00 185084.00 760.41
4005 28.0160 183464.00 175283.00 742.36
4006 28.0220 175136.00 166872.00 724.08
4007 28.0280 167056.00 159662.00 705.38
4008 28.0340 160390.00 153472.00 692.34
4009 28.0400 154343.00 148144.00 682.49
4010 28.0460 148824.00 143533.00 667.12
4011 28.0520 143960.00 139523.00 656.76
4012 28.0580 140088.00 136011.00 648.91
4013 28.0640 135684.00 132916.00 635.79
4014 28.0700 131683.00 130166.00 626.45
4015 28.0760 127875.00 127708.00 619.96
4016 28.0820 124456.00 125497.00 609.14
4017 28.0880 121028.00 123496.00 600.43
4018 28.0940 117375.00 121677.00 592.86
4019 28.1000 114267.00 120016.00 585.61
4020 28.1060 111628.00 118494.00 578.08
4021 28.1120 109763.00 117094.00 571.80
4022 28.1180 108032.00 115803.00 569.44
4023 28.1240 105783.00 114610.00 562.16
4024 28.1300 103988.00 113506.00 558.30
4025 28.1360 102293.00 112481.00 553.70
4026 28.1420 101309.00 111528.00 550.09
4027 28.1480 100014.00 110655.00 546.81
4028 28.1540 98863.90 109828.00 544.72
4029 28.1600 98149.10 109057.00 542.02
4030 28.1660 97328.20 108336.00 539.59
4031 28.1720 96577.40 107662.00 538.14
4032 28.1780 96165.00 107031.00 535.51
4033 28.1840 95673.60 106439.00 534.60
4034 28.1900 95113.50 105884.00 533.26
4035 28.1960 94423.20 105362.00 531.95
4036 28.2020 94405.10 104872.00 530.18
4037 28.2080 93852.00 104411.00 530.92
4038 28.2140 93608.70 103977.00 528.46
4039 28.2200 93184.70 103568.00 525.97
4040 28.2260 93178.30 103183.00 527.21
4041 28.2320 92655.60 102819.00 527.62
4042 28.2380 92435.50 102476.00 525.34
4043 28.2440 92391.60 102153.00 524.56
4044 28.2500 91964.70 101847.00 524.87
4045 28.2560 92099.90 101558.00 522.63
4046 28.2620 91605.30 101285.00 523.00
4047 28.2680 91529.00 101026.00 522.71
4048 28.2740 91482.20 100782.00 521.86
4049 28.2800 91597.50 100551.00 522.70
4050 28.2860 91264.80 100333.00 520.93
4051 28.2920 91167.00 100126.00 520.10
4052 28.2980 91003.40 99930.70 520.55
4053 28.3040 90732.30 99745.90 520.38
4054 28.3100 90635.20 99571.10 521.03
4055 28.3160 90756.50 99405.80 518.69
4056 28.3220 90678.70 99249.60 519.93
4057 28.3280 90564.30 99102.10 521.10
4058 28.3340 90422.40 98962.80 520.11
4059 28.3400 90301.20 98831.40 519.85
4060 28.3460 90560.80 98707.60 520.23
4061 28.3520 90594.20 98591.00 520.47
4062 28.3580 90585.30 98481.30 520.71
4063 28.3640 90559.80 98378.30 520.98
4064 28.3700 90533.20 98281.60 520.67
4065 28.3760 90385.40 98191.20 521.51
4066 28.3820 90376.00 98106.80 520.79
4067 28.3880 90476.50 98028.10 521.17
4068 28.3940 90264.90 97954.90 520.11
4069 28.4000 90446.00 97887.30 520.81
4070 28.4060 90621.00 97824.80 521.13
4071 28.4120 90796.70 97767.40 521.65
4072 28.4180 90501.80 97715.10 520.57
4073 28.4240 90616.80 97667.60 522.20
4074 28.4300 90968.30 97625.10 520.99
4075 28.4360 90787.50 97587.10 522.18
4076 28.4420 90856.50 97553.80 522.71
4077 28.4480 90914.10 97525.00 521.51
4078 28.4540 91023.20 97500.90 522.45
4079 28.4600 91189.50 97481.30 522.13
4080 28.4660 90903.00 97466.00 523.79
4081 28.4720 91308.00 97457.10 522.73
4082 28.4780 91357.00 97461.70 524.87
4083 28.4840 91640.60 97477.20 524.16
4084 28.4900 91503.30 97490.70 524.39
4085 28.4960 91744.20 97508.80 524.37
4086 28.5020 91919.30 97531.30 526.12
4087 28.5080 91844.60 97558.50 524.13
4088 28.5140 91810.90 97590.20 525.57
4089 28.5200 92217.40 97626.70 526.52
4090 28.5260 92440.20 97668.00 525.85
4091 28.5320 92349.90 97714.10 525.93
4092 28.5380 92011.70 97765.20 526.79
4093 28.5440 91962.00 97821.40 526.09
4094 28.5500 92131.60 97882.80 528.24
4095 28.5560 92419.90 97949.50 528.45
4096 28.5620 92280.50 98021.90 526.69
4097 28.5680 92340.30 98099.90 527.05
4098 28.5740 92451.70 98184.00 526.82
4099 28.5800 92305.50 98274.10 527.41
4100 28.5860 92446.30 98370.70 525.39
4101 28.5920 92242.00 98473.80 527.25
4102 28.5980 92750.70 98584.00 526.68
4103 28.6040 92673.00 98701.50 527.93
4104 28.6100 92853.60 98826.70 527.43
4105 28.6160 93011.10 98959.90 529.57
4106 28.6220 93189.30 99101.50 529.09
4107 28.6280 93561.40 99252.20 530.66
4108 28.6340 93839.00 99412.30 530.77
4109 28.6400 93974.90 99582.60 530.63
4110 28.6460 94254.30 99763.90 531.73
4111 28.6520 94284.70 99956.40 531.00
4112 28.6580 94656.40 100161.00 533.80
4113 28.6640 95099.10 100379.00 533.82
4114 28.6700 95840.90 100611.00 535.85
4115 28.6760 96011.20 100859.00 536.22
4116 28.6820 96151.00 101124.00 536.90
4117 28.6880 96785.40 101407.00 539.51
4118 28.6940 96881.30 101710.00 539.36
4119 28.7000 97622.40 102036.00 540.96
4120 28.7060 97968.70 102386.00 543.73
4121 28.7120 98640.90 102765.00 544.17
4122 28.7180 99110.50 103174.00 545.48
4123 28.7240 99943.10 103619.00 546.10
4124 28.7300 100056.00 104104.00 547.54
4125 28.7360 100521.00 104634.00 549.03
4126 28.7420 101118.00 105216.00 550.94
4127 28.7480 101975.00 105857.00 553.39
4128 28.7540 102523.00 106566.00 554.43
4129 28.7600 103182.00 107352.00 556.51
4130 28.7660 104000.00 108226.00 557.34
4131 28.7720 104645.00 109201.00 561.00
4132 28.7780 105967.00 110292.00 563.62
4133 28.7840 106765.00 111509.00 566.92
4134 28.7900 108354.00 112870.00 569.80
4135 28.7960 108762.00 114393.00 571.87
4136 28.8020 110896.00 116095.00 576.88
4137 28.8080 112480.00 117995.00 580.93
4138 28.8140 114327.00 120112.00 586.74
4139 28.8200 116152.00 122463.00 591.98
4140 28.8260 119035.00 125067.00 597.26
4141 28.8320 120798.00 127940.00 601.70
4142 28.8380 124026.00 131096.00 609.12
4143 28.8440 126374.00 134546.00 615.75
4144 28.8500 129605.00 138300.00 623.87
4145 28.8560 133847.00 142358.00 632.08
4146 28.8620 137519.00 146724.00 643.44
4147 28.8680 141895.00 151384.00 652.57
4148 28.8740 145621.00 156323.00 662.27
4149 28.8800 150893.00 161512.00 671.57
4150 28.8860 155284.00 166909.00 682.20
4151 28.8920 160524.00 172457.00 694.48
4152 28.8980 165910.00 178081.00 704.67
4153 28.9040 170970.00 183686.00 717.04
4154 28.9100 175739.00 189154.00 725.81
4155 28.9160 180323.00 194351.00 736.04
4156 28.9220 185849.00 199125.00 744.65
4157 28.9280 189732.00 203331.00 753.78
4158 28.9340 193162.00 206829.00 762.43
4159 28.9400 196867.00 209513.00 767.33
4160 28.9460 199418.00 211325.00 773.60
4161 28.9520 200652.00 212268.00 775.37
4162 28.9580 201884.00 212413.00 777.34
4163 28.9640 201902.00 211891.00 779.35
4164 28.9700 202749.00 210788.00 778.75
4165 28.9760 201991.00 209510.00 779.41
4166 28.9820 202077.00 208186.00 779.23
4167 28.9880 201375.00 207042.00 778.76
4168 28.9940 201686.00 206286.00 778.89
4169 29.0000 201732.00 206109.00 777.88
4170 29.0060 202656.00 206675.00 782.15
4171 29.0120 204048.00 208119.00 783.84
4172 29.0180 206624.00 210540.00 786.64
4173 29.0240 209620.00 213999.00 792.50
4174 29.0300 213169.00 218509.00 802.22
4175 29.0360 217698.00 224017.00 810.61
4176 29.0420 222983.00 230384.00 821.90
4177 29.0480 228491.00 237360.00 830.87
4178 29.0540 234904.00 244547.00 840.99
4179 29.0600 239132.00 251409.00 850.09
4180 29.0660 244235.00 257258.00 855.34
4181 29.0720 246791.00 261355.00 861.93
4182 29.0780 247599.00 263035.00 863.38
4183 29.0840 246466.00 261869.00 861.27
4184 29.0900 241977.00 257789.00 853.98
4185 29.0960 236934.00 251100.00 843.43
4186 29.1020 229041.00 242393.00 830.03
4187 29.1080 220950.00 232357.00 815.41
4188 29.1140 211446.00 221690.00 797.48
4189 29.1200 201962.00 210956.00 780.57
4190 29.1260 192721.00 200561.00 761.13
4191 29.1320 184339.00 190787.00 744.30
4192 29.1380 176226.00 181798.00 727.97
4193 29.1440 170358.00 173674.00 715.49
4194 29.1500 164094.00 166438.00 702.37
4195 29.1560 158075.00 160075.00 689.48
4196 29.1620 153801.00 154541.00 682.46
4197 29.1680 149781.00 149782.00 670.96
4198 29.1740 146763.00 145724.00 664.01
4199 29.1800 144016.00 142297.00 656.94
4200 29.1860 141464.00 139435.00 652.00
4201 29.1920 139720.00 137061.00 649.76
4202 29.1980 138025.00 135111.00 645.63
4203 29.2040 137037.00 133524.00 642.98
4204 29.2100 136348.00 132245.00 639.73
4205 29.2160 135434.00 131227.00 638.95
4206 29.2220 134880.00 130425.00 637.01
4207 29.2280 134093.00 129806.00 634.38
4208 29.2340 133693.00 129337.00 634.48
4209 29.2400 133404.00 128993.00 633.72
4210 29.2460 133259.00 128751.00 633.04
4211 29.2520 132963.00 128593.00 632.97
4212 29.2580 132273.00 128503.00 631.82
4213 29.2640 131919.00 128467.00 629.78
4214 29.2700 131747.00 128473.00 629.55
4215 29.2760 131467.00 128512.00 630.59
4216 29.2820 131362.00 128574.00 628.93
4217 29.2880 131589.00 128651.00 629.43
4218 29.2940 131566.00 128738.00 627.63
4219 29.3000 131160.00 128828.00 628.92
4220 29.3060 131220.00 128916.00 628.31
4221 29.3120 131538.00 128996.00 628.85
4222 29.3180 131521.00 129074.00 629.86
4223 29.3240 131526.00 129129.00 628.51
4224 29.3300 131379.00 129166.00 628.22
4225 29.3360 131553.00 129181.00 629.44
4226 29.3420 131580.00 129171.00 628.27
4227 29.3480 131054.00 129134.00 628.31
4228 29.3540 131173.00 129066.00 627.92
4229 29.3600 130907.00 128965.00 627.34
4230 29.3660 130598.00 128829.00 625.71
4231 29.3720 130196.00 128655.00 624.09
4232 29.3780 129896.00 128442.00 624.39
4233 29.3840 129754.00 128188.00 623.78
4234 29.3900 128591.00 127892.00 623.97
4235 29.3960 128416.00 127553.00 622.02
4236 29.4020 128330.00 127172.00 621.90
4237 29.4080 127485.00 126749.00 618.94
4238 29.4140 126808.00 126285.00 618.34
4239 29.4200 126329.00 125782.00 616.78
4240 29.4260 126309.00 125241.00 616.81
4241 29.4320 125294.00 124666.00 614.09
4242 29.4380 124517.00 124059.00 613.07
4243 29.4440 124218.00 123424.00 611.36
4244 29.4500 123465.00 122763.00 609.33
4245 29.4560 122700.00 122081.00 607.65
4246 29.4620 122205.00 121381.00 606.19
4247 29.4680 121702.00 120668.00 605.66
4248 29.4740 120847.00 119944.00 603.92
4249 29.4800 119938.00 119213.00 600.50
4250 29.4860 119578.00 118478.00 600.24
4251 29.4920 119007.00 117744.00 598.43
4252 29.4980 118470.00 117012.00 595.78
4253 29.5040 117981.00 116286.00 596.91
4254 29.5100 117139.00 115567.00 594.21
4255 29.5160 116693.00 114860.00 592.03
4256 29.5220 115857.00 114164.00 590.17
4257 29.5280 114919.00 113482.00 588.59
4258 29.5340 114596.00 112817.00 588.05
4259 29.5400 113364.00 112168.00 586.54
4260 29.5460 112931.00 111537.00 584.54
4261 29.5520 112963.00 110926.00 582.31
4262 29.5580 112650.00 110334.00 582.34
4263 29.5640 112194.00 109762.00 579.79
4264 29.5700 111693.00 109211.00 579.24
4265 29.5760 111274.00 108680.00 578.51
4266 29.5820 111041.00 108170.00 577.15
4267 29.5880 110530.00 107681.00 577.04
4268 29.5940 110083.00 107212.00 574.55
4269 29.6000 109593.00 106762.00 574.75
4270 29.6060 109365.00 106333.00 571.30
4271 29.6120 109037.00 105924.00 572.06
4272 29.6180 108715.00 105532.00 570.88
4273 29.6240 108180.00 105158.00 569.97
4274 29.6300 107718.00 104801.00 567.67
4275 29.6360 107673.00 104461.00 567.43
4276 29.6420 106978.00 104138.00 568.14
4277 29.6480 106705.00 103831.00 565.35
4278 29.6540 106392.00 103539.00 565.98
4279 29.6600 106219.00 103264.00 565.40
4280 29.6660 105740.00 103004.00 565.10
4281 29.6720 105567.00 102761.00 562.17
4282 29.6780 105101.00 102533.00 559.59
4283 29.6840 104790.00 102320.00 560.58
4284 29.6900 104075.00 102124.00 559.21
4285 29.6960 104418.00 101945.00 560.21
4286 29.7020 103617.00 101782.00 560.35
4287 29.7080 103657.00 101635.00 556.89
4288 29.7140 103172.00 101506.00 557.17
4289 29.7200 102843.00 101394.00 555.95
4290 29.7260 102893.00 101299.00 556.83
4291 29.7320 102696.00 101221.00 555.97
4292 29.7380 102639.00 101161.00 556.83
4293 29.7440 102128.00 101118.00 556.36
4294 29.7500 101967.00 101092.00 553.35
4295 29.7560 101889.00 101084.00 553.27
4296 29.7620 102089.00 101094.00 552.71
4297 29.7680 102203.00 101120.00 554.17
4298 29.7740 102382.00 101165.00 554.08
4299 29.7800 102385.00 101226.00 555.94
4300 29.7860 102668.00 101306.00 555.08
4301 29.7920 102025.00 101403.00 554.06
4302 29.7980 102682.00 101517.00 554.94
4303 29.8040 103117.00 101649.00 557.25
4304 29.8100 103443.00 101800.00 556.32
4305 29.8160 103951.00 101970.00 558.96
4306 29.8220 104117.00 102158.00 558.98
4307 29.8280 104504.00 102367.00 559.61
4308 29.8340 105072.00 102597.00 561.03
4309 29.8400 105512.00 102849.00 563.01
4310 29.8460 105812.00 103125.00 562.74
4311 29.8520 106291.00 103428.00 564.84
4312 29.8580 107088.00 103767.00 568.83
4313 29.8640 107628.00 104129.00 569.22
4314 29.8700 108357.00 104526.00 569.87
4315 29.8760 108729.00 104963.00 571.62
4316 29.8820 109235.00 105444.00 572.76
4317 29.8880 109968.00 105975.00 576.54
4318 29.8940 110463.00 106563.00 577.96
4319 29.9000 111533.00 107215.00 579.81
4320 29.9060 112036.00 107940.00 579.86
4321 29.9120 113225.00 108748.00 582.25
4322 29.9180 113962.00 109648.00 587.01
4323 29.9240 114949.00 110650.00 587.96
4324 29.9300 116150.00 111767.00 592.26
4325 29.9360 117188.00 113009.00 594.87
4326 29.9420 118772.00 114389.00 597.39
4327 29.9480 119876.00 115918.00 599.46
4328 29.9540 121462.00 117607.00 604.69
4329 29.9600 123247.00 119466.00 610.14
4330 29.9660 124607.00 121504.00 613.46
4331 29.9720 127580.00 123728.00 620.22
4332 29.9780 129447.00 126141.00 622.94
4333 29.9840 132039.00 128744.00 631.06
4334 29.9900 134977.00 131535.00 637.07
4335 29.9960 137916.00 134506.00 645.55
4336 30.0020 141610.00 137639.00 652.99
4337 30.0080 145103.00 140918.00 660.89
4338 30.0140 149201.00 144308.00 671.84
4339 30.0200 153491.00 147766.00 677.64
4340 30.0260 157297.00 151238.00 686.34
4341 30.0320 161069.00 154652.00 696.71
4342 30.0380 165118.00 157922.00 705.89
4343 30.0440 168512.00 160950.00 712.07
4344 30.0500 171912.00 163626.00 720.81
4345 30.0560 175187.00 165837.00 725.43
4346 30.0620 177234.00 167480.00 728.90
4347 30.0680 178621.00 168471.00 731.89
4348 30.0740 178645.00 168746.00 733.44
4349 30.0800 179046.00 168290.00 733.18
4350 30.0860 177477.00 167125.00 729.97
4351 30.0920 174629.00 165311.00 724.48
4352 30.0980 170841.00 162937.00 716.07
4353 30.1040 166388.00 160111.00 706.84
4354 30.1100 162809.00 156945.00 699.14
4355 30.1160 158586.00 153548.00 690.84
4356 30.1220 153466.00 150021.00 680.07
4357 30.1280 148563.00 146447.00 668.56
4358 30.1340 143331.00 142901.00 656.53
4359 30.1400 138806.00 139433.00 644.49
4360 30.1460 134388.00 136088.00 635.83
4361 30.1520 130376.00 132899.00 625.24
4362 30.1580 127127.00 129887.00 618.31
4363 30.1640 124281.00 127068.00 612.70
4364 30.1700 120989.00 124452.00 604.71
4365 30.1760 118579.00 122042.00 595.70
4366 30.1820 116358.00 119838.00 590.88
4367 30.1880 114466.00 117838.00 585.78
4368 30.1940 113112.00 116036.00 582.43
4369 30.2000 111680.00 114426.00 579.12
4370 30.2060 110614.00 112999.00 577.71
4371 30.2120 109416.00 111745.00 569.88
4372 30.2180 109011.00 110655.00 571.77
4373 30.2240 108407.00 109718.00 570.89
4374 30.2300 107607.00 108926.00 568.18
4375 30.2360 107313.00 108267.00 568.72
4376 30.2420 106837.00 107734.00 566.58
4377 30.2480 107080.00 107316.00 566.46
4378 30.2540 106807.00 107007.00 563.51
4379 30.2600 107041.00 106799.00 566.97
4380 30.2660 106921.00 106686.00 565.63
4381 30.2720 107252.00 106662.00 566.56
4382 30.2780 107403.00 106722.00 567.81
4383 30.2840 108048.00 106860.00 568.12
4384 30.2900 108183.00 107073.00 567.91
4385 30.2960 108879.00 107355.00 569.59
4386 30.3020 109403.00 107705.00 573.72
4387 30.3080 109933.00 108116.00 574.43
4388 30.3140 110709.00 108585.00 575.15
4389 30.3200 112141.00 109107.00 580.54
4390 30.3260 112887.00 109679.00 580.58
4391 30.3320 113701.00 110293.00 584.91
4392 30.3380 114572.00 110943.00 587.28
4393 30.3440 115988.00 111623.00 589.46
4394 30.3500 117128.00 112323.00 593.59
4395 30.3560 118295.00 113033.00 595.72
4396 30.3620 119307.00 113741.00 599.38
4397 30.3680 121114.00 114435.00 602.52
4398 30.3740 122028.00 115101.00 606.51
4399 30.3800 123107.00 115722.00 610.24
4400 30.3860 124350.00 116283.00 611.71
4401 30.3920 124778.00 116769.00 613.52
4402 30.3980 126209.00 117164.00 616.75
4403 30.4040 126499.00 117457.00 615.86
4404 30.4100 127393.00 117639.00 619.28
4405 30.4160 127514.00 117704.00 619.12
4406 30.4220 127143.00 117651.00 619.07
4407 30.4280 127412.00 117485.00 619.24
4408 30.4340 126869.00 117217.00 617.64
4409 30.4400 126060.00 116851.00 616.52
4410 30.4460 125118.00 116405.00 613.63
4411 30.4520 124558.00 115893.00 612.54
4412 30.4580 123290.00 115332.00 608.37
4413 30.4640 122027.00 114737.00 606.60
4414 30.4700 121535.00 114125.00 605.76
4415 30.4760 120807.00 113508.00 604.29
4416 30.4820 119666.00 112899.00 599.82
4417 30.4880 118749.00 112308.00 598.39
4418 30.4940 117746.00 111745.00 595.84
4419 30.5000 117418.00 111218.00 594.65
4420 30.5060 116632.00 110735.00 593.02
4421 30.5120 116032.00 110301.00 591.86
4422 30.5180 115785.00 109922.00 591.30
4423 30.5240 115495.00 109601.00 588.62
4424 30.5300 115253.00 109344.00 589.75
4425 30.5360 114718.00 109153.00 587.63
4426 30.5420 114256.00 109033.00 588.60
4427 30.5480 114805.00 108985.00 589.55
4428 30.5540 114967.00 109013.00 590.14
4429 30.5600 114682.00 109118.00 589.73
4430 30.5660 115197.00 109186.00 590.68
4431 30.5720 115761.00 109454.00 590.80
4432 30.5780 115324.00 109806.00 589.69
4433 30.5840 115998.00 110245.00 591.28
4434 30.5900 115783.00 110772.00 591.09
4435 30.5960 116173.00 111388.00 591.55
4436 30.6020 116558.00 112094.00 592.63
4437 30.6080 116474.00 112893.00 593.83
4438 30.6140 117057.00 113785.00 593.36
4439 30.6200 117317.00 114771.00 595.42
4440 30.6260 118018.00 115850.00 595.83
4441 30.6320 118028.00 117024.00 597.67
4442 30.6380 118766.00 118291.00 597.17
4443 30.6440 119515.00 119650.00 599.74
4444 30.6500 119972.00 121100.00 601.47
4445 30.6560 120557.00 122639.00 602.76
4446 30.6620 121648.00 124261.00 605.34
4447 30.6680 122752.00 125964.00 607.12
4448 30.6740 123887.00 127741.00 610.28
4449 30.6800 124955.00 129585.00 613.61
4450 30.6860 126417.00 131488.00 617.39
4451 30.6920 127534.00 133438.00 619.44
4452 30.6980 129418.00 135425.00 624.64
4453 30.7040 130703.00 137431.00 627.48
4454 30.7100 132524.00 139441.00 631.73
4455 30.7160 134595.00 141435.00 637.62
4456 30.7220 136792.00 143389.00 641.31
4457 30.7280 138552.00 145279.00 644.88
4458 30.7340 140594.00 147076.00 650.75
4459 30.7400 142667.00 148730.00 654.57
4460 30.7460 145023.00 150250.00 661.79
4461 30.7520 147519.00 151585.00 664.90
4462 30.7580 150371.00 152706.00 673.78
4463 30.7640 152428.00 153583.00 677.02
4464 30.7700 154800.00 154196.00 681.98
4465 30.7760 157094.00 154527.00 688.61
4466 30.7820 159328.00 154568.00 691.84
4467 30.7880 161185.00 154318.00 697.13
4468 30.7940 163370.00 153782.00 701.91
4469 30.8000 164458.00 152977.00 704.37
4470 30.8060 165715.00 151921.00 706.05
4471 30.8120 166445.00 150643.00 709.13
4472 30.8180 166301.00 149170.00 707.65
4473 30.8240 166134.00 147533.00 708.08
4474 30.8300 164306.00 145764.00 703.25
4475 30.8360 163182.00 143893.00 700.61
4476 30.8420 160753.00 141951.00 695.32
4477 30.8480 158345.00 139960.00 689.42
4478 30.8540 155650.00 137945.00 683.07
4479 30.8600 151753.00 135926.00 675.67
4480 30.8660 148106.00 133921.00 668.21
4481 30.8720 144658.00 131945.00 660.40
4482 30.8780 140346.00 130012.00 649.51
4483 30.8840 137121.00 128131.00 641.99
4484 30.8900 133520.00 126310.00 634.11
4485 30.8960 130354.00 124554.00 625.30
4486 30.9020 126810.00 122872.00 618.76
4487 30.9080 123802.00 121266.00 609.95
4488 30.9140 120909.00 119738.00 603.19
4489 30.9200 119367.00 118289.00 598.64
4490 30.9260 117051.00 116921.00 593.29
4491 30.9320 114993.00 115633.00 587.41
4492 30.9380 113231.00 114423.00 583.10
4493 30.9440 111847.00 113291.00 580.82
4494 30.9500 110082.00 112234.00 575.25
4495 30.9560 108771.00 111249.00 571.50
4496 30.9620 107648.00 110334.00 568.71
4497 30.9680 106725.00 109484.00 566.12
4498 30.9740 105051.00 108698.00 562.37
4499 30.9800 104163.00 107971.00 560.61
4500 30.9860 103303.00 107299.00 557.78
4501 30.9920 102363.00 106680.00 555.67
4502 30.9980 101418.00 106108.00 552.08
4503 31.0040 100807.00 105582.00 551.15
4504 31.0100 100275.00 105097.00 549.66
4505 31.0160 99438.80 104650.00 547.83
4506 31.0220 98741.60 104238.00 545.34
4507 31.0280 98302.10 103859.00 543.69
4508 31.0340 97499.10 103508.00 543.29
4509 31.0400 97222.20 103184.00 542.86
4510 31.0460 96907.00 102885.00 541.26
4511 31.0520 96247.40 102609.00 539.97
4512 31.0580 95878.70 102352.00 538.92
4513 31.0640 95505.60 102114.00 536.35
4514 31.0700 95234.80 101894.00 535.50
4515 31.0760 94904.70 101689.00 534.26
4516 31.0820 94701.60 101499.00 534.34
4517 31.0880 94337.90 101322.00 533.62
4518 31.0940 94033.60 101157.00 532.58
4519 31.1000 93715.60 101004.00 531.39
4520 31.1060 93383.90 100862.00 531.14
4521 31.1120 93413.10 100730.00 530.71
4522 31.1180 93120.10 100608.00 529.55
4523 31.1240 93230.60 100495.00 529.76
4524 31.1300 92827.10 100391.00 528.61
4525 31.1360 92547.80 100296.00 528.49
4526 31.1420 92418.20 100208.00 527.57
4527 31.1480 92387.10 100128.00 528.01
4528 31.1540 92092.10 100055.00 527.11
4529 31.1600 92020.00 99989.60 526.86
4530 31.1660 92092.20 99930.90 527.44
4531 31.1720 92027.20 99878.50 527.14
4532 31.1780 92010.30 99832.20 526.45
4533 31.1840 91609.70 99791.70 524.92
4534 31.1900 91676.10 99756.50 526.35
4535 31.1960 91474.60 99726.50 525.16
4536 31.2020 91516.30 99700.90 526.04
4537 31.2080 91596.50 99679.50 525.86
4538 31.2140 91238.80 99661.60 524.42
4539 31.2200 91239.90 99647.20 524.50
4540 31.2260 91248.20 99635.50 523.98
4541 31.2320 91148.40 99626.50 523.72
4542 31.2380 91344.30 99619.50 524.62
4543 31.2440 91097.80 99614.70 524.39
4544 31.2500 91028.90 99611.70 524.87
4545 31.2560 91303.40 99610.60 525.42
4546 31.2620 90853.30 99614.00 524.50
4547 31.2680 91179.90 99617.00 524.17
4548 31.2740 91103.10 99612.00 524.38
4549 31.2800 91106.10 99609.40 524.37
4550 31.2860 90909.30 99610.10 524.92
4551 31.2920 90900.00 99614.30 523.41
4552 31.2980 90997.10 99622.30 523.71
4553 31.3040 90953.10 99634.90 524.22
4554 31.3100 91132.20 99652.10 523.65
4555 31.3160 91085.80 99674.30 524.34
4556 31.3220 91381.70 99702.10 525.21
4557 31.3280 91682.80 99735.50 526.30
4558 31.3340 91572.50 99774.80 525.64
4559 31.3400 91863.60 99820.20 526.01
4560 31.3460 92129.20 99871.40 526.75
4561 31.3520 92203.60 99928.60 527.03
4562 31.3580 92466.60 99991.60 527.95
4563 31.3640 92618.50 100060.00 528.13
4564 31.3700 92825.10 100134.00 527.85
4565 31.3760 93232.00 100212.00 530.01
4566 31.3820 93554.80 100294.00 529.96
4567 31.3880 93720.20 100379.00 532.22
4568 31.3940 93726.30 100467.00 532.17
4569 31.4000 94371.00 100556.00 534.88
4570 31.4060 94415.70 100644.00 533.57
4571 31.4120 95168.20 100731.00 535.72
4572 31.4180 95276.70 100815.00 536.72
4573 31.4240 95973.10 100895.00 538.03
4574 31.4300 96188.50 100968.00 539.69
4575 31.4360 96459.20 101032.00 539.36
4576 31.4420 96964.30 101087.00 541.45
4577 31.4480 97161.20 101129.00 542.08
4578 31.4540 97529.40 101157.00 541.72
4579 31.4600 97554.10 101168.00 542.91
4580 31.4660 98102.30 101163.00 542.91
4581 31.4720 98112.70 101139.00 545.17
4582 31.4780 98475.10 101096.00 545.00
4583 31.4840 98731.90 101033.00 545.48
4584 31.4900 98878.20 100950.00 545.58
4585 31.4960 99159.50 100848.00 546.79
4586 31.5020 98891.40 100727.00 545.94
4587 31.5080 99279.10 100589.00 547.67
4588 31.5140 99062.40 100435.00 546.70
4589 31.5200 99040.40 100267.00 546.21
4590 31.5260 98773.50 100087.00 546.06
4591 31.5320 98674.00 99897.50 547.11
4592 31.5380 98471.60 99701.00 546.45
4593 31.5440 98606.40 99499.80 547.03
4594 31.5500 98615.20 99296.80 545.13
4595 31.5560 98978.50 99094.10 546.30
4596 31.5620 98689.20 98894.40 546.03
4597 31.5680 98878.70 98699.90 544.73
4598 31.5740 99079.90 98513.20 546.09
4599 31.5800 99216.80 98336.20 546.94
4600 31.5860 98859.30 98171.30 545.95
4601 31.5920 99166.30 98020.90 546.01
4602 31.5980 99144.30 97886.50 546.76
4603 31.6040 99070.60 97770.40 545.18
4604 31.6100 99537.60 97655.60 546.97
4605 31.6160 99579.40 97582.10 547.10
4606 31.6220 99556.40 97532.40 547.71
4607 31.6280 99965.60 97508.40 546.08
4608 31.6340 99901.20 97512.10 548.26
4609 31.6400 100015.00 97545.10 548.77
4610 31.6460 100184.00 97608.90 548.70
4611 31.6520 100459.00 97705.40 550.04
4612 31.6580 100672.00 97835.80 550.41
4613 31.6640 100547.00 98001.80 550.34
4614 31.6700 100878.00 98204.40 549.99
4615 31.6760 100579.00 98448.20 549.29
4616 31.6820 100638.00 98727.70 548.11
4617 31.6880 100464.00 99046.90 549.64
4618 31.6940 100494.00 99406.40 550.11
4619 31.7000 100677.00 99806.50 551.11
4620 31.7060 100454.00 100248.00 549.78
4621 31.7120 100981.00 100729.00 550.33
4622 31.7180 100632.00 101251.00 550.75
4623 31.7240 101114.00 101811.00 550.52
4624 31.7300 101446.00 102410.00 552.61
4625 31.7360 101728.00 103045.00 555.02
4626 31.7420 101720.00 103713.00 554.37
4627 31.7480 102518.00 104412.00 555.57
4628 31.7540 102822.00 105139.00 556.47
4629 31.7600 103519.00 105889.00 556.41
4630 31.7660 104340.00 106657.00 559.67
4631 31.7720 104980.00 107436.00 562.15
4632 31.7780 106203.00 108221.00 565.65
4633 31.7840 106897.00 109003.00 567.32
4634 31.7900 107463.00 109772.00 569.07
4635 31.7960 108886.00 110520.00 571.80
4636 31.8020 109822.00 111235.00 574.79
4637 31.8080 110972.00 111906.00 577.58
4638 31.8140 112251.00 112519.00 580.19
4639 31.8200 113187.00 113064.00 582.99
4640 31.8260 114667.00 113522.00 586.43
4641 31.8320 115719.00 113852.00 589.79
4642 31.8380 116818.00 114126.00 591.37
4643 31.8440 117372.00 114294.00 593.24
4644 31.8500 118684.00 114351.00 596.70
4645 31.8560 119370.00 114297.00 598.90
4646 31.8620 119993.00 114134.00 601.63
4647 31.8680 120190.00 113866.00 600.05
4648 31.8740 120543.00 113501.00 602.54
4649 31.8800 120777.00 113049.00 602.50
4650 31.8860 120107.00 112520.00 600.78
4651 31.8920 119192.00 111949.00 599.77
4652 31.8980 118687.00 111303.00 598.25
4653 31.9040 117765.00 110618.00 595.39
4654 31.9100 116226.00 109903.00 592.22
4655 31.9160 114810.00 109171.00 588.22
4656 31.9220 113773.00 108430.00 584.15
4657 31.9280 111768.00 107690.00 581.12
4658 31.9340 109360.00 106959.00 574.51
4659 31.9400 107756.00 106242.00 569.92
4660 31.9460 105880.00 105547.00 565.54
4661 31.9520 104356.00 104879.00 560.41
4662 31.9580 102201.00 104241.00 556.23
4663 31.9640 100720.00 103639.00 551.28
4664 31.9700 98817.50 103074.00 545.80
4665 31.9760 97426.60 102551.00 542.16
4666 31.9820 96402.40 102072.00 539.57
4667 31.9880 95111.10 101639.00 536.33
4668 31.9940 94221.60 101255.00 532.39
4669 32.0000 93025.10 100922.00 530.22
4670 32.0060 92452.00 100642.00 528.21
4671 32.0120 91920.30 100418.00 526.81
4672 32.0180 91490.60 100252.00 524.99
4673 32.0240 91050.20 100148.00 523.20
4674 32.0300 90535.10 100107.00 522.23
4675 32.0360 90491.30 100155.00 521.59
4676 32.0420 90292.70 100254.00 523.12
4677 32.0480 90433.50 100429.00 522.26
4678 32.0540 90593.50 100684.00 522.24
4679 32.0600 90880.00 101026.00 523.06
4680 32.0660 91380.80 101459.00 524.99
4681 32.0720 91735.60 101988.00 525.21
4682 32.0780 92728.40 102622.00 527.78
4683 32.0840 93297.10 103365.00 529.65
4684 32.0900 93952.30 104224.00 531.80
4685 32.0960 94473.80 105205.00 533.16
4686 32.1020 94953.00 106314.00 536.69
4687 32.1080 96618.10 107557.00 538.63
4688 32.1140 98066.50 108937.00 542.88
4689 32.1200 99529.30 110457.00 547.71
4690 32.1260 100927.00 112119.00 551.00
4691 32.1320 102479.00 113922.00 556.51
4692 32.1380 104138.00 115864.00 559.43
4693 32.1440 106008.00 117938.00 566.06
4694 32.1500 108239.00 120136.00 568.96
4695 32.1560 110456.00 122440.00 577.39
4696 32.1620 113088.00 124833.00 583.73
4697 32.1680 115783.00 127284.00 590.82
4698 32.1740 117744.00 129759.00 595.56
4699 32.1800 120249.00 132214.00 601.71
4700 32.1860 122416.00 134595.00 606.74
4701 32.1920 124768.00 136840.00 611.63
4702 32.1980 126588.00 138882.00 617.01
4703 32.2040 128721.00 140653.00 621.54
4704 32.2100 130277.00 142091.00 625.73
4705 32.2160 131396.00 143144.00 627.94
4706 32.2220 132086.00 143781.00 629.86
4707 32.2280 132620.00 143997.00 630.53
4708 32.2340 132684.00 143809.00 632.55
4709 32.2400 132034.00 143262.00 629.94
4710 32.2460 131744.00 142419.00 628.34
4711 32.2520 130732.00 141356.00 626.18
4712 32.2580 130040.00 140155.00 625.64
4713 32.2640 128700.00 138903.00 618.47
4714 32.2700 127309.00 137657.00 619.62
4715 32.2760 126295.00 136488.00 616.00
4716 32.2820 125000.00 135445.00 611.42
4717 32.2880 123916.00 134564.00 608.88
4718 32.2940 123262.00 133866.00 607.76
4719 32.3000 122138.00 133355.00 605.74
4720 32.3060 121543.00 133016.00 602.89
4721 32.3120 121225.00 132813.00 603.06
4722 32.3180 120776.00 132687.00 600.57
4723 32.3240 120730.00 132557.00 601.78
4724 32.3300 120174.00 132324.00 601.52
4725 32.3360 119356.00 131884.00 599.15
4726 32.3420 118473.00 131148.00 596.69
4727 32.3480 117642.00 130055.00 594.83
4728 32.3540 116342.00 128595.00 591.25
4729 32.3600 114814.00 126797.00 587.32
4730 32.3660 113731.00 124736.00 584.54
4731 32.3720 111421.00 122503.00 579.62
4732 32.3780 109569.00 120191.00 574.57
4733 32.3840 107761.00 117884.00 570.78
4734 32.3900 105730.00 115645.00 564.62
4735 32.3960 103979.00 113525.00 558.63
4736 32.4020 102615.00 111545.00 556.64
4737 32.4080 101492.00 109727.00 552.54
4738 32.4140 100250.00 108075.00 550.52
4739 32.4200 98838.40 106588.00 544.10
4740 32.4260 97973.70 105260.00 543.18
4741 32.4320 96697.20 104084.00 540.08
4742 32.4380 96093.60 103049.00 537.58
4743 32.4440 95361.00 102144.00 536.54
4744 32.4500 94797.40 101356.00 533.61
4745 32.4560 94147.10 100675.00 532.36
4746 32.4620 93631.50 100089.00 530.85
4747 32.4680 93048.20 99587.30 530.53
4748 32.4740 93086.50 99161.10 529.49
4749 32.4800 92925.30 98800.80 529.83
4750 32.4860 92750.80 98499.10 529.09
4751 32.4920 92466.90 98248.20 528.01
4752 32.4980 92367.30 98042.50 527.58
4753 32.5040 92213.70 97876.80 528.01
4754 32.5100 92192.90 97746.60 526.95
4755 32.5160 92276.80 97648.30 527.39
4756 32.5220 92443.00 97578.90 527.65
4757 32.5280 92369.10 97535.90 528.10
4758 32.5340 92607.10 97517.00 527.83
4759 32.5400 92570.30 97520.90 529.34
4760 32.5460 92828.20 97546.10 530.81
4761 32.5520 93337.20 97591.70 531.96
4762 32.5580 93668.50 97656.80 533.25
4763 32.5640 93695.80 97741.00 532.20
4764 32.5700 94136.80 97843.60 533.92
4765 32.5760 94542.20 97964.80 533.71
4766 32.5820 95011.80 98104.20 535.97
4767 32.5880 95047.70 98261.80 536.52
4768 32.5940 95661.10 98438.10 536.48
4769 32.6000 95968.90 98633.10 538.24
4770 32.6060 96358.00 98847.30 538.33
4771 32.6120 97049.90 99081.40 541.58
4772 32.6180 97557.70 99335.70 543.24
4773 32.6240 98256.70 99611.30 543.86
4774 32.6300 98592.20 99908.90 545.97
4775 32.6360 99021.80 100230.00 546.43
4776 32.6420 99775.00 100574.00 548.37
4777 32.6480 100120.00 100944.00 548.55
4778 32.6540 100778.00 101340.00 551.74
4779 32.6600 101542.00 101764.00 553.69
4780 32.6660 102113.00 102216.00 554.10
4781 32.6720 102866.00 102700.00 556.41
4782 32.6780 103511.00 103215.00 557.69
4783 32.6840 103951.00 103764.00 560.86
4784 32.6900 104983.00 104347.00 561.33
4785 32.6960 106104.00 104967.00 565.53
4786 32.7020 106744.00 105625.00 567.61
4787 32.7080 107745.00 106321.00 570.33
4788 32.7140 108774.00 107059.00 571.92
4789 32.7200 109724.00 107838.00 574.57
4790 32.7260 110727.00 108661.00 577.25
4791 32.7320 111923.00 109528.00 580.64
4792 32.7380 113212.00 110440.00 583.72
4793 32.7440 114282.00 111397.00 587.39
4794 32.7500 115343.00 112400.00 589.20
4795 32.7560 116734.00 113451.00 593.23
4796 32.7620 118008.00 114548.00 595.29
4797 32.7680 119437.00 115691.00 599.33
4798 32.7740 120934.00 116879.00 605.44
4799 32.7800 122173.00 118126.00 606.06
4800 32.7860 123685.00 119402.00 610.79
4801 32.7920 124907.00 120717.00 612.73
4802 32.7980 126037.00 122069.00 617.27
4803 32.8040 128240.00 123457.00 621.55
4804 32.8100 129675.00 124873.00 625.81
4805 32.8160 130808.00 126314.00 627.93
4806 32.8220 132939.00 127776.00 633.90
4807 32.8280 134621.00 129245.00 635.90
4808 32.8340 136121.00 130715.00 640.57
4809 32.8400 137872.00 132178.00 644.99
4810 32.8460 139778.00 133598.00 647.79
4811 32.8520 141574.00 135017.00 652.53
4812 32.8580 143718.00 136399.00 657.05
4813 32.8640 145131.00 137734.00 661.28
4814 32.8700 146974.00 139014.00 665.75
4815 32.8760 148587.00 140231.00 668.25
4816 32.8820 150145.00 141380.00 672.50
4817 32.8880 151849.00 142459.00 677.03
4818 32.8940 153294.00 143469.00 679.01
4819 32.9000 154328.00 144411.00 680.84
4820 32.9060 155651.00 145293.00 684.26
4821 32.9120 156452.00 146121.00 686.98
4822 32.9180 157645.00 146906.00 689.03
4823 32.9240 158546.00 147658.00 690.11
4824 32.9300 158965.00 148389.00 692.38
4825 32.9360 159399.00 149111.00 691.55
4826 32.9420 159423.00 149834.00 692.08
4827 32.9480 159488.00 150570.00 691.60
4828 32.9540 159186.00 151328.00 693.98
4829 32.9600 158714.00 152116.00 691.31
4830 32.9660 159108.00 152941.00 691.50
4831 32.9720 157957.00 153808.00 688.67
4832 32.9780 157690.00 154721.00 689.43
4833 32.9840 157036.00 155684.00 687.68
4834 32.9900 156573.00 156697.00 686.13
4835 32.9960 155620.00 157759.00 685.69
4836 33.0020 155354.00 158871.00 684.85
4837 33.0080 155315.00 160029.00 684.45
4838 33.0140 154935.00 161229.00 682.42
4839 33.0200 154933.00 162467.00 681.75
4840 33.0260 154127.00 163737.00 680.87
4841 33.0320 155025.00 165032.00 684.08
4842 33.0380 154681.00 166345.00 685.41
4843 33.0440 154945.00 167665.00 685.38
4844 33.0500 155009.00 168984.00 684.74
4845 33.0560 155253.00 170290.00 684.61
4846 33.0620 155583.00 171571.00 685.14
4847 33.0680 156308.00 172818.00 685.91
4848 33.0740 156649.00 174015.00 686.29
4849 33.0800 156770.00 175151.00 688.46
4850 33.0860 157140.00 176211.00 687.98
4851 33.0920 157433.00 177184.00 688.59
4852 33.0980 157319.00 178055.00 688.80
4853 33.1040 157554.00 178813.00 689.32
4854 33.1100 157640.00 179446.00 690.75
4855 33.1160 157669.00 179944.00 689.82
4856 33.1220 157766.00 180298.00 689.56
4857 33.1280 157406.00 180499.00 686.99
4858 33.1340 156883.00 180542.00 688.05
4859 33.1400 156388.00 180423.00 686.31
4860 33.1460 156124.00 180140.00 685.59
4861 33.1520 155254.00 179693.00 685.39
4862 33.1580 154862.00 179084.00 683.88
4863 33.1640 153564.00 178317.00 680.80
4864 33.1700 153343.00 177397.00 679.59
4865 33.1760 152714.00 176327.00 678.47
4866 33.1820 151385.00 175125.00 675.30
4867 33.1880 150633.00 173795.00 673.86
4868 33.1940 149466.00 172349.00 671.74
4869 33.2000 148122.00 170797.00 669.41
4870 33.2060 147442.00 169151.00 666.52
4871 33.2120 145978.00 167421.00 662.04
4872 33.2180 145194.00 165621.00 660.91
4873 33.2240 143935.00 163760.00 659.57
4874 33.2300 142910.00 161851.00 655.55
4875 33.2360 141532.00 159904.00 654.46
4876 33.2420 140565.00 157928.00 649.67
4877 33.2480 139358.00 155933.00 648.34
4878 33.2540 138314.00 153929.00 647.48
4879 33.2600 136772.00 151921.00 643.74
4880 33.2660 135975.00 149921.00 640.38
4881 33.2720 134338.00 147935.00 637.82
4882 33.2780 133939.00 145970.00 636.17
4883 33.2840 132310.00 144030.00 632.18
4884 33.2900 131435.00 142122.00 629.49
4885 33.2960 130486.00 140251.00 626.95
4886 33.3020 129172.00 138421.00 624.94
4887 33.3080 128237.00 136638.00 622.93
4888 33.3140 127363.00 134906.00 619.21
4889 33.3200 126763.00 133228.00 617.30
4890 33.3260 125302.00 131609.00 615.48
4891 33.3320 124889.00 130051.00 612.56
4892 33.3380 124236.00 128557.00 612.41
4893 33.3440 123345.00 127131.00 610.43
4894 33.3500 122524.00 125775.00 607.26
4895 33.3560 121757.00 124493.00 605.75
4896 33.3620 121025.00 123286.00 603.26
4897 33.3680 120385.00 122158.00 602.23
4898 33.3740 119796.00 121109.00 599.55
4899 33.3800 119591.00 120143.00 600.73
4900 33.3860 119089.00 119262.00 599.84
4901 33.3920 118360.00 118466.00 598.26
4902 33.3980 117908.00 117758.00 597.22
4903 33.4040 118166.00 117138.00 597.17
4904 33.4100 117716.00 116609.00 595.85
4905 33.4160 117537.00 116170.00 595.98
4906 33.4220 117801.00 115821.00 596.99
4907 33.4280 117836.00 115562.00 596.95
4908 33.4340 117685.00 115393.00 595.88
4909 33.4400 118075.00 115313.00 598.39
4910 33.4460 118772.00 115320.00 597.97
4911 33.4520 119093.00 115411.00 599.55
4912 33.4580 119835.00 115584.00 601.05
4913 33.4640 120243.00 115835.00 601.86
4914 33.4700 120871.00 116158.00 604.60
4915 33.4760 121506.00 116548.00 605.20
4916 33.4820 122588.00 116997.00 607.99
4917 33.4880 123225.00 117497.00 609.08
4918 33.4940 123950.00 118038.00 611.48
4919 33.5000 125242.00 118606.00 615.26
4920 33.5060 126272.00 119188.00 617.01
4921 33.5120 127155.00 119768.00 619.54
4922 33.5180 128521.00 120329.00 621.94
4923 33.5240 128776.00 120851.00 623.87
4924 33.5300 129780.00 121313.00 627.01
4925 33.5360 130425.00 121697.00 629.92
4926 33.5420 130619.00 121980.00 628.23
4927 33.5480 131432.00 122148.00 628.19
4928 33.5540 131957.00 122185.00 631.36
4929 33.5600 132441.00 122081.00 631.53
4930 33.5660 132295.00 121832.00 631.45
4931 33.5720 132059.00 121439.00 631.08
4932 33.5780 131484.00 120907.00 629.89
4933 33.5840 130557.00 120248.00 626.92
4934 33.5900 129668.00 119476.00 624.47
4935 33.5960 128690.00 118613.00 622.34
4936 33.6020 127723.00 117667.00 619.10
4937 33.6080 126396.00 116661.00 617.64
4938 33.6140 124890.00 115614.00 614.26
4939 33.6200 123430.00 114542.00 607.54
4940 33.6260 122268.00 113460.00 605.77
4941 33.6320 120596.00 112382.00 601.09
4942 33.6380 119590.00 111317.00 599.85
4943 33.6440 118198.00 110275.00 595.99
4944 33.6500 116316.00 109264.00 592.21
4945 33.6560 115317.00 108290.00 589.91
4946 33.6620 113806.00 107356.00 583.75
4947 33.6680 112571.00 106468.00 581.87
4948 33.6740 111489.00 105627.00 577.56
4949 33.6800 110310.00 104835.00 574.80
4950 33.6860 108766.00 104093.00 571.26
4951 33.6920 107815.00 103401.00 569.44
4952 33.6980 106757.00 102759.00 566.94
4953 33.7040 105557.00 102167.00 563.66
4954 33.7100 105150.00 101622.00 561.46
4955 33.7160 104638.00 101125.00 560.53
4956 33.7220 103657.00 100673.00 558.25
4957 33.7280 103084.00 100264.00 557.48
4958 33.7340 102608.00 99895.60 556.29
4959 33.7400 101550.00 99596.90 553.63
4960 33.7460 101041.00 99305.10 551.78
4961 33.7520 100413.00 99047.60 549.67
4962 33.7580 100235.00 98822.50 548.04
4963 33.7640 99996.60 98627.70 548.61
4964 33.7700 99833.30 98460.90 547.96
4965 33.7760 99705.90 98319.70 547.20
4966 33.7820 99225.70 98202.60 546.12
4967 33.7880 98928.70 98107.60 544.77
4968 33.7940 98803.20 98032.70 545.35
4969 33.8000 98434.60 97976.60 543.94
4970 33.8060 98848.90 97937.70 545.76
4971 33.8120 98568.70 97914.70 543.07
4972 33.8180 98527.10 97906.20 542.98
4973 33.8240 98520.90 97911.30 543.01
4974 33.8300 98437.00 97929.00 543.76
4975 33.8360 98581.20 97958.20 543.85
4976 33.8420 98713.70 97998.50 544.99
4977 33.8480 98594.90 98048.80 544.30
4978 33.8540 98592.90 98108.70 543.29
4979 33.8600 98889.80 98177.50 543.76
4980 33.8660 99026.60 98254.90 546.15
4981 33.8720 99074.30 98340.40 545.56
4982 33.8780 99244.80 98433.50 546.21
4983 33.8840 99335.40 98534.10 547.21
4984 33.8900 99217.10 98641.70 547.02
4985 33.8960 99506.90 98755.90 547.58
4986 33.9020 99923.50 98876.50 548.20
4987 33.9080 99801.10 99003.30 548.79
4988 33.9140 100061.00 99136.00 549.19
4989 33.9200 100595.00 99274.30 550.63
4990 33.9260 100524.00 99418.00 551.56
4991 33.9320 100845.00 99566.60 550.32
4992 33.9380 101019.00 99720.20 552.15
4993 33.9440 101242.00 99878.20 552.33
4994 33.9500 101510.00 100041.00 552.75
4995 33.9560 101573.00 100207.00 554.44
4996 33.9620 101916.00 100377.00 554.86
4997 33.9680 102242.00 100551.00 554.92
4998 33.9740 102684.00 100728.00 554.96
4999 33.9800 102649.00 100907.00 557.42
5000 33.9860 102905.00 101090.00 556.75
5001 33.9920 103608.00 101275.00 559.72
5002 33.9980 103628.00 101463.00 560.22
5003 34.0040 104165.00 101653.00 560.34
5004 34.0100 104324.00 101845.00 560.33
5005 34.0160 104632.00 102040.00 561.06
5006 34.0220 105197.00 102237.00 562.44
5007 34.0280 105149.00 102437.00 562.99
5008 34.0340 105518.00 102640.00 564.03
5009 34.0400 105592.00 102827.00 566.09
5010 34.0460 105838.00 103038.00 564.46
5011 34.0520 106037.00 103253.00 564.92
5012 34.0580 106626.00 103474.00 566.95
5013 34.0640 106902.00 103702.00 566.00
5014 34.0700 107259.00 103939.00 568.26
5015 34.0760 107523.00 104186.00 570.26
5016 34.0820 108037.00 104444.00 570.22
5017 34.0880 108121.00 104716.00 568.51
5018 34.0940 108117.00 105004.00 570.61
5019 34.1000 108206.00 105311.00 571.37
5020 34.1060 108471.00 105639.00 572.26
5021 34.1120 109140.00 105991.00 572.15
5022 34.1180 109887.00 106368.00 576.32
5023 34.1240 109821.00 106774.00 574.29
5024 34.1300 109804.00 107212.00 575.01
5025 34.1360 109873.00 107683.00 575.25
5026 34.1420 110145.00 108189.00 575.71
5027 34.1480 110673.00 108733.00 577.52
5028 34.1540 110842.00 109315.00 578.60
5029 34.1600 111210.00 109935.00 578.42
5030 34.1660 111734.00 110592.00 579.77
5031 34.1720 111658.00 111285.00 580.08
5032 34.1780 112062.00 112009.00 579.92
5033 34.1840 112774.00 112758.00 583.16
5034 34.1900 112966.00 113524.00 583.06
5035 34.1960 112826.00 114296.00 583.13
5036 34.2020 113732.00 115059.00 582.80
5037 34.2080 113347.00 115793.00 585.27
5038 34.2140 113991.00 116478.00 583.87
5039 34.2200 114275.00 117087.00 584.79
5040 34.2260 114332.00 117593.00 585.64
5041 34.2320 114344.00 117967.00 587.03
5042 34.2380 114117.00 118184.00 585.48
5043 34.2440 114040.00 118223.00 584.05
5044 34.2500 113430.00 118069.00 583.73
5045 34.2560 113625.00 117718.00 583.59
5046 34.2620 112778.00 117176.00 581.68
5047 34.2680 112110.00 116457.00 580.49
5048 34.2740 111317.00 115584.00 578.91
5049 34.2800 110606.00 114584.00 575.31
5050 34.2860 109624.00 113487.00 572.51
5051 34.2920 108473.00 112320.00 569.75
5052 34.2980 107273.00 111111.00 566.60
5053 34.3040 106584.00 109883.00 565.79
5054 34.3100 105120.00 108655.00 562.44
5055 34.3160 104165.00 107444.00 556.42
5056 34.3220 103113.00 106263.00 554.90
5057 34.3280 101704.00 105120.00 552.67
5058 34.3340 100571.00 104023.00 549.78
5059 34.3400 99627.60 102977.00 547.88
5060 34.3460 98988.60 101984.00 544.99
5061 34.3520 97606.10 101046.00 541.74
5062 34.3580 96905.00 100165.00 537.71
5063 34.3640 96218.00 99338.80 537.35
5064 34.3700 95310.70 98567.40 534.56
5065 34.3760 94669.70 97849.10 535.23
5066 34.3820 93982.60 97182.30 532.34
5067 34.3880 93298.50 96563.90 530.17
5068 34.3940 92560.20 95991.70 527.86
5069 34.4000 91801.70 95462.70 524.75
5070 34.4060 91336.50 94974.60 524.22
5071 34.4120 91207.20 94524.30 524.42
5072 34.4180 90796.00 94109.10 522.47
5073 34.4240 90104.60 93726.40 521.67
5074 34.4300 89912.20 93373.30 518.86
5075 34.4360 89400.10 93047.30 518.91
5076 34.4420 88953.60 92746.10 517.04
5077 34.4480 88847.80 92467.80 516.83
5078 34.4540 88590.70 92210.10 516.84
5079 34.4600 88469.80 91971.30 515.46
5080 34.4660 87866.20 91749.70 515.45
5081 34.4720 88184.20 91544.20 514.27
5082 34.4780 87726.90 91352.80 515.17
5083 34.4840 87737.60 91174.50 513.34
5084 34.4900 87694.70 91008.40 515.53
5085 34.4960 87495.40 90853.40 512.57
5086 34.5020 87355.20 90708.10 513.42
5087 34.5080 87182.00 90572.90 511.45
5088 34.5140 86965.30 90446.50 511.98
5089 34.5200 86953.80 90328.40 512.47
5090 34.5260 87117.20 90218.00 512.27
5091 34.5320 87169.00 90115.10 512.94
5092 34.5380 86681.00 90019.40 511.35
5093 34.5440 86810.40 89930.30 512.53
5094 34.5500 87061.90 89848.20 513.86
5095 34.5560 87066.00 89781.20 513.61
5096 34.5620 86787.20 89712.60 512.74
5097 34.5680 87259.60 89650.60 514.12
5098 34.5740 87266.60 89595.80 513.42
5099 34.5800 87104.60 89548.90 513.42
5100 34.5860 87575.00 89510.00 512.43
5101 34.5920 87311.60 89479.00 512.50
5102 34.5980 87447.20 89456.30 513.48
5103 34.6040 87768.30 89442.40 514.79
5104 34.6100 87807.30 89437.70 514.31
5105 34.6160 88079.90 89442.80 515.91
5106 34.6220 87794.60 89458.20 514.85
5107 34.6280 88306.00 89484.50 515.44
5108 34.6340 88408.30 89522.30 516.45
5109 34.6400 88616.90 89571.90 517.02
5110 34.6460 88747.20 89634.50 517.66
5111 34.6520 88998.30 89710.50 517.37
5112 34.6580 89083.60 89800.50 518.56
5113 34.6640 89409.40 89905.10 518.26
5114 34.6700 89680.00 90025.20 519.47
5115 34.6760 89713.90 90161.10 519.88
5116 34.6820 90060.70 90313.60 520.79
5117 34.6880 90540.60 90483.20 522.53
5118 34.6940 90288.10 90670.30 521.88
5119 34.7000 90910.90 90875.60 523.17
5120 34.7060 91120.10 91099.40 524.22
5121 34.7120 91586.10 91342.20 524.85
5122 34.7180 91693.30 91604.00 525.79
5123 34.7240 92393.20 91885.10 526.33
5124 34.7300 92315.10 92185.70 527.24
5125 34.7360 92673.70 92505.40 528.74
5126 34.7420 93161.70 92844.50 529.12
5127 34.7480 93362.50 93202.30 529.97
5128 34.7540 93827.90 93578.30 531.62
5129 34.7600 94334.90 93971.90 533.94
5130 34.7660 94804.30 94381.90 533.66
5131 34.7720 95284.40 94807.20 535.68
5132 34.7780 95660.80 95246.30 536.51
5133 34.7840 96398.40 95697.50 539.00
5134 34.7900 97103.90 96158.50 541.21
5135 34.7960 97515.20 96626.70 542.36
5136 34.8020 98594.20 97099.40 545.37
5137 34.8080 99272.60 97573.20 546.85
5138 34.8140 100098.00 98044.00 549.52
5139 34.8200 100738.00 98508.00 551.35
5140 34.8260 101735.00 98959.40 553.55
5141 34.8320 102561.00 99394.70 555.94
5142 34.8380 103513.00 99807.60 557.83
5143 34.8440 104290.00 100193.00 560.36
5144 34.8500 105015.00 100545.00 562.11
5145 34.8560 106240.00 100858.00 563.78
5146 34.8620 106682.00 101129.00 567.59
5147 34.8680 107524.00 101353.00 569.22
5148 34.8740 108306.00 101527.00 571.60
5149 34.8800 109030.00 101650.00 571.85
5150 34.8860 109265.00 101722.00 573.84
5151 34.8920 109860.00 101742.00 576.09
5152 34.8980 110052.00 101713.00 573.87
5153 34.9040 110174.00 101638.00 576.57
5154 34.9100 110675.00 101523.00 577.07
5155 34.9160 110372.00 101370.00 576.87
5156 34.9220 110973.00 101187.00 577.37
5157 34.9280 110555.00 100979.00 575.72
5158 34.9340 110181.00 100752.00 575.10
5159 34.9400 110019.00 100511.00 574.67
5160 34.9460 109504.00 100263.00 574.28
5161 34.9520 108997.00 100012.00 571.75
5162 34.9580 108725.00 99763.70 571.87
5163 34.9640 107843.00 99521.40 569.35
5164 34.9700 107133.00 99289.30 566.78
5165 34.9760 106532.00 99070.30 566.50
5166 34.9820 105927.00 98867.80 564.04
5167 34.9880 105164.00 98684.10 563.28
5168 34.9940 104652.00 98521.10 561.59
5169 35.0000 103954.00 98380.80 559.08
5170 35.0060 103619.00 98264.40 559.60
5171 35.0120 103477.00 98173.30 557.06
5172 35.0180 102828.00 98107.90 556.38
5173 35.0240 102776.00 98069.50 554.59
5174 35.0300 102699.00 98058.10 557.59
5175 35.0360 102672.00 98074.00 557.11
5176 35.0420 102482.00 98117.30 557.40
5177 35.0480 102601.00 98188.00 557.38
5178 35.0540 102837.00 98285.90 556.43
5179 35.0600 102801.00 98410.50 557.70
5180 35.0660 103499.00 98561.50 556.70
5181 35.0720 103716.00 98737.90 558.60
5182 35.0780 103905.00 98939.50 559.77
5183 35.0840 104282.00 99165.30 560.33
5184 35.0900 104391.00 99414.40 561.22
5185 35.0960 104962.00 99686.20 562.23
5186 35.1020 105029.00 99982.50 561.34
5187 35.1080 105584.00 100297.00 563.48
5188 35.1140 105849.00 100631.00 564.41
5189 35.1200 106306.00 100984.00 566.44
5190 35.1260 106715.00 101356.00 565.91
5191 35.1320 107101.00 101745.00 568.28
5192 35.1380 107355.00 102153.00 567.83
5193 35.1440 107885.00 102578.00 570.15
5194 35.1500 108347.00 103021.00 571.92
5195 35.1560 108364.00 103483.00 571.22
5196 35.1620 108906.00 103965.00 574.08
5197 35.1680 109468.00 104471.00 574.01
5198 35.1740 109802.00 105002.00 575.21
5199 35.1800 110237.00 105564.00 575.52
5200 35.1860 110701.00 106162.00 576.59
5201 35.1920 111165.00 106801.00 579.76
5202 35.1980 111549.00 107492.00 579.88
5203 35.2040 112292.00 108242.00 582.32
5204 35.2100 113068.00 109062.00 582.54
5205 35.2160 113873.00 109966.00 585.65
5206 35.2220 114544.00 110966.00 586.20
5207 35.2280 115394.00 112077.00 589.52
5208 35.2340 116483.00 113314.00 592.76
5209 35.2400 117602.00 114694.00 594.34
5210 35.2460 118757.00 116231.00 598.51
5211 35.2520 120320.00 117940.00 602.94
5212 35.2580 121510.00 119834.00 606.52
5213 35.2640 123187.00 121920.00 609.37
5214 35.2700 124721.00 124209.00 613.23
5215 35.2760 126987.00 126695.00 620.09
5216 35.2820 129036.00 129368.00 623.82
5217 35.2880 130906.00 132202.00 629.15
5218 35.2940 133203.00 135156.00 632.78
5219 35.3000 135091.00 138162.00 638.18
5220 35.3060 136778.00 141128.00 642.23
5221 35.3120 138692.00 143929.00 645.51
5222 35.3180 140064.00 146420.00 650.63
5223 35.3240 140964.00 148446.00 651.40
5224 35.3300 141835.00 149824.00 653.79
5225 35.3360 141799.00 150436.00 653.32
5226 35.3420 141462.00 150205.00 652.71
5227 35.3480 139722.00 149127.00 648.23
5228 35.3540 138125.00 147271.00 644.94
5229 35.3600 135757.00 144761.00 639.43
5230 35.3660 132924.00 141750.00 632.67
5231 35.3720 130267.00 138417.00 625.44
5232 35.3780 127752.00 134911.00 619.13
5233 35.3840 124724.00 131353.00 612.51
5234 35.3900 121322.00 127859.00 606.09
5235 35.3960 118454.00 124495.00 598.79
5236 35.4020 115936.00 121305.00 591.42
5237 35.4080 113385.00 118321.00 584.48
5238 35.4140 111242.00 115559.00 580.10
5239 35.4200 109055.00 113023.00 573.23
5240 35.4260 107680.00 110711.00 570.21
5241 35.4320 105649.00 108604.00 565.60
5242 35.4380 104097.00 106713.00 560.22
5243 35.4440 102810.00 105015.00 557.39
5244 35.4500 101579.00 103492.00 553.58
5245 35.4560 100248.00 102132.00 550.06
5246 35.4620 99520.50 100920.00 545.95
5247 35.4680 98708.10 99838.90 545.83
5248 35.4740 97690.80 98876.30 543.00
5249 35.4800 96955.10 98018.50 540.20
5250 35.4860 96344.60 97253.50 538.83
5251 35.4920 95934.70 96569.40 537.67
5252 35.4980 95508.70 95956.50 535.32
5253 35.5040 94846.50 95406.30 535.23
5254 35.5100 94360.30 94910.80 534.50
5255 35.5160 93793.00 94463.60 531.91
5256 35.5220 93128.70 94059.00 529.91
5257 35.5280 92521.70 93692.50 529.55
5258 35.5340 92031.80 93359.40 527.85
5259 35.5400 91150.40 93057.00 525.90
5260 35.5460 91187.10 92782.20 525.51
5261 35.5520 90833.50 92533.10 523.06
5262 35.5580 90680.40 92307.70 522.78
5263 35.5640 90383.60 92104.60 521.82
5264 35.5700 90019.20 91922.50 521.07
5265 35.5760 89714.40 91760.60 519.53
5266 35.5820 89605.40 91618.10 519.34
5267 35.5880 89214.40 91494.50 518.89
5268 35.5940 89110.30 91389.30 517.12
5269 35.6000 88955.40 91302.10 518.16
5270 35.6060 88545.20 91232.80 515.55
5271 35.6120 88711.20 91181.20 517.08
5272 35.6180 88275.10 91147.20 515.18
5273 35.6240 88431.10 91130.90 515.84
5274 35.6300 88136.40 91131.90 513.98
5275 35.6360 88047.50 91150.80 515.01
5276 35.6420 87913.50 91187.20 514.36
5277 35.6480 87878.20 91241.40 513.88
5278 35.6540 87697.40 91313.40 513.34
5279 35.6600 87993.00 91403.00 514.68
5280 35.6660 87940.10 91510.70 515.18
5281 35.6720 87806.20 91636.00 512.98
5282 35.6780 87992.10 91779.00 513.85
5283 35.6840 87966.30 91939.80 512.88
5284 35.6900 87884.10 92117.90 513.60
5285 35.6960 88155.50 92313.10 515.48
5286 35.7020 88242.50 92525.10 516.71
5287 35.7080 88664.10 92753.20 515.18
5288 35.7140 88996.90 92997.00 517.39
5289 35.7200 89035.60 93255.70 516.42
5290 35.7260 89300.50 93528.30 519.81
5291 35.7320 89985.50 93813.80 519.30
5292 35.7380 90172.70 94110.80 522.86
5293 35.7440 90525.80 94417.80 523.34
5294 35.7500 90904.40 94732.70 522.59
5295 35.7560 91330.00 95053.90 524.20
5296 35.7620 92081.50 95378.90 524.94
5297 35.7680 92594.30 95705.00 527.61
5298 35.7740 93469.70 96029.20 530.36
5299 35.7800 93891.50 96348.30 532.32
5300 35.7860 94470.80 96658.80 533.06
5301 35.7920 94903.80 96956.60 534.47
5302 35.7980 95591.50 97238.20 535.25
5303 35.8040 96632.30 97499.70 539.17
5304 35.8100 97249.90 97737.00 540.06
5305 35.8160 97940.20 97946.50 542.26
5306 35.8220 98476.60 98125.10 543.57
5307 35.8280 99210.70 98269.90 545.82
5308 35.8340 99687.20 98379.30 546.77
5309 35.8400 100217.00 98452.10 548.85
5310 35.8460 100707.00 98488.20 549.24
5311 35.8520 100927.00 98488.60 550.24
5312 35.8580 101420.00 98454.90 553.42
5313 35.8640 101801.00 98389.80 553.66
5314 35.8700 102023.00 98296.70 552.53
5315 35.8760 102298.00 98179.90 554.44
5316 35.8820 102297.00 98043.90 553.86
5317 35.8880 101997.00 97893.20 555.02
5318 35.8940 102042.00 97733.00 554.59
5319 35.9000 102194.00 97568.30 554.06
5320 35.9060 101617.00 97404.20 552.39
5321 35.9120 101520.00 97245.40 552.34
5322 35.9180 100970.00 97096.70 551.62
5323 35.9240 100767.00 96963.20 550.05
5324 35.9300 100459.00 96849.10 550.11
5325 35.9360 100018.00 96759.00 549.61
5326 35.9420 99281.50 96697.80 546.16
5327 35.9480 98755.80 96670.10 545.01
5328 35.9540 98513.70 96680.40 544.22
5329 35.9600 98180.90 96734.10 544.88
5330 35.9660 98174.30 96836.70 544.51
5331 35.9720 98078.20 96993.30 543.73
5332 35.9780 97889.10 97210.80 542.52
5333 35.9840 97992.30 97495.20 543.78
5334 35.9900 98057.90 97853.70 543.42
5335 35.9960 98392.30 98293.80 544.86
5336 36.0020 98635.40 98823.40 545.43
5337 36.0080 99460.70 99451.00 547.17
5338 36.0140 100146.00 100185.00 550.46
5339 36.0200 101089.00 101035.00 550.72
5340 36.0260 101872.00 102011.00 553.62
5341 36.0320 102896.00 103121.00 557.58
5342 36.0380 104396.00 104376.00 560.55
5343 36.0440 105605.00 105784.00 564.52
5344 36.0500 107410.00 107354.00 568.32
5345 36.0560 109533.00 109094.00 574.22
5346 36.0620 111391.00 111010.00 578.07
5347 36.0680 113819.00 113108.00 585.28
5348 36.0740 116196.00 115392.00 591.29
5349 36.0800 119441.00 117863.00 598.84
5350 36.0860 121939.00 120519.00 605.34
5351 36.0920 124485.00 123355.00 611.65
5352 36.0980 126910.00 126360.00 617.71
5353 36.1040 130191.00 129516.00 626.20
5354 36.1100 134036.00 132805.00 633.85
5355 36.1160 137875.00 136193.00 644.11
5356 36.1220 140871.00 139639.00 651.21
5357 36.1280 144127.00 143088.00 659.28
5358 36.1340 146840.00 146475.00 664.81
5359 36.1400 149937.00 149728.00 671.61
5360 36.1460 152872.00 152743.00 678.04
5361 36.1520 154619.00 155433.00 681.65
5362 36.1580 157042.00 157697.00 687.07
5363 36.1640 158511.00 159442.00 691.40
5364 36.1700 158915.00 160589.00 692.83
5365 36.1760 159682.00 161084.00 691.14
5366 36.1820 159365.00 160903.00 692.37
5367 36.1880 158432.00 160055.00 689.97
5368 36.1940 156933.00 158582.00 685.52
5369 36.2000 155076.00 156553.00 682.69
5370 36.2060 153216.00 154054.00 679.12
5371 36.2120 150477.00 151186.00 671.39
5372 36.2180 147052.00 148045.00 664.44
5373 36.2240 143492.00 144724.00 654.30
5374 36.2300 139914.00 141309.00 648.04
5375 36.2360 136583.00 137872.00 640.99
5376 36.2420 133250.00 134470.00 633.68
5377 36.2480 129799.00 131151.00 623.55
5378 36.2540 126035.00 127951.00 614.24
5379 36.2600 122676.00 124882.00 606.31
5380 36.2660 119501.00 121993.00 597.83
5381 36.2720 116526.00 119283.00 592.14
5382 36.2780 114396.00 116760.00 585.25
5383 36.2840 111871.00 114425.00 579.37
5384 36.2900 109110.00 112280.00 570.47
5385 36.2960 107308.00 110323.00 567.19
5386 36.3020 105351.00 108536.00 560.79
5387 36.3080 103822.00 106940.00 557.60
5388 36.3140 102508.00 105512.00 553.85
5389 36.3200 101131.00 104248.00 548.75
5390 36.3260 100203.00 103138.00 548.37
5391 36.3320 99297.10 102170.00 546.29
5392 36.3380 98590.80 101338.00 543.67
5393 36.3440 97904.80 100630.00 541.79
5394 36.3500 97425.90 100038.00 541.03
5395 36.3560 97204.60 99551.50 539.98
5396 36.3620 97065.20 99161.80 539.66
5397 36.3680 97025.30 98860.30 539.15
5398 36.3740 96959.60 98637.70 540.58
5399 36.3800 96889.80 98485.80 540.11
5400 36.3860 97134.60 98396.10 541.40
5401 36.3920 97213.70 98360.60 540.84
5402 36.3980 97655.70 98370.80 541.78
5403 36.4040 97821.70 98418.20 541.83
5404 36.4100 98671.40 98494.70 545.46
5405 36.4160 99185.20 98591.50 545.87
5406 36.4220 99227.00 98699.30 546.70
5407 36.4280 99949.60 98809.20 548.99
5408 36.4340 100361.00 98911.90 549.24
5409 36.4400 100666.00 98998.70 550.50
5410 36.4460 100976.00 99060.80 550.74
5411 36.4520 101224.00 99091.20 552.24
5412 36.4580 101478.00 99083.00 552.00
5413 36.4640 101037.00 99032.60 551.86
5414 36.4700 101437.00 98937.30 553.08
5415 36.4760 101437.00 98796.50 552.47
5416 36.4820 101148.00 98612.10 551.56
5417 36.4880 100866.00 98387.70 551.94
5418 36.4940 100094.00 98128.50 548.70
5419 36.5000 99781.20 97841.10 548.91
5420 36.5060 99548.20 97532.10 547.01
5421 36.5120 98734.20 97209.20 545.79
5422 36.5180 98238.60 96879.50 544.54
5423 36.5240 97514.60 96550.00 541.82
5424 36.5300 96870.30 96227.10 540.18
5425 36.5360 96464.30 95916.50 538.85
5426 36.5420 95720.40 95623.50 538.16
5427 36.5480 95436.90 95352.00 537.02
5428 36.5540 95395.50 95105.90 537.82
5429 36.5600 94466.50 94888.70 534.46
5430 36.5660 94554.40 94702.80 534.45
5431 36.5720 94508.20 94554.30 534.05
5432 36.5780 93905.80 94437.10 532.22
5433 36.5840 93982.90 94356.40 530.48
5434 36.5900 93641.10 94313.40 531.78
5435 36.5960 93612.40 94308.70 530.77
5436 36.6020 93765.20 94343.10 531.62
5437 36.6080 93666.50 94416.40 531.26
5438 36.6140 93819.80 94528.70 532.33
5439 36.6200 94247.20 94680.00 532.74
5440 36.6260 94502.00 94869.70 533.72
5441 36.6320 94653.30 95096.90 534.65
5442 36.6380 95002.50 95360.90 534.86
5443 36.6440 95418.90 95660.50 535.42
5444 36.6500 95854.90 95994.20 537.68
5445 36.6560 96349.90 96360.70 539.10
5446 36.6620 97119.20 96757.80 539.66
5447 36.6680 97528.90 97183.50 542.21
5448 36.6740 98320.60 97635.20 543.34
5449 36.6800 99155.50 98110.30 546.22
5450 36.6860 99711.90 98606.00 548.04
5451 36.6920 100745.00 99118.60 550.75
5452 36.6980 101507.00 99643.90 553.44
5453 36.7040 102251.00 100178.00 554.05
5454 36.7100 102936.00 100715.00 557.15
5455 36.7160 104293.00 101252.00 559.87
5456 36.7220 105058.00 101781.00 561.73
5457 36.7280 106139.00 102297.00 564.69
5458 36.7340 106728.00 102794.00 566.80
5459 36.7400 107646.00 103266.00 568.03
5460 36.7460 108488.00 103706.00 571.27
5461 36.7520 109423.00 104114.00 573.61
5462 36.7580 110104.00 104473.00 576.64
5463 36.7640 110752.00 104785.00 576.75
5464 36.7700 111497.00 105045.00 578.75
5465 36.7760 112290.00 105251.00 581.45
5466 36.7820 112718.00 105401.00 581.94
5467 36.7880 113071.00 105497.00 583.55
5468 36.7940 113441.00 105540.00 584.58
5469 36.8000 113421.00 105532.00 585.16
5470 36.8060 113719.00 105478.00 584.44
5471 36.8120 113935.00 105384.00 587.59
5472 36.8180 113849.00 105254.00 584.24
5473 36.8240 113693.00 105097.00 585.51
5474 36.8300 113479.00 104918.00 583.99
5475 36.8360 112905.00 104725.00 582.67
5476 36.8420 112449.00 104524.00 581.92
5477 36.8480 111936.00 104322.00 579.08
5478 36.8540 111748.00 104126.00 579.40
5479 36.8600 110984.00 103942.00 577.35
5480 36.8660 110707.00 103775.00 577.66
5481 36.8720 110260.00 103631.00 576.12
5482 36.8780 109247.00 103516.00 573.25
5483 36.8840 108997.00 103435.00 572.92
5484 36.8900 108810.00 103392.00 571.85
5485 36.8960 108537.00 103393.00 571.00
5486 36.9020 108050.00 103443.00 570.31
5487 36.9080 108194.00 103547.00 569.95
5488 36.9140 107865.00 103710.00 570.12
5489 36.9200 108603.00 103938.00 571.06
5490 36.9260 108725.00 104233.00 570.99
5491 36.9320 109419.00 104606.00 572.66
5492 36.9380 109838.00 105064.00 574.03
5493 36.9440 110669.00 105615.00 577.18
5494 36.9500 111829.00 106253.00 579.28
5495 36.9560 112513.00 106991.00 582.12
5496 36.9620 114436.00 107838.00 585.30
5497 36.9680 115647.00 108799.00 589.39
5498 36.9740 116650.00 109882.00 590.48
5499 36.9800 118408.00 111093.00 597.55
5500 36.9860 120382.00 112437.00 601.92
5501 36.9920 122683.00 113922.00 608.25
5502 36.9980 124854.00 115553.00 612.96
5503 37.0040 127034.00 117335.00 617.55
5504 37.0100 130240.00 119272.00 625.83
5505 37.0160 132718.00 121365.00 630.38
5506 37.0220 135974.00 123617.00 639.82
5507 37.0280 139312.00 126026.00 647.17
5508 37.0340 142782.00 128588.00 656.06
5509 37.0400 146376.00 131298.00 666.75
5510 37.0460 150417.00 134143.00 672.96
5511 37.0520 154285.00 137107.00 682.97
5512 37.0580 158309.00 140169.00 691.95
5513 37.0640 162554.00 143300.00 698.32
5514 37.0700 166821.00 146466.00 708.02
5515 37.0760 171134.00 149624.00 715.81
5516 37.0820 174586.00 152734.00 724.84
5517 37.0880 178360.00 155751.00 731.78
5518 37.0940 181943.00 158633.00 738.48
5519 37.1000 185396.00 161351.00 746.88
5520 37.1060 189292.00 163887.00 755.30
5521 37.1120 192528.00 166246.00 761.04
5522 37.1180 195047.00 168444.00 765.27
5523 37.1240 198162.00 170531.00 771.74
5524 37.1300 199930.00 172558.00 774.78
5525 37.1360 202496.00 174591.00 780.13
5526 37.1420 204962.00 176697.00 785.86
5527 37.1480 207507.00 178937.00 790.20
5528 37.1540 209501.00 181358.00 795.75
5529 37.1600 212600.00 183980.00 798.75
5530 37.1660 214270.00 186805.00 802.84
5531 37.1720 217212.00 189788.00 808.86
5532 37.1780 220006.00 192847.00 813.80
5533 37.1840 221742.00 195852.00 816.89
5534 37.1900 222650.00 198627.00 818.65
5535 37.1960 223573.00 200957.00 819.62
5536 37.2020 224605.00 202606.00 822.37
5537 37.2080 223568.00 203347.00 819.83
5538 37.2140 221745.00 202993.00 815.05
5539 37.2200 218554.00 201436.00 810.25
5540 37.2260 214512.00 198663.00 802.21
5541 37.2320 209538.00 194764.00 792.52
5542 37.2380 203368.00 189912.00 782.63
5543 37.2440 196179.00 184331.00 767.23
5544 37.2500 189890.00 178267.00 756.07
5545 37.2560 181769.00 171940.00 741.33
5546 37.2620 173332.00 165552.00 721.71
5547 37.2680 166397.00 159258.00 708.04
5548 37.2740 159006.00 153180.00 691.45
5549 37.2800 152743.00 147395.00 678.11
5550 37.2860 146743.00 141955.00 666.24
5551 37.2920 140304.00 136890.00 649.37
5552 37.2980 134621.00 132205.00 636.35
5553 37.3040 129742.00 127901.00 624.99
5554 37.3100 125625.00 123968.00 613.82
5555 37.3160 121642.00 120388.00 604.31
5556 37.3220 117966.00 117143.00 594.60
5557 37.3280 114458.00 114208.00 587.15
5558 37.3340 111141.00 111561.00 578.36
5559 37.3400 108305.00 109178.00 570.97
5560 37.3460 105917.00 107032.00 563.57
5561 37.3520 103942.00 105102.00 558.28
5562 37.3580 101794.00 103365.00 552.76
5563 37.3640 99781.00 101801.00 547.79
5564 37.3700 98087.50 100391.00 542.65
5565 37.3760 96649.80 99116.00 538.55
5566 37.3820 95415.50 97962.10 535.59
5567 37.3880 93929.80 96913.50 531.64
5568 37.3940 92671.80 95958.40 528.63
5569 37.4000 91866.30 95086.10 526.17
5570 37.4060 90469.10 94286.30 521.83
5571 37.4120 89646.70 93551.70 519.58
5572 37.4180 88947.20 92874.70 517.50
5573 37.4240 88005.90 92249.50 515.03
5574 37.4300 87396.10 91670.00 513.53
5575 37.4360 86748.50 91131.80 510.70
5576 37.4420 86215.20 90631.20 510.48
5577 37.4480 85561.90 90164.60 508.28
5578 37.4540 85036.50 89729.10 505.22
5579 37.4600 84417.70 89322.00 503.38
5580 37.4660 83994.10 88940.80 501.65
5581 37.4720 83414.30 88584.00 501.28
5582 37.4780 83212.70 88249.00 500.21
5583 37.4840 82906.60 87934.50 500.13
5584 37.4900 82481.20 87638.90 497.34
5585 37.4960 82039.00 87360.90 496.90
5586 37.5020 81970.70 87099.50 496.92
5587 37.5080 81802.40 86853.00 497.59
5588 37.5140 81570.20 86615.40 494.96
5589 37.5200 81130.50 86396.30 495.15
5590 37.5260 80771.10 86189.60 493.73
5591 37.5320 80439.30 85994.20 493.42
5592 37.5380 80374.10 85809.60 493.59
5593 37.5440 80026.30 85634.70 491.70
5594 37.5500 80021.00 85469.10 489.71
5595 37.5560 80214.00 85312.20 491.76
5596 37.5620 80022.80 85163.40 491.77
5597 37.5680 80027.50 85022.00 489.83
5598 37.5740 80054.80 84887.60 490.54
5599 37.5800 79979.30 84759.50 490.60
5600 37.5860 79777.80 84637.60 489.97
5601 37.5920 79997.80 84521.40 489.83
5602 37.5980 79548.50 84410.40 489.35
5603 37.6040 79758.30 84304.50 488.67
5604 37.6100 79763.20 84203.20 489.52
5605 37.6160 79528.80 84106.10 488.95
5606 37.6220 79520.80 84013.20 488.52
5607 37.6280 79561.20 83924.20 487.37
5608 37.6340 79305.10 83838.90 488.34
5609 37.6400 79378.50 83756.90 488.40
5610 37.6460 79371.00 83678.50 487.93
5611 37.6520 79251.80 83602.90 488.58
5612 37.6580 79498.30 83530.70 488.02
5613 37.6640 79442.40 83461.60 488.35
5614 37.6700 79508.60 83395.40 488.34
5615 37.6760 79568.20 83332.20 488.58
5616 37.6820 79311.40 83271.90 485.86
5617 37.6880 79275.60 83214.50 488.33
5618 37.6940 79382.70 83159.90 488.16
5619 37.7000 79369.30 83108.10 488.52
5620 37.7060 79211.60 83059.40 488.11
5621 37.7120 79768.40 83013.50 489.45
5622 37.7180 79557.30 82970.50 489.36
5623 37.7240 79768.90 82930.50 488.36
5624 37.7300 79868.50 82893.60 489.88
5625 37.7360 79749.20 82859.70 490.86
5626 37.7420 79593.30 82828.90 489.00
5627 37.7480 79565.60 82801.30 489.65
5628 37.7540 79847.00 82776.90 489.62
5629 37.7600 79817.30 82755.60 488.09
5630 37.7660 80045.10 82737.60 490.52
5631 37.7720 79968.00 82722.80 490.14
5632 37.7780 80174.00 82711.10 490.98
5633 37.7840 80275.40 82702.90 490.89
5634 37.7900 80216.20 82697.80 491.44
5635 37.7960 80504.30 82696.00 490.96
5636 37.8020 80492.20 82697.40 490.77
5637 37.8080 80577.60 82702.00 492.09
5638 37.8140 80658.50 82709.80 490.67
5639 37.8200 80579.10 82720.50 491.25
5640 37.8260 80858.10 82734.30 493.29
5641 37.8320 80762.50 82751.00 492.47
5642 37.8380 81109.90 82770.40 493.12
5643 37.8440 81094.20 82792.60 492.29
5644 37.8500 81103.10 82817.00 492.91
5645 37.8560 81114.20 82844.00 492.62
5646 37.8620 81383.40 82872.80 494.79
5647 37.8680 81395.10 82903.40 493.26
5648 37.8740 81585.40 82935.70 494.07
5649 37.8800 81683.80 82969.10 494.43
5650 37.8860 81584.80 83003.30 494.13
5651 37.8920 81516.70 83037.90 495.32
5652 37.8980 81672.50 83072.80 494.83
5653 37.9040 82053.70 83107.00 496.04
5654 37.9100 82020.80 83140.50 496.20
5655 37.9160 82065.50 83172.90 495.43
5656 37.9220 82117.40 83197.90 495.93
5657 37.9280 82055.10 83226.80 495.98
5658 37.9340 82059.50 83253.50 496.15
5659 37.9400 82357.20 83278.00 497.69
5660 37.9460 82093.70 83300.00 497.04
5661 37.9520 82498.90 83319.70 496.86
5662 37.9580 82001.50 83337.10 496.49
5663 37.9640 82130.30 83352.60 497.19
5664 37.9700 82432.90 83366.40 497.16
5665 37.9760 82272.00 83378.70 497.06
5666 37.9820 82164.30 83390.20 497.55
5667 37.9880 82345.80 83401.20 497.47
5668 37.9940 82365.90 83412.20 497.36
5669 38.0000 82241.50 83423.70 497.33
5670 38.0060 82240.20 83439.60 497.28
5671 38.0120 82550.50 83453.30 497.65
5672 38.0180 82409.20 83468.70 497.98
5673 38.0240 82495.10 83486.20 497.13
5674 38.0300 82257.30 83506.20 496.95
5675 38.0360 82380.60 83529.10 498.11
5676 38.0420 82185.80 83555.30 496.60
5677 38.0480 82429.70 83585.10 497.33
5678 38.0540 82419.10 83619.00 497.79
5679 38.0600 82485.80 83657.00 497.04
5680 38.0660 82725.20 83699.80 498.37
5681 38.0720 82862.00 83747.60 497.94
5682 38.0780 82927.70 83800.60 498.66
5683 38.0840 83122.10 83859.30 498.39
5684 38.0900 83000.80 83923.90 498.51
5685 38.0960 82862.50 83995.00 498.97
5686 38.1020 82649.50 84072.80 498.99
5687 38.1080 82799.70 84157.50 497.65
5688 38.1140 83091.40 84249.60 498.58
5689 38.1200 83361.00 84349.70 500.15
5690 38.1260 83175.60 84457.70 498.56
5691 38.1320 83080.60 84574.10 500.69
5692 38.1380 83053.90 84699.40 498.19
5693 38.1440 83204.10 84833.90 500.72
5694 38.1500 83465.50 84977.80 500.10
5695 38.1560 83587.60 85131.80 500.54
5696 38.1620 83767.00 85295.80 501.60
5697 38.1680 83749.00 85470.40 501.77
5698 38.1740 83931.50 85655.80 501.72
5699 38.1800 84206.70 85852.60 501.99
5700 38.1860 84342.30 86060.80 502.70
5701 38.1920 84262.60 86280.70 502.74
5702 38.1980 84438.20 86512.70 502.54
5703 38.2040 84709.40 86756.80 503.38
5704 38.2100 84742.10 87013.30 504.45
5705 38.2160 84977.60 87282.50 504.55
5706 38.2220 85344.50 87564.10 505.32
5707 38.2280 85553.50 87858.70 504.62
5708 38.2340 85731.90 88166.10 507.42
5709 38.2400 85856.30 88486.30 506.51
5710 38.2460 86212.90 88819.00 508.62
5711 38.2520 86403.40 89164.50 508.01
5712 38.2580 86676.50 89522.50 509.86
5713 38.2640 87069.30 89892.00 508.99
5714 38.2700 87074.80 90273.90 510.77
5715 38.2760 87496.40 90667.00 511.67
5716 38.2820 87507.50 91071.30 511.71
5717 38.2880 88002.90 91486.50 512.51
5718 38.2940 88306.90 91911.90 513.22
5719 38.3000 88583.40 92347.10 513.86
5720 38.3060 88757.90 92792.00 514.80
5721 38.3120 88904.80 93245.60 515.20
5722 38.3180 88753.80 93708.10 514.05
5723 38.3240 89430.60 94178.70 518.34
5724 38.3300 89401.10 94656.90 518.74
5725 38.3360 89394.30 95141.80 519.01
5726 38.3420 90071.20 95632.80 518.79
5727 38.3480 90628.50 96129.30 521.25
5728 38.3540 90881.30 96629.20 521.30
5729 38.3600 91126.80 97132.30 522.51
5730 38.3660 91829.20 97636.70 524.38
5731 38.3720 91613.70 98141.20 523.65
5732 38.3780 91986.10 98643.80 525.21
5733 38.3840 92306.50 99142.60 526.52
5734 38.3900 92580.30 99635.90 527.52
5735 38.3960 92686.10 100121.00 527.59
5736 38.4020 92952.80 100597.00 528.13
5737 38.4080 93569.60 101061.00 529.94
5738 38.4140 93805.40 101511.00 531.08
5739 38.4200 93996.50 101944.00 529.94
5740 38.4260 94372.00 102358.00 532.82
5741 38.4320 94532.30 102754.00 533.09
5742 38.4380 94864.50 103122.00 533.86
5743 38.4440 95439.60 103473.00 534.91
5744 38.4500 95629.60 103807.00 534.49
5745 38.4560 95809.00 104109.00 536.20
5746 38.4620 95925.10 104386.00 536.80
5747 38.4680 96328.60 104637.00 537.93
5748 38.4740 97056.70 104862.00 540.27
5749 38.4800 97337.40 105062.00 540.37
5750 38.4860 97687.40 105237.00 542.10
5751 38.4920 98180.00 105386.00 543.40
5752 38.4980 98551.50 105511.00 543.43
5753 38.5040 99000.90 105612.00 545.18
5754 38.5100 99422.70 105697.00 546.50
5755 38.5160 99741.30 105749.00 548.37
5756 38.5220 100188.00 105776.00 548.37
5757 38.5280 100731.00 105779.00 550.46
5758 38.5340 101310.00 105754.00 550.95
5759 38.5400 101605.00 105702.00 553.12
5760 38.5460 101805.00 105620.00 554.51
5761 38.5520 102582.00 105506.00 557.09
5762 38.5580 103260.00 105357.00 557.76
5763 38.5640 103244.00 105172.00 557.35
5764 38.5700 103999.00 104948.00 559.16
5765 38.5760 103780.00 104684.00 559.21
5766 38.5820 104662.00 104375.00 560.90
5767 38.5880 104587.00 104023.00 560.52
5768 38.5940 104830.00 103627.00 561.07
5769 38.6000 104917.00 103185.00 561.30
5770 38.6060 104962.00 102701.00 561.04
5771 38.6120 104531.00 102175.00 560.09
5772 38.6180 104408.00 101611.00 560.49
5773 38.6240 104039.00 101014.00 559.14
5774 38.6300 103731.00 100383.00 558.80
5775 38.6360 103094.00 99725.90 556.97
5776 38.6420 102543.00 99040.30 555.42
5777 38.6480 101739.00 98326.20 552.50
5778 38.6540 101110.00 97617.80 550.71
5779 38.6600 100092.00 96902.20 548.19
5780 38.6660 99484.80 96182.90 546.97
5781 38.6720 98471.60 95464.30 543.45
5782 38.6780 97499.90 94750.10 540.09
5783 38.6840 96547.90 94043.60 539.03
5784 38.6900 95731.90 93347.50 535.65
5785 38.6960 94688.90 92664.80 532.76
5786 38.7020 93619.80 91997.50 531.67
5787 38.7080 92902.80 91349.80 528.38
5788 38.7140 92110.00 90712.20 525.18
5789 38.7200 91463.00 90100.70 523.02
5790 38.7260 90686.70 89509.80 520.29
5791 38.7320 89617.50 88940.80 519.35
5792 38.7380 88842.70 88393.90 515.78
5793 38.7440 88016.60 87869.40 513.99
5794 38.7500 87892.30 87367.90 512.55
5795 38.7560 87276.40 86888.70 512.99
5796 38.7620 86766.80 86432.30 509.48
5797 38.7680 86212.60 85998.10 507.91
5798 38.7740 85655.60 85586.10 507.96
5799 38.7800 85209.60 85195.80 505.79
5800 38.7860 85012.30 84826.50 505.05
5801 38.7920 84718.50 84478.20 504.36
5802 38.7980 84130.00 84149.70 502.93
5803 38.8040 83996.10 83840.30 502.69
5804 38.8100 83571.80 83549.80 501.36
5805 38.8160 83320.80 83277.20 500.76
5806 38.8220 83256.40 83021.90 500.04
5807 38.8280 83110.70 82783.00 498.80
5808 38.8340 82571.70 82559.70 498.12
5809 38.8400 82546.70 82351.70 497.71
5810 38.8460 82180.30 82157.50 496.16
5811 38.8520 81891.80 81976.80 495.68
5812 38.8580 81856.20 81808.80 495.23
5813 38.8640 81545.20 81656.90 494.54
5814 38.8700 81747.00 81511.90 496.08
5815 38.8760 81182.90 81377.60 493.15
5816 38.8820 80966.10 81253.30 492.47
5817 38.8880 80757.00 81138.00 493.01
5818 38.8940 80822.90 81031.40 492.56
5819 38.9000 80618.10 80933.00 491.45
5820 38.9060 80369.00 80841.70 491.11
5821 38.9120 80335.60 80757.60 491.43
5822 38.9180 80355.70 80679.80 490.95
5823 38.9240 80300.50 80607.90 490.71
5824 38.9300 79996.10 80541.50 490.24
5825 38.9360 79993.80 80480.20 489.14
5826 38.9420 80023.70 80423.30 489.58
5827 38.9480 79955.50 80370.70 489.87
5828 38.9540 79711.00 80322.00 488.74
5829 38.9600 79931.60 80276.70 488.96
5830 38.9660 79840.40 80234.90 489.30
5831 38.9720 79569.40 80195.80 488.23
5832 38.9780 79504.90 80159.60 487.81
5833 38.9840 79214.70 80125.80 487.63
5834 38.9900 79192.70 80094.70 487.59
5835 38.9960 78929.90 80065.80 487.04
5836 39.0020 78892.00 80039.30 487.15
5837 39.0080 78951.70 80014.90 486.91
5838 39.0140 78683.70 79992.80 485.38
5839 39.0200 78668.50 79973.10 484.94
5840 39.0260 78596.80 79955.50 485.58
5841 39.0320 78544.50 79940.40 486.37
5842 39.0380 78479.40 79927.80 487.12
5843 39.0440 78275.50 79917.70 486.55
5844 39.0500 78360.60 79910.20 486.22
5845 39.0560 78328.00 79905.70 485.48
5846 39.0620 78010.30 79903.80 484.69
5847 39.0680 78383.30 79904.90 485.14
5848 39.0740 78296.60 79908.50 484.15
5849 39.0800 78162.30 79911.80 484.67
5850 39.0860 78247.20 79918.50 484.52
5851 39.0920 78242.90 79928.60 484.12
5852 39.0980 78304.30 79942.10 485.50
5853 39.1040 78299.90 79959.20 484.55
5854 39.1100 78207.90 79980.20 484.58
5855 39.1160 78336.80 80005.00 485.52
5856 39.1220 78560.00 80033.80 485.08
5857 39.1280 78414.60 80066.90 484.67
5858 39.1340 78474.60 80104.20 485.65
5859 39.1400 78623.00 80146.10 485.93
5860 39.1460 78531.00 80192.80 486.16
5861 39.1520 78853.90 80244.40 487.35
5862 39.1580 78817.50 80301.30 487.30
5863 39.1640 78710.30 80363.80 486.92
5864 39.1700 79039.90 80432.20 487.07
5865 39.1760 79206.30 80506.80 488.23
5866 39.1820 79278.00 80588.00 487.88
5867 39.1880 79371.80 80680.00 487.98
5868 39.1940 79436.00 80775.90 488.83
5869 39.2000 79601.30 80880.10 489.45
5870 39.2060 79729.30 80993.10 488.99
5871 39.2120 79851.90 81115.10 488.39
5872 39.2180 80202.70 81247.10 490.28
5873 39.2240 80445.30 81389.60 491.33
5874 39.2300 80580.10 81543.40 491.30
5875 39.2360 80969.10 81707.90 493.22
5876 39.2420 80791.40 81886.00 491.72
5877 39.2480 81394.70 82077.40 494.27
5878 39.2540 81536.00 82282.40 495.42
5879 39.2600 81613.50 82501.80 496.26
5880 39.2660 82161.60 82736.50 496.68
5881 39.2720 82184.00 82986.50 497.29
5882 39.2780 82932.90 83257.40 499.59
5883 39.2840 83093.90 83540.20 499.77
5884 39.2900 83297.80 83840.00 500.36
5885 39.2960 83900.50 84157.30 501.32
5886 39.3020 84278.10 84492.00 503.38
5887 39.3080 84840.10 84844.80 504.85
5888 39.3140 85248.40 85215.40 505.22
5889 39.3200 85885.90 85604.00 506.76
5890 39.3260 86200.80 86010.20 509.62
5891 39.3320 86852.30 86434.30 510.48
5892 39.3380 87506.20 86875.60 512.11
5893 39.3440 88242.20 87333.80 515.46
5894 39.3500 88606.90 87807.80 514.96
5895 39.3560 89149.70 88297.10 517.37
5896 39.3620 89928.00 88800.20 519.47
5897 39.3680 90639.30 89315.60 520.50
5898 39.3740 91250.60 89842.50 522.78
5899 39.3800 92008.60 90378.20 526.03
5900 39.3860 92994.70 90920.70 528.64
5901 39.3920 93337.70 91467.50 530.08
5902 39.3980 94023.50 92015.60 532.35
5903 39.4040 94827.40 92562.00 533.39
5904 39.4100 95771.00 93101.50 536.03
5905 39.4160 96576.90 93632.30 538.94
5906 39.4220 97285.60 94148.60 540.57
5907 39.4280 98276.60 94646.00 544.56
5908 39.4340 99081.80 95119.70 546.29
5909 39.4400 99924.40 95564.80 548.86
5910 39.4460 100714.00 95976.60 550.57
5911 39.4520 101560.00 96350.40 552.36
5912 39.4580 102273.00 96681.90 554.18
5913 39.4640 102639.00 96967.80 553.47
5914 39.4700 103326.00 97205.40 557.98
5915 39.4760 103849.00 97392.60 558.76
5916 39.4820 104422.00 97528.80 560.16
5917 39.4880 104648.00 97614.30 560.81
5918 39.4940 105111.00 97650.40 561.47
5919 39.5000 105132.00 97639.50 562.20
5920 39.5060 105296.00 97585.20 562.64
5921 39.5120 105214.00 97491.70 563.22
5922 39.5180 105372.00 97363.80 562.66
5923 39.5240 104846.00 97206.70 562.12
5924 39.5300 104162.00 97026.40 561.39
5925 39.5360 104020.00 96828.50 561.25
5926 39.5420 103560.00 96619.20 558.61
5927 39.5480 103399.00 96403.90 557.45
5928 39.5540 102980.00 96188.30 556.41
5929 39.5600 102904.00 95978.30 556.20
5930 39.5660 102484.00 95779.10 554.40
5931 39.5720 102129.00 95595.90 554.36
5932 39.5780 101925.00 95433.70 552.75
5933 39.5840 100857.00 95297.50 550.63
5934 39.5900 100737.00 95192.20 549.96
5935 39.5960 100153.00 95122.50 547.39
5936 39.6020 100025.00 95093.20 547.23
5937 39.6080 99952.60 95109.00 548.48
5938 39.6140 99725.60 95174.60 547.87
5939 39.6200 99645.80 95294.80 545.70
5940 39.6260 99704.00 95474.30 545.74
5941 39.6320 99533.10 95717.50 546.30
5942 39.6380 99769.20 96029.60 546.76
5943 39.6440 100073.00 96414.90 547.93
5944 39.6500 100168.00 96877.60 548.90
5945 39.6560 100892.00 97422.10 549.92
5946 39.6620 101254.00 98051.80 550.48
5947 39.6680 102018.00 98771.60 553.60
5948 39.6740 102789.00 99581.00 553.90
5949 39.6800 103530.00 100484.00 556.46
5950 39.6860 103941.00 101482.00 558.58
5951 39.6920 105450.00 102574.00 561.79
5952 39.6980 106285.00 103759.00 565.53
5953 39.7040 107512.00 105032.00 568.97
5954 39.7100 108617.00 106389.00 570.38
5955 39.7160 109960.00 107821.00 574.59
5956 39.7220 111297.00 109314.00 577.55
5957 39.7280 112574.00 110853.00 582.74
5958 39.7340 114391.00 112417.00 585.72
5959 39.7400 114645.00 113979.00 587.30
5960 39.7460 115830.00 115505.00 589.54
5961 39.7520 117100.00 116957.00 592.64
5962 39.7580 117938.00 118293.00 594.02
5963 39.7640 118900.00 119466.00 598.15
5964 39.7700 119328.00 120429.00 599.34
5965 39.7760 120495.00 121140.00 600.59
5966 39.7820 120342.00 121562.00 600.63
5967 39.7880 120019.00 121670.00 600.06
5968 39.7940 119891.00 121453.00 599.28
5969 39.8000 119102.00 120915.00 597.85
5970 39.8060 118835.00 120075.00 597.21
5971 39.8120 117953.00 118964.00 592.99
5972 39.8180 116456.00 117623.00 590.82
5973 39.8240 115292.00 116096.00 586.66
5974 39.8300 113826.00 114430.00 583.96
5975 39.8360 112349.00 112669.00 580.23
5976 39.8420 110489.00 110855.00 576.76
5977 39.8480 108871.00 109022.00 570.60
5978 39.8540 107155.00 107201.00 565.30
5979 39.8600 105319.00 105413.00 561.07
5980 39.8660 103811.00 103678.00 556.71
5981 39.8720 102255.00 102008.00 553.59
5982 39.8780 100720.00 100415.00 549.20
5983 39.8840 99161.80 98905.50 544.86
5984 39.8900 97732.50 97483.00 540.48
5985 39.8960 96605.40 96150.90 537.94
5986 39.9020 95558.40 94908.20 534.67
5987 39.9080 94311.60 93754.90 531.58
5988 39.9140 93222.00 92689.30 528.65
5989 39.9200 92620.90 91709.00 526.17
5990 39.9260 91650.90 90810.90 524.24
5991 39.9320 91096.60 89991.30 522.32
5992 39.9380 90360.50 89246.40 520.84
5993 39.9440 89831.30 88572.80 518.65
5994 39.9500 89294.80 87965.40 517.38
5995 39.9560 88650.70 87420.40 516.34
5996 39.9620 88279.50 86934.00 514.75
5997 39.9680 88202.20 86502.10 514.42
5998 39.9740 87860.50 86121.10 512.80
5999 39.9800 87536.60 85787.40 513.14
6000 39.9860 87455.80 85498.20 512.22
6001 39.9920 87255.00 85249.60 512.43
6002 39.9980 86714.10 85039.70 511.00
6003 40.0040 87168.90 84865.70 511.23
6004 40.0100 87047.00 84725.40 510.57
6005 40.0160 87089.90 84617.20 511.06
6006 40.0220 87281.50 84539.30 511.42
6007 40.0280 87249.40 84490.50 511.15
6008 40.0340 87151.70 84474.30 511.57
6009 40.0400 87271.40 84480.40 512.29
6010 40.0460 87318.40 84512.80 511.37
6011 40.0520 87493.00 84571.00 511.84
6012 40.0580 87996.50 84654.60 513.28
6013 40.0640 88082.90 84763.60 512.86
6014 40.0700 88637.60 84897.40 515.89
6015 40.0760 88841.60 85056.40 515.68
6016 40.0820 89352.00 85240.70 516.99
6017 40.0880 89448.50 85450.40 516.63
6018 40.0940 89752.50 85684.50 517.81
6019 40.1000 89780.90 85945.40 519.17
6020 40.1060 90388.60 86232.60 520.74
6021 40.1120 90951.70 86545.90 520.28
6022 40.1180 91669.70 86885.70 524.08
6023 40.1240 91899.30 87252.30 524.08
6024 40.1300 92114.20 87646.20 525.53
6025 40.1360 92645.70 88066.90 527.16
6026 40.1420 93204.10 88514.50 528.42
6027 40.1480 93872.90 88989.20 530.86
6028 40.1540 94404.30 89490.90 531.72
6029 40.1600 95144.90 90018.80 533.40
6030 40.1660 95705.80 90573.20 535.85
6031 40.1720 96295.20 91153.20 536.44
6032 40.1780 97053.70 91757.80 539.04
6033 40.1840 98000.90 92386.50 542.28
6034 40.1900 98539.90 93037.90 542.98
6035 40.1960 98939.60 93710.50 543.88
6036 40.2020 99965.50 94402.70 546.11
6037 40.2080 100616.00 95112.20 549.24
6038 40.2140 101739.00 95837.70 550.62
6039 40.2200 102578.00 96576.10 553.37
6040 40.2260 103496.00 97324.80 555.31
6041 40.2320 104204.00 98080.20 558.03
6042 40.2380 104859.00 98839.10 559.86
6043 40.2440 105897.00 99597.60 563.02
6044 40.2500 106645.00 100351.00 564.68
6045 40.2560 107848.00 101094.00 567.95
6046 40.2620 108801.00 101824.00 569.99
6047 40.2680 109665.00 102533.00 572.16
6048 40.2740 110307.00 103216.00 574.44
6049 40.2800 111255.00 103866.00 576.38
6050 40.2860 112068.00 104478.00 576.94
6051 40.2920 112956.00 105043.00 579.78
6052 40.2980 113566.00 105557.00 582.55
6053 40.3040 114248.00 106012.00 583.36
6054 40.3100 114684.00 106401.00 585.35
6055 40.3160 115075.00 106718.00 585.15
6056 40.3220 115538.00 106959.00 586.76
6057 40.3280 116084.00 107118.00 590.50
6058 40.3340 116361.00 107193.00 591.00
6059 40.3400 116697.00 107182.00 590.62
6060 40.3460 117369.00 107083.00 591.85
6061 40.3520 117176.00 106898.00 591.70
6062 40.3580 116922.00 106630.00 590.48
6063 40.3640 116964.00 106282.00 591.16
6064 40.3700 116731.00 105859.00 590.42
6065 40.3760 116264.00 105369.00 591.05
6066 40.3820 115809.00 104818.00 589.07
6067 40.3880 115337.00 104215.00 588.11
6068 40.3940 114551.00 103567.00 586.22
6069 40.4000 113597.00 102883.00 583.03
6070 40.4060 112842.00 102174.00 581.09
6071 40.4120 112358.00 101444.00 581.10
6072 40.4180 111370.00 100702.00 577.05
6073 40.4240 110347.00 99957.80 574.78
6074 40.4300 109525.00 99216.80 571.62
6075 40.4360 108199.00 98486.10 569.95
6076 40.4420 107173.00 97772.10 566.59
6077 40.4480 106252.00 97080.60 564.05
6078 40.4540 105008.00 96417.20 561.23
6079 40.4600 104003.00 95786.80 557.22
6080 40.4660 103031.00 95172.10 556.40
6081 40.4720 102782.00 94622.10 554.18
6082 40.4780 101660.00 94118.10 552.33
6083 40.4840 101222.00 93664.60 550.93
6084 40.4900 100324.00 93265.10 550.09
6085 40.4960 99820.40 92923.10 546.49
6086 40.5020 99394.00 92642.00 545.37
6087 40.5080 98891.90 92424.70 544.15
6088 40.5140 98507.60 92274.10 543.74
6089 40.5200 98404.90 92192.50 544.17
6090 40.5260 98156.40 92182.20 542.87
6091 40.5320 98193.00 92244.90 542.78
6092 40.5380 98268.00 92382.30 542.41
6093 40.5440 98143.40 92594.90 542.70
6094 40.5500 98243.40 92883.40 543.97
6095 40.5560 98927.10 93246.90 545.39
6096 40.5620 99431.70 93684.00 547.26
6097 40.5680 99700.50 94192.70 547.50
6098 40.5740 100118.00 94768.90 547.81
6099 40.5800 100480.00 95406.90 549.04
6100 40.5860 101362.00 96099.30 550.43
6101 40.5920 101392.00 96836.00 550.77
6102 40.5980 102088.00 97604.50 553.49
6103 40.6040 102850.00 98388.70 555.61
6104 40.6100 103329.00 99170.80 555.64
6105 40.6160 103659.00 99929.20 557.45
6106 40.6220 103805.00 100641.00 558.43
6107 40.6280 104508.00 101282.00 560.02
6108 40.6340 105050.00 101830.00 560.98
6109 40.6400 104895.00 102264.00 561.96
6110 40.6460 104966.00 102569.00 560.98
6111 40.6520 104983.00 102739.00 560.29
6112 40.6580 105028.00 102770.00 560.74
6113 40.6640 104952.00 102671.00 560.05
6114 40.6700 104705.00 102455.00 559.46
6115 40.6760 104064.00 102140.00 558.29
6116 40.6820 103309.00 101748.00 556.94
6117 40.6880 103193.00 101300.00 555.76
6118 40.6940 102600.00 100816.00 554.17
6119 40.7000 102037.00 100282.00 552.83
6120 40.7060 101375.00 99769.90 551.32
6121 40.7120 101050.00 99255.50 549.87
6122 40.7180 100015.00 98738.60 547.06
6123 40.7240 99464.80 98213.60 544.75
6124 40.7300 98261.40 97670.90 541.91
6125 40.7360 97461.40 97098.50 539.94
6126 40.7420 96708.80 96483.40 538.11
6127 40.7480 95924.30 95815.60 533.88
6128 40.7540 94796.90 95089.50 533.91
6129 40.7600 93736.60 94305.40 530.15
6130 40.7660 92726.60 93470.70 526.26
6131 40.7720 91697.70 92595.00 523.36
6132 40.7780 90652.50 91694.70 521.30
6133 40.7840 89797.70 90785.00 518.04
6134 40.7900 88728.20 89882.30 516.08
6135 40.7960 87522.70 89000.30 512.63
6136 40.8020 86826.60 88149.90 510.41
6137 40.8080 86097.40 87339.30 507.78
6138 40.8140 85303.20 86574.20 505.72
6139 40.8200 84556.30 85857.30 503.22
6140 40.8260 83996.10 85190.40 501.11
6141 40.8320 82944.10 84572.40 498.50
6142 40.8380 82471.90 84002.40 496.71
6143 40.8440 81677.90 83477.80 494.61
6144 40.8500 81116.20 82997.00 492.56
6145 40.8560 80990.90 82556.10 491.45
6146 40.8620 80471.00 82152.10 490.78
6147 40.8680 79987.20 81782.30 489.89
6148 40.8740 79434.70 81442.90 488.02
6149 40.8800 79202.90 81131.10 486.24
6150 40.8860 78846.00 80844.20 485.66
6151 40.8920 78563.80 80579.10 485.45
6152 40.8980 78383.80 80333.80 483.32
6153 40.9040 77772.90 80105.40 483.31
6154 40.9100 77718.80 79897.30 482.98
6155 40.9160 77449.70 79697.70 481.83
6156 40.9220 77471.60 79510.00 480.73
6157 40.9280 77111.50 79332.90 479.60
6158 40.9340 77095.20 79165.10 480.13
6159 40.9400 76904.10 79005.90 480.10
6160 40.9460 76764.40 78854.30 479.18
6161 40.9520 76253.50 78709.80 477.30
6162 40.9580 76545.20 78571.90 478.60
6163 40.9640 76356.10 78440.10 477.61
6164 40.9700 76384.80 78314.20 477.15
6165 40.9760 75935.10 78193.80 476.13
6166 40.9820 75727.70 78078.70 476.34
6167 40.9880 75608.80 77965.70 476.58
6168 40.9940 75379.40 77860.90 474.90
6169 41.0000 75018.70 77761.20 474.14
6170 41.0060 75121.10 77666.30 474.41
6171 41.0120 75228.00 77576.00 473.35
6172 41.0180 75136.50 77490.50 474.48
6173 41.0240 75008.50 77409.80 473.11
6174 41.0300 74801.80 77333.40 474.04
6175 41.0360 74900.20 77261.30 474.60
6176 41.0420 74693.60 77193.70 474.96
6177 41.0480 74651.80 77130.30 474.52
6178 41.0540 74815.90 77071.20 473.68
6179 41.0600 74659.40 77016.10 473.94
6180 41.0660 74749.40 76965.00 473.12
6181 41.0720 74673.60 76917.90 472.18
6182 41.0780 74845.20 76874.60 473.65
6183 41.0840 74889.90 76835.10 473.46
6184 41.0900 74639.90 76799.50 472.36
6185 41.0960 74661.60 76767.70 473.33
6186 41.1020 74562.80 76739.60 472.18
6187 41.1080 74738.20 76715.10 472.84
6188 41.1140 74834.00 76694.40 472.88
6189 41.1200 74799.70 76677.40 473.95
6190 41.1260 74776.60 76664.30 472.73
6191 41.1320 74849.60 76654.90 473.90
6192 41.1380 74880.60 76667.40 473.53
6193 41.1440 74944.30 76687.40 474.13
6194 41.1500 74956.30 76711.60 474.54
6195 41.1560 74959.90 76739.80 474.48
6196 41.1620 74973.10 76772.50 474.95
6197 41.1680 75281.60 76809.60 474.97
6198 41.1740 75256.00 76851.50 475.25
6199 41.1800 75456.40 76898.30 475.36
6200 41.1860 75620.00 76950.30 475.08
6201 41.1920 75597.80 77007.60 476.47
6202 41.1980 75677.60 77070.40 475.99
6203 41.2040 75979.50 77139.00 477.58
6204 41.2100 75964.30 77213.80 475.51
6205 41.2160 76353.10 77295.10 477.92
6206 41.2220 76462.60 77383.40 477.67
6207 41.2280 76713.20 77479.30 478.52
6208 41.2340 76844.20 77583.00 479.83
6209 41.2400 77420.20 77695.20 480.83
6210 41.2460 77438.00 77816.80 480.97
6211 41.2520 77948.00 77948.10 483.25
6212 41.2580 77759.30 78090.30 484.35
6213 41.2640 78362.40 78244.10 483.28
6214 41.2700 78451.30 78410.80 484.77
6215 41.2760 79102.70 78591.60 487.00
6216 41.2820 79074.90 78787.40 487.33
6217 41.2880 79719.90 79000.20 488.50
6218 41.2940 80004.40 79231.20 489.66
6219 41.3000 80207.30 79482.30 489.73
6220 41.3060 80796.60 79755.50 491.84
6221 41.3120 81341.40 80052.20 492.48
6222 41.3180 82038.60 80375.40 495.26
6223 41.3240 82446.40 80727.20 495.96
6224 41.3300 82557.20 81113.70 497.77
6225 41.3360 83336.50 81529.60 499.35
6226 41.3420 83941.80 81981.20 501.95
6227 41.3480 84272.20 82471.10 501.47
6228 41.3540 85228.10 83001.50 504.53
6229 41.3600 85750.30 83575.40 506.97
6230 41.3660 86543.80 84194.90 508.19
6231 41.3720 86908.80 84862.00 509.95
6232 41.3780 87824.40 85578.50 512.53
6233 41.3840 88394.70 86345.80 514.04
6234 41.3900 89030.10 87164.50 516.65
6235 41.3960 89534.20 88034.80 519.03
6236 41.4020 90474.80 88956.60 520.47
6237 41.4080 91120.10 89927.90 522.46
6238 41.4140 91810.50 90946.40 525.15
6239 41.4200 92520.30 92005.80 525.82
6240 41.4260 93553.90 93099.90 528.85
6241 41.4320 94382.40 94219.40 532.88
6242 41.4380 95084.20 95353.20 533.46
6243 41.4440 95977.70 96468.50 536.60
6244 41.4500 96222.10 97577.10 537.29
6245 41.4560 96763.60 98641.40 538.62
6246 41.4620 97207.40 99635.50 538.52
6247 41.4680 97992.50 100532.00 541.67
6248 41.4740 98009.20 101301.00 543.17
6249 41.4800 98419.20 101915.00 543.04
6250 41.4860 98562.70 102351.00 544.42
6251 41.4920 98717.10 102591.00 543.41
6252 41.4980 98628.80 102624.00 542.75
6253 41.5040 98831.60 102450.00 544.44
6254 41.5100 98319.30 102077.00 544.68
6255 41.5160 97847.00 101522.00 541.83
6256 41.5220 97285.20 100807.00 540.74
6257 41.5280 96333.60 99959.70 539.31
6258 41.5340 95675.90 99008.40 537.18
6259 41.5400 95040.10 97981.70 534.90
6260 41.5460 94317.70 96906.00 533.04
6261 41.5520 93656.50 95804.30 530.25
6262 41.5580 93303.10 94697.70 528.46
6263 41.5640 92343.70 93602.30 526.34
6264 41.5700 91744.40 92531.20 524.42
6265 41.5760 90908.20 91495.20 521.88
6266 41.5820 90061.00 90500.70 519.81
6267 41.5880 89310.40 89553.70 518.39
6268 41.5940 88398.90 88657.90 514.12
6269 41.6000 87864.80 87815.60 513.79
6270 41.6060 87205.50 87028.10 509.64
6271 41.6120 86332.50 86295.50 508.66
6272 41.6180 86259.70 85617.70 508.00
6273 41.6240 85263.30 84992.90 505.93
6274 41.6300 84918.40 84420.00 502.82
6275 41.6360 84307.10 83897.10 502.69
6276 41.6420 83818.70 83422.10 501.22
6277 41.6480 83161.20 82992.70 498.73
6278 41.6540 83312.60 82606.40 499.01
6279 41.6600 82835.20 82260.70 498.20
6280 41.6660 82656.20 81952.60 497.96
6281 41.6720 82438.60 81679.70 495.86
6282 41.6780 82285.00 81436.70 496.09
6283 41.6840 81939.90 81226.40 493.92
6284 41.6900 81609.40 81026.90 494.04
6285 41.6960 81692.80 80868.50 494.10
6286 41.7020 81755.10 80732.70 496.31
6287 41.7080 81516.80 80616.80 493.57
6288 41.7140 81523.90 80518.40 494.08
6289 41.7200 81638.90 80435.50 494.30
6290 41.7260 81609.10 80365.90 494.83
6291 41.7320 81724.80 80308.00 493.51
6292 41.7380 81109.30 80260.10 494.39
6293 41.7440 81098.10 80220.90 493.28
6294 41.7500 81212.50 80189.20 492.66
6295 41.7560 80990.20 80164.30 493.06
6296 41.7620 80821.60 80145.80 491.26
6297 41.7680 81069.70 80133.80 492.25
6298 41.7740 80815.90 80128.30 492.68
6299 41.7800 80988.40 80129.90 492.61
6300 41.7860 80841.90 80139.20 491.66
6301 41.7920 80540.80 80157.10 491.23
6302 41.7980 80547.40 80184.40 490.66
6303 41.8040 80826.30 80221.90 490.63
6304 41.8100 80724.90 80270.80 490.91
6305 41.8160 80781.30 80331.60 491.23
6306 41.8220 80709.80 80405.20 491.11
6307 41.8280 80521.80 80492.40 490.61
6308 41.8340 80609.10 80593.50 490.78
6309 41.8400 80765.60 80709.10 492.16
6310 41.8460 80850.10 80839.60 490.69
6311 41.8520 80772.70 80985.10 490.78
6312 41.8580 81001.00 81146.00 492.28
6313 41.8640 81339.50 81322.10 492.32
6314 41.8700 81244.80 81513.50 491.88
6315 41.8760 81517.90 81720.00 492.86
6316 41.8820 82103.60 81941.20 493.64
6317 41.8880 81818.50 82177.00 495.57
6318 41.8940 82226.30 82426.80 495.95
6319 41.9000 82502.80 82689.60 496.11
6320 41.9060 82734.00 82965.00 496.86
6321 41.9120 83257.90 83252.00 498.49
6322 41.9180 83731.70 83549.40 499.55
6323 41.9240 83939.90 83855.70 499.98
6324 41.9300 84501.70 84170.00 503.49
6325 41.9360 84836.10 84490.40 503.73
6326 41.9420 85141.00 84814.80 504.48
6327 41.9480 85429.10 85141.10 505.70
6328 41.9540 86264.00 85466.90 507.17
6329 41.9600 86316.90 85789.80 508.24
6330 41.9660 87085.70 86106.50 510.98
6331 41.9720 87299.20 86414.20 510.66
6332 41.9780 87828.40 86709.80 512.07
6333 41.9840 88293.50 86989.70 514.23
6334 41.9900 88322.90 87250.20 513.95
6335 41.9960 89006.30 87488.00 515.29
6336 42.0020 89078.00 87699.80 517.31
6337 42.0080 89570.90 87882.50 517.68
6338 42.0140 89970.30 88033.30 518.45
6339 42.0200 90129.60 88149.90 518.01
6340 42.0260 90315.90 88230.60 519.67
6341 42.0320 90535.00 88274.10 520.21
6342 42.0380 90615.20 88280.20 520.35
6343 42.0440 90393.20 88249.10 521.01
6344 42.0500 90530.20 88181.50 519.68
6345 42.0560 90669.70 88080.40 520.05
6346 42.0620 90377.60 87945.90 518.77
6347 42.0680 90636.70 87781.80 519.28
6348 42.0740 90342.00 87588.40 518.89
6349 42.0800 90222.30 87374.10 519.54
6350 42.0860 89940.80 87139.80 517.51
6351 42.0920 89448.20 86888.80 516.59
6352 42.0980 88682.50 86624.70 514.49
6353 42.1040 88335.90 86351.80 514.77
6354 42.1100 88243.30 86071.10 513.55
6355 42.1160 87825.30 85786.40 512.11
6356 42.1220 87486.00 85500.50 512.06
6357 42.1280 86869.40 85215.50 509.45
6358 42.1340 86288.20 84934.10 508.50
6359 42.1400 85988.90 84658.00 507.32
6360 42.1460 85452.90 84389.20 506.49
6361 42.1520 85408.00 84128.80 505.38
6362 42.1580 84966.00 83878.50 504.66
6363 42.1640 84721.60 83639.60 504.06
6364 42.1700 84083.00 83413.00 502.20
6365 42.1760 83981.50 83200.10 500.45
6366 42.1820 83650.50 83001.60 500.15
6367 42.1880 83281.70 82818.80 498.75
6368 42.1940 82982.20 82652.10 498.46
6369 42.2000 83057.80 82502.40 498.24
6370 42.2060 82863.90 82371.00 498.23
6371 42.2120 82537.20 82258.50 495.85
6372 42.2180 82499.10 82166.00 496.81
6373 42.2240 82264.00 82094.60 494.56
6374 42.2300 82095.40 82045.40 495.22
6375 42.2360 82304.40 82019.70 496.88
6376 42.2420 82077.90 82018.80 496.39
6377 42.2480 82216.60 82044.50 495.07
6378 42.2540 82296.60 82098.60 495.12
6379 42.2600 82753.70 82182.90 497.79
6380 42.2660 82634.40 82299.70 496.13
6381 42.2720 83227.00 82451.00 499.87
6382 42.2780 83487.00 82639.30 498.80
6383 42.2840 83948.80 82867.60 500.29
6384 42.2900 84006.40 83138.30 499.77
6385 42.2960 84591.40 83454.50 502.51
6386 42.3020 85009.00 83818.90 501.72
6387 42.3080 85678.50 84234.40 505.78
6388 42.3140 86074.70 84703.70 506.64
6389 42.3200 86591.70 85229.40 508.05
6390 42.3260 87500.10 85813.40 511.56
6391 42.3320 88200.40 86458.10 514.24
6392 42.3380 89068.40 87164.00 516.97
6393 42.3440 90283.50 87931.10 519.51
6394 42.3500 91172.10 88757.80 523.18
6395 42.3560 92250.00 89640.40 524.87
6396 42.3620 93499.60 90573.30 528.37
6397 42.3680 94817.30 91545.90 531.29
6398 42.3740 95810.10 92546.60 535.97
6399 42.3800 96786.90 93556.20 538.91
6400 42.3860 97692.20 94551.10 541.88
6401 42.3920 98500.60 95502.20 543.98
6402 42.3980 99462.10 96375.80 545.11
6403 42.4040 99931.10 97135.00 545.96
6404 42.4100 100399.00 97741.40 549.42
6405 42.4160 100815.00 98163.40 548.75
6406 42.4220 100544.00 98374.20 548.97
6407 42.4280 100383.00 98359.10 549.57
6408 42.4340 99854.40 98117.60 546.87
6409 42.4400 98987.20 97662.40 543.71
6410 42.4460 97926.20 97018.20 541.04
6411 42.4520 96709.40 96217.90 538.21
6412 42.4580 95522.20 95298.90 534.92
6413 42.4640 94012.60 94297.30 531.70
6414 42.4700 92879.00 93247.90 527.88
6415 42.4760 91840.10 92177.70 524.17
6416 42.4820 90225.30 91116.10 519.17
6417 42.4880 88878.80 90079.50 517.14
6418 42.4940 87526.00 89081.30 511.96
6419 42.5000 86408.10 88131.80 509.93
6420 42.5060 85288.40 87236.10 505.15
6421 42.5120 84341.60 86398.20 503.38
6422 42.5180 83147.60 85619.80 499.51
6423 42.5240 82286.10 84900.40 496.54
6424 42.5300 81608.60 84239.00 494.54
6425 42.5360 80768.20 83633.90 492.45
6426 42.5420 79937.70 83082.50 490.78
6427 42.5480 79407.40 82581.50 488.53
6428 42.5540 79209.20 82128.20 487.73
6429 42.5600 78356.40 81718.70 485.01
6430 42.5660 78167.80 81350.80 484.64
6431 42.5720 77883.80 81020.60 483.75
6432 42.5780 77175.80 80725.00 482.19
6433 42.5840 77293.90 80461.00 480.73
6434 42.5900 76898.40 80225.90 479.46
6435 42.5960 76605.90 80016.80 478.25
6436 42.6020 76330.20 79831.20 478.51
6437 42.6080 76181.40 79667.00 477.74
6438 42.6140 76057.90 79522.10 478.48
6439 42.6200 75851.20 79391.70 477.14
6440 42.6260 76055.30 79279.90 477.38
6441 42.6320 75707.10 79182.40 476.53
6442 42.6380 75521.90 79097.80 475.53
6443 42.6440 75445.50 79024.90 475.66
6444 42.6500 75574.90 78962.90 476.81
6445 42.6560 75422.20 78910.70 475.67
6446 42.6620 75812.60 78868.00 475.59
6447 42.6680 75534.10 78833.60 475.39
6448 42.6740 75320.10 78807.60 474.25
6449 42.6800 75285.10 78788.90 474.45
6450 42.6860 75357.60 78777.60 475.17
6451 42.6920 75439.20 78773.10 476.12
6452 42.6980 75439.20 78775.40 475.70
6453 42.7040 75429.00 78784.10 474.87
6454 42.7100 75582.70 78799.10 475.18
6455 42.7160 75502.10 78820.30 475.67
6456 42.7220 75411.50 78847.70 474.24
6457 42.7280 75617.50 78881.10 475.61
6458 42.7340 75527.80 78920.50 476.04
6459 42.7400 75821.60 78966.00 475.96
6460 42.7460 75429.00 79017.90 474.48
6461 42.7520 75925.30 79075.70 475.59
6462 42.7580 75988.30 79139.90 478.04
6463 42.7640 75977.00 79210.40 477.28
6464 42.7700 75846.20 79287.80 476.57
6465 42.7760 76142.60 79371.90 477.05
6466 42.7820 76399.10 79463.10 477.80
6467 42.7880 76279.00 79558.10 477.60
6468 42.7940 76591.10 79644.00 479.22
6469 42.8000 76605.50 79737.60 479.77
6470 42.8060 76698.50 79839.70 479.10
6471 42.8120 77100.20 79950.10 481.74
6472 42.8180 77253.60 80069.60 480.02
6473 42.8240 77469.70 80198.50 480.96
6474 42.8300 77744.50 80337.50 482.06
6475 42.8360 77816.00 80486.80 482.65
6476 42.8420 77790.60 80647.30 482.96
6477 42.8480 78135.40 80819.40 483.46
6478 42.8540 78712.40 81003.80 484.38
6479 42.8600 78997.90 81201.40 485.55
6480 42.8660 79212.90 81412.80 486.88
6481 42.8720 79547.70 81639.00 487.83
6482 42.8780 79423.60 81881.10 488.39
6483 42.8840 80068.30 82139.90 489.52
6484 42.8900 80391.50 82422.70 490.61
6485 42.8960 81065.00 82718.40 491.24
6486 42.9020 80944.80 83034.40 492.61
6487 42.9080 81693.30 83372.40 493.81
6488 42.9140 81912.10 83733.70 495.49
6489 42.9200 82811.20 84120.10 498.07
6490 42.9260 83083.90 84533.40 498.73
6491 42.9320 84102.80 84975.60 500.44
6492 42.9380 84320.60 85448.50 500.85
6493 42.9440 84860.20 85954.50 504.30
6494 42.9500 85436.90 86496.20 505.57
6495 42.9560 86181.90 87085.60 507.77
6496 42.9620 87014.10 87706.00 509.39
6497 42.9680 87832.10 88370.00 511.37
6498 42.9740 88245.60 89080.10 513.24
6499 42.9800 88859.20 89840.00 514.45
6500 42.9860 89824.60 90650.50 518.90
6501 42.9920 90674.10 91517.70 522.52
6502 42.9980 91578.90 92442.40 523.12
6503 43.0040 92540.30 93428.20 525.59
6504 43.0100 94083.20 94477.50 529.35
6505 43.0160 94927.50 95593.30 531.51
6506 43.0220 96028.10 96777.50 535.92
6507 43.0280 97076.90 98031.60 538.91
6508 43.0340 98703.10 99358.30 544.65
6509 43.0400 99908.70 100758.00 549.72
6510 43.0460 102020.00 102231.00 552.77
6511 43.0520 102847.00 103775.00 556.27
6512 43.0580 104604.00 105390.00 561.26
6513 43.0640 106261.00 107072.00 564.56
6514 43.0700 108375.00 108814.00 568.97
6515 43.0760 110066.00 110609.00 573.96
6516 43.0820 112223.00 112448.00 578.79
6517 43.0880 113647.00 114316.00 583.16
6518 43.0940 114998.00 116195.00 585.60
6519 43.1000 116517.00 118065.00 590.64
6520 43.1060 118548.00 119900.00 596.08
6521 43.1120 120102.00 121671.00 599.46
6522 43.1180 121327.00 123348.00 602.97
6523 43.1240 122990.00 124898.00 606.03
6524 43.1300 123285.00 126288.00 607.49
6525 43.1360 124359.00 127495.00 609.81
6526 43.1420 124535.00 128497.00 611.09
6527 43.1480 125079.00 129278.00 613.40
6528 43.1540 124929.00 129835.00 612.74
6529 43.1600 125294.00 130172.00 611.70
6530 43.1660 124139.00 130305.00 610.08
6531 43.1720 123902.00 130251.00 609.96
6532 43.1780 123199.00 130036.00 608.04
6533 43.1840 122364.00 129683.00 604.61
6534 43.1900 120755.00 129216.00 601.86
6535 43.1960 119922.00 128653.00 598.37
6536 43.2020 118618.00 128008.00 595.80
6537 43.2080 117186.00 127290.00 591.68
6538 43.2140 115924.00 126499.00 587.15
6539 43.2200 114629.00 125633.00 585.73
6540 43.2260 113250.00 124687.00 581.06
6541 43.2320 111909.00 123654.00 577.34
6542 43.2380 110564.00 122526.00 574.92
6543 43.2440 108963.00 121303.00 569.65
6544 43.2500 108000.00 119988.00 568.36
6545 43.2560 106352.00 118588.00 565.34
6546 43.2620 104552.00 117119.00 559.87
6547 43.2680 103344.00 115597.00 556.57
6548 43.2740 102003.00 114041.00 551.75
6549 43.2800 100396.00 112473.00 548.28
6550 43.2860 99051.30 110911.00 546.12
6551 43.2920 97989.70 109370.00 541.18
6552 43.2980 96710.80 107863.00 537.66
6553 43.3040 95348.00 106401.00 534.36
6554 43.3100 94543.60 104991.00 530.48
6555 43.3160 93432.60 103639.00 527.57
6556 43.3220 92457.80 102348.00 524.74
6557 43.3280 91616.90 101118.00 523.87
6558 43.3340 90453.00 99952.30 521.07
6559 43.3400 89992.70 98849.50 519.06
6560 43.3460 89177.80 97807.90 516.07
6561 43.3520 88729.80 96826.70 514.35
6562 43.3580 87836.50 95904.40 512.15
6563 43.3640 87113.30 95038.90 510.38
6564 43.3700 86481.60 94228.30 507.96
6565 43.3760 86027.80 93471.00 507.54
6566 43.3820 85705.30 92765.20 506.31
6567 43.3880 85133.90 92108.40 504.76
6568 43.3940 84390.10 91499.00 503.16
6569 43.4000 83958.50 90935.60 501.91
6570 43.4060 83675.10 90416.50 500.74
6571 43.4120 83343.20 89940.80 498.86
6572 43.4180 83092.30 89506.10 499.05
6573 43.4240 83018.20 89112.00 498.20
6574 43.4300 82535.00 88757.10 497.53
6575 43.4360 82368.70 88440.40 496.50
6576 43.4420 82298.40 88161.10 497.41
6577 43.4480 82007.60 87918.40 496.67
6578 43.4540 81995.10 87711.50 494.75
6579 43.4600 81700.20 87539.70 493.89
6580 43.4660 81505.70 87402.30 493.48
6581 43.4720 81430.70 87298.60 493.77
6582 43.4780 81368.00 87228.00 494.15
6583 43.4840 81493.20 87189.90 495.02
6584 43.4900 81311.40 87183.50 492.98
6585 43.4960 81384.70 87208.10 493.12
6586 43.5020 81453.90 87261.90 493.97
6587 43.5080 81620.90 87346.20 495.83
6588 43.5140 81683.00 87459.10 494.01
6589 43.5200 81654.30 87599.30 495.91
6590 43.5260 81457.80 87766.00 495.14
6591 43.5320 81715.80 87957.60 497.12
6592 43.5380 82201.10 88173.00 496.99
6593 43.5440 82007.20 88410.40 496.92
6594 43.5500 82520.50 88668.30 496.99
6595 43.5560 83135.30 88944.30 499.51
6596 43.5620 83428.30 89236.30 500.73
6597 43.5680 84159.50 89542.30 501.80
6598 43.5740 84788.20 89858.90 503.49
6599 43.5800 84916.30 90183.70 504.47
6600 43.5860 85380.10 90513.00 506.89
6601 43.5920 85687.40 90843.20 506.42
6602 43.5980 86027.40 91170.60 507.94
6603 43.6040 86860.20 91490.70 509.63
6604 43.6100 87562.50 91799.50 511.86
6605 43.6160 88035.50 92092.20 513.40
6606 43.6220 88135.30 92364.00 513.33
6607 43.6280 88803.60 92610.50 514.18
6608 43.6340 89021.90 92827.00 516.70
6609 43.6400 89305.50 93009.40 517.16
6610 43.6460 89611.10 93153.60 517.41
6611 43.6520 89952.20 93256.60 518.89
6612 43.6580 90065.20 93316.20 518.18
6613 43.6640 90038.20 93330.10 519.34
6614 43.6700 90373.00 93297.50 520.25
6615 43.6760 90420.90 93219.00 519.99
6616 43.6820 90244.40 93095.40 518.10
6617 43.6880 90277.80 92928.80 519.80
6618 43.6940 90106.60 92721.80 519.11
6619 43.7000 89704.90 92478.10 518.84
6620 43.7060 89347.20 92201.60 517.16
6621 43.7120 89585.70 91897.30 518.36
6622 43.7180 88731.90 91569.60 516.09
6623 43.7240 88765.80 91223.80 513.83
6624 43.7300 88121.10 90864.80 513.24
6625 43.7360 87563.80 90498.00 513.45
6626 43.7420 86684.90 90127.80 509.47
6627 43.7480 86554.10 89759.20 509.85
6628 43.7540 85883.10 89396.70 507.39
6629 43.7600 85503.50 89044.60 504.69
6630 43.7660 85158.90 88707.10 504.26
6631 43.7720 84430.70 88388.00 503.21
6632 43.7780 84311.30 88091.10 502.76
6633 43.7840 83803.00 87816.40 500.38
6634 43.7900 83128.80 87573.20 500.11
6635 43.7960 83146.50 87361.40 497.62
6636 43.8020 82977.90 87183.80 497.03
6637 43.8080 82843.90 87043.00 498.24
6638 43.8140 82719.50 86941.00 495.29
6639 43.8200 82275.50 86880.10 495.68
6640 43.8260 82506.80 86861.90 497.56
6641 43.8320 82343.90 86888.20 496.41
6642 43.8380 82526.80 86960.10 496.34
6643 43.8440 82494.20 87078.40 496.09
6644 43.8500 82640.20 87243.40 496.00
6645 43.8560 82527.00 87455.10 495.79
6646 43.8620 82911.80 87712.60 497.85
6647 43.8680 83154.10 88014.00 497.81
6648 43.8740 83834.40 88357.30 499.63
6649 43.8800 83890.70 88738.40 499.09
6650 43.8860 83792.20 89152.40 499.90
6651 43.8920 84109.90 89592.70 501.70
6652 43.8980 84387.50 90050.40 501.42
6653 43.9040 84729.20 90515.40 504.08
6654 43.9100 85194.40 90974.80 504.28
6655 43.9160 85510.10 91414.90 504.05
6656 43.9220 85637.50 91818.50 505.88
6657 43.9280 85660.20 92171.40 505.12
6658 43.9340 85678.80 92456.10 506.41
6659 43.9400 86023.20 92657.80 508.06
6660 43.9460 85838.70 92764.70 506.55
6661 43.9520 86043.60 92768.60 506.25
6662 43.9580 85602.60 92666.50 505.23
6663 43.9640 85402.90 92460.00 505.85
6664 43.9700 85740.70 92156.30 505.44
6665 43.9760 85146.20 91766.30 504.78
6666 43.9820 85021.80 91304.00 505.08
6667 43.9880 84780.70 90786.00 502.68
6668 43.9940 84467.40 90228.50 502.15
6669 44.0000 83839.90 89647.90 501.08
6670 44.0060 83465.20 89058.00 499.97
6671 44.0120 83317.70 88472.10 498.60
6672 44.0180 82877.50 87901.10 498.82
6673 44.0240 82824.70 87354.00 495.81
6674 44.0300 82222.50 86837.60 496.05
6675 44.0360 82125.30 86357.50 495.52
6676 44.0420 81995.40 85918.00 494.67
6677 44.0480 81720.90 85521.20 494.26
6678 44.0540 81514.20 85169.90 493.96
6679 44.0600 81444.60 84863.50 491.90
6680 44.0660 81906.80 84602.90 493.68
6681 44.0720 81616.60 84387.80 493.37
6682 44.0780 81812.30 84217.10 493.99
6683 44.0840 81905.90 84089.60 494.69
6684 44.0900 81603.30 84003.30 493.68
6685 44.0960 82082.20 83956.20 495.51
6686 44.1020 82013.30 83945.70 496.58
6687 44.1080 82464.50 83968.60 495.76
6688 44.1140 82667.60 84022.00 496.39
6689 44.1200 83048.70 84101.60 498.51
6690 44.1260 83472.70 84203.60 498.33
6691 44.1320 83473.80 84322.80 501.00
6692 44.1380 83729.40 84454.80 500.24
6693 44.1440 84130.70 84593.70 501.71
6694 44.1500 84591.30 84733.50 502.55
6695 44.1560 84947.50 84867.90 503.48
6696 44.1620 85423.40 84990.50 506.22
6697 44.1680 85399.30 85095.00 506.21
6698 44.1740 85521.60 85174.90 505.77
6699 44.1800 85823.60 85224.50 506.06
6700 44.1860 86020.60 85238.80 506.52
6701 44.1920 85597.20 85213.80 505.70
6702 44.1980 85718.40 85146.70 505.35
6703 44.2040 85715.00 85036.00 505.35
6704 44.2100 85547.70 84882.10 506.33
6705 44.2160 85161.00 84686.30 504.47
6706 44.2220 84931.30 84451.40 502.55
6707 44.2280 84454.40 84181.10 501.05
6708 44.2340 84096.10 83879.90 501.90
6709 44.2400 83278.30 83552.80 498.70
6710 44.2460 82878.70 83205.10 498.84
6711 44.2520 82342.00 82841.90 495.86
6712 44.2580 81800.20 82468.30 494.70
6713 44.2640 81576.20 82076.70 491.64
6714 44.2700 80743.50 81694.90 491.71
6715 44.2760 80302.50 81314.80 489.57
6716 44.2820 79667.00 80939.50 487.60
6717 44.2880 79065.10 80571.50 485.12
6718 44.2940 78900.60 80212.90 484.88
6719 44.3000 78415.50 79865.60 482.80
6720 44.3060 77968.90 79531.00 480.60
6721 44.3120 77093.70 79210.10 479.24
6722 44.3180 76316.10 78903.50 475.38
6723 44.3240 76516.60 78612.10 479.60
6724 44.3300 75495.50 78336.20 476.55
6725 44.3360 75313.20 78080.70 474.70
6726 44.3420 75207.70 77836.20 473.34
6727 44.3480 75111.10 77607.40 474.13
6728 44.3540 74842.00 77394.00 472.66
6729 44.3600 74317.60 77196.20 472.01
6730 44.3660 74432.40 77019.40 471.58
6731 44.3720 73948.60 76850.90 469.91
6732 44.3780 73813.10 76696.80 469.84
6733 44.3840 73631.30 76556.30 469.80
6734 44.3900 73617.10 76429.20 469.89
6735 44.3960 73251.20 76314.90 468.65
6736 44.4020 73087.00 76212.60 468.12
6737 44.4080 73232.20 76122.30 468.58
6738 44.4140 73117.30 76043.40 467.46
6739 44.4200 73015.70 75975.20 465.85
6740 44.4260 73281.00 75917.60 468.65
6741 44.4320 72877.70 75869.90 468.14
6742 44.4380 72830.70 75831.80 467.69
6743 44.4440 72871.90 75803.00 466.44
6744 44.4500 72783.40 75783.30 466.32
6745 44.4560 72875.50 75772.20 466.74
6746 44.4620 72748.90 75769.60 466.65
6747 44.4680 72913.40 75775.50 467.46
6748 44.4740 72935.90 75789.60 468.06
6749 44.4800 72906.00 75812.10 467.32
6750 44.4860 73176.40 75843.00 468.79
6751 44.4920 72994.20 75882.50 467.92
6752 44.4980 73068.80 75930.50 467.86
6753 44.5040 73196.10 75987.50 468.01
6754 44.5100 73385.90 76053.90 468.93
6755 44.5160 73477.00 76130.00 470.62
6756 44.5220 73571.40 76216.40 469.14
6757 44.5280 73851.40 76313.50 470.51
6758 44.5340 73970.80 76422.50 469.77
6759 44.5400 74186.20 76543.50 472.11
6760 44.5460 73856.50 76677.90 471.46
6761 44.5520 74331.60 76826.60 473.68
6762 44.5580 74797.50 76990.70 474.20
6763 44.5640 75031.00 77171.00 474.40
6764 44.5700 75372.90 77366.10 475.36
6765 44.5760 75521.70 77583.00 475.98
6766 44.5820 75908.40 77820.30 477.03
6767 44.5880 76063.40 78079.20 477.70
6768 44.5940 76537.00 78361.30 479.27
6769 44.6000 76999.50 78667.80 480.25
6770 44.6060 77305.90 79000.30 480.29
6771 44.6120 77473.40 79359.70 481.34
6772 44.6180 78029.00 79747.30 484.13
6773 44.6240 78175.60 80164.50 484.31
6774 44.6300 78781.30 80612.00 486.54
6775 44.6360 78939.90 81090.70 487.44
6776 44.6420 79634.10 81600.90 488.14
6777 44.6480 80033.40 82142.30 488.96
6778 44.6540 80591.20 82714.60 491.49
6779 44.6600 81186.40 83316.00 492.69
6780 44.6660 81660.30 83945.20 495.17
6781 44.6720 81917.60 84598.80 495.10
6782 44.6780 82565.80 85272.60 496.38
6783 44.6840 82920.90 85960.70 498.76
6784 44.6900 83784.50 86655.40 499.83
6785 44.6960 83982.60 87348.80 501.58
6786 44.7020 84488.50 88027.10 504.39
6787 44.7080 84924.00 88677.70 504.39
6788 44.7140 85496.50 89291.30 505.27
6789 44.7200 85709.20 89841.90 505.47
6790 44.7260 86040.30 90318.10 506.93
6791 44.7320 86271.30 90704.40 508.22
6792 44.7380 86337.70 90987.50 508.27
6793 44.7440 85979.10 91157.30 507.52
6794 44.7500 86416.30 91208.60 507.69
6795 44.7560 86682.40 91140.60 510.39
6796 44.7620 86357.60 90957.70 507.28
6797 44.7680 86034.30 90668.90 506.99
6798 44.7740 85465.30 90286.90 506.87
6799 44.7800 85212.80 89826.20 505.34
6800 44.7860 85074.90 89303.00 504.30
6801 44.7920 84650.90 88733.50 502.78
6802 44.7980 84038.20 88132.10 502.28
6803 44.8040 84068.60 87512.60 500.65
6804 44.8100 83342.10 86886.30 499.69
6805 44.8160 82988.20 86262.80 499.21
6806 44.8220 82559.60 85649.80 497.07
6807 44.8280 82172.00 85053.30 494.68
6808 44.8340 81646.90 84477.20 494.01
6809 44.8400 81170.20 83925.60 492.84
6810 44.8460 80725.10 83399.80 491.03
6811 44.8520 80234.70 82901.10 489.81
6812 44.8580 79995.60 82430.50 489.08
6813 44.8640 79762.80 81988.00 488.19
6814 44.8700 79619.60 81573.40 488.11
6815 44.8760 78996.70 81185.90 485.29
6816 44.8820 78998.20 80825.20 485.92
6817 44.8880 78597.70 80489.90 485.76
6818 44.8940 78418.10 80179.40 484.03
6819 44.9000 78013.50 79892.40 482.85
6820 44.9060 77956.40 79628.30 482.74
6821 44.9120 77908.00 79385.80 482.96
6822 44.9180 77956.60 79164.10 481.64
6823 44.9240 77735.70 78962.50 482.44
6824 44.9300 77562.30 78779.80 482.17
6825 44.9360 77330.40 78615.50 479.93
6826 44.9420 77457.80 78469.00 481.19
6827 44.9480 77545.20 78339.60 481.02
6828 44.9540 77303.20 78227.10 480.29
6829 44.9600 77508.80 78130.90 480.81
6830 44.9660 77550.30 78050.90 480.90
6831 44.9720 77368.90 77986.70 480.68
6832 44.9780 77312.30 77938.20 479.60
6833 44.9840 77381.60 77905.30 480.76
6834 44.9900 77422.10 77888.10 481.30
6835 44.9960 77497.70 77886.60 482.03
6836 45.0020 77249.40 77900.80 481.29
6837 45.0080 77919.90 77931.00 482.00
6838 45.0140 77830.20 77977.20 481.90
6839 45.0200 78131.30 78039.40 482.17
6840 45.0260 77983.50 78118.40 481.55
6841 45.0320 78542.70 78214.00 484.68
6842 45.0380 78503.40 78326.60 487.14
6843 45.0440 78775.60 78456.30 487.55
6844 45.0500 79090.00 78603.20 487.73
6845 45.0560 79080.30 78768.70 487.27
6846 45.0620 79536.90 78950.30 488.35
6847 45.0680 80076.20 79149.60 489.80
6848 45.0740 80608.50 79366.50 490.59
6849 45.0800 81170.50 79600.80 493.13
6850 45.0860 81187.50 79852.50 492.69
6851 45.0920 81633.40 80121.10 493.72
6852 45.0980 82196.80 80406.70 496.08
6853 45.1040 82375.60 80708.60 495.80
6854 45.1100 83168.70 81026.60 498.20
6855 45.1160 83564.20 81359.60 500.69
6856 45.1220 84502.70 81707.20 502.41
6857 45.1280 84689.80 82068.50 503.44
6858 45.1340 85573.00 82441.90 505.92
6859 45.1400 86041.40 82826.00 507.77
6860 45.1460 86569.90 83219.60 508.93
6861 45.1520 87185.50 83620.90 512.32
6862 45.1580 87956.70 84027.80 513.83
6863 45.1640 88404.20 84428.10 514.81
6864 45.1700 89186.00 84838.90 516.95
6865 45.1760 89775.50 85247.30 519.07
6866 45.1820 90545.70 85650.40 520.14
6867 45.1880 91199.60 86044.60 521.54
6868 45.1940 91511.60 86426.30 524.02
6869 45.2000 92294.00 86791.80 526.21
6870 45.2060 92791.70 87137.10 526.88
6871 45.2120 93259.00 87458.00 525.98
6872 45.2180 93615.20 87750.90 528.33
6873 45.2240 94450.00 88011.90 531.01
6874 45.2300 94485.00 88237.80 530.74
6875 45.2360 95042.40 88425.10 533.37
6876 45.2420 94990.30 88571.70 532.24
6877 45.2480 95558.30 88675.90 533.97
6878 45.2540 95734.30 88736.40 535.28
6879 45.2600 95640.70 88752.70 535.38
6880 45.2660 95404.50 88725.60 534.96
6881 45.2720 95602.40 88656.00 534.73
6882 45.2780 95773.80 88546.20 535.23
6883 45.2840 95173.60 88398.40 534.66
6884 45.2900 94917.90 88215.70 532.54
6885 45.2960 94597.30 88001.90 530.69
6886 45.3020 94080.20 87760.40 530.34
6887 45.3080 93545.20 87495.00 529.07
6888 45.3140 93340.20 87209.80 527.07
6889 45.3200 92855.20 86908.60 526.06
6890 45.3260 91955.00 86595.40 523.66
6891 45.3320 91521.50 86273.20 523.18
6892 45.3380 91166.10 85945.70 521.63
6893 45.3440 90522.70 85615.70 521.25
6894 45.3500 89857.80 85286.00 517.17
6895 45.3560 89314.00 84959.30 517.11
6896 45.3620 88594.60 84637.70 514.46
6897 45.3680 88341.40 84326.20 512.29
6898 45.3740 87667.10 84020.50 511.03
6899 45.3800 87415.10 83725.30 510.90
6900 45.3860 86849.30 83441.90 510.48
6901 45.3920 86230.50 83171.40 507.82
6902 45.3980 85639.00 82915.50 507.09
6903 45.4040 85151.50 82674.60 504.36
6904 45.4100 84976.90 82450.10 503.70
6905 45.4160 84951.70 82242.60 503.46
6906 45.4220 84411.00 82053.20 503.23
6907 45.4280 84357.50 81882.80 503.45
6908 45.4340 84124.10 81732.30 502.27
6909 45.4400 84046.00 81602.80 503.01
6910 45.4460 84393.50 81495.10 503.49
6911 45.4520 84345.00 81410.30 502.15
6912 45.4580 83975.00 81349.30 501.74
6913 45.4640 83930.50 81313.40 500.73
6914 45.4700 83856.50 81303.50 502.57
6915 45.4760 84063.30 81321.00 502.17
6916 45.4820 84218.80 81367.00 502.97
6917 45.4880 84510.80 81442.70 503.21
6918 45.4940 84527.70 81549.20 502.61
6919 45.5000 84599.10 81687.40 504.90
6920 45.5060 84865.40 81858.80 504.99
6921 45.5120 84917.50 82063.80 505.98
6922 45.5180 85344.40 82303.20 506.22
6923 45.5240 85373.90 82577.30 506.67
6924 45.5300 84904.40 82886.20 506.93
6925 45.5360 85412.00 83229.30 508.49
6926 45.5420 85648.70 83605.30 508.38
6927 45.5480 86122.30 84012.50 508.70
6928 45.5540 86272.50 84447.80 509.51
6929 45.5600 87051.70 84906.60 511.57
6930 45.5660 87315.90 85382.50 511.43
6931 45.5720 87544.70 85867.00 513.41
6932 45.5780 88131.80 86350.20 513.94
6933 45.5840 87769.90 86818.90 515.09
6934 45.5900 88112.30 87257.70 514.49
6935 45.5960 88285.00 87650.20 514.08
6936 45.6020 88609.00 87978.10 514.44
6937 45.6080 88485.00 88224.10 515.83
6938 45.6140 88164.50 88372.40 515.60
6939 45.6200 88040.50 88411.20 513.91
6940 45.6260 87539.30 88333.70 512.00
6941 45.6320 87435.30 88139.40 511.96
6942 45.6380 87128.50 87833.50 510.04
6943 45.6440 86244.60 87427.00 508.28
6944 45.6500 85618.30 86934.90 507.94
6945 45.6560 85215.90 86374.80 505.74
6946 45.6620 84650.80 85764.70 503.11
6947 45.6680 83942.80 85122.20 502.27
6948 45.6740 83668.20 84463.70 499.95
6949 45.6800 82910.80 83801.60 497.74
6950 45.6860 81806.30 83147.90 494.83
6951 45.6920 81474.40 82510.90 494.31
6952 45.6980 81011.90 81896.00 493.68
6953 45.7040 80558.80 81310.00 492.18
6954 45.7100 79922.90 80755.60 489.59
6955 45.7160 80029.20 80234.30 489.71
6956 45.7220 79130.50 79747.50 487.30
6957 45.7280 78595.00 79295.00 486.25
6958 45.7340 78592.00 78876.70 485.73
6959 45.7400 77768.70 78497.30 483.85
6960 45.7460 77601.10 78145.50 482.76
6961 45.7520 77607.00 77825.50 481.94
6962 45.7580 76666.70 77536.00 479.10
6963 45.7640 76795.50 77275.80 480.59
6964 45.7700 76601.50 77043.30 480.10
6965 45.7760 76681.50 76837.40 479.45
6966 45.7820 76402.70 76657.00 478.49
6967 45.7880 76442.20 76500.70 478.49
6968 45.7940 75928.30 76367.50 477.00
6969 45.8000 75847.80 76256.10 476.74
6970 45.8060 75995.10 76165.70 477.60
6971 45.8120 76205.80 76095.20 476.51
6972 45.8180 75923.70 76043.70 476.83
6973 45.8240 76176.50 76010.50 476.28
6974 45.8300 75905.40 75994.80 476.90
6975 45.8360 75744.50 75995.90 476.53
6976 45.8420 76031.30 76013.30 477.95
6977 45.8480 76042.80 76046.30 476.53
6978 45.8540 75862.30 76094.00 475.97
6979 45.8600 76141.00 76156.10 477.20
6980 45.8660 76240.30 76231.90 475.61
6981 45.8720 76390.30 76321.10 478.07
6982 45.8780 76613.40 76423.10 478.95
6983 45.8840 76595.80 76536.90 478.83
6984 45.8900 76551.40 76662.00 478.29
6985 45.8960 76917.50 76797.90 479.90
6986 45.9020 77136.60 76943.50 480.20
6987 45.9080 77193.40 77098.20 480.65
6988 45.9140 77445.70 77261.20 481.22
6989 45.9200 77797.90 77431.10 482.40
6990 45.9260 78132.50 77606.90 483.00
6991 45.9320 78270.50 77787.10 484.39
6992 45.9380 78319.70 77970.60 484.71
6993 45.9440 78408.40 78155.60 484.88
6994 45.9500 78753.60 78340.40 485.43
6995 45.9560 78950.60 78523.30 486.97
6996 45.9620 79164.50 78701.90 487.42
6997 45.9680 79287.20 78874.30 487.87
6998 45.9740 79763.00 79038.30 487.52
6999 45.9800 79750.40 79191.40 489.43
7000 45.9860 79927.60 79330.80 488.66
7001 45.9920 79988.30 79455.10 490.67
7002 45.9980 79804.20 79561.20 489.49
7003 46.0040 80261.60 79647.30 490.92
7004 46.0100 80214.30 79711.30 490.38
7005 46.0160 80412.70 79751.60 490.33
7006 46.0220 80491.00 79766.80 491.13
7007 46.0280 80438.60 79756.30 490.11
7008 46.0340 80503.10 79719.30 491.85
7009 46.0400 80354.80 79655.90 490.85
7010 46.0460 79989.40 79566.70 489.57
7011 46.0520 79878.20 79444.30 488.46
7012 46.0580 79849.20 79306.10 488.43
7013 46.0640 79433.10 79145.50 486.18
7014 46.0700 79393.80 78964.40 487.78
7015 46.0760 79180.60 78765.30 486.19
7016 46.0820 78992.70 78549.70 486.50
7017 46.0880 78590.60 78320.00 484.30
7018 46.0940 78149.10 78078.70 483.28
7019 46.1000 77789.60 77827.70 483.36
7020 46.1060 77576.40 77569.30 482.85
7021 46.1120 76886.10 77305.30 478.46
7022 46.1180 76717.20 77037.80 479.85
7023 46.1240 76410.40 76768.10 478.17
7024 46.1300 75834.50 76497.80 476.53
7025 46.1360 75171.10 76228.40 475.26
7026 46.1420 74973.80 75957.30 473.00
7027 46.1480 74615.70 75692.90 474.44
7028 46.1540 74439.00 75432.60 471.87
7029 46.1600 74042.50 75177.10 470.83
7030 46.1660 73769.40 74926.90 471.18
7031 46.1720 73354.30 74682.60 468.42
7032 46.1780 73154.60 74444.90 467.43
7033 46.1840 73102.30 74213.90 468.05
7034 46.1900 72502.40 73989.90 466.14
7035 46.1960 72249.10 73773.10 464.72
7036 46.2020 72231.10 73563.90 464.17
7037 46.2080 71780.00 73362.20 463.87
7038 46.2140 71505.00 73168.10 461.76
7039 46.2200 71293.50 72981.60 461.76
7040 46.2260 71123.60 72802.50 461.00
7041 46.2320 70959.50 72631.10 460.55
7042 46.2380 70663.10 72467.20 460.82
7043 46.2440 70413.80 72310.70 459.62
7044 46.2500 70376.30 72161.30 459.11
7045 46.2560 70370.60 72019.00 458.78
7046 46.2620 70259.30 71883.70 458.54
7047 46.2680 70294.00 71755.00 458.90
7048 46.2740 69890.50 71632.80 457.80
7049 46.2800 70076.40 71517.20 457.86
7050 46.2860 69908.70 71407.50 455.92
7051 46.2920 69788.40 71303.90 456.19
7052 46.2980 69828.70 71206.00 457.06
7053 46.3040 69927.40 71113.80 455.88
7054 46.3100 69418.30 71026.60 455.01
7055 46.3160 69248.50 70944.40 453.62
7056 46.3220 69110.50 70867.20 454.41
7057 46.3280 69079.70 70794.90 455.15
7058 46.3340 68987.60 70726.80 455.77
7059 46.3400 68861.20 70663.30 454.80
7060 46.3460 69222.30 70603.80 455.77
7061 46.3520 69157.30 70548.40 455.58
7062 46.3580 69007.10 70496.80 453.84
7063 46.3640 69222.90 70448.90 455.22
7064 46.3700 69006.60 70404.60 454.51
7065 46.3760 69165.10 70363.80 456.42
7066 46.3820 69245.40 70326.30 456.01
7067 46.3880 69529.80 70292.10 456.59
7068 46.3940 68906.40 70261.20 455.20
7069 46.4000 69169.70 70233.10 454.99
7070 46.4060 68905.60 70201.10 454.80
7071 46.4120 69387.70 70178.80 456.79
7072 46.4180 69310.50 70159.60 455.92
7073 46.4240 69271.80 70142.90 455.75
7074 46.4300 69326.60 70136.60 455.50
7075 46.4360 69261.90 70136.70 456.40
7076 46.4420 69211.20 70139.20 455.64
7077 46.4480 69146.60 70143.90 455.18
7078 46.4540 69260.30 70150.60 456.33
7079 46.4600 69200.90 70158.30 455.56
7080 46.4660 69230.20 70168.60 456.27
7081 46.4720 69507.60 70180.40 456.29
7082 46.4780 69497.30 70193.30 456.86
7083 46.4840 69258.90 70207.10 455.89
7084 46.4900 69462.90 70221.40 458.13
7085 46.4960 69610.50 70235.80 457.68
7086 46.5020 69534.10 70250.00 456.00
7087 46.5080 69525.10 70263.50 455.98
7088 46.5140 69621.90 70275.90 457.68
7089 46.5200 69369.70 70287.00 457.28
7090 46.5260 69473.90 70296.00 457.04
7091 46.5320 69576.00 70303.10 457.06
7092 46.5380 69677.20 70307.70 457.41
7093 46.5440 69365.70 70310.00 456.55
7094 46.5500 69481.20 70309.80 458.51
7095 46.5560 69469.10 70307.20 457.06
7096 46.5620 69592.90 70302.50 457.84
7097 46.5680 69870.40 70296.10 458.80
7098 46.5740 69462.60 70287.80 457.39
7099 46.5800 69517.60 70278.70 457.02
7100 46.5860 69726.90 70268.60 456.77
7101 46.5920 69477.20 70258.20 456.43
7102 46.5980 69538.00 70247.90 457.29
7103 46.6040 69584.80 70238.00 457.50
7104 46.6100 69334.80 70228.80 455.73
7105 46.6160 69418.80 70220.60 456.65
7106 46.6220 69303.00 70214.00 456.71
7107 46.6280 69642.60 70208.70 457.45
7108 46.6340 69363.30 70205.10 456.69
7109 46.6400 69176.60 70203.50 456.56
7110 46.6460 69369.30 70209.10 456.86
7111 46.6520 69339.10 70211.50 455.30
7112 46.6580 69361.30 70216.30 455.97
7113 46.6640 69661.50 70223.30 456.84
7114 46.6700 69446.60 70232.60 456.20
7115 46.6760 69450.90 70244.20 456.32
7116 46.6820 69239.90 70258.20 456.14
7117 46.6880 69538.90 70277.20 456.88
7118 46.6940 69594.50 70296.00 457.08
7119 46.7000 69444.10 70317.10 456.11
7120 46.7060 69691.00 70340.70 457.21
7121 46.7120 69683.10 70366.50 456.75
7122 46.7180 69594.20 70394.70 456.73
7123 46.7240 69958.00 70425.20 457.27
7124 46.7300 69915.10 70458.00 457.24
7125 46.7360 69800.60 70492.90 457.57
7126 46.7420 69955.70 70530.20 458.19
7127 46.7480 69832.50 70570.00 455.87
7128 46.7540 69884.40 70611.70 459.05
7129 46.7600 69949.20 70655.80 458.70
7130 46.7660 70041.80 70702.10 457.65
7131 46.7720 70125.30 70750.60 457.44
7132 46.7780 69945.90 70801.30 458.26
7133 46.7840 70226.90 70854.00 458.13
7134 46.7900 70070.60 70909.00 458.73
7135 46.7960 70123.80 70966.10 458.78
7136 46.8020 70243.00 71025.50 459.20
7137 46.8080 70541.90 71086.90 459.41
7138 46.8140 70642.10 71150.50 460.05
7139 46.8200 70860.30 71216.00 460.70
7140 46.8260 70653.30 71283.70 460.02
7141 46.8320 70810.00 71353.40 460.30
7142 46.8380 70877.20 71425.20 461.02
7143 46.8440 70915.20 71499.10 460.79
7144 46.8500 70841.50 71574.70 460.21
7145 46.8560 71445.10 71652.20 461.77
7146 46.8620 71282.50 71731.50 461.66
7147 46.8680 71551.40 71812.40 463.98
7148 46.8740 71402.60 71895.00 462.27
7149 46.8800 71903.00 71979.10 463.51
7150 46.8860 71753.90 72064.60 463.59
7151 46.8920 72178.40 72151.20 465.04
7152 46.8980 72374.80 72239.20 464.52
7153 46.9040 72223.40 72327.80 465.80
7154 46.9100 72430.60 72417.30 466.11
7155 46.9160 72641.40 72507.30 466.97
7156 46.9220 73156.90 72597.90 467.64
7157 46.9280 72936.20 72688.70 466.41
7158 46.9340 73453.50 72779.30 467.97
7159 46.9400 73408.90 72869.80 469.42
7160 46.9460 73721.80 72959.80 469.58
7161 46.9520 73794.30 73049.30 469.47
7162 46.9580 74268.80 73137.80 471.42
7163 46.9640 74467.00 73225.30 471.39
7164 46.9700 74560.60 73311.60 470.14
7165 46.9760 74527.60 73396.10 472.52
7166 46.9820 74685.90 73479.00 472.34
7167 46.9880 74614.90 73560.20 473.60
7168 46.9940 74931.60 73638.90 473.54
7169 47.0000 74736.80 73715.50 472.81
7170 47.0060 75192.70 73789.30 473.91
7171 47.0120 75464.10 73860.40 474.27
7172 47.0180 75445.40 73928.50 475.04
7173 47.0240 75572.60 73993.30 474.34
7174 47.0300 75663.10 74054.40 476.64
7175 47.0360 75855.80 74111.90 477.50
7176 47.0420 75690.20 74165.20 478.97
7177 47.0480 75917.00 74214.20 478.19
7178 47.0540 76189.30 74254.60 479.66
7179 47.0600 76257.60 74294.30 478.56
7180 47.0660 76482.20 74328.70 478.95
7181 47.0720 76627.60 74357.70 478.59
7182 47.0780 76622.80 74381.20 478.86
7183 47.0840 76943.50 74398.70 479.57
7184 47.0900 76493.40 74412.20 478.95
7185 47.0960 76737.80 74417.60 479.60
7186 47.1020 76651.70 74411.00 477.90
7187 47.1080 76763.80 74404.00 479.59
7188 47.1140 76909.60 74390.50 479.40
7189 47.1200 77035.60 74370.90 480.56
7190 47.1260 76876.20 74345.30 479.61
7191 47.1320 76892.20 74313.80 480.84
7192 47.1380 77024.60 74276.80 480.34
7193 47.1440 76861.40 74234.60 480.53
7194 47.1500 76951.80 74187.40 481.03
7195 47.1560 76889.30 74136.30 480.00
7196 47.1620 76882.60 74081.10 480.10
7197 47.1680 76520.00 74022.70 480.32
7198 47.1740 76738.70 73961.40 479.42
7199 47.1800 76347.10 73898.10 478.16
7200 47.1860 76432.40 73832.90 477.82
7201 47.1920 76024.10 73768.40 477.39
7202 47.1980 76154.90 73701.70 476.77
7203 47.2040 75811.30 73634.80 477.70
7204 47.2100 75331.30 73567.90 473.46
7205 47.2160 75574.10 73502.30 475.18
7206 47.2220 75088.30 73438.20 473.55
7207 47.2280 74932.40 73375.70 473.27
7208 47.2340 75091.90 73315.30 473.31
7209 47.2400 74566.10 73257.60 472.53
7210 47.2460 74335.50 73202.50 471.26
7211 47.2520 74256.20 73150.60 471.84
7212 47.2580 73814.80 73102.20 471.70
7213 47.2640 73799.50 73057.60 469.36
7214 47.2700 73488.00 73016.90 468.98
7215 47.2760 73700.70 72980.50 469.42
7216 47.2820 73024.00 72948.20 468.98
7217 47.2880 72936.20 72920.70 467.80
7218 47.2940 72675.30 72897.90 466.53
7219 47.3000 72533.80 72880.10 465.39
7220 47.3060 72216.10 72863.70 464.57
7221 47.3120 72482.50 72856.10 464.02
7222 47.3180 72153.10 72853.90 464.87
7223 47.3240 72093.50 72857.20 463.99
7224 47.3300 71857.30 72866.10 463.93
7225 47.3360 71783.60 72880.70 463.83
7226 47.3420 71864.00 72900.90 464.40
7227 47.3480 72061.20 72927.00 462.97
7228 47.3540 71589.60 72958.90 462.89
7229 47.3600 71695.00 72996.50 463.96
7230 47.3660 71543.90 73040.00 461.78
7231 47.3720 71544.50 73089.40 462.53
7232 47.3780 71597.10 73144.70 462.53
7233 47.3840 71684.60 73205.80 462.94
7234 47.3900 71547.00 73272.50 463.55
7235 47.3960 71345.60 73344.80 463.59
7236 47.4020 71397.60 73422.80 462.49
7237 47.4080 71183.10 73506.20 461.92
7238 47.4140 71324.60 73595.10 462.75
7239 47.4200 71501.10 73689.00 462.49
7240 47.4260 71753.00 73787.80 463.05
7241 47.4320 71458.50 73891.60 464.23
7242 47.4380 71700.30 73999.90 464.12
7243 47.4440 71878.70 74112.40 464.86
7244 47.4500 71857.40 74229.10 464.78
7245 47.4560 71847.80 74349.60 464.01
7246 47.4620 72148.90 74473.80 463.72
7247 47.4680 72000.90 74601.20 464.97
7248 47.4740 72033.20 74731.50 465.51
7249 47.4800 72101.30 74864.30 465.68
7250 47.4860 72193.10 74999.40 466.46
7251 47.4920 72401.90 75136.20 465.36
7252 47.4980 72813.20 75274.70 466.29
7253 47.5040 72870.70 75414.30 467.96
7254 47.5100 72774.00 75554.80 469.43
7255 47.5160 73044.40 75695.70 468.28
7256 47.5220 72911.40 75836.80 468.83
7257 47.5280 72579.80 75977.90 469.17
7258 47.5340 72923.70 76119.10 469.41
7259 47.5400 72842.50 76260.00 468.89
7260 47.5460 73077.50 76400.70 469.86
7261 47.5520 73462.70 76541.70 471.12
7262 47.5580 74072.20 76683.30 472.07
7263 47.5640 74088.30 76825.80 472.18
7264 47.5700 74793.10 76969.90 473.82
7265 47.5760 75020.30 77116.40 474.10
7266 47.5820 74990.40 77266.60 475.38
7267 47.5880 75217.70 77421.80 476.85
7268 47.5940 75828.20 77583.40 477.15
7269 47.6000 76046.60 77752.90 478.22
7270 47.6060 76537.50 77932.90 478.79
7271 47.6120 77071.50 78124.80 481.35
7272 47.6180 77264.00 78331.10 481.65
7273 47.6240 77584.90 78554.50 482.95
7274 47.6300 78302.80 78797.80 484.48
7275 47.6360 78843.50 79063.40 486.70
7276 47.6420 79287.00 79354.20 487.28
7277 47.6480 79605.10 79673.60 488.51
7278 47.6540 80109.30 80024.40 489.87
7279 47.6600 80797.00 80409.50 492.75
7280 47.6660 81627.60 80832.50 495.49
7281 47.6720 82146.30 81296.10 496.41
7282 47.6780 82944.60 81803.70 498.31
7283 47.6840 83459.40 82358.00 499.67
7284 47.6900 84426.80 82961.60 502.46
7285 47.6960 85185.20 83616.90 505.74
7286 47.7020 86148.70 84326.40 509.98
7287 47.7080 86879.20 85090.40 511.29
7288 47.7140 88260.50 85912.30 514.59
7289 47.7200 88895.60 86790.90 517.05
7290 47.7260 90232.40 87725.80 519.64
7291 47.7320 90833.90 88715.90 521.59
7292 47.7380 91529.50 89757.40 525.53
7293 47.7440 92540.80 90846.00 527.88
7294 47.7500 93468.50 91973.90 529.91
7295 47.7560 94215.70 93135.40 532.43
7296 47.7620 95475.10 94311.70 533.72
7297 47.7680 96253.30 95490.40 537.81
7298 47.7740 97167.60 96651.90 540.73
7299 47.7800 97970.20 97773.50 542.56
7300 47.7860 98654.90 98820.30 544.53
7301 47.7920 98648.40 99781.70 544.30
7302 47.7980 99354.30 100620.00 545.63
7303 47.8040 99899.40 101307.00 545.27
7304 47.8100 99842.10 101816.00 546.58
7305 47.8160 100174.00 102125.00 548.03
7306 47.8220 99669.90 102222.00 546.51
7307 47.8280 99654.00 102099.00 546.64
7308 47.8340 99249.80 101761.00 545.25
7309 47.8400 98853.90 101218.00 544.10
7310 47.8460 98067.40 100490.00 541.43
7311 47.8520 97116.30 99601.20 538.53
7312 47.8580 96399.10 98580.10 537.71
7313 47.8640 95532.60 97455.70 534.43
7314 47.8700 94588.70 96256.70 530.66
7315 47.8760 93755.30 95009.90 528.76
7316 47.8820 92652.30 93739.80 525.50
7317 47.8880 91179.40 92465.70 523.50
7318 47.8940 90072.10 91204.50 519.72
7319 47.9000 88928.80 89970.30 516.49
7320 47.9060 87706.60 88773.40 512.54
7321 47.9120 86794.00 87621.60 509.62
7322 47.9180 85958.30 86520.70 506.56
7323 47.9240 84583.40 85474.70 502.18
7324 47.9300 83834.00 84484.80 501.98
7325 47.9360 82606.80 83553.00 498.07
7326 47.9420 82049.40 82678.70 496.61
7327 47.9480 80888.60 81861.90 492.93
7328 47.9540 80394.90 81101.20 490.40
7329 47.9600 79219.00 80394.80 487.10
7330 47.9660 78549.10 79740.60 486.46
7331 47.9720 78050.90 79137.00 483.18
7332 47.9780 77263.10 78580.90 481.11
7333 47.9840 76818.00 78069.80 480.24
7334 47.9900 76315.80 77601.30 477.85
7335 47.9960 75432.20 77173.10 475.65
7336 48.0020 75112.50 76782.50 475.45
7337 48.0080 74689.40 76426.90 473.97
7338 48.0140 74496.60 76104.10 472.93
7339 48.0200 73901.70 75811.50 470.88
7340 48.0260 73759.30 75546.90 469.61
7341 48.0320 73204.50 75308.30 468.32
7342 48.0380 73116.50 75093.90 467.72
7343 48.0440 72739.50 74901.70 467.81
7344 48.0500 72476.10 74730.00 465.96
7345 48.0560 72512.70 74577.40 465.53
7346 48.0620 72270.60 74443.50 463.23
7347 48.0680 72264.10 74325.10 465.11
7348 48.0740 71890.50 74221.80 462.70
7349 48.0800 72362.80 74133.00 466.26
7350 48.0860 72060.60 74057.30 464.09
7351 48.0920 71567.10 73994.40 463.05
7352 48.0980 71704.10 73943.20 463.63
7353 48.1040 71636.50 73903.10 464.19
7354 48.1100 71610.80 73873.60 463.15
7355 48.1160 71418.70 73854.20 461.33
7356 48.1220 71525.80 73844.40 463.64
7357 48.1280 71472.90 73843.80 462.84
7358 48.1340 71299.00 73852.00 463.14
7359 48.1400 71244.10 73868.40 461.75
7360 48.1460 71298.00 73893.00 463.01
7361 48.1520 71549.70 73925.10 462.92
7362 48.1580 71765.90 73964.70 464.13
7363 48.1640 72116.60 74011.30 465.74
7364 48.1700 71720.30 74064.40 464.40
7365 48.1760 72025.30 74123.80 464.18
7366 48.1820 72114.30 74189.10 464.57
7367 48.1880 72076.40 74259.70 464.20
7368 48.1940 72152.10 74335.40 464.83
7369 48.2000 72670.80 74415.60 466.41
7370 48.2060 72606.60 74499.70 467.04
7371 48.2120 72821.10 74587.20 466.06
7372 48.2180 72811.90 74677.70 467.18
7373 48.2240 72767.80 74769.90 465.49
7374 48.2300 72969.30 74863.80 466.49
7375 48.2360 73376.70 74958.10 470.21
7376 48.2420 73133.10 75052.20 469.43
7377 48.2480 73254.50 75145.30 468.32
7378 48.2540 73518.00 75236.30 468.63
7379 48.2600 73994.30 75324.60 471.32
7380 48.2660 73775.10 75409.40 469.89
7381 48.2720 74151.90 75489.70 472.38
7382 48.2780 74503.10 75564.60 472.10
7383 48.2840 74267.60 75633.90 471.63
7384 48.2900 74330.20 75696.80 470.70
7385 48.2960 74454.00 75753.00 472.47
7386 48.3020 74721.30 75802.30 470.25
7387 48.3080 74580.40 75844.50 472.43
7388 48.3140 74322.50 75880.00 471.26
7389 48.3200 73970.90 75908.80 470.49
7390 48.3260 74438.60 75931.60 473.48
7391 48.3320 74411.10 75948.80 472.78
7392 48.3380 74264.10 75961.30 472.42
7393 48.3440 74222.80 75970.10 472.12
7394 48.3500 74448.50 75975.70 473.51
7395 48.3560 74146.50 75979.20 471.07
7396 48.3620 74157.80 75981.30 471.40
7397 48.3680 74454.60 75983.70 471.73
7398 48.3740 74420.70 75986.80 473.01
7399 48.3800 74325.90 75991.60 473.38
7400 48.3860 74266.60 75998.80 473.19
7401 48.3920 74016.20 76009.40 472.65
7402 48.3980 73992.40 76023.90 471.19
7403 48.4040 73732.40 76042.80 470.91
7404 48.4100 74279.60 76067.60 472.09
7405 48.4160 73945.60 76097.20 470.93
7406 48.4220 73994.70 76132.70 472.07
7407 48.4280 73949.10 76174.30 472.36
7408 48.4340 74095.80 76222.20 472.26
7409 48.4400 74103.10 76276.60 471.95
7410 48.4460 74204.80 76337.50 470.98
7411 48.4520 74185.00 76405.00 472.02
7412 48.4580 74541.30 76478.60 473.04
7413 48.4640 74091.30 76558.50 473.11
7414 48.4700 74466.90 76644.50 472.78
7415 48.4760 74639.60 76735.90 473.32
7416 48.4820 74861.00 76832.80 473.38
7417 48.4880 74995.10 76934.30 475.99
7418 48.4940 74841.80 77040.00 475.15
7419 48.5000 75188.40 77149.40 476.23
7420 48.5060 75639.70 77261.60 476.33
7421 48.5120 75469.90 77375.90 476.94
7422 48.5180 75707.80 77495.60 477.58
7423 48.5240 76057.60 77611.50 478.21
7424 48.5300 76164.00 77727.10 479.13
7425 48.5360 76678.60 77840.90 480.56
7426 48.5420 76628.30 77952.20 481.81
7427 48.5480 76874.10 78059.70 481.97
7428 48.5540 77147.00 78162.30 482.72
7429 48.5600 77418.10 78258.90 482.80
7430 48.5660 78110.80 78348.10 485.25
7431 48.5720 78059.80 78429.10 484.92
7432 48.5780 78229.50 78500.80 486.64
7433 48.5840 78859.60 78562.30 486.56
7434 48.5900 78644.60 78612.50 486.46
7435 48.5960 79227.10 78651.00 487.61
7436 48.6020 79610.70 78677.00 489.47
7437 48.6080 79682.60 78690.20 489.23
7438 48.6140 79751.30 78690.30 490.57
7439 48.6200 79990.30 78677.00 491.61
7440 48.6260 80292.70 78650.70 491.53
7441 48.6320 80290.50 78605.20 491.39
7442 48.6380 80240.70 78553.80 491.10
7443 48.6440 80634.30 78490.60 492.79
7444 48.6500 80275.20 78416.60 491.91
7445 48.6560 80409.10 78332.30 492.12
7446 48.6620 80689.20 78238.90 491.49
7447 48.6680 80350.90 78137.70 491.03
7448 48.6740 80201.80 78029.30 490.36
7449 48.6800 80189.40 77915.10 490.07
7450 48.6860 79925.60 77796.10 490.09
7451 48.6920 79554.40 77673.50 489.81
7452 48.6980 79444.20 77548.40 489.07
7453 48.7040 79407.90 77421.60 487.88
7454 48.7100 79133.30 77294.20 486.79
7455 48.7160 79180.10 77167.20 487.28
7456 48.7220 78705.10 77041.20 485.37
7457 48.7280 78276.50 76917.20 485.23
7458 48.7340 77865.60 76795.50 483.90
7459 48.7400 77927.40 76677.20 484.21
7460 48.7460 77394.00 76562.70 480.87
7461 48.7520 77357.90 76452.40 481.15
7462 48.7580 77381.50 76346.90 483.24
7463 48.7640 76741.10 76246.80 480.78
7464 48.7700 76471.60 76152.20 478.40
7465 48.7760 76206.00 76063.70 477.80
7466 48.7820 76494.70 75981.40 478.85
7467 48.7880 75847.70 75905.90 476.16
7468 48.7940 75850.80 75837.40 476.94
7469 48.8000 75610.90 75776.60 476.89
7470 48.8060 75522.70 75723.20 475.99
7471 48.8120 75573.60 75677.80 477.38
7472 48.8180 75521.80 75640.70 475.14
7473 48.8240 75576.80 75612.50 475.42
7474 48.8300 75696.40 75593.00 475.41
7475 48.8360 75381.60 75582.70 475.70
7476 48.8420 75099.70 75582.00 475.46
7477 48.8480 75370.50 75590.90 475.32
7478 48.8540 75343.80 75609.60 475.06
7479 48.8600 75526.60 75638.40 475.02
7480 48.8660 76105.20 75677.20 476.95
7481 48.8720 75798.70 75726.50 476.44
7482 48.8780 75595.50 75786.00 477.21
7483 48.8840 76104.20 75855.80 477.66
7484 48.8900 76255.40 75936.10 478.71
7485 48.8960 76513.10 76026.60 478.20
7486 48.9020 76718.30 76127.30 479.24
7487 48.9080 77138.70 76238.10 480.22
7488 48.9140 77248.60 76356.70 481.76
7489 48.9200 78038.80 76486.90 483.99
7490 48.9260 77866.40 76626.60 482.91
7491 48.9320 78442.10 76775.10 483.75
7492 48.9380 78923.30 76932.30 485.45
7493 48.9440 79649.40 77097.40 487.94
7494 48.9500 79529.60 77270.40 487.98
7495 48.9560 79861.80 77450.20 489.42
7496 48.9620 80870.70 77636.50 491.63
7497 48.9680 81284.70 77825.50 492.85
7498 48.9740 81540.20 78022.20 493.10
7499 48.9800 81828.90 78223.00 493.03
7500 48.9860 82147.30 78427.00 496.41
7501 48.9920 82427.70 78633.40 498.67
7502 48.9980 82885.30 78841.60 499.04
7503 49.0040 83305.90 79050.10 498.45
7504 49.0100 84133.70 79258.80 501.40
7505 49.0160 84462.40 79466.20 501.58
7506 49.0220 85329.90 79672.20 504.36
7507 49.0280 85378.50 79876.10 505.73
7508 49.0340 85791.30 80077.70 508.22
7509 49.0400 85998.00 80277.00 510.82
7510 49.0460 86811.40 80473.70 511.36
7511 49.0520 87206.80 80668.30 513.66
7512 49.0580 87717.80 80861.60 513.86
7513 49.0640 88078.20 81053.90 514.55
7514 49.0700 88509.60 81246.50 515.09
7515 49.0760 88943.60 81440.30 516.23
7516 49.0820 89311.20 81637.10 518.37
7517 49.0880 89726.10 81838.40 518.52
7518 49.0940 90326.70 82045.70 519.01
7519 49.1000 90486.60 82261.00 521.70
7520 49.1060 90651.70 82486.60 521.36
7521 49.1120 91744.30 82724.60 523.83
7522 49.1180 91752.80 82976.80 525.28
7523 49.1240 92663.70 83246.10 527.28
7524 49.1300 92487.60 83534.80 526.98
7525 49.1360 93844.80 83848.10 530.46
7526 49.1420 94074.60 84183.20 532.02
7527 49.1480 94760.10 84545.20 534.99
7528 49.1540 95267.30 84936.80 535.30
7529 49.1600 96288.30 85360.50 537.11
7530 49.1660 96386.30 85819.40 538.78
7531 49.1720 97494.60 86315.40 541.44
7532 49.1780 98294.40 86851.30 543.34
7533 49.1840 99153.00 87429.30 545.43
7534 49.1900 99685.40 88051.20 547.81
7535 49.1960 100415.00 88719.20 548.46
7536 49.2020 101774.00 89434.00 552.40
7537 49.2080 102398.00 90196.10 553.43
7538 49.2140 103081.00 91006.60 553.54
7539 49.2200 103975.00 91863.70 559.04
7540 49.2260 105004.00 92766.30 561.06
7541 49.2320 106053.00 93710.60 563.07
7542 49.2380 106896.00 94692.00 567.51
7543 49.2440 108202.00 95703.40 567.53
7544 49.2500 109033.00 96735.70 571.58
7545 49.2560 109740.00 97778.60 575.90
7546 49.2620 110457.00 98818.90 575.74
7547 49.2680 111353.00 99840.90 579.29
7548 49.2740 112690.00 100828.00 580.28
7549 49.2800 112895.00 101763.00 583.41
7550 49.2860 114054.00 102627.00 584.85
7551 49.2920 114048.00 103404.00 584.73
7552 49.2980 114743.00 104081.00 586.80
7553 49.3040 115298.00 104649.00 588.96
7554 49.3100 115614.00 105100.00 588.19
7555 49.3160 116320.00 105434.00 589.22
7556 49.3220 116884.00 105654.00 589.78
7557 49.3280 116411.00 105767.00 591.48
7558 49.3340 116764.00 105781.00 593.71
7559 49.3400 116718.00 105704.00 591.83
7560 49.3460 116710.00 105545.00 590.95
7561 49.3520 116648.00 105310.00 591.75
7562 49.3580 116172.00 105002.00 589.19
7563 49.3640 115704.00 104620.00 588.53
7564 49.3700 115091.00 104164.00 587.69
7565 49.3760 114566.00 103628.00 586.52
7566 49.3820 114161.00 103009.00 585.07
7567 49.3880 112802.00 102305.00 582.83
7568 49.3940 111699.00 101514.00 578.68
7569 49.4000 110352.00 100641.00 574.81
7570 49.4060 108750.00 99692.40 570.96
7571 49.4120 107511.00 98678.20 567.98
7572 49.4180 106305.00 97611.00 564.20
7573 49.4240 104685.00 96508.60 561.20
7574 49.4300 103426.00 95382.60 556.97
7575 49.4360 102210.00 94251.00 552.49
7576 49.4420 100520.00 93127.00 550.34
7577 49.4480 98974.70 92022.30 546.49
7578 49.4540 97472.10 90947.60 540.29
7579 49.4600 95932.00 89910.50 535.85
7580 49.4660 94744.90 88912.10 532.42
7581 49.4720 93397.50 87967.00 528.77
7582 49.4780 92082.00 87071.80 525.99
7583 49.4840 90329.10 86228.30 521.96
7584 49.4900 89375.70 85437.00 517.96
7585 49.4960 88412.80 84697.60 514.96
7586 49.5020 87215.20 84008.90 511.89
7587 49.5080 86523.50 83369.30 510.98
7588 49.5140 85915.80 82777.30 506.62
7589 49.5200 84302.20 82230.60 503.81
7590 49.5260 83301.90 81727.20 502.43
7591 49.5320 82214.60 81264.80 500.13
7592 49.5380 81582.10 80841.20 496.29
7593 49.5440 80689.30 80453.80 493.61
7594 49.5500 80465.10 80100.60 491.62
7595 49.5560 80014.00 79779.20 490.68
7596 49.5620 79488.80 79488.10 489.80
7597 49.5680 79444.60 79224.20 488.52
7598 49.5740 79055.00 78986.20 487.73
7599 49.5800 78310.20 78771.90 485.34
7600 49.5860 78460.90 78579.40 486.08
7601 49.5920 77663.50 78407.50 482.55
7602 49.5980 77197.10 78253.90 482.08
7603 49.6040 77273.50 78117.50 481.33
7604 49.6100 76908.10 77997.30 481.46
7605 49.6160 76599.60 77890.90 479.48
7606 49.6220 76555.70 77797.40 478.95
7607 49.6280 76537.60 77716.10 478.19
7608 49.6340 76233.30 77645.30 478.61
7609 49.6400 76064.30 77584.40 478.00
7610 49.6460 76003.70 77532.60 477.75
7611 49.6520 75725.00 77488.80 477.67
7612 49.6580 75757.50 77452.10 475.55
7613 49.6640 75921.60 77421.90 477.15
7614 49.6700 75610.10 77397.10 476.12
7615 49.6760 75798.20 77377.40 476.65
7616 49.6820 75543.20 77361.90 474.88
7617 49.6880 75348.00 77349.80 476.81
7618 49.6940 75424.30 77340.50 475.43
7619 49.7000 75898.90 77333.10 477.20
7620 49.7060 75654.20 77327.00 476.77
7621 49.7120 76067.80 77321.50 478.26
7622 49.7180 75838.40 77317.00 478.12
7623 49.7240 76102.20 77310.00 477.22
7624 49.7300 76140.90 77301.30 478.08
7625 49.7360 75972.50 77290.10 477.78
7626 49.7420 75668.10 77275.60 476.89
7627 49.7480 75958.40 77257.20 478.99
7628 49.7540 76189.50 77234.40 479.02
7629 49.7600 76117.10 77206.80 478.26
7630 49.7660 76102.90 77174.00 478.48
7631 49.7720 76240.10 77135.90 478.42
7632 49.7780 76429.40 77089.90 479.04
7633 49.7840 76162.70 77041.10 477.77
7634 49.7900 76019.50 76987.30 479.21
7635 49.7960 76220.70 76928.90 478.19
7636 49.8020 76161.70 76866.50 478.05
7637 49.8080 76296.20 76801.20 478.78
7638 49.8140 76608.10 76733.30 477.68
7639 49.8200 75821.50 76664.00 476.64
7640 49.8260 75986.30 76594.50 478.18
7641 49.8320 75760.90 76525.40 477.12
7642 49.8380 75990.90 76458.20 478.44
7643 49.8440 75867.80 76393.70 476.61
7644 49.8500 75982.90 76333.40 476.13
7645 49.8560 75350.40 76278.20 474.34
7646 49.8620 75305.80 76229.20 475.69
7647 49.8680 75475.70 76187.60 474.64
7648 49.8740 75646.60 76154.30 476.40
7649 49.8800 75738.40 76130.60 475.59
7650 49.8860 75580.30 76117.50 475.29
7651 49.8920 75481.10 76115.70 476.65
7652 49.8980 75493.50 76126.40 475.19
7653 49.9040 75305.10 76150.50 476.61
7654 49.9100 75809.60 76188.90 477.04
7655 49.9160 75642.80 76242.60 476.34
7656 49.9220 76038.20 76307.80 476.74
7657 49.9280 76125.30 76394.00 477.71
7658 49.9340 75934.00 76497.70 477.72
7659 49.9400 76234.60 76619.30 479.01
7660 49.9460 76163.50 76759.30 479.09
7661 49.9520 76773.40 76917.80 479.62
7662 49.9580 76570.20 77094.80 480.00
7663 49.9640 76882.30 77290.50 480.40
7664 49.9700 77281.00 77503.70 481.23
7665 49.9760 77286.60 77733.90 481.50
7666 49.9820 77561.10 77979.60 483.77
7667 49.9880 77722.80 78239.00 483.16
7668 49.9940 78181.50 78510.10 484.92
7669 50.0000 78454.40 78789.70 485.49
7670 50.0060 78444.50 79075.80 486.38
7671 50.0120 78954.50 79364.70 486.43
7672 50.0180 78958.00 79653.40 488.05
7673 50.0240 79449.70 79939.40 488.11
7674 50.0300 79450.60 80219.80 488.98
7675 50.0360 79988.90 80492.90 489.46
7676 50.0420 79854.10 80756.70 489.43
7677 50.0480 80124.10 81010.40 491.27
7678 50.0540 80095.60 81252.60 490.25
7679 50.0600 80314.00 81482.00 489.82
7680 50.0660 80704.80 81697.10 491.89
7681 50.0720 81058.30 81895.10 491.58
7682 50.0780 81050.80 82072.60 493.02
7683 50.0840 81375.50 82224.50 493.45
7684 50.0900 80653.50 82344.90 492.30
7685 50.0960 80752.80 82427.70 492.78
7686 50.1020 80397.00 82465.90 493.00
7687 50.1080 80424.20 82453.00 491.45
7688 50.1140 79828.50 82384.40 489.27
7689 50.1200 79933.60 82256.60 490.16
7690 50.1260 79899.00 82068.90 488.45
7691 50.1320 79045.20 81823.40 488.74
7692 50.1380 78602.70 81524.20 486.08
7693 50.1440 78139.90 81177.50 485.37
7694 50.1500 78082.10 80792.00 484.75
7695 50.1560 77603.10 80376.20 482.54
7696 50.1620 77077.00 79939.20 481.85
7697 50.1680 76651.30 79489.50 480.39
7698 50.1740 76040.90 79035.10 478.03
7699 50.1800 75650.80 78582.40 476.45
7700 50.1860 75163.50 78137.10 475.18
7701 50.1920 74580.60 77703.90 473.82
7702 50.1980 74253.80 77285.90 471.30
7703 50.2040 73712.80 76885.80 469.73
7704 50.2100 73358.50 76504.90 469.48
7705 50.2160 72913.40 76144.60 468.56
7706 50.2220 72438.40 75805.40 464.92
7707 50.2280 72132.80 75487.10 464.84
7708 50.2340 71948.70 75189.50 465.15
7709 50.2400 71554.80 74912.30 463.43
7710 50.2460 71085.20 74654.90 463.24
7711 50.2520 71036.80 74416.40 462.56
7712 50.2580 70674.80 74196.00 461.94
7713 50.2640 70553.50 73992.90 459.02
7714 50.2700 70283.20 73806.00 460.48
7715 50.2760 70275.70 73634.30 459.42
7716 50.2820 70071.50 73477.30 458.27
7717 50.2880 69863.10 73333.70 458.08
7718 50.2940 69891.80 73202.90 458.01
7719 50.3000 69650.50 73083.80 456.70
7720 50.3060 69788.90 72975.70 456.59
7721 50.3120 69104.20 72881.30 454.69
7722 50.3180 68519.30 72793.10 451.79
7723 50.3240 68973.90 72713.60 456.72
7724 50.3300 68319.50 72642.40 455.45
7725 50.3360 68484.60 72578.90 455.14
7726 50.3420 68556.60 72522.50 454.74
7727 50.3480 68652.40 72472.70 455.12
7728 50.3540 68534.60 72429.30 453.51
7729 50.3600 68515.50 72393.20 454.43
7730 50.3660 68942.20 72361.10 455.51
7731 50.3720 68585.10 72334.20 454.62
7732 50.3780 68576.20 72312.10 454.95
7733 50.3840 68570.10 72294.70 455.53
7734 50.3900 68698.80 72281.80 455.51
7735 50.3960 68506.80 72273.30 454.39
7736 50.4020 68147.20 72263.60 453.93
7737 50.4080 68678.10 72258.00 455.67
7738 50.4140 68586.60 72256.40 454.46
7739 50.4200 68751.50 72258.60 455.12
7740 50.4260 68784.30 72264.90 455.27
7741 50.4320 68508.10 72275.20 455.48
7742 50.4380 68607.60 72289.30 455.11
7743 50.4440 68950.40 72307.40 455.59
7744 50.4500 68833.50 72329.40 455.31
7745 50.4560 68773.00 72356.00 455.61
7746 50.4620 68799.70 72386.60 455.47
7747 50.4680 69231.20 72422.00 456.33
7748 50.4740 68960.70 72461.90 456.41
7749 50.4800 69267.80 72506.70 456.92
7750 50.4860 69258.10 72556.90 457.79
7751 50.4920 69200.80 72612.70 458.46
7752 50.4980 69451.00 72674.20 459.32
7753 50.5040 69570.20 72742.30 457.50
7754 50.5100 69685.80 72817.30 457.87
7755 50.5160 69778.30 72899.50 460.30
7756 50.5220 70052.70 72989.80 459.85
7757 50.5280 70182.10 73088.80 460.55
7758 50.5340 70516.60 73197.10 461.55
7759 50.5400 70661.90 73315.60 462.30
7760 50.5460 70427.80 73445.00 462.35
7761 50.5520 71076.40 73586.30 464.27
7762 50.5580 71437.40 73740.40 465.09
7763 50.5640 72017.90 73908.60 466.46
7764 50.5700 72127.40 74091.40 467.07
7765 50.5760 72610.30 74290.40 469.03
7766 50.5820 73070.80 74506.60 469.82
7767 50.5880 73138.00 74741.30 469.79
7768 50.5940 73632.80 74995.60 471.04
7769 50.6000 74346.90 75270.60 474.19
7770 50.6060 74886.90 75567.80 474.60
7771 50.6120 75292.60 75888.10 476.52
7772 50.6180 75547.50 76232.60 478.00
7773 50.6240 76250.70 76602.70 479.33
7774 50.6300 76781.20 76998.80 481.53
7775 50.6360 77182.90 77422.20 483.36
7776 50.6420 77939.10 77873.10 484.83
7777 50.6480 78399.20 78351.60 486.57
7778 50.6540 79090.20 78857.70 487.56
7779 50.6600 79828.00 79390.40 490.55
7780 50.6660 80450.50 79949.20 492.49
7781 50.6720 81080.90 80531.60 494.31
7782 50.6780 81674.80 81134.90 494.98
7783 50.6840 82057.60 81755.00 497.66
7784 50.6900 83149.90 82386.50 500.21
7785 50.6960 83488.40 83022.80 501.01
7786 50.7020 83834.20 83656.00 503.80
7787 50.7080 84545.90 84274.30 504.11
7788 50.7140 85163.10 84868.70 506.45
7789 50.7200 85501.30 85424.60 506.23
7790 50.7260 85982.60 85928.70 508.64
7791 50.7320 86003.40 86367.10 509.06
7792 50.7380 86312.40 86726.70 509.41
7793 50.7440 85860.10 86995.40 508.68
7794 50.7500 86194.20 87164.30 508.80
7795 50.7560 86488.10 87228.00 511.77
7796 50.7620 86185.10 87184.70 509.24
7797 50.7680 86114.30 87032.60 508.03
7798 50.7740 85379.60 86786.50 508.32
7799 50.7800 85108.40 86451.80 505.69
7800 50.7860 84753.90 86041.40 504.41
7801 50.7920 84380.90 85567.40 503.45
7802 50.7980 83748.50 85044.20 502.95
7803 50.8040 83477.90 84485.30 500.72
7804 50.8100 82597.10 83903.50 498.02
7805 50.8160 82146.90 83310.10 497.97
7806 50.8220 81731.90 82714.90 495.01
7807 50.8280 81254.70 82125.80 493.15
7808 50.8340 80523.50 81549.30 491.77
7809 50.8400 79909.60 80990.80 490.73
7810 50.8460 79200.10 80453.80 488.32
7811 50.8520 78805.20 79940.90 486.24
7812 50.8580 78193.00 79454.30 485.04
7813 50.8640 78332.90 78995.30 484.27
7814 50.8700 77624.70 78564.50 483.17
7815 50.8760 76779.90 78161.90 480.60
7816 50.8820 76937.10 77787.60 480.51
7817 50.8880 76374.20 77440.60 479.85
7818 50.8940 76020.10 77120.40 477.83
7819 50.9000 75650.50 76826.10 476.79
7820 50.9060 75447.20 76556.70 475.86
7821 50.9120 75466.00 76311.00 477.00
7822 50.9180 75578.00 76087.70 475.95
7823 50.9240 75164.40 75885.70 475.59
7824 50.9300 75066.30 75703.40 475.62
7825 50.9360 74855.80 75539.70 472.82
7826 50.9420 75230.40 75393.30 475.41
7827 50.9480 74900.50 75262.70 473.96
7828 50.9540 74789.50 75146.90 473.85
7829 50.9600 74868.90 75044.50 473.86
7830 50.9660 74923.00 74954.40 473.23
7831 50.9720 74675.90 74876.00 473.93
7832 50.9780 74544.10 74808.20 471.64
7833 50.9840 74419.50 74750.10 472.63
7834 50.9900 74533.80 74701.00 474.00
7835 50.9960 74529.40 74661.50 473.50
7836 51.0020 74282.20 74629.40 472.64
7837 51.0080 74696.30 74605.10 473.32
7838 51.0140 74606.50 74588.60 473.17
7839 51.0200 74699.20 74579.40 473.02
7840 51.0260 74659.50 74577.40 471.92
7841 51.0320 74863.00 74582.60 475.01
7842 51.0380 74661.70 74594.80 474.98
7843 51.0440 74577.50 74613.50 475.33
7844 51.0500 74994.30 74639.60 474.82
7845 51.0560 74781.10 74672.20 475.30
7846 51.0620 75057.20 74711.50 474.81
7847 51.0680 75248.70 74757.30 476.04
7848 51.0740 75401.40 74809.40 475.21
7849 51.0800 75494.40 74867.80 476.28
7850 51.0860 75462.60 74932.00 475.87
7851 51.0920 75662.60 75002.20 475.91
7852 51.0980 75750.30 75077.90 477.45
7853 51.1040 75645.40 75159.00 476.02
7854 51.1100 76370.00 75245.00 477.57
7855 51.1160 76183.10 75335.90 479.27
7856 51.1220 76709.00 75431.10 479.52
7857 51.1280 76394.20 75530.20 479.49
7858 51.1340 77037.90 75633.20 481.28
7859 51.1400 77381.00 75739.10 481.99
7860 51.1460 77464.40 75847.60 482.88
7861 51.1520 77619.70 75957.60 483.87
7862 51.1580 77885.60 76069.90 484.60
7863 51.1640 77938.00 76183.30 484.35
7864 51.1700 78189.10 76297.40 485.48
7865 51.1760 78625.10 76411.30 486.09
7866 51.1820 78844.00 76524.80 486.35
7867 51.1880 78982.40 76637.60 486.85
7868 51.1940 79136.40 76749.20 487.78
7869 51.2000 79614.80 76859.30 489.95
7870 51.2060 79700.70 76968.10 489.27
7871 51.2120 79846.80 77075.10 487.30
7872 51.2180 80138.20 77180.80 490.42
7873 51.2240 80901.60 77284.80 492.22
7874 51.2300 80466.40 77388.20 491.66
7875 51.2360 81200.90 77491.00 493.06
7876 51.2420 81043.80 77594.00 493.92
7877 51.2480 81446.40 77698.10 493.83
7878 51.2540 82005.40 77803.80 496.06
7879 51.2600 82198.10 77912.30 497.60
7880 51.2660 82133.80 78024.50 497.11
7881 51.2720 82650.20 78141.50 498.79
7882 51.2780 82783.80 78264.30 498.41
7883 51.2840 82658.70 78394.10 500.55
7884 51.2900 82903.80 78532.20 498.57
7885 51.2960 83411.70 78679.50 500.06
7886 51.3020 83420.70 78837.30 500.72
7887 51.3080 83818.80 79007.10 502.19
7888 51.3140 84128.90 79189.50 502.00
7889 51.3200 84453.30 79386.40 502.74
7890 51.3260 84712.60 79598.40 503.90
7891 51.3320 84890.90 79826.90 505.87
7892 51.3380 85621.00 80073.40 506.57
7893 51.3440 85817.50 80338.90 509.14
7894 51.3500 86525.00 80624.70 508.30
7895 51.3560 86653.20 80932.10 511.23
7896 51.3620 87257.20 81262.40 512.14
7897 51.3680 87820.40 81616.50 512.34
7898 51.3740 88509.00 81997.00 515.31
7899 51.3800 89035.80 82403.50 516.05
7900 51.3860 89274.70 82838.10 519.73
7901 51.3920 90068.00 83302.00 519.64
7902 51.3980 90355.70 83796.30 522.10
7903 51.4040 90935.60 84322.10 522.17
7904 51.4100 91959.90 84880.40 525.03
7905 51.4160 92977.60 85472.70 528.30
7906 51.4220 93433.00 86099.60 530.39
7907 51.4280 94367.20 86762.30 534.14
7908 51.4340 95722.70 87460.30 536.07
7909 51.4400 96121.70 88194.40 538.70
7910 51.4460 97501.30 88964.60 542.01
7911 51.4520 98644.90 89770.50 543.30
7912 51.4580 99155.40 90610.60 546.01
7913 51.4640 100403.00 91484.30 548.31
7914 51.4700 101221.00 92388.70 552.04
7915 51.4760 102395.00 93320.80 555.06
7916 51.4820 103358.00 94275.80 557.90
7917 51.4880 104668.00 95248.20 561.83
7918 51.4940 105287.00 96230.50 561.73
7919 51.5000 105954.00 97213.20 567.08
7920 51.5060 107000.00 98186.60 568.55
7921 51.5120 107601.00 99137.20 572.23
7922 51.5180 108513.00 100051.00 571.79
7923 51.5240 109310.00 100913.00 573.75
7924 51.5300 109067.00 101708.00 575.60
7925 51.5360 109805.00 102419.00 575.86
7926 51.5420 109686.00 103033.00 575.34
7927 51.5480 109896.00 103541.00 575.33
7928 51.5540 109691.00 103933.00 575.45
7929 51.5600 109600.00 104206.00 574.92
7930 51.5660 109600.00 104362.00 573.52
7931 51.5720 109021.00 104404.00 573.70
7932 51.5780 108338.00 104342.00 570.37
7933 51.5840 107345.00 104187.00 570.41
7934 51.5900 106699.00 103950.00 567.47
7935 51.5960 105604.00 103644.00 562.71
7936 51.6020 105052.00 103281.00 561.72
7937 51.6080 104093.00 102873.00 559.71
7938 51.6140 102718.00 102428.00 557.89
7939 51.6200 101992.00 101954.00 553.61
7940 51.6260 100654.00 101459.00 549.89
7941 51.6320 99822.30 100947.00 547.54
7942 51.6380 99212.20 100419.00 544.52
7943 51.6440 97747.50 99879.90 542.04
7944 51.6500 96691.80 99330.50 540.01
7945 51.6560 95854.70 98772.20 537.28
7946 51.6620 95261.10 98206.30 534.29
7947 51.6680 94110.40 97633.40 532.32
7948 51.6740 93566.60 97054.30 529.11
7949 51.6800 92763.70 96469.20 528.10
7950 51.6860 91316.20 95879.20 524.25
7951 51.6920 90817.30 95285.30 522.22
7952 51.6980 90032.00 94688.50 521.19
7953 51.7040 89934.50 94089.80 520.49
7954 51.7100 88946.50 93490.50 516.97
7955 51.7160 88873.70 92892.20 516.84
7956 51.7220 88111.30 92296.40 514.41
7957 51.7280 87289.90 91703.70 512.97
7958 51.7340 86866.80 91116.00 510.86
7959 51.7400 85972.00 90534.40 509.69
7960 51.7460 85636.80 89960.40 508.13
7961 51.7520 85465.00 89394.80 506.86
7962 51.7580 84609.50 88839.00 504.99
7963 51.7640 84544.60 88294.10 504.70
7964 51.7700 83858.80 87760.30 503.12
7965 51.7760 84007.40 87238.60 501.93
7966 51.7820 83560.10 86729.90 501.00
7967 51.7880 83372.60 86234.50 500.32
7968 51.7940 82757.80 85753.00 499.30
7969 51.8000 82393.20 85285.50 498.27
7970 51.8060 82311.10 84832.60 496.89
7971 51.8120 82171.30 84394.30 496.74
7972 51.8180 81658.10 83970.40 495.60
7973 51.8240 81927.80 83561.20 494.80
7974 51.8300 81397.90 83166.00 494.67
7975 51.8360 81031.50 82785.40 493.66
7976 51.8420 80922.60 82418.60 494.11
7977 51.8480 80741.60 82065.20 492.04
7978 51.8540 80300.80 81725.60 490.24
7979 51.8600 80329.60 81398.00 491.06
7980 51.8660 80295.10 81077.90 488.11
7981 51.8720 80076.40 80773.90 491.36
7982 51.8780 79857.90 80480.80 489.46
7983 51.8840 79805.80 80197.70 490.14
7984 51.8900 79374.60 79924.00 487.22
7985 51.8960 79437.20 79659.50 489.01
7986 51.9020 79337.90 79403.00 488.28
7987 51.9080 78938.60 79154.20 487.47
7988 51.9140 78751.30 78912.70 487.06
7989 51.9200 78817.20 78677.90 485.49
7990 51.9260 78642.10 78449.80 486.30
7991 51.9320 78726.70 78227.90 486.71
7992 51.9380 78396.50 78012.40 486.12
7993 51.9440 78016.00 77803.30 484.90
7994 51.9500 77785.00 77600.70 483.28
7995 51.9560 77538.80 77404.80 483.59
7996 51.9620 77609.80 77216.00 482.93
7997 51.9680 77329.00 77034.90 482.95
7998 51.9740 77614.50 76861.50 481.88
7999 51.9800 77042.60 76696.70 481.58
8000 51.9860 76935.30 76541.40 480.88
8001 51.9920 76733.20 76395.40 481.42
8002 51.9980 76359.60 76259.70 480.08
8003 52.0040 76447.70 76134.90 480.09
8004 52.0100 76104.50 76021.60 479.46
8005 52.0160 76010.80 75920.20 477.33
8006 52.0220 75882.10 75831.30 477.93
8007 52.0280 75871.10 75755.60 477.33
8008 52.0340 75688.70 75693.20 477.41
8009 52.0400 75528.50 75644.70 477.10
8010 52.0460 75576.10 75610.30 476.14
8011 52.0520 75490.70 75590.40 476.48
8012 52.0580 75325.00 75585.10 475.14
8013 52.0640 75188.00 75594.50 473.52
8014 52.0700 75314.80 75621.00 476.38
8015 52.0760 75481.60 75659.40 475.02
8016 52.0820 75349.10 75711.90 476.58
8017 52.0880 75361.40 75777.80 475.94
8018 52.0940 75437.90 75856.20 475.79
8019 52.1000 75009.60 75945.90 476.10
8020 52.1060 75163.90 76045.20 476.26
8021 52.1120 75056.30 76154.00 474.88
8022 52.1180 75213.10 76265.70 475.86
8023 52.1240 74937.60 76379.00 475.09
8024 52.1300 75015.10 76490.60 475.57
8025 52.1360 74759.70 76595.90 474.91
8026 52.1420 74807.50 76690.60 474.87
8027 52.1480 74957.50 76769.50 476.42
8028 52.1540 74953.30 76827.80 475.59
8029 52.1600 74901.70 76861.20 474.38
8030 52.1660 74944.90 76865.90 476.61
8031 52.1720 74681.60 76838.70 473.58
8032 52.1780 74725.70 76777.80 474.07
8033 52.1840 74673.70 76683.40 475.09
8034 52.1900 74408.10 76556.00 473.41
8035 52.1960 74240.50 76397.90 472.79
8036 52.2020 74487.20 76212.90 472.76
8037 52.2080 74132.30 76005.00 472.32
8038 52.2140 74059.70 75778.50 471.26
8039 52.2200 73868.80 75538.30 470.14
8040 52.2260 73709.10 75289.10 470.22
8041 52.2320 73682.70 75034.80 470.56
8042 52.2380 73170.80 74779.00 470.66
8043 52.2440 72775.20 74525.30 469.32
8044 52.2500 72941.70 74276.40 468.50
8045 52.2560 72867.00 74036.90 469.55
8046 52.2620 72670.70 73802.90 466.88
8047 52.2680 72351.30 73578.50 468.53
8048 52.2740 72284.60 73364.70 467.12
8049 52.2800 72352.50 73161.90 467.36
8050 52.2860 71913.00 72970.60 464.25
8051 52.2920 71722.10 72791.00 463.53
8052 52.2980 71850.20 72622.90 465.51
8053 52.3040 71987.00 72466.40 462.83
8054 52.3100 71121.10 72321.40 462.90
8055 52.3160 70959.20 72187.50 461.75
8056 52.3220 70700.00 72064.70 460.87
8057 52.3280 70836.90 71952.10 462.73
8058 52.3340 70555.10 71849.70 463.25
8059 52.3400 70399.80 71757.20 462.59
8060 52.3460 70534.80 71674.00 462.04
8061 52.3520 70680.80 71599.60 462.72
8062 52.3580 70499.20 71533.80 460.72
8063 52.3640 70772.50 71476.00 461.39
8064 52.3700 70511.40 71426.20 461.44
8065 52.3760 70524.10 71383.90 461.50
8066 52.3820 70663.80 71348.60 462.73
8067 52.3880 70644.50 71320.00 461.97
8068 52.3940 70212.10 71297.80 462.06
8069 52.4000 70448.70 71281.90 460.50
8070 52.4060 70241.50 71271.80 460.75
8071 52.4120 70448.40 71267.70 461.88
8072 52.4180 70456.90 71269.30 460.43
8073 52.4240 70414.80 71276.30 462.24
8074 52.4300 70582.40 71288.90 461.50
8075 52.4360 70670.50 71306.80 462.36
8076 52.4420 70515.50 71329.90 461.39
8077 52.4480 70693.40 71358.00 460.88
8078 52.4540 70638.20 71391.30 463.00
8079 52.4600 70659.20 71429.40 461.77
8080 52.4660 70863.30 71472.40 463.32
8081 52.4720 71138.00 71520.20 463.23
8082 52.4780 71306.60 71572.60 463.60
8083 52.4840 70790.20 71629.60 462.90
8084 52.4900 71129.70 71691.00 464.81
8085 52.4960 71338.80 71756.50 465.65
8086 52.5020 71879.30 71826.20 465.62
8087 52.5080 71612.00 71895.70 465.08
8088 52.5140 71982.80 71972.80 466.68
8089 52.5200 71804.80 72053.30 466.35
8090 52.5260 71769.90 72136.80 466.79
8091 52.5320 72155.40 72223.00 467.25
8092 52.5380 72264.40 72311.50 468.02
8093 52.5440 72153.30 72402.10 467.82
8094 52.5500 72384.40 72494.20 469.56
8095 52.5560 72646.00 72587.40 468.59
8096 52.5620 72985.20 72681.10 470.06
8097 52.5680 73417.00 72775.20 471.38
8098 52.5740 73160.10 72868.80 471.10
8099 52.5800 73451.80 72961.40 472.93
8100 52.5860 73917.00 73052.80 471.85
8101 52.5920 73819.70 73142.40 470.93
8102 52.5980 74035.30 73229.70 474.46
8103 52.6040 74411.50 73314.50 473.70
8104 52.6100 74602.70 73396.40 474.58
8105 52.6160 74451.60 73475.60 474.15
8106 52.6220 74515.00 73551.80 475.83
8107 52.6280 74906.00 73625.20 475.20
8108 52.6340 74944.50 73695.90 475.32
8109 52.6400 74954.00 73764.40 476.82
8110 52.6460 75502.70 73831.20 478.06
8111 52.6520 75327.00 73896.90 476.61
8112 52.6580 75791.70 73962.30 478.57
8113 52.6640 75870.80 74028.20 477.87
8114 52.6700 75656.80 74095.70 477.38
8115 52.6760 75988.30 74165.60 477.87
8116 52.6820 75546.60 74239.30 478.30
8117 52.6880 76125.50 74317.70 478.62
8118 52.6940 76303.30 74394.50 480.79
8119 52.7000 76158.90 74485.60 479.64
8120 52.7060 76612.00 74584.70 480.25
8121 52.7120 76568.00 74693.10 481.04
8122 52.7180 76591.90 74811.70 479.99
8123 52.7240 76976.80 74941.40 482.07
8124 52.7300 77342.80 75083.40 482.28
8125 52.7360 77147.20 75238.40 483.30
8126 52.7420 77675.30 75407.20 484.24
8127 52.7480 77504.60 75590.60 480.84
8128 52.7540 77872.90 75789.00 486.28
8129 52.7600 78445.70 76002.80 486.58
8130 52.7660 78531.70 76232.40 486.79
8131 52.7720 78746.30 76477.90 486.14
8132 52.7780 78731.40 76738.50 487.73
8133 52.7840 79218.40 77014.30 487.40
8134 52.7900 79260.80 77304.00 488.87
8135 52.7960 79897.30 77606.30 491.68
8136 52.8020 79918.60 77919.40 490.47
8137 52.8080 80299.70 78240.20 491.88
8138 52.8140 80630.40 78565.80 493.18
8139 52.8200 81195.00 78891.80 493.38
8140 52.8260 81296.30 79213.10 494.99
8141 52.8320 81341.70 79524.60 494.23
8142 52.8380 81391.00 79819.10 496.27
8143 52.8440 81736.50 80089.80 496.05
8144 52.8500 81615.30 80329.30 496.68
8145 52.8560 82158.40 80531.10 496.76
8146 52.8620 82247.80 80688.10 496.17
8147 52.8680 82324.40 80794.90 498.97
8148 52.8740 82259.20 80847.80 497.79
8149 52.8800 82280.10 80844.90 497.80
8150 52.8860 82284.20 80786.10 497.98
8151 52.8920 82299.30 80673.60 498.08
8152 52.8980 82433.40 80511.00 496.83
8153 52.9040 81749.60 80303.90 495.69
8154 52.9100 81841.20 80058.60 497.60
8155 52.9160 81724.90 79781.80 496.16
8156 52.9220 82063.30 79480.30 497.64
8157 52.9280 81535.20 79161.20 494.62
8158 52.9340 81621.80 78830.30 494.45
8159 52.9400 81147.50 78493.20 494.85
8160 52.9460 80919.30 78154.40 493.14
8161 52.9520 80688.00 77817.90 492.99
8162 52.9580 80695.90 77487.00 492.62
8163 52.9640 80664.40 77163.70 491.95
8164 52.9700 80675.90 76849.90 490.40
8165 52.9760 79948.00 76547.40 489.73
8166 52.9820 79553.30 76256.80 489.50
8167 52.9880 79294.60 75978.70 489.20
8168 52.9940 79032.40 75713.40 487.99
8169 53.0000 78489.10 75461.50 487.10
8170 53.0060 78522.60 75221.90 486.05
8171 53.0120 78616.80 74995.10 485.36
8172 53.0180 78298.50 74780.30 484.91
8173 53.0240 78017.30 74577.20 483.36
8174 53.0300 77641.40 74385.00 484.85
8175 53.0360 77500.50 74203.20 483.64
8176 53.0420 77132.30 74030.80 483.32
8177 53.0480 77068.10 73867.10 481.95
8178 53.0540 76683.80 73711.50 481.93
8179 53.0600 76904.80 73563.20 480.53
8180 53.0660 76498.70 73420.90 480.60
8181 53.0720 76264.20 73284.40 478.18
8182 53.0780 76339.20 73152.80 479.00
8183 53.0840 76240.40 73025.20 478.49
8184 53.0900 75539.90 72901.10 476.20
8185 53.0960 75337.50 72779.80 476.73
8186 53.1020 74940.40 72661.10 473.34
8187 53.1080 74924.20 72544.00 474.82
8188 53.1140 74894.60 72428.20 473.74
8189 53.1200 74968.00 72313.60 475.44
8190 53.1260 74802.10 72199.70 474.39
8191 53.1320 74431.80 72086.60 473.22
8192 53.1380 74402.90 71973.80 472.90
8193 53.1440 73954.90 71861.70 472.22
8194 53.1500 74103.90 71749.90 473.63
8195 53.1560 73985.30 71638.70 472.31
8196 53.1620 74001.80 71528.00 471.30
8197 53.1680 73300.00 71418.00 470.85
8198 53.1740 73436.10 71309.00 469.25
8199 53.1800 73040.00 71200.70 469.13
8200 53.1860 73179.60 71093.80 468.87
8201 53.1920 72966.50 70988.00 469.02
8202 53.1980 72977.80 70883.80 467.34
8203 53.2040 72595.10 70781.20 468.45
8204 53.2100 72750.60 70680.40 466.04
8205 53.2160 72820.00 70581.60 466.94
8206 53.2220 72515.50 70485.00 466.60
8207 53.2280 72234.90 70390.60 465.41
8208 53.2340 72803.40 70298.40 466.48
8209 53.2400 72291.20 70208.70 467.13
8210 53.2460 72154.70 70121.60 464.83
8211 53.2520 72562.50 70037.00 467.02
8212 53.2580 71994.80 69955.00 467.25
8213 53.2640 72215.50 69875.70 465.55
8214 53.2700 72099.50 69799.10 466.28
8215 53.2760 72413.40 69725.10 465.71
8216 53.2820 71848.10 69653.90 466.30
8217 53.2880 71822.40 69585.30 464.36
8218 53.2940 71729.10 69519.50 465.15
8219 53.3000 71698.70 69456.40 465.07
8220 53.3060 71733.10 69396.10 464.21
8221 53.3120 71889.00 69338.20 463.32
8222 53.3180 71525.00 69282.90 463.41
8223 53.3240 71419.00 69230.10 463.02
8224 53.3300 71483.80 69179.80 463.52
8225 53.3360 71148.90 69131.90 464.21
8226 53.3420 71237.30 69086.20 463.65
8227 53.3480 71569.80 69042.90 462.64
8228 53.3540 71189.60 69001.90 462.41
8229 53.3600 71119.20 68960.50 463.14
8230 53.3660 71017.70 68923.50 461.83
8231 53.3720 71203.40 68888.50 462.72
8232 53.3780 71089.10 68855.50 462.50
8233 53.3840 71088.70 68824.20 462.56
8234 53.3900 70998.00 68794.60 461.77
8235 53.3960 70645.20 68766.50 462.21
8236 53.4020 70438.00 68740.10 459.41
8237 53.4080 70486.90 68714.90 460.77
8238 53.4140 70527.00 68691.00 461.15
8239 53.4200 70624.50 68668.30 460.84
8240 53.4260 70780.30 68646.70 460.36
8241 53.4320 70371.60 68626.00 461.31
8242 53.4380 70600.20 68606.30 461.42
8243 53.4440 70578.50 68587.30 461.11
8244 53.4500 70392.70 68568.90 461.04
8245 53.4560 70309.50 68551.10 459.19
8246 53.4620 70519.60 68533.70 459.65
8247 53.4680 70263.70 68516.80 459.45
8248 53.4740 70209.40 68500.20 460.58
8249 53.4800 70192.40 68483.90 460.45
8250 53.4860 70278.70 68467.80 461.27
8251 53.4920 70113.10 68452.80 459.40
8252 53.4980 70160.70 68436.80 459.92
8253 53.5040 69858.40 68420.80 459.82
8254 53.5100 69620.90 68404.70 460.68
8255 53.5160 69545.30 68388.40 458.56
8256 53.5220 69512.70 68372.10 458.80
8257 53.5280 69670.20 68355.40 460.68
8258 53.5340 69383.80 68338.50 458.58
8259 53.5400 69651.40 68321.30 457.70
8260 53.5460 69165.00 68303.70 457.15
8261 53.5520 69217.80 68285.80 458.59
8262 53.5580 69397.00 68266.60 457.68
8263 53.5640 69215.40 68247.70 457.76
8264 53.5700 69416.00 68228.00 456.91
8265 53.5760 69356.80 68207.70 456.33
8266 53.5820 68902.00 68186.80 456.35
8267 53.5880 68980.00 68165.00 457.59
8268 53.5940 68916.40 68142.40 455.75
8269 53.6000 68800.10 68118.90 455.89
8270 53.6060 69095.50 68094.50 456.64
8271 53.6120 68863.20 68069.30 455.75
8272 53.6180 68383.00 68043.20 454.62
8273 53.6240 68304.50 68016.10 453.87
8274 53.6300 68516.00 67988.20 454.18
8275 53.6360 68196.40 67959.30 453.26
8276 53.6420 68276.40 67929.70 452.60
8277 53.6480 67897.30 67899.40 452.70
8278 53.6540 68084.10 67868.30 452.53
8279 53.6600 67714.90 67836.90 451.86
8280 53.6660 67756.30 67805.00 452.02
8281 53.6720 67580.50 67773.10 450.66
8282 53.6780 67521.60 67740.70 451.20
8283 53.6840 67352.60 67708.10 449.45
8284 53.6900 67332.10 67675.70 450.72
8285 53.6960 67255.20 67643.30 449.93
8286 53.7020 67145.20 67611.30 450.44
8287 53.7080 66893.10 67579.70 449.16
8288 53.7140 67147.10 67548.50 449.17
8289 53.7200 67103.80 67517.80 449.81
8290 53.7260 67208.00 67487.90 448.20
8291 53.7320 66802.90 67458.60 448.36
8292 53.7380 66504.20 67430.10 448.40
8293 53.7440 66531.10 67402.50 448.19
8294 53.7500 66599.60 67375.80 448.37
8295 53.7560 66384.90 67350.10 447.76
8296 53.7620 66466.60 67325.30 446.30
8297 53.7680 66109.20 67301.40 446.67
8298 53.7740 66195.60 67278.60 446.67
8299 53.7800 66294.60 67256.90 446.89
8300 53.7860 66371.40 67236.30 447.33
8301 53.7920 66032.00 67219.60 446.49
8302 53.7980 65985.90 67201.20 445.66
8303 53.8040 66254.50 67183.80 444.79
8304 53.8100 65989.50 67167.60 446.04
8305 53.8160 66129.00 67152.30 446.16
8306 53.8220 66048.70 67138.40 446.05
8307 53.8280 65990.30 67125.30 445.72
8308 53.8340 65846.70 67113.40 445.07
8309 53.8400 66202.20 67102.60 446.14
8310 53.8460 65950.80 67092.80 445.36
8311 53.8520 65696.50 67083.90 443.73
8312 53.8580 65738.60 67076.20 444.83
8313 53.8640 65685.20 67069.50 444.09
8314 53.8700 65684.40 67063.80 442.74
8315 53.8760 66174.80 67059.10 444.90
8316 53.8820 65991.50 67055.30 444.90
8317 53.8880 65533.60 67052.40 444.37
8318 53.8940 65712.10 67050.50 444.95
8319 53.9000 65853.00 67049.60 445.21
8320 53.9060 65423.00 67049.50 444.32
8321 53.9120 65999.00 67050.20 445.54
8322 53.9180 65863.10 67051.90 444.41
8323 53.9240 65786.70 67054.60 444.03
8324 53.9300 65924.10 67058.10 446.11
8325 53.9360 65689.90 67060.50 445.12
8326 53.9420 65756.90 67063.80 445.01
8327 53.9480 65500.10 67067.90 445.03
8328 53.9540 65989.30 67073.00 444.92
8329 53.9600 65524.00 67079.00 443.24
8330 53.9660 65642.00 67086.10 445.33
8331 53.9720 65727.10 67094.10 444.03
8332 53.9780 65603.50 67103.10 444.38
8333 53.9840 65564.40 67113.30 444.68
8334 53.9900 65686.40 67124.40 444.32
8335 53.9960 65516.30 67136.70 444.28
8336 54.0020 65464.90 67150.40 444.46
8337 54.0080 65478.50 67165.30 445.51
8338 54.0140 65409.70 67181.50 443.49
8339 54.0200 65429.70 67199.20 444.15
8340 54.0260 65692.10 67218.50 444.06
8341 54.0320 65601.10 67239.30 444.22
8342 54.0380 65786.80 67261.80 444.96
8343 54.0440 65630.90 67286.40 444.92
8344 54.0500 65655.60 67312.90 444.84
8345 54.0560 65681.20 67341.50 443.98
8346 54.0620 65753.90 67372.30 442.92
8347 54.0680 65901.60 67405.70 445.41
8348 54.0740 66144.80 67436.90 445.02
8349 54.0800 66069.00 67475.80 446.77
8350 54.0860 66183.50 67518.00 445.74
8351 54.0920 65956.00 67563.50 445.82
8352 54.0980 66294.60 67612.50 447.06
8353 54.1040 65984.60 67665.30 447.69
8354 54.1100 66262.90 67722.70 447.38
8355 54.1160 66058.00 67784.30 444.73
8356 54.1220 66448.80 67851.20 448.24
8357 54.1280 66463.10 67922.90 447.84
8358 54.1340 66429.90 68001.00 449.00
8359 54.1400 66414.10 68085.30 448.04
8360 54.1460 66715.30 68176.20 449.57
8361 54.1520 67003.60 68274.50 450.03
8362 54.1580 67228.20 68380.50 450.22
8363 54.1640 67598.20 68494.70 452.32
8364 54.1700 67527.40 68617.80 451.71
8365 54.1760 67801.80 68750.10 453.30
8366 54.1820 67843.80 68892.20 452.63
8367 54.1880 68104.60 69044.90 453.35
8368 54.1940 68070.40 69208.40 453.18
8369 54.2000 68680.60 69383.40 454.50
8370 54.2060 68401.70 69570.20 454.51
8371 54.2120 69099.90 69769.20 455.45
8372 54.2180 69029.10 69980.90 456.67
8373 54.2240 69267.60 70205.50 455.17
8374 54.2300 69608.80 70442.70 456.22
8375 54.2360 69821.80 70693.40 460.00
8376 54.2420 70047.30 70955.80 460.91
8377 54.2480 70098.20 71229.90 460.72
8378 54.2540 70511.80 71508.30 461.60
8379 54.2600 70907.40 71802.50 462.80
8380 54.2660 70983.70 72104.30 461.99
8381 54.2720 71616.80 72410.90 465.50
8382 54.2780 72141.20 72718.90 466.32
8383 54.2840 72091.50 73024.90 466.25
8384 54.2900 72195.00 73324.40 466.31
8385 54.2960 72323.10 73611.40 467.39
8386 54.3020 72771.10 73880.20 465.65
8387 54.3080 72734.10 74124.60 467.74
8388 54.3140 72301.40 74337.90 466.26
8389 54.3200 72030.40 74514.10 466.10
8390 54.3260 72327.70 74647.60 469.49
8391 54.3320 72338.20 74734.30 470.55
8392 54.3380 72568.50 74771.10 469.45
8393 54.3440 72408.20 74756.70 468.69
8394 54.3500 72547.00 74692.00 469.56
8395 54.3560 72609.70 74579.20 468.79
8396 54.3620 72414.10 74422.40 468.12
8397 54.3680 72350.70 74227.00 466.95
8398 54.3740 72187.60 73998.60 466.89
8399 54.3800 71943.40 73743.80 466.62
8400 54.3860 71475.50 73469.00 465.82
8401 54.3920 71041.50 73179.80 464.86
8402 54.3980 70759.10 72881.90 462.33
8403 54.4040 70553.40 72580.20 463.34
8404 54.4100 70740.30 72279.80 463.29
8405 54.4160 70532.40 71981.50 460.92
8406 54.4220 69882.20 71689.10 460.25
8407 54.4280 69599.70 71404.50 459.86
8408 54.4340 69554.70 71129.30 459.74
8409 54.4400 69483.60 70864.60 457.88
8410 54.4460 68951.80 70610.80 456.61
8411 54.4520 68849.10 70368.30 456.14
8412 54.4580 68794.00 70137.50 456.61
8413 54.4640 68142.90 69918.00 455.45
8414 54.4700 68378.80 69709.60 454.43
8415 54.4760 68261.40 69512.40 454.07
8416 54.4820 67983.30 69325.70 453.61
8417 54.4880 67763.60 69149.50 453.80
8418 54.4940 67512.60 68983.40 453.28
8419 54.5000 67583.50 68826.80 452.72
8420 54.5060 67483.80 68679.50 451.79
8421 54.5120 67478.30 68540.90 452.26
8422 54.5180 67012.30 68410.60 451.58
8423 54.5240 66875.20 68288.30 450.30
8424 54.5300 66754.10 68173.60 450.15
8425 54.5360 66889.00 68066.20 450.63
8426 54.5420 66716.80 67965.80 450.63
8427 54.5480 66390.10 67871.80 449.42
8428 54.5540 66309.20 67784.00 448.43
8429 54.5600 66528.50 67702.00 449.32
8430 54.5660 66642.00 67625.50 449.15
8431 54.5720 66531.30 67554.20 449.23
8432 54.5780 66067.60 67488.00 449.62
8433 54.5840 66336.00 67426.60 446.88
8434 54.5900 66014.50 67369.70 446.21
8435 54.5960 66313.10 67317.00 448.36
8436 54.6020 66447.60 67268.50 448.27
8437 54.6080 66249.00 67224.00 447.99
8438 54.6140 66155.60 67183.20 447.53
8439 54.6200 65911.70 67146.20 448.40
8440 54.6260 66221.30 67112.70 447.19
8441 54.6320 65928.30 67082.80 446.81
8442 54.6380 65864.90 67056.30 447.17
8443 54.6440 66168.70 67033.20 447.83
8444 54.6500 65712.10 67013.40 446.22
8445 54.6560 65760.90 66996.90 446.79
8446 54.6620 66048.90 66983.60 446.55
8447 54.6680 65897.20 66973.70 446.04
8448 54.6740 65981.60 66966.90 446.78
8449 54.6800 65807.40 66963.60 445.15
8450 54.6860 65730.80 66963.80 445.57
8451 54.6920 65651.90 66967.40 446.80
8452 54.6980 65666.70 66974.60 445.93
8453 54.7040 65720.10 66985.40 445.64
8454 54.7100 66179.50 67000.00 447.11
8455 54.7160 66136.00 67018.60 446.12
8456 54.7220 65888.60 67041.20 445.82
8457 54.7280 66049.00 67068.00 446.86
8458 54.7340 66136.30 67099.20 447.44
8459 54.7400 66159.50 67135.00 447.33
8460 54.7460 66052.70 67175.50 445.54
8461 54.7520 66347.10 67221.20 447.38
8462 54.7580 66700.20 67272.00 449.40
8463 54.7640 66547.80 67328.20 449.50
8464 54.7700 66675.90 67390.20 448.69
8465 54.7760 66740.40 67458.00 448.34
8466 54.7820 66865.50 67532.00 449.05
8467 54.7880 67151.60 67612.50 449.89
8468 54.7940 67339.10 67699.60 450.57
8469 54.8000 67118.30 67793.60 450.49
8470 54.8060 67413.30 67894.60 451.07
8471 54.8120 67888.00 68002.70 453.71
8472 54.8180 67860.10 68118.10 451.71
8473 54.8240 68306.50 68241.00 453.07
8474 54.8300 68532.90 68371.20 453.61
8475 54.8360 68475.80 68508.70 455.37
8476 54.8420 68331.00 68653.10 455.07
8477 54.8480 68690.90 68804.20 456.36
8478 54.8540 69044.70 68961.40 456.17
8479 54.8600 69281.10 69123.90 456.51
8480 54.8660 69793.40 69290.80 459.03
8481 54.8720 69712.50 69460.50 457.97
8482 54.8780 69462.50 69628.50 459.09
8483 54.8840 69810.50 69798.50 459.06
8484 54.8900 70123.80 69965.30 460.64
8485 54.8960 70221.80 70125.60 459.43
8486 54.9020 70090.30 70276.80 460.10
8487 54.9080 70604.30 70415.20 461.02
8488 54.9140 70643.20 70537.60 461.79
8489 54.9200 70526.50 70640.60 462.23
8490 54.9260 70996.90 70721.30 462.63
8491 54.9320 70682.60 70777.40 461.20
8492 54.9380 70920.30 70807.40 462.44
8493 54.9440 71022.40 70810.50 462.09
8494 54.9500 70905.10 70787.10 462.39
8495 54.9560 70820.70 70738.30 462.27
8496 54.9620 70957.00 70666.40 462.69
8497 54.9680 71276.20 70574.20 462.71
8498 54.9740 71195.80 70464.90 462.68
8499 54.9800 70755.00 70341.60 460.18
8500 54.9860 70648.40 70208.30 461.48
8501 54.9920 70427.70 70067.80 462.42
8502 54.9980 70175.70 69923.50 460.42
8503 55.0040 70317.90 69777.80 460.55
8504 55.0100 70557.30 69633.30 460.49
8505 55.0160 70208.50 69490.80 460.20
8506 55.0220 70593.60 69354.20 459.94
8507 55.0280 69833.30 69223.70 459.69
8508 55.0340 69501.60 69100.10 458.65
8509 55.0400 69600.40 68984.30 459.03
8510 55.0460 69530.50 68877.00 458.28
8511 55.0520 69482.90 68778.20 458.36
8512 55.0580 69355.00 68688.80 457.21
8513 55.0640 69383.30 68608.30 457.82
8514 55.0700 69245.20 68538.10 455.94
8515 55.0760 69273.20 68476.10 456.67
8516 55.0820 69006.60 68423.20 455.51
8517 55.0880 68991.00 68379.30 455.28
8518 55.0940 68909.20 68344.20 454.12
8519 55.1000 68828.00 68317.60 455.25
8520 55.1060 68260.20 68299.40 452.70
8521 55.1120 68709.20 68289.20 453.77
8522 55.1180 68522.90 68286.70 455.21
8523 55.1240 68720.60 68291.90 454.54
8524 55.1300 68352.30 68304.30 454.08
8525 55.1360 68927.30 68323.70 454.81
8526 55.1420 68572.80 68349.90 454.51
8527 55.1480 68297.50 68382.60 454.94
8528 55.1540 68722.30 68421.90 455.57
8529 55.1600 68994.70 68467.60 455.65
8530 55.1660 68515.40 68519.60 454.35
8531 55.1720 68898.70 68577.80 454.95
8532 55.1780 68592.70 68642.40 455.17
8533 55.1840 68968.60 68713.30 455.27
8534 55.1900 68843.70 68790.70 456.01
8535 55.1960 68839.60 68874.40 454.89
8536 55.2020 69150.20 68964.40 456.50
8537 55.2080 69215.30 69060.70 456.16
8538 55.2140 69700.20 69163.50 454.45
8539 55.2200 69425.70 69272.40 457.47
8540 55.2260 69557.80 69387.40 456.42
8541 55.2320 70019.50 69508.40 458.22
8542 55.2380 70238.00 69635.00 459.89
8543 55.2440 70180.10 69767.20 459.23
8544 55.2500 70782.70 69904.40 459.74
8545 55.2560 70593.80 70046.40 462.52
8546 55.2620 70734.80 70192.30 461.31
8547 55.2680 70957.90 70342.10 463.99
8548 55.2740 71705.70 70494.80 463.91
8549 55.2800 71684.70 70649.90 465.44
8550 55.2860 71950.20 70806.50 465.36
8551 55.2920 71897.20 70963.70 465.34
8552 55.2980 72216.40 71120.90 467.07
8553 55.3040 72538.30 71276.80 467.63
8554 55.3100 72739.10 71430.30 467.45
8555 55.3160 72752.40 71580.70 467.04
8556 55.3220 73329.20 71728.20 467.38
8557 55.3280 73243.20 71868.50 469.62
8558 55.3340 73435.90 72002.10 472.42
8559 55.3400 73599.80 72128.00 471.29
8560 55.3460 74101.50 72245.40 472.48
8561 55.3520 74131.50 72353.20 472.04
8562 55.3580 74123.60 72451.60 472.34
8563 55.3640 74412.70 72538.30 472.89
8564 55.3700 74258.70 72613.70 473.41
8565 55.3760 74578.60 72677.80 474.60
8566 55.3820 74723.00 72730.40 474.12
8567 55.3880 74255.30 72771.80 474.43
8568 55.3940 74314.80 72802.40 472.73
8569 55.4000 74290.00 72822.80 472.61
8570 55.4060 74261.60 72833.90 472.52
8571 55.4120 74011.60 72836.50 473.37
8572 55.4180 74451.20 72831.80 473.58
8573 55.4240 73781.70 72820.60 472.15
8574 55.4300 73927.70 72804.50 472.44
8575 55.4360 74444.10 72784.50 472.46
8576 55.4420 74007.60 72761.80 473.29
8577 55.4480 73914.40 72737.70 473.30
8578 55.4540 73752.20 72713.40 471.05
8579 55.4600 73575.60 72690.00 470.09
8580 55.4660 73786.90 72668.60 471.93
8581 55.4720 73647.20 72650.10 470.79
8582 55.4780 73830.60 72635.40 472.71
8583 55.4840 73264.90 72625.40 472.04
8584 55.4900 73170.00 72624.50 470.49
8585 55.4960 73363.30 72625.80 471.02
8586 55.5020 72967.70 72633.40 471.35
8587 55.5080 73109.50 72647.90 471.28
8588 55.5140 73073.90 72669.30 470.46
8589 55.5200 72853.90 72697.70 470.14
8590 55.5260 72587.60 72732.60 470.32
8591 55.5320 72689.90 72774.20 471.27
8592 55.5380 72691.70 72821.20 469.17
8593 55.5440 72975.50 72872.70 470.25
8594 55.5500 73004.00 72927.10 469.02
8595 55.5560 72619.30 72982.60 468.45
8596 55.5620 72973.30 73036.90 470.83
8597 55.5680 73102.70 73087.00 469.81
8598 55.5740 73291.00 73129.90 470.61
8599 55.5800 73093.90 73162.10 469.86
8600 55.5860 73296.80 73179.50 470.71
8601 55.5920 73007.00 73178.60 469.83
8602 55.5980 72803.60 73155.80 469.41
8603 55.6040 73073.40 73108.10 469.52
8604 55.6100 73148.60 73032.90 471.14
8605 55.6160 73105.40 72928.90 470.46
8606 55.6220 72781.20 72795.50 468.09
8607 55.6280 73174.60 72633.50 468.77
8608 55.6340 72927.50 72444.30 469.00
8609 55.6400 72629.40 72230.70 468.10
8610 55.6460 72579.80 71995.80 468.24
8611 55.6520 72428.50 71743.10 468.85
8612 55.6580 72439.70 71476.40 467.02
8613 55.6640 72621.80 71199.60 467.41
8614 55.6700 72162.70 70915.90 466.09
8615 55.6760 72099.80 70628.90 467.43
8616 55.6820 71691.80 70341.20 465.44
8617 55.6880 71468.10 70055.10 466.48
8618 55.6940 71485.00 69773.10 464.07
8619 55.7000 71658.20 69496.00 464.25
8620 55.7060 70884.60 69225.60 462.84
8621 55.7120 70999.00 68962.60 462.55
8622 55.7180 70489.20 68707.60 461.57
8623 55.7240 70869.10 68461.40 460.53
8624 55.7300 70463.50 68224.00 460.26
8625 55.7360 69967.00 67995.80 460.11
8626 55.7420 69870.20 67776.50 457.91
8627 55.7480 69432.20 67566.20 458.23
8628 55.7540 69181.50 67364.80 457.80
8629 55.7600 68841.10 67172.10 455.44
8630 55.7660 68913.50 66987.40 455.52
8631 55.7720 68441.90 66805.90 454.07
8632 55.7780 68838.20 66637.60 453.97
8633 55.7840 68269.00 66477.00 452.72
8634 55.7900 67837.60 66323.40 453.74
8635 55.7960 67595.70 66176.80 450.86
8636 55.8020 67543.70 66036.80 450.29
8637 55.8080 67378.00 65903.00 450.47
8638 55.8140 67223.50 65775.20 447.82
8639 55.8200 66673.40 65653.10 448.10
8640 55.8260 66540.70 65536.50 448.09
8641 55.8320 66235.60 65424.80 446.95
8642 55.8380 66300.70 65317.90 448.37
8643 55.8440 66261.30 65214.60 445.71
8644 55.8500 65865.40 65116.70 444.03
8645 55.8560 65527.00 65022.90 443.36
8646 55.8620 65325.30 64933.10 443.68
8647 55.8680 65003.60 64847.10 440.89
8648 55.8740 65198.40 64764.80 442.26
8649 55.8800 65235.40 64685.80 442.33
8650 55.8860 64925.90 64610.20 441.60
8651 55.8920 64718.50 64537.80 440.92
8652 55.8980 64660.70 64468.40 440.92
8653 55.9040 64336.70 64402.10 441.58
8654 55.9100 64361.70 64338.60 440.23
8655 55.9160 64072.10 64277.90 439.33
8656 55.9220 64138.50 64219.80 439.45
8657 55.9280 64419.10 64166.10 439.18
8658 55.9340 63990.60 64113.00 439.49
8659 55.9400 63986.90 64062.40 439.55
8660 55.9460 63610.60 64014.20 438.19
8661 55.9520 63591.70 63968.30 437.30
8662 55.9580 63565.00 63924.60 437.23
8663 55.9640 63551.10 63883.10 437.01
8664 55.9700 63610.80 63843.80 437.12
8665 55.9760 63399.00 63806.60 437.06
8666 55.9820 63182.30 63771.40 437.58
8667 55.9880 63357.70 63738.30 437.07
8668 55.9940 63273.30 63707.10 436.60
8669 56.0000 63198.90 63678.00 436.45
8670 56.0060 62859.70 63650.80 436.25
8671 56.0120 63073.40 63625.60 435.71
8672 56.0180 62888.90 63602.30 436.59
8673 56.0240 63059.10 63580.90 436.02
8674 56.0300 62930.30 63561.50 436.05
8675 56.0360 63194.20 63544.20 435.69
8676 56.0420 63188.10 63528.80 436.13
8677 56.0480 62977.90 63515.30 436.08
8678 56.0540 63102.00 63503.90 436.52
8679 56.0600 63011.90 63494.60 435.55
8680 56.0660 63089.20 63488.80 435.75
8681 56.0720 63318.60 63491.90 436.21
8682 56.0780 63413.30 63496.90 435.91
8683 56.0840 63455.50 63504.50 437.18
8684 56.0900 62878.70 63514.50 436.63
8685 56.0960 63033.20 63526.90 435.90
8686 56.1020 62853.50 63541.90 436.59
8687 56.1080 63120.50 63559.50 436.74
8688 56.1140 62941.50 63579.90 437.27
8689 56.1200 63103.10 63602.90 437.18
8690 56.1260 63211.90 63629.00 436.25
8691 56.1320 62849.60 63658.00 437.51
8692 56.1380 62697.90 63690.20 435.28
8693 56.1440 62895.90 63725.60 437.33
8694 56.1500 63348.20 63764.20 438.47
8695 56.1560 63309.80 63806.30 437.66
8696 56.1620 63529.10 63851.70 439.10
8697 56.1680 63462.90 63900.60 439.24
8698 56.1740 63368.60 63952.80 438.55
8699 56.1800 63359.80 64008.60 437.82
8700 56.1860 63656.70 64067.60 439.15
8701 56.1920 63458.80 64130.00 439.15
8702 56.1980 63755.00 64195.10 439.07
8703 56.2040 63858.90 64263.20 439.51
8704 56.2100 63600.90 64333.50 438.48
8705 56.2160 63612.00 64405.60 439.49
8706 56.2220 63635.00 64478.70 438.96
8707 56.2280 63967.10 64552.00 438.95
8708 56.2340 63936.00 64624.80 440.47
8709 56.2400 63987.50 64695.50 440.20
8710 56.2460 63867.90 64763.10 440.94
8711 56.2520 63886.50 64826.20 440.52
8712 56.2580 64004.40 64883.10 440.68
8713 56.2640 64290.60 64932.70 440.79
8714 56.2700 64288.50 64973.40 441.66
8715 56.2760 64316.00 65004.30 441.10
8716 56.2820 64252.20 65023.40 440.80
8717 56.2880 63917.50 65032.40 441.25
8718 56.2940 64376.30 65030.20 440.44
8719 56.3000 64495.70 65017.20 442.17
8720 56.3060 64420.40 64994.00 440.36
8721 56.3120 64142.60 64961.90 440.39
8722 56.3180 63693.60 64922.10 439.68
8723 56.3240 63882.00 64875.90 441.05
8724 56.3300 63178.20 64824.90 440.65
8725 56.3360 64009.60 64770.50 441.49
8726 56.3420 63967.80 64714.30 440.00
8727 56.3480 64082.70 64657.10 441.32
8728 56.3540 63978.90 64600.20 440.03
8729 56.3600 64094.40 64544.60 440.83
8730 56.3660 64313.90 64490.90 440.58
8731 56.3720 64097.50 64439.70 440.15
8732 56.3780 64340.90 64391.60 440.14
8733 56.3840 64287.80 64346.80 442.14
8734 56.3900 64511.10 64305.60 441.89
8735 56.3960 64183.70 64268.30 441.19
8736 56.4020 63920.80 64234.90 440.51
8737 56.4080 64361.50 64205.50 441.88
8738 56.4140 64163.60 64180.20 440.71
8739 56.4200 64333.60 64158.80 440.58
8740 56.4260 64251.40 64141.40 441.41
8741 56.4320 64296.20 64128.00 441.95
8742 56.4380 64371.20 64118.40 441.77
8743 56.4440 64487.00 64112.70 441.39
8744 56.4500 64200.70 64110.60 440.38
8745 56.4560 64664.50 64112.10 442.80
8746 56.4620 64226.30 64117.30 441.62
8747 56.4680 64730.80 64121.10 442.02
8748 56.4740 64332.40 64133.00 441.72
8749 56.4800 64514.30 64148.20 441.79
8750 56.4860 64579.80 64166.50 442.81
8751 56.4920 64563.90 64188.00 442.88
8752 56.4980 64869.80 64212.40 444.41
8753 56.5040 64733.90 64239.90 441.82
8754 56.5100 65020.60 64270.10 443.38
8755 56.5160 64945.70 64303.00 445.26
8756 56.5220 65127.50 64338.70 444.23
8757 56.5280 65053.10 64376.90 444.42
8758 56.5340 65250.70 64417.70 444.57
8759 56.5400 65500.90 64460.80 446.24
8760 56.5460 65435.00 64506.40 445.75
8761 56.5520 65494.10 64554.10 446.70
8762 56.5580 65794.90 64603.90 447.09
8763 56.5640 65970.80 64655.80 446.70
8764 56.5700 66160.50 64709.50 447.87
8765 56.5760 66034.60 64764.90 449.06
8766 56.5820 66306.40 64821.90 447.94
8767 56.5880 66545.90 64880.30 448.51
8768 56.5940 66573.40 64939.80 448.83
8769 56.6000 67055.10 65000.30 450.95
8770 56.6060 67042.20 65061.50 450.39
8771 56.6120 67275.80 65123.20 450.34
8772 56.6180 67352.60 65185.00 451.77
8773 56.6240 67255.80 65246.60 451.21
8774 56.6300 67675.90 65307.70 452.74
8775 56.6360 67713.00 65367.90 453.12
8776 56.6420 67958.90 65426.70 454.11
8777 56.6480 67908.70 65484.00 454.06
8778 56.6540 68252.10 65537.80 453.98
8779 56.6600 68502.40 65590.00 454.93
8780 56.6660 68457.90 65639.20 454.38
8781 56.6720 68306.90 65685.00 455.35
8782 56.6780 68356.30 65726.90 452.99
8783 56.6840 68537.50 65764.30 455.68
8784 56.6900 68411.30 65797.10 454.49
8785 56.6960 68715.80 65824.70 455.55
8786 56.7020 68560.50 65847.20 456.15
8787 56.7080 68765.60 65863.80 455.61
8788 56.7140 68640.50 65875.20 455.58
8789 56.7200 68677.10 65880.70 452.88
8790 56.7260 68566.50 65880.70 455.32
8791 56.7320 68580.70 65875.10 455.02
8792 56.7380 68554.30 65864.10 455.17
8793 56.7440 68213.30 65848.00 453.10
8794 56.7500 68384.10 65827.10 453.96
8795 56.7560 68317.10 65801.80 455.15
8796 56.7620 68405.20 65772.30 454.52
8797 56.7680 68163.70 65739.20 453.77
8798 56.7740 68079.90 65702.70 452.95
8799 56.7800 67892.20 65663.60 451.72
8800 56.7860 67672.30 65621.90 452.01
8801 56.7920 67563.00 65578.40 450.54
8802 56.7980 67136.30 65533.30 451.51
8803 56.8040 67113.50 65486.90 449.57
8804 56.8100 67277.40 65439.70 450.14
8805 56.8160 66983.90 65391.90 449.89
8806 56.8220 66876.60 65343.90 448.37
8807 56.8280 66681.30 65295.80 448.15
8808 56.8340 66644.60 65247.80 447.85
8809 56.8400 66365.00 65200.40 449.00
8810 56.8460 66158.20 65153.50 447.31
8811 56.8520 65896.10 65107.20 445.88
8812 56.8580 65864.00 65061.90 445.89
8813 56.8640 66100.20 65017.30 445.47
8814 56.8700 66006.20 64973.80 446.56
8815 56.8760 65457.20 64931.20 444.19
8816 56.8820 65831.90 64889.90 445.43
8817 56.8880 65299.30 64849.60 444.11
8818 56.8940 65597.70 64810.50 444.26
8819 56.9000 65216.70 64772.70 443.63
8820 56.9060 64988.20 64736.00 442.33
8821 56.9120 64968.50 64700.60 443.42
8822 56.9180 65225.80 64666.40 443.45
8823 56.9240 65255.00 64633.70 443.52
8824 56.9300 64528.80 64602.00 441.29
8825 56.9360 64784.90 64572.00 440.54
8826 56.9420 64715.20 64543.40 442.05
8827 56.9480 64731.20 64516.20 440.83
8828 56.9540 64597.10 64490.60 440.83
8829 56.9600 64755.30 64466.60 441.55
8830 56.9660 64618.00 64444.20 440.20
8831 56.9720 64534.70 64423.40 441.05
8832 56.9780 64345.50 64404.50 438.42
8833 56.9840 64163.30 64387.40 439.77
8834 56.9900 64158.10 64372.10 439.99
8835 56.9960 64181.90 64358.90 440.27
8836 57.0020 63952.60 64347.60 439.11
8837 57.0080 64364.30 64338.40 439.86
8838 57.0140 64262.40 64331.40 440.87
8839 57.0200 64496.60 64326.40 439.59
8840 57.0260 64391.00 64323.90 440.08
8841 57.0320 64227.30 64323.70 440.77
8842 57.0380 64163.60 64325.80 439.79
8843 57.0440 64108.60 64330.50 440.50
8844 57.0500 64102.10 64337.70 439.14
8845 57.0560 63861.70 64347.30 440.06
8846 57.0620 64047.90 64359.60 438.70
8847 57.0680 64221.80 64374.80 440.97
8848 57.0740 64112.90 64392.80 437.31
8849 57.0800 64159.30 64413.40 439.02
8850 57.0860 63729.20 64437.20 437.11
8851 57.0920 63886.80 64463.70 437.19
8852 57.0980 63909.90 64493.40 438.68
8853 57.1040 63588.00 64526.10 436.15
8854 57.1100 63909.60 64561.80 437.14
8855 57.1160 63764.60 64600.80 438.40
8856 57.1220 64099.80 64643.60 438.52
8857 57.1280 63798.40 64689.00 438.53
8858 57.1340 63843.20 64737.80 438.23
8859 57.1400 63945.20 64790.00 438.70
8860 57.1460 63908.70 64845.30 438.49
8861 57.1520 64245.80 64904.30 440.26
8862 57.1580 63987.60 64966.60 439.50
8863 57.1640 63780.40 65035.00 437.81
8864 57.1700 63779.50 65104.30 438.71
8865 57.1760 64088.30 65176.90 438.44
8866 57.1820 64138.70 65252.90 439.56
8867 57.1880 64251.90 65333.80 438.64
8868 57.1940 64154.80 65416.80 439.49
8869 57.2000 63896.00 65503.20 438.48
8870 57.2060 64232.00 65593.00 439.03
8871 57.2120 64262.40 65686.00 436.80
8872 57.2180 64351.90 65782.20 439.06
8873 57.2240 64910.80 65881.50 440.21
8874 57.2300 64383.60 65983.90 439.26
8875 57.2360 64828.40 66089.20 440.47
8876 57.2420 64725.00 66197.30 441.90
8877 57.2480 64924.50 66308.00 440.80
8878 57.2540 65206.10 66421.10 442.44
8879 57.2600 65212.20 66536.60 442.79
8880 57.2660 65436.10 66652.00 443.22
8881 57.2720 65457.10 66771.30 442.72
8882 57.2780 65732.40 66892.00 444.37
8883 57.2840 65577.30 67013.90 446.11
8884 57.2900 65415.00 67136.70 442.58
8885 57.2960 65858.90 67260.30 445.44
8886 57.3020 66099.70 67384.10 444.54
8887 57.3080 65945.50 67507.50 444.89
8888 57.3140 65969.50 67630.80 443.80
8889 57.3200 66230.50 67753.00 445.33
8890 57.3260 66831.90 67874.10 446.96
8891 57.3320 66326.20 67993.90 447.29
8892 57.3380 66902.20 68111.70 447.46
8893 57.3440 66666.10 68227.70 448.90
8894 57.3500 66704.30 68341.30 445.81
8895 57.3560 66785.40 68452.80 448.63
8896 57.3620 66990.70 68562.10 448.93
8897 57.3680 67294.40 68668.90 448.71
8898 57.3740 67545.80 68774.00 450.72
8899 57.3800 67737.80 68877.20 450.25
8900 57.3860 67617.00 68979.10 451.94
8901 57.3920 67879.80 69080.20 450.82
8902 57.3980 67843.40 69181.20 452.40
8903 57.4040 67908.60 69282.70 450.95
8904 57.4100 67692.20 69385.70 451.18
8905 57.4160 68662.50 69491.20 452.76
8906 57.4220 68271.60 69599.80 453.11
8907 57.4280 68635.10 69713.20 455.17
8908 57.4340 69107.80 69832.50 454.68
8909 57.4400 69310.70 69958.40 457.98
8910 57.4460 69727.30 70092.60 457.86
8911 57.4520 69975.20 70234.90 457.52
8912 57.4580 69696.80 70388.80 457.51
8913 57.4640 70302.70 70554.60 458.62
8914 57.4700 70420.20 70733.00 460.25
8915 57.4760 70781.70 70925.70 462.03
8916 57.4820 71069.00 71133.20 462.85
8917 57.4880 71483.20 71357.00 464.46
8918 57.4940 71766.80 71597.20 463.70
8919 57.5000 71743.20 71855.00 466.51
8920 57.5060 72187.30 72131.10 467.45
8921 57.5120 72393.70 72425.50 469.30
8922 57.5180 73093.10 72737.60 469.90
8923 57.5240 73364.50 73068.00 470.87
8924 57.5300 73680.90 73414.70 472.91
8925 57.5360 73851.60 73777.40 472.45
8926 57.5420 74225.30 74153.00 473.19
8927 57.5480 74909.50 74537.70 475.08
8928 57.5540 74970.10 74931.90 476.11
8929 57.5600 75497.30 75328.70 476.96
8930 57.5660 76081.00 75724.40 478.14
8931 57.5720 76176.80 76112.10 479.42
8932 57.5780 76891.80 76486.70 479.95
8933 57.5840 76727.50 76840.70 482.64
8934 57.5900 77160.90 77168.10 482.43
8935 57.5960 77270.90 77463.20 481.85
8936 57.6020 77931.70 77719.40 483.36
8937 57.6080 77881.30 77933.00 484.96
8938 57.6140 77961.00 78100.20 486.12
8939 57.6200 78211.40 78219.50 485.15
8940 57.6260 78350.60 78290.20 485.01
8941 57.6320 78421.40 78313.40 485.22
8942 57.6380 78217.30 78290.30 483.68
8943 57.6440 78384.20 78223.70 485.34
8944 57.6500 77885.50 78115.70 485.30
8945 57.6560 77959.80 77969.40 484.64
8946 57.6620 77843.70 77787.30 483.17
8947 57.6680 77757.30 77571.30 483.93
8948 57.6740 77350.80 77323.60 481.93
8949 57.6800 77482.10 77046.20 482.30
8950 57.6860 76746.70 76740.30 481.88
8951 57.6920 76347.20 76408.70 479.19
8952 57.6980 76126.70 76053.30 479.44
8953 57.7040 76119.00 75677.50 478.83
8954 57.7100 75353.00 75283.90 476.15
8955 57.7160 75207.90 74876.90 474.44
8956 57.7220 74630.70 74460.20 473.11
8957 57.7280 73860.20 74037.30 470.81
8958 57.7340 73698.60 73613.00 470.61
8959 57.7400 72869.50 73190.00 468.07
8960 57.7460 72562.50 72772.80 467.11
8961 57.7520 72403.80 72363.50 465.69
8962 57.7580 71332.10 71965.60 463.24
8963 57.7640 71051.80 71580.80 461.43
8964 57.7700 70395.20 71210.30 460.10
8965 57.7760 70546.00 70856.30 459.56
8966 57.7820 69931.40 70518.70 458.01
8967 57.7880 69885.80 70199.00 458.03
8968 57.7940 69082.10 69896.80 455.41
8969 57.8000 68731.80 69612.50 453.69
8970 57.8060 68600.50 69346.20 452.55
8971 57.8120 68250.10 69097.50 452.35
8972 57.8180 68025.50 68865.60 451.41
8973 57.8240 67944.20 68650.40 451.18
8974 57.8300 67449.60 68451.20 448.70
8975 57.8360 67148.90 68267.60 450.00
8976 57.8420 66900.40 68098.80 448.29
8977 57.8480 66592.50 67944.40 446.89
8978 57.8540 66405.60 67803.60 445.85
8979 57.8600 66466.10 67675.70 446.72
8980 57.8660 66361.50 67559.70 442.84
8981 57.8720 66106.80 67455.80 445.06
8982 57.8780 65882.80 67363.10 444.12
8983 57.8840 65782.70 67280.60 444.46
8984 57.8900 65782.70 67208.00 442.60
8985 57.8960 65481.30 67144.60 443.64
8986 57.9020 65787.00 67089.80 444.36
8987 57.9080 65909.50 67043.00 445.45
8988 57.9140 65681.50 67003.60 443.87
8989 57.9200 65630.00 66971.10 443.18
8990 57.9260 65312.00 66944.80 442.83
8991 57.9320 65649.10 66924.20 444.68
8992 57.9380 65490.80 66908.90 444.14
8993 57.9440 65356.40 66898.00 443.31
8994 57.9500 65559.50 66891.20 443.80
8995 57.9560 65437.50 66887.90 442.92
8996 57.9620 65531.50 66887.40 443.09
8997 57.9680 65434.00 66889.30 444.30
8998 57.9740 65617.00 66893.00 443.69
8999 57.9800 65698.70 66898.10 444.19
9000 57.9860 65576.50 66903.80 443.38
9001 57.9920 65457.20 66909.80 443.91
9002 57.9980 65274.70 66915.80 444.18
9003 58.0040 65434.70 66918.30 443.87
9004 58.0100 65431.90 66922.80 444.38
9005 58.0160 65661.10 66925.90 443.55
9006 58.0220 65544.10 66927.60 444.85
9007 58.0280 65433.00 66927.80 442.45
9008 58.0340 65580.60 66926.20 444.43
9009 58.0400 65366.50 66922.90 444.31
9010 58.0460 65629.30 66918.00 443.19
9011 58.0520 65573.20 66911.50 443.98
9012 58.0580 65360.10 66903.90 442.55
9013 58.0640 65600.50 66895.30 443.58
9014 58.0700 65538.60 66886.30 443.99
9015 58.0760 65752.20 66877.20 443.15
9016 58.0820 65613.10 66868.40 445.63
9017 58.0880 65544.00 66860.90 443.16
9018 58.0940 65505.40 66854.60 444.63
9019 58.1000 65214.90 66850.60 444.06
9020 58.1060 65572.30 66849.80 445.08
9021 58.1120 65232.30 66852.10 444.21
9022 58.1180 65664.00 66858.30 445.22
9023 58.1240 65495.50 66869.20 444.66
9024 58.1300 65338.10 66885.60 444.91
9025 58.1360 65360.00 66907.90 444.98
9026 58.1420 65419.50 66937.10 444.24
9027 58.1480 65536.10 66973.60 445.78
9028 58.1540 65873.90 67018.00 446.11
9029 58.1600 66029.30 67070.80 446.53
9030 58.1660 65994.30 67133.00 447.86
9031 58.1720 66040.20 67205.00 446.53
9032 58.1780 66087.20 67287.30 447.33
9033 58.1840 66444.80 67380.50 447.61
9034 58.1900 66106.10 67485.10 447.07
9035 58.1960 66254.50 67601.50 448.22
9036 58.2020 66672.60 67730.30 448.08
9037 58.2080 66674.70 67871.60 449.29
9038 58.2140 66807.30 68025.90 449.45
9039 58.2200 66867.00 68193.60 449.68
9040 58.2260 67290.90 68374.40 450.43
9041 58.2320 67472.10 68568.30 451.09
9042 58.2380 67479.40 68775.20 453.48
9043 58.2440 67603.10 68994.40 452.92
9044 58.2500 67664.80 69225.40 452.44
9045 58.2560 67986.30 69467.30 453.61
9046 58.2620 68307.80 69718.30 453.65
9047 58.2680 68753.90 69977.20 456.67
9048 58.2740 68729.50 70240.90 455.19
9049 58.2800 69062.40 70507.40 457.54
9050 58.2860 69307.80 70772.60 457.67
9051 58.2920 69516.70 71032.90 457.96
9052 58.2980 69706.50 71285.70 459.41
9053 58.3040 69935.40 71522.20 456.73
9054 58.3100 69688.40 71739.20 459.25
9055 58.3160 69309.60 71931.10 457.69
9056 58.3220 69366.40 72093.00 459.28
9057 58.3280 69340.60 72219.60 458.68
9058 58.3340 69045.20 72307.10 459.15
9059 58.3400 69209.00 72352.10 458.55
9060 58.3460 69416.60 72353.10 458.46
9061 58.3520 69473.20 72309.50 458.92
9062 58.3580 69390.50 72222.20 457.88
9063 58.3640 69449.90 72093.20 457.78
9064 58.3700 69327.60 71926.20 456.70
9065 58.3760 68882.60 71725.90 455.15
9066 58.3820 68913.30 71496.50 456.45
9067 58.3880 68587.70 71243.60 454.68
9068 58.3940 68094.90 70972.70 454.75
9069 58.4000 68009.60 70690.50 453.27
9070 58.4060 67722.50 70398.20 453.59
9071 58.4120 67309.50 70101.10 450.98
9072 58.4180 66923.50 69803.20 448.43
9073 58.4240 66740.90 69508.70 449.72
9074 58.4300 66458.50 69219.30 447.52
9075 58.4360 66438.40 68937.60 448.59
9076 58.4420 66020.90 68664.30 446.64
9077 58.4480 65764.20 68401.70 444.98
9078 58.4540 65706.20 68149.60 446.35
9079 58.4600 65404.30 67909.40 444.65
9080 58.4660 65036.00 67681.10 444.20
9081 58.4720 65111.20 67465.00 442.54
9082 58.4780 65154.80 67260.90 443.87
9083 58.4840 64363.60 67068.60 440.95
9084 58.4900 64334.70 66888.20 441.39
9085 58.4960 64296.70 66719.10 442.61
9086 58.5020 64390.00 66560.90 440.35
9087 58.5080 64211.50 66413.60 440.51
9088 58.5140 64179.40 66276.50 440.66
9089 58.5200 63755.80 66149.00 440.17
9090 58.5260 63677.30 66030.90 439.32
9091 58.5320 63687.30 65921.40 438.81
9092 58.5380 63577.30 65820.30 439.35
9093 58.5440 63721.60 65727.00 438.99
9094 58.5500 63488.40 65641.10 439.10
9095 58.5560 63381.90 65562.10 437.90
9096 58.5620 63535.20 65489.70 438.99
9097 58.5680 63804.00 65423.30 439.10
9098 58.5740 63416.80 65362.40 438.36
9099 58.5800 63290.50 65306.90 439.33
9100 58.5860 63574.40 65256.40 436.82
9101 58.5920 63504.00 65210.50 436.91
9102 58.5980 63391.90 65168.90 438.54
9103 58.6040 63498.30 65131.40 437.36
9104 58.6100 63662.80 65097.60 437.97
9105 58.6160 63523.70 65067.40 437.39
9106 58.6220 63308.00 65040.60 439.14
9107 58.6280 63745.10 65017.00 437.93
9108 58.6340 63467.90 64996.20 438.98
9109 58.6400 63169.10 64978.60 437.41
9110 58.6460 63533.40 64963.90 438.79
9111 58.6520 63256.70 64952.30 436.45
9112 58.6580 63493.40 64939.80 437.95
9113 58.6640 64040.60 64930.10 438.03
9114 58.6700 63346.60 64923.10 437.38
9115 58.6760 63474.50 64918.90 436.71
9116 58.6820 63365.00 64917.60 437.63
9117 58.6880 63287.10 64919.10 435.82
9118 58.6940 63247.10 64923.60 438.01
9119 58.7000 63459.40 64931.10 436.93
9120 58.7060 63575.60 64941.90 437.57
9121 58.7120 63610.40 64956.00 437.74
9122 58.7180 63229.70 64973.70 434.99
9123 58.7240 63708.10 64995.00 438.89
9124 58.7300 63505.50 65020.20 436.48
9125 58.7360 63512.90 65049.40 438.16
9126 58.7420 63790.50 65083.00 437.97
9127 58.7480 63387.20 65121.00 434.26
9128 58.7540 63701.30 65163.80 439.69
9129 58.7600 63889.50 65211.60 439.16
9130 58.7660 63817.10 65264.50 439.00
9131 58.7720 63946.20 65322.90 437.58
9132 58.7780 63852.00 65387.00 437.79
9133 58.7840 64199.40 65456.90 439.03
9134 58.7900 64014.80 65533.10 439.14
9135 58.7960 64153.80 65615.50 440.04
9136 58.8020 64116.20 65704.10 438.40
9137 58.8080 64061.90 65799.60 439.81
9138 58.8140 64682.30 65901.40 441.40
9139 58.8200 64789.70 66010.00 440.77
9140 58.8260 64775.10 66124.80 441.60
9141 58.8320 64797.90 66245.70 441.27
9142 58.8380 64710.30 66372.50 442.77
9143 58.8440 64683.20 66504.40 441.08
9144 58.8500 64456.30 66640.70 442.68
9145 58.8560 65313.30 66780.30 442.07
9146 58.8620 65072.50 66922.20 442.51
9147 58.8680 65347.50 67064.60 444.61
9148 58.8740 65352.40 67206.00 442.90
9149 58.8800 65311.10 67344.30 443.91
9150 58.8860 65597.50 67477.70 443.56
9151 58.8920 65668.00 67604.30 444.40
9152 58.8980 65743.80 67721.60 444.32
9153 58.9040 65717.30 67828.30 444.60
9154 58.9100 65671.10 67922.50 445.93
9155 58.9160 66037.70 68003.60 445.20
9156 58.9220 66168.60 68071.10 447.28
9157 58.9280 66046.00 68125.00 444.43
9158 58.9340 66253.00 68166.30 446.28
9159 58.9400 66027.80 68196.10 446.35
9160 58.9460 66105.40 68216.40 445.73
9161 58.9520 65997.90 68228.80 445.68
9162 58.9580 66188.60 68236.10 445.64
9163 58.9640 66545.40 68240.30 447.82
9164 58.9700 67073.00 68243.50 446.24
9165 58.9760 66446.80 68248.10 447.36
9166 58.9820 66209.40 68255.40 445.92
9167 58.9880 66374.70 68267.30 447.25
9168 58.9940 66261.60 68285.30 447.82
9169 59.0000 66255.20 68310.00 446.95
9170 59.0060 66673.10 68342.50 446.49
9171 59.0120 66858.70 68383.30 447.85
9172 59.0180 66802.90 68432.80 447.81
9173 59.0240 67182.80 68490.40 448.72
9174 59.0300 66758.80 68557.70 449.91
9175 59.0360 66741.90 68634.00 448.84
9176 59.0420 66999.80 68718.80 449.22
9177 59.0480 67391.80 68812.00 449.96
9178 59.0540 67095.90 68913.20 450.89
9179 59.0600 67460.70 69021.80 449.55
9180 59.0660 67430.50 69137.60 452.03
9181 59.0720 67298.20 69259.50 447.95
9182 59.0780 67685.70 69387.10 450.81
9183 59.0840 68020.20 69519.60 450.70
9184 59.0900 67487.50 69656.00 449.29
9185 59.0960 67553.60 69795.70 450.64
9186 59.1020 67184.20 69937.90 446.26
9187 59.1080 67722.40 70081.20 451.51
9188 59.1140 68082.10 70225.10 451.02
9189 59.1200 68133.40 70368.60 452.56
9190 59.1260 68102.90 70510.60 452.16
9191 59.1320 67911.50 70650.00 452.03
9192 59.1380 68109.20 70786.00 452.50
9193 59.1440 68230.60 70917.80 451.63
9194 59.1500 68171.40 71044.20 454.78
9195 59.1560 68692.10 71164.50 454.27
9196 59.1620 68593.60 71277.50 453.36
9197 59.1680 68013.80 71382.50 452.90
9198 59.1740 68604.00 71478.80 452.79
9199 59.1800 68274.90 71565.50 454.23
9200 59.1860 68590.00 71642.30 453.03
9201 59.1920 68435.30 71708.40 453.78
9202 59.1980 68840.70 71763.60 452.72
9203 59.2040 68645.50 71807.30 454.60
9204 59.2100 68127.00 71839.30 449.68
9205 59.2160 68968.60 71859.70 453.51
9206 59.2220 68509.00 71868.50 452.56
9207 59.2280 68673.30 71865.80 452.77
9208 59.2340 69220.60 71851.60 453.88
9209 59.2400 68832.50 71826.60 454.26
9210 59.2460 68983.90 71790.70 454.55
9211 59.2520 69138.60 71744.90 454.23
9212 59.2580 69198.90 71689.00 454.95
9213 59.2640 68855.80 71623.90 453.36
9214 59.2700 69046.40 71549.90 454.58
9215 59.2760 69712.50 71467.50 455.49
9216 59.2820 68837.00 71377.10 456.09
9217 59.2880 68833.00 71279.00 453.60
9218 59.2940 69050.60 71173.90 454.83
9219 59.3000 68828.80 71061.90 454.12
9220 59.3060 69023.70 70943.60 453.95
9221 59.3120 69376.60 70819.20 452.82
9222 59.3180 69084.40 70689.20 454.03
9223 59.3240 68947.90 70554.10 452.52
9224 59.3300 68746.60 70413.90 453.17
9225 59.3360 68721.10 70269.30 455.07
9226 59.3420 68571.60 70120.50 453.79
9227 59.3480 69304.90 69969.20 454.13
9228 59.3540 68861.00 69813.90 452.72
9229 59.3600 68493.20 69655.90 454.01
9230 59.3660 68143.10 69496.00 451.43
9231 59.3720 68508.00 69334.30 452.61
9232 59.3780 68493.40 69171.80 453.94
9233 59.3840 68472.10 69009.00 452.02
9234 59.3900 68170.80 68846.30 451.63
9235 59.3960 67840.70 68684.60 452.49
9236 59.4020 67699.50 68523.90 449.89
9237 59.4080 67456.40 68364.90 450.08
9238 59.4140 67464.20 68208.20 449.63
9239 59.4200 67523.80 68054.10 449.95
9240 59.4260 67735.40 67903.10 447.63
9241 59.4320 67265.00 67755.30 449.06
9242 59.4380 67161.40 67611.30 449.54
9243 59.4440 67252.60 67471.40 448.43
9244 59.4500 67114.70 67335.20 449.08
9245 59.4560 67087.50 67203.50 447.43
9246 59.4620 67181.40 67076.20 448.86
9247 59.4680 67089.20 66954.70 447.28
9248 59.4740 66646.80 66836.40 448.36
9249 59.4800 66747.80 66722.80 448.32
9250 59.4860 66766.90 66613.80 448.64
9251 59.4920 66674.30 66508.90 447.18
9252 59.4980 66575.20 66408.60 446.56
9253 59.5040 66603.10 66312.60 447.95
9254 59.5100 66635.20 66220.70 450.12
9255 59.5160 66439.40 66133.00 448.07
9256 59.5220 66204.80 66049.10 446.93
9257 59.5280 66435.40 65968.90 449.14
9258 59.5340 65942.20 65892.40 446.94
9259 59.5400 66485.10 65819.10 445.53
9260 59.5460 66336.40 65749.00 447.58
9261 59.5520 66059.10 65679.10 446.16
9262 59.5580 66197.30 65614.80 446.46
9263 59.5640 66306.80 65553.10 447.18
9264 59.5700 66629.50 65494.00 446.30
9265 59.5760 66680.60 65437.10 446.42
9266 59.5820 66395.10 65382.10 446.17
9267 59.5880 66334.50 65329.30 448.36
9268 59.5940 66028.00 65278.20 445.31
9269 59.6000 66143.70 65228.80 446.08
9270 59.6060 66536.70 65181.10 446.60
9271 59.6120 66385.00 65135.00 446.75
9272 59.6180 66229.80 65090.30 446.79
9273 59.6240 66195.20 65047.00 446.09
9274 59.6300 65970.80 65005.10 445.10
9275 59.6360 65902.60 64964.50 445.13
9276 59.6420 66241.20 64925.40 445.77
9277 59.6480 65937.10 64887.40 445.36
9278 59.6540 65696.50 64850.90 444.12
9279 59.6600 65711.50 64815.90 444.36
9280 59.6660 65672.50 64782.30 444.24
9281 59.6720 65469.50 64750.10 443.30
9282 59.6780 65619.80 64719.50 444.52
9283 59.6840 65436.60 64690.40 443.61
9284 59.6900 65520.10 64663.00 444.28
9285 59.6960 65499.20 64637.20 441.83
9286 59.7020 65345.70 64613.00 444.31
9287 59.7080 64987.50 64590.80 442.04
9288 59.7140 65300.40 64570.20 442.46
9289 59.7200 65269.00 64551.60 443.75
9290 59.7260 65382.80 64535.20 440.62
9291 59.7320 65057.80 64520.40 441.85
9292 59.7380 64992.60 64507.70 441.69
9293 59.7440 64512.20 64496.80 440.70
9294 59.7500 64786.80 64488.10 440.62
9295 59.7560 64696.00 64481.60 440.49
9296 59.7620 64778.80 64477.10 439.60
9297 59.7680 64493.30 64474.70 439.05
9298 59.7740 64440.00 64474.50 438.55
9299 59.7800 64457.70 64476.50 440.04
9300 59.7860 64340.80 64480.70 439.37
9301 59.7920 64289.40 64487.20 439.08
9302 59.7980 64168.30 64495.00 438.05
9303 59.8040 64615.00 64505.80 437.62
9304 59.8100 64750.40 64518.80 439.68
9305 59.8160 64445.10 64533.80 439.17
9306 59.8220 64220.00 64551.00 438.84
9307 59.8280 64244.10 64570.30 438.73
9308 59.8340 64355.90 64591.40 439.85
9309 59.8400 64259.40 64614.50 438.96
9310 59.8460 63991.90 64639.30 438.24
9311 59.8520 64406.30 64665.80 437.70
9312 59.8580 64155.80 64693.70 438.98
9313 59.8640 63826.10 64723.10 436.69
9314 59.8700 64219.10 64753.70 437.83
9315 59.8760 64362.80 64785.10 437.93
9316 59.8820 64172.70 64817.30 437.28
9317 59.8880 64164.10 64850.10 439.04
9318 59.8940 64075.30 64883.00 438.65
9319 59.9000 64364.40 64915.90 439.44
9320 59.9060 64181.40 64948.40 438.78
9321 59.9120 64589.30 64980.20 438.08
9322 59.9180 64531.40 65011.00 438.82
9323 59.9240 64361.30 65040.40 438.13
9324 59.9300 64390.60 65068.10 440.35
9325 59.9360 64243.60 65093.80 438.89
9326 59.9420 64498.60 65117.10 439.50
9327 59.9480 64443.60 65137.80 439.40
9328 59.9540 64782.30 65155.60 438.98
9329 59.9600 64469.40 65170.20 437.35
9330 59.9660 64368.70 65181.70 438.40
9331 59.9720 64393.20 65189.70 439.15
9332 59.9780 64143.80 65194.10 438.58
9333 59.9840 64427.70 65195.30 439.63
9334 59.9900 64538.10 65192.90 438.17
9335 59.9960 64146.10 65187.40 438.43
9336 60.0020 64287.30 65178.90 440.25
9337 60.0080 64150.80 65167.60 439.67
9338 60.0140 64209.80 65153.70 438.36
9339 60.0200 64383.30 65137.80 439.25
9340 60.0260 64743.10 65120.00 438.30
9341 60.0320 64300.70 65101.00 438.58
9342 60.0380 64396.40 65081.20 439.43
9343 60.0440 64176.10 65062.00 438.67
9344 60.0500 64224.90 65041.80 438.61
9345 60.0560 64202.20 65022.10 437.59
9346 60.0620 64322.10 65003.20 436.81
9347 60.0680 64308.40 64985.90 438.08
9348 60.0740 64364.00 64970.30 437.93
9349 60.0800 64126.00 64957.30 438.73
9350 60.0860 64183.70 64946.70 438.87
9351 60.0920 64339.30 64939.40 439.52
9352 60.0980 64185.20 64935.40 438.62
9353 60.1040 63876.20 64935.40 439.79
9354 60.1100 64175.20 64939.40 438.66
9355 60.1160 64032.30 64947.90 438.54
9356 60.1220 64425.80 64961.20 440.44
9357 60.1280 63997.30 64979.50 438.27
9358 60.1340 63975.60 65003.10 440.03
9359 60.1400 64305.90 65032.10 438.93
9360 60.1460 64306.30 65066.80 440.61
9361 60.1520 64449.30 65107.30 440.52
9362 60.1580 64608.80 65153.60 441.20
9363 60.1640 64611.80 65205.90 441.91
9364 60.1700 64609.30 65262.60 440.93
9365 60.1760 64754.30 65326.40 442.86
9366 60.1820 65058.40 65395.90 441.87
9367 60.1880 64680.20 65470.80 441.40
9368 60.1940 64761.60 65550.30 441.40
9369 60.2000 64945.10 65634.20 442.35
9370 60.2060 65172.70 65722.00 443.61
9371 60.2120 65130.90 65812.30 441.43
9372 60.2180 65001.10 65904.30 443.50
9373 60.2240 65166.90 65996.60 443.15
9374 60.2300 65428.80 66087.60 442.71
9375 60.2360 65648.00 66175.90 445.71
9376 60.2420 65505.60 66259.40 445.07
9377 60.2480 65428.80 66336.20 444.35
9378 60.2540 65480.20 66404.60 445.05
9379 60.2600 65894.60 66462.40 445.36
9380 60.2660 65853.00 66508.00 445.33
9381 60.2720 65725.50 66539.90 444.76
9382 60.2780 65788.90 66557.10 444.71
9383 60.2840 65711.40 66558.80 444.43
9384 60.2900 66107.60 66544.80 446.50
9385 60.2960 66195.60 66515.20 445.33
9386 60.3020 65820.30 66471.20 444.69
9387 60.3080 66002.80 66413.60 444.56
9388 60.3140 65345.50 66344.20 443.72
9389 60.3200 64676.80 66264.30 445.04
9390 60.3260 64893.10 66176.40 443.27
9391 60.3320 64428.30 66082.10 444.02
9392 60.3380 65014.30 65983.20 443.28
9393 60.3440 64874.80 65881.80 442.79
9394 60.3500 65420.60 65779.20 444.22
9395 60.3560 65030.80 65677.20 442.49
9396 60.3620 65245.10 65576.70 443.49
9397 60.3680 65502.70 65479.20 442.44
9398 60.3740 65163.50 65385.00 442.78
9399 60.3800 65270.20 65295.20 442.69
9400 60.3860 65181.80 65210.00 443.23
9401 60.3920 65245.50 65130.20 443.66
9402 60.3980 64984.10 65055.80 442.47
9403 60.4040 64793.90 64988.10 443.92
9404 60.4100 65126.10 64925.10 442.49
9405 60.4160 65300.60 64867.90 441.82
9406 60.4220 65053.90 64812.60 441.56
9407 60.4280 65043.00 64767.00 444.00
9408 60.4340 64912.10 64727.00 443.28
9409 60.4400 64828.90 64695.20 440.98
9410 60.4460 65104.90 64666.10 442.75
9411 60.4520 65199.70 64642.20 441.95
9412 60.4580 65418.70 64623.40 444.36
9413 60.4640 64805.40 64609.40 443.07
9414 60.4700 65505.70 64600.10 443.24
9415 60.4760 65564.10 64595.10 444.38
9416 60.4820 65074.80 64594.50 442.13
9417 60.4880 65336.70 64598.00 444.14
9418 60.4940 65486.40 64605.40 444.66
9419 60.5000 65397.80 64616.50 444.45
9420 60.5060 65505.10 64631.20 444.60
9421 60.5120 65834.80 64649.30 445.65
9422 60.5180 65725.90 64670.70 446.77
9423 60.5240 65594.30 64695.20 444.61
9424 60.5300 66010.20 64722.80 446.29
9425 60.5360 66041.00 64753.30 446.11
9426 60.5420 65816.60 64786.70 447.00
9427 60.5480 66042.20 64823.00 447.34
9428 60.5540 66024.10 64862.10 446.43
9429 60.5600 66500.30 64904.10 447.76
9430 60.5660 67079.70 64948.10 449.02
9431 60.5720 66925.50 64996.00 450.06
9432 60.5780 66636.10 65046.90 449.71
9433 60.5840 67457.90 65101.00 449.07
9434 60.5900 66995.30 65158.30 447.30
9435 60.5960 67507.90 65219.10 450.90
9436 60.6020 67623.20 65283.70 450.03
9437 60.6080 67767.50 65351.90 450.75
9438 60.6140 67864.70 65424.30 452.28
9439 60.6200 68107.90 65502.00 454.60
9440 60.6260 68384.00 65582.90 452.39
9441 60.6320 68349.50 65668.90 454.86
9442 60.6380 68599.90 65759.70 454.87
9443 60.6440 69324.90 65855.80 456.99
9444 60.6500 68681.30 65957.50 454.68
9445 60.6560 69245.90 66065.30 456.81
9446 60.6620 70009.50 66179.10 457.86
9447 60.6680 69855.90 66299.10 456.86
9448 60.6740 69788.30 66426.00 458.40
9449 60.6800 70238.70 66560.00 457.19
9450 60.6860 70195.40 66701.10 460.37
9451 60.6920 70403.00 66849.80 460.80
9452 60.6980 70530.70 67006.20 459.88
9453 60.7040 70958.60 67170.80 461.46
9454 60.7100 71818.60 67343.20 463.80
9455 60.7160 71747.90 67524.10 464.23
9456 60.7220 72038.30 67713.20 463.38
9457 60.7280 72178.20 67910.60 466.35
9458 60.7340 72806.30 68116.60 466.84
9459 60.7400 73023.60 68330.30 468.01
9460 60.7460 72826.10 68552.10 464.41
9461 60.7520 73642.20 68780.70 469.20
9462 60.7580 74360.40 69016.20 473.39
9463 60.7640 74103.50 69256.80 473.13
9464 60.7700 74320.90 69501.70 471.40
9465 60.7760 74401.70 69749.50 471.20
9466 60.7820 74990.40 69997.60 473.98
9467 60.7880 74829.90 70244.70 473.17
9468 60.7940 75488.50 70486.80 473.69
9469 60.8000 75472.90 70721.10 476.90
9470 60.8060 75652.30 70944.80 476.15
9471 60.8120 76207.50 71153.40 479.01
9472 60.8180 76425.20 71343.70 478.46
9473 60.8240 76740.40 71512.00 478.19
9474 60.8300 76744.40 71654.80 478.61
9475 60.8360 76660.50 71769.50 479.06
9476 60.8420 76136.90 71853.90 479.56
9477 60.8480 76540.10 71906.90 480.30
9478 60.8540 76364.90 71927.90 478.65
9479 60.8600 76274.20 71917.90 477.78
9480 60.8660 76625.90 71878.40 479.65
9481 60.8720 76536.80 71812.00 478.23
9482 60.8780 76053.60 71719.40 478.29
9483 60.8840 76244.00 71607.60 478.41
9484 60.8900 76062.60 71478.20 477.98
9485 60.8960 75996.20 71334.90 475.71
9486 60.9020 75514.80 71180.60 475.92
9487 60.9080 75618.20 71018.30 475.08
9488 60.9140 75397.00 70850.80 475.43
9489 60.9200 75066.60 70680.10 474.71
9490 60.9260 74991.10 70508.30 473.55
9491 60.9320 74405.60 70336.70 472.75
9492 60.9380 74036.70 70166.30 470.62
9493 60.9440 74184.20 69998.40 470.91
9494 60.9500 73410.10 69833.00 468.48
9495 60.9560 73105.00 69670.00 468.31
9496 60.9620 73108.00 69511.30 468.58
9497 60.9680 72937.30 69356.00 465.87
9498 60.9740 72745.60 69204.10 466.55
9499 60.9800 72178.10 69055.10 461.30
9500 60.9860 71797.90 68909.30 464.21
9501 60.9920 71564.50 68765.90 464.64
9502 60.9980 71028.80 68624.70 462.36
9503 61.0040 71400.90 68485.20 461.05
9504 61.0100 71037.70 68347.10 459.36
9505 61.0160 70960.00 68210.20 460.74
9506 61.0220 70800.40 68073.90 457.85
9507 61.0280 70121.70 67938.00 459.26
9508 61.0340 69755.50 67802.50 457.68
9509 61.0400 69247.90 67666.90 455.85
9510 61.0460 69014.00 67531.50 455.01
9511 61.0520 68888.50 67395.90 455.19
9512 61.0580 68809.80 67260.60 453.62
9513 61.0640 68923.50 67125.70 454.60
9514 61.0700 68081.50 66991.40 452.40
9515 61.0760 68178.40 66858.10 451.61
9516 61.0820 67649.10 66725.70 449.12
9517 61.0880 67297.40 66594.90 447.67
9518 61.0940 67164.90 66466.20 446.12
9519 61.1000 67234.80 66339.70 447.95
9520 61.1060 66312.20 66215.80 442.72
9521 61.1120 66648.40 66094.70 444.86
9522 61.1180 66082.20 65976.90 445.90
9523 61.1240 66638.40 65862.60 445.26
9524 61.1300 65977.50 65751.80 444.99
9525 61.1360 66215.70 65645.00 443.94
9526 61.1420 65585.50 65542.10 442.32
9527 61.1480 65474.50 65443.70 444.05
9528 61.1540 65780.20 65349.50 444.53
9529 61.1600 65577.00 65259.60 442.37
9530 61.1660 65124.90 65174.40 441.56
9531 61.1720 65149.90 65093.80 440.86
9532 61.1780 64962.70 65017.60 439.78
9533 61.1840 64932.10 64946.20 441.32
9534 61.1900 64762.50 64879.60 440.98
9535 61.1960 64818.90 64817.70 438.87
9536 61.2020 64840.50 64760.90 439.71
9537 61.2080 64550.30 64708.70 438.46
9538 61.2140 64941.60 64661.50 437.29
9539 61.2200 64468.70 64619.40 438.09
9540 61.2260 64696.40 64582.20 439.65
9541 61.2320 65111.50 64550.20 439.71
9542 61.2380 64768.50 64523.50 438.04
9543 61.2440 64717.80 64502.00 438.63
9544 61.2500 65457.30 64485.80 438.35
9545 61.2560 65057.00 64475.20 439.64
9546 61.2620 65100.20 64470.10 439.45
9547 61.2680 65306.40 64470.80 441.89
9548 61.2740 65377.30 64477.40 438.44
9549 61.2800 64831.40 64489.90 440.16
9550 61.2860 65434.90 64508.60 440.79
9551 61.2920 65478.80 64533.80 439.69
9552 61.2980 64898.20 64565.30 439.01
9553 61.3040 65720.30 64603.60 440.77
9554 61.3100 65701.50 64648.90 439.66
9555 61.3160 65540.70 64701.40 440.09
9556 61.3220 66050.40 64761.10 440.42
9557 61.3280 66008.60 64828.40 442.04
9558 61.3340 66142.50 64903.50 445.08
9559 61.3400 66128.90 64986.30 444.56
9560 61.3460 66887.20 65077.20 445.27
9561 61.3520 66647.70 65176.20 444.60
9562 61.3580 66236.70 65283.50 444.62
9563 61.3640 66983.80 65398.80 444.78
9564 61.3700 67330.00 65522.40 447.39
9565 61.3760 67082.10 65653.90 446.93
9566 61.3820 67282.90 65792.90 446.65
9567 61.3880 67444.00 65939.00 449.23
9568 61.3940 67680.00 66091.70 447.89
9569 61.4000 67913.50 66249.60 448.50
9570 61.4060 67704.70 66412.10 449.44
9571 61.4120 67819.60 66576.90 448.94
9572 61.4180 68191.50 66742.60 448.17
9573 61.4240 68235.60 66906.80 452.03
9574 61.4300 68365.40 67066.80 449.77
9575 61.4360 68740.90 67219.90 450.54
9576 61.4420 68495.00 67362.50 452.03
9577 61.4480 68557.40 67491.40 450.61
9578 61.4540 68538.30 67603.10 451.22
9579 61.4600 68552.90 67694.20 452.42
9580 61.4660 68742.20 67761.90 451.58
9581 61.4720 68228.90 67803.70 450.77
9582 61.4780 69000.80 67818.20 453.58
9583 61.4840 68264.80 67804.50 453.30
9584 61.4900 68200.30 67762.80 452.35
9585 61.4960 68267.80 67694.50 452.21
9586 61.5020 68075.80 67600.90 451.17
9587 61.5080 67993.50 67485.10 452.06
9588 61.5140 67933.10 67350.20 451.50
9589 61.5200 67409.70 67199.20 449.08
9590 61.5260 67391.60 67035.80 450.96
9591 61.5320 66710.00 66863.50 449.93
9592 61.5380 66872.20 66685.20 448.00
9593 61.5440 66695.70 66503.90 447.32
9594 61.5500 66843.30 66322.10 447.66
9595 61.5560 66154.00 66142.10 445.57
9596 61.5620 65995.90 65965.30 444.60
9597 61.5680 66137.80 65793.00 444.92
9598 61.5740 65853.90 65627.00 443.58
9599 61.5800 65818.10 65466.80 442.85
9600 61.5860 65731.30 65314.60 444.85
9601 61.5920 65260.10 65170.00 442.28
9602 61.5980 65157.90 65033.20 442.43
9603 61.6040 64955.40 64904.50 439.68
9604 61.6100 64853.40 64783.80 442.26
9605 61.6160 64874.30 64671.10 440.05
9606 61.6220 64599.90 64566.00 439.50
9607 61.6280 64847.90 64468.60 439.70
9608 61.6340 64212.00 64378.60 437.54
9609 61.6400 64033.40 64295.80 438.42
9610 61.6460 64057.30 64220.20 438.19
9611 61.6520 63998.90 64150.90 438.72
9612 61.6580 63928.00 64087.80 436.41
9613 61.6640 63853.50 64030.90 436.23
9614 61.6700 63498.10 63979.60 435.68
9615 61.6760 63544.10 63933.90 436.46
9616 61.6820 63360.10 63893.40 436.16
9617 61.6880 63313.70 63857.90 437.03
9618 61.6940 63636.70 63827.00 435.80
9619 61.7000 63638.50 63800.60 436.01
9620 61.7060 63445.40 63778.40 435.52
9621 61.7120 63321.10 63759.90 434.83
9622 61.7180 63551.60 63745.30 437.28
9623 61.7240 63871.30 63734.10 436.82
9624 61.7300 63853.30 63726.10 435.49
9625 61.7360 63257.00 63721.20 435.51
9626 61.7420 63513.60 63719.10 435.11
9627 61.7480 63166.60 63719.60 435.04
9628 61.7540 63511.70 63722.30 435.48
9629 61.7600 63316.40 63727.30 434.94
9630 61.7660 63571.30 63735.30 434.87
9631 61.7720 63356.30 63743.60 434.67
9632 61.7780 64021.30 63753.60 435.49
9633 61.7840 63711.70 63764.90 435.83
9634 61.7900 64136.40 63777.10 437.19
9635 61.7960 63694.10 63790.00 436.50
9636 61.8020 64025.90 63803.40 435.53
9637 61.8080 63959.50 63817.10 436.01
9638 61.8140 64417.30 63830.60 436.19
9639 61.8200 63790.50 63843.90 436.04
9640 61.8260 63891.40 63856.50 436.19
9641 61.8320 63972.70 63868.30 437.55
9642 61.8380 63697.30 63879.00 437.97
9643 61.8440 64102.50 63888.20 437.32
9644 61.8500 64245.60 63895.90 436.20
9645 61.8560 63843.40 63901.60 437.02
9646 61.8620 63634.20 63905.30 435.66
9647 61.8680 63739.40 63906.70 435.40
9648 61.8740 64015.20 63905.70 436.98
9649 61.8800 63699.00 63902.20 435.47
9650 61.8860 63828.90 63896.10 436.12
9651 61.8920 63879.70 63887.30 435.44
9652 61.8980 63825.70 63875.80 435.84
9653 61.9040 63894.00 63861.80 436.39
9654 61.9100 63684.30 63845.30 435.96
9655 61.9160 63475.90 63825.80 433.85
9656 61.9220 63622.20 63804.60 435.23
9657 61.9280 63824.60 63781.10 434.82
9658 61.9340 63345.00 63755.70 434.97
9659 61.9400 63378.50 63728.60 435.03
9660 61.9460 63156.10 63699.80 434.28
9661 61.9520 63065.30 63669.90 432.82
9662 61.9580 63421.50 63638.80 434.17
9663 61.9640 63283.70 63606.80 432.39
9664 61.9700 62884.70 63574.10 432.48
9665 61.9760 63032.10 63540.80 433.23
9666 61.9820 62731.60 63507.30 433.91
9667 61.9880 62426.90 63473.60 431.06
9668 61.9940 62601.80 63440.10 431.63
9669 62.0000 62674.70 63406.70 431.96
9670 62.0060 62259.00 63373.60 431.58
9671 62.0120 62271.50 63341.00 430.08
9672 62.0180 62276.90 63309.00 430.77
9673 62.0240 62060.90 63277.60 430.01
9674 62.0300 61920.80 63247.00 429.41
9675 62.0360 62310.20 63217.20 429.73
9676 62.0420 62243.20 63188.40 429.68
9677 62.0480 61769.10 63163.40 428.81
9678 62.0540 61756.50 63136.60 428.77
9679 62.0600 61463.70 63110.80 427.45
9680 62.0660 61729.20 63086.20 428.63
9681 62.0720 62123.40 63062.80 428.63
9682 62.0780 62032.30 63040.50 427.95
9683 62.0840 61825.60 63019.30 429.45
9684 62.0900 61423.30 62999.40 428.47
9685 62.0960 61741.30 62980.60 429.26
9686 62.1020 61172.00 62963.20 429.39
9687 62.1080 61480.10 62947.00 429.42
9688 62.1140 61352.90 62932.00 429.01
9689 62.1200 61542.70 62918.30 429.60
9690 62.1260 61472.80 62905.80 427.76
9691 62.1320 61246.30 62894.50 429.31
9692 62.1380 61250.60 62884.40 428.08
9693 62.1440 61318.50 62875.70 428.90
9694 62.1500 61612.20 62868.10 429.65
9695 62.1560 61672.10 62861.80 429.73
9696 62.1620 61443.10 62856.70 429.79
9697 62.1680 61461.40 62852.80 430.19
9698 62.1740 61137.10 62850.20 428.45
9699 62.1800 61314.40 62848.90 428.98
9700 62.1860 61431.10 62848.80 428.86
9701 62.1920 60972.00 62850.00 428.02
9702 62.1980 61689.30 62852.40 430.04
9703 62.2040 61598.80 62856.20 429.72
9704 62.2100 61726.70 62861.30 429.65
9705 62.2160 61157.90 62867.80 429.45
9706 62.2220 61673.30 62875.60 430.93
9707 62.2280 61636.70 62884.90 430.87
9708 62.2340 61844.30 62895.50 431.48
9709 62.2400 61665.70 62907.60 431.35
9710 62.2460 61479.60 62921.10 430.95
9711 62.2520 61596.20 62936.10 430.73
9712 62.2580 61609.90 62952.50 430.03
9713 62.2640 61709.50 62972.80 430.65
9714 62.2700 62360.00 62996.70 431.93
9715 62.2760 62413.40 63022.20 431.83
9716 62.2820 62281.90 63049.30 431.27
9717 62.2880 62014.90 63078.10 432.07
9718 62.2940 62561.30 63108.40 431.61
9719 62.3000 62641.30 63140.40 433.89
9720 62.3060 62412.40 63174.10 430.90
9721 62.3120 61801.30 63209.50 430.66
9722 62.3180 61781.30 63246.50 431.71
9723 62.3240 61850.90 63285.30 434.27
9724 62.3300 60995.40 63325.80 430.75
9725 62.3360 60985.20 63368.20 432.26
9726 62.3420 61774.00 63412.20 430.39
9727 62.3480 62578.60 63458.20 434.49
9728 62.3540 62622.00 63505.90 433.13
9729 62.3600 62626.60 63555.30 433.72
9730 62.3660 62859.30 63607.00 433.96
9731 62.3720 62778.90 63660.00 433.71
9732 62.3780 62830.80 63714.90 433.15
9733 62.3840 62959.40 63771.60 435.37
9734 62.3900 63309.40 63829.80 435.47
9735 62.3960 63117.50 63889.80 435.78
9736 62.4020 63290.60 63951.40 436.98
9737 62.4080 63361.60 64014.50 436.85
9738 62.4140 63756.70 64079.20 435.75
9739 62.4200 63530.70 64145.20 435.11
9740 62.4260 64043.20 64212.60 437.70
9741 62.4320 63396.10 64281.00 437.25
9742 62.4380 63918.50 64350.60 438.53
9743 62.4440 63644.40 64421.10 436.13
9744 62.4500 63622.70 64492.30 437.31
9745 62.4560 64491.20 64564.20 438.77
9746 62.4620 64013.30 64636.60 437.66
9747 62.4680 64380.50 64709.30 438.80
9748 62.4740 64412.20 64782.30 439.71
9749 62.4800 64012.60 64855.40 438.89
9750 62.4860 63969.60 64928.50 437.59
9751 62.4920 64146.60 65002.00 440.22
9752 62.4980 64663.50 65075.00 441.79
9753 62.5040 64528.10 65147.70 439.40
9754 62.5100 64436.00 65220.40 439.32
9755 62.5160 64353.30 65292.90 441.26
9756 62.5220 64313.40 65365.40 439.64
9757 62.5280 64238.60 65438.00 439.04
9758 62.5340 64630.70 65510.90 440.87
9759 62.5400 64499.20 65584.10 440.93
9760 62.5460 64652.40 65658.10 440.36
9761 62.5520 64511.40 65732.80 441.43
9762 62.5580 64404.70 65808.80 438.82
9763 62.5640 65177.60 65886.00 441.53
9764 62.5700 64765.40 65964.90 441.13
9765 62.5760 65139.10 66045.60 442.37
9766 62.5820 64937.60 66128.30 440.57
9767 62.5880 64589.80 66213.40 440.64
9768 62.5940 64620.30 66301.00 439.68
9769 62.6000 65294.80 66390.70 441.93
9770 62.6060 64965.40 66483.90 440.30
9771 62.6120 64822.50 66580.10 439.23
9772 62.6180 65221.10 66679.20 442.38
9773 62.6240 64814.60 66781.30 439.55
9774 62.6300 65045.20 66886.40 441.61
9775 62.6360 64523.80 66994.00 441.06
9776 62.6420 65267.10 67104.20 441.82
9777 62.6480 64856.40 67216.40 441.18
9778 62.6540 64914.10 67330.50 440.32
9779 62.6600 65406.90 67445.30 441.10
9780 62.6660 65180.50 67560.60 440.49
9781 62.6720 64773.90 67675.20 439.84
9782 62.6780 65204.70 67788.30 440.76
9783 62.6840 64416.10 67898.40 438.88
9784 62.6900 64846.70 68004.50 440.36
9785 62.6960 64889.00 68104.80 439.65
9786 62.7020 64477.10 68198.20 438.73
9787 62.7080 65147.50 68282.50 440.59
9788 62.7140 64828.10 68356.70 440.74
9789 62.7200 64811.10 68419.20 439.35
9790 62.7260 64846.30 68468.70 439.61
9791 62.7320 65298.80 68504.30 440.15
9792 62.7380 64902.10 68525.20 440.26
9793 62.7440 64944.40 68531.10 440.47
9794 62.7500 65285.60 68522.10 440.47
9795 62.7560 65195.30 68498.40 441.98
9796 62.7620 64989.00 68460.90 441.20
9797 62.7680 65213.40 68410.60 439.90
9798 62.7740 64578.10 68348.60 438.84
9799 62.7800 64962.90 68276.40 440.68
9800 62.7860 64473.90 68195.40 437.30
9801 62.7920 64734.60 68106.80 437.88
9802 62.7980 64640.30 68012.20 439.97
9803 62.8040 64882.90 67912.80 439.03
9804 62.8100 65249.10 67810.10 439.84
9805 62.8160 65426.40 67705.10 441.98
9806 62.8220 65179.90 67598.80 440.33
9807 62.8280 64840.90 67492.00 438.16
9808 62.8340 64893.10 67385.70 439.44
9809 62.8400 64703.80 67280.60 440.55
9810 62.8460 65286.00 67177.20 440.89
9811 62.8520 64636.20 67076.30 440.40
9812 62.8580 64196.20 66978.10 437.78
9813 62.8640 65334.20 66883.20 439.65
9814 62.8700 64765.90 66792.00 439.61
9815 62.8760 64591.40 66704.60 439.08
9816 62.8820 64891.80 66621.60 439.38
9817 62.8880 64692.70 66543.20 438.54
9818 62.8940 65047.80 66469.20 439.64
9819 62.9000 64891.80 66400.10 438.18
9820 62.9060 64949.40 66335.80 440.37
9821 62.9120 64577.90 66276.80 440.38
9822 62.9180 65240.40 66222.50 440.85
9823 62.9240 65234.40 66173.70 440.06
9824 62.9300 64577.10 66130.00 439.21
9825 62.9360 64749.40 66091.40 439.61
9826 62.9420 65141.60 66058.30 440.89
9827 62.9480 64964.60 66030.10 439.97
9828 62.9540 65359.70 66007.20 440.84
9829 62.9600 64897.10 65989.40 439.66
9830 62.9660 65626.10 65976.70 441.37
9831 62.9720 65322.00 65969.00 440.02
9832 62.9780 65347.50 65963.10 440.72
9833 62.9840 65036.70 65964.90 441.18
9834 62.9900 65124.90 65971.40 440.63
9835 62.9960 65538.20 65982.30 442.88
9836 63.0020 65700.30 65997.50 440.00
9837 63.0080 65917.10 66016.70 441.70
9838 63.0140 65881.20 66039.80 442.55
9839 63.0200 66133.00 66066.50 442.33
9840 63.0260 66553.60 66096.60 445.61
9841 63.0320 66525.70 66129.70 446.24
9842 63.0380 66297.00 66165.70 444.30
9843 63.0440 66166.20 66204.00 445.10
9844 63.0500 66691.40 66244.30 446.13
9845 63.0560 66218.00 66286.20 445.48
9846 63.0620 66293.70 66329.60 445.12
9847 63.0680 66823.90 66373.80 447.98
9848 63.0740 67177.30 66418.40 446.79
9849 63.0800 67404.30 66463.00 446.96
9850 63.0860 67118.90 66507.30 446.66
9851 63.0920 67227.90 66550.60 446.53
9852 63.0980 67001.80 66592.80 446.60
9853 63.1040 67321.30 66633.10 448.95
9854 63.1100 67917.10 66671.50 447.71
9855 63.1160 67529.00 66707.50 448.48
9856 63.1220 67670.70 66740.90 448.62
9857 63.1280 67790.90 66771.50 448.37
9858 63.1340 67369.90 66799.20 448.53
9859 63.1400 68110.50 66823.90 451.06
9860 63.1460 67425.00 66845.60 448.51
9861 63.1520 68434.80 66864.40 451.66
9862 63.1580 67946.80 66880.30 449.67
9863 63.1640 68087.60 66893.60 450.81
9864 63.1700 67852.80 66904.60 449.41
9865 63.1760 67908.60 66913.70 450.18
9866 63.1820 68090.50 66921.10 450.06
9867 63.1880 68373.80 66927.40 449.64
9868 63.1940 68230.90 66932.90 450.71
9869 63.2000 68218.30 66938.10 450.78
9870 63.2060 68570.10 66943.50 451.80
9871 63.2120 68217.50 66949.70 449.67
9872 63.2180 68285.30 66957.00 450.39
9873 63.2240 68902.60 66966.00 451.79
9874 63.2300 68688.90 66977.00 451.42
9875 63.2360 68897.40 66990.60 452.59
9876 63.2420 68952.70 67007.20 452.32
9877 63.2480 68860.10 67027.10 450.76
9878 63.2540 68877.80 67050.80 451.89
9879 63.2600 69225.00 67078.50 452.57
9880 63.2660 69654.20 67110.60 455.36
9881 63.2720 69810.90 67145.40 453.49
9882 63.2780 69333.20 67187.00 453.82
9883 63.2840 69395.50 67233.60 455.60
9884 63.2900 69361.50 67285.50 453.40
9885 63.2960 69611.10 67342.60 454.63
9886 63.3020 70487.00 67405.30 455.39
9887 63.3080 70155.60 67473.10 454.86
9888 63.3140 70326.20 67546.30 455.41
9889 63.3200 70261.60 67624.60 455.87
9890 63.3260 70412.60 67707.70 454.43
9891 63.3320 70379.30 67795.50 458.96
9892 63.3380 70904.60 67887.30 458.55
9893 63.3440 71293.40 67982.50 461.05
9894 63.3500 70908.20 68080.40 458.38
9895 63.3560 70817.20 68180.20 458.94
9896 63.3620 70992.40 68280.80 459.30
9897 63.3680 71434.60 68381.00 460.55
9898 63.3740 71779.40 68479.10 461.68
9899 63.3800 71940.30 68573.80 461.05
9900 63.3860 71496.00 68663.10 461.64
9901 63.3920 71568.90 68745.10 460.92
9902 63.3980 71769.40 68818.10 461.52
9903 63.4040 71256.40 68880.10 460.56
9904 63.4100 71357.40 68929.00 461.54
9905 63.4160 72183.60 68963.20 460.49
9906 63.4220 71302.80 68981.40 460.68
9907 63.4280 71253.10 68982.30 460.33
9908 63.4340 71634.60 68965.30 458.70
9909 63.4400 71117.10 68930.20 461.25
9910 63.4460 71148.00 68876.90 459.88
9911 63.4520 71290.80 68806.60 458.87
9912 63.4580 71185.50 68719.90 459.06
9913 63.4640 71011.20 68618.30 460.83
9914 63.4700 70407.30 68503.60 457.17
9915 63.4760 70486.40 68377.70 458.35
9916 63.4820 70133.60 68242.10 459.17
9917 63.4880 70440.20 68099.40 458.86
9918 63.4940 69970.30 67951.20 456.84
9919 63.5000 69406.20 67799.50 455.49
9920 63.5060 69639.40 67645.30 456.78
9921 63.5120 69136.40 67490.60 455.68
9922 63.5180 69397.50 67336.50 455.44
9923 63.5240 68817.30 67183.90 453.58
9924 63.5300 68721.10 67034.20 453.75
9925 63.5360 68645.80 66887.50 453.52
9926 63.5420 68539.40 66745.00 451.95
9927 63.5480 68372.00 66606.90 451.40
9928 63.5540 68329.40 66473.50 452.47
9929 63.5600 67821.30 66345.20 450.40
9930 63.5660 68549.70 66220.30 450.93
9931 63.5720 68101.80 66102.80 449.96
9932 63.5780 67829.60 65990.50 448.94
9933 63.5840 67797.20 65883.90 451.53
9934 63.5900 67588.20 65782.70 450.58
9935 63.5960 67399.80 65686.90 449.12
9936 63.6020 67605.40 65596.60 447.80
9937 63.6080 67378.20 65511.70 448.65
9938 63.6140 67100.50 65431.90 447.12
9939 63.6200 67340.60 65357.20 448.86
9940 63.6260 66846.20 65287.50 445.66
9941 63.6320 67187.30 65222.90 446.83
9942 63.6380 66788.60 65166.00 445.55
9943 63.6440 66829.90 65110.90 446.53
9944 63.6500 66709.90 65060.40 446.73
9945 63.6560 66099.70 65014.40 443.91
9946 63.6620 66809.10 64972.80 446.04
9947 63.6680 66553.40 64935.60 445.36
9948 63.6740 66660.90 64902.70 446.17
9949 63.6800 67012.90 64874.00 446.42
9950 63.6860 66452.90 64849.40 446.19
9951 63.6920 66390.10 64829.10 445.56
9952 63.6980 66247.50 64812.70 444.47
9953 63.7040 67101.50 64800.40 448.09
9954 63.7100 66559.70 64792.20 445.96
9955 63.7160 67092.60 64788.10 446.97
9956 63.7220 66987.40 64788.10 445.89
9957 63.7280 66898.40 64792.20 445.24
9958 63.7340 66560.20 64800.50 445.88
9959 63.7400 66870.80 64813.20 445.14
9960 63.7460 67032.00 64830.10 447.01
9961 63.7520 67269.70 64851.60 447.43
9962 63.7580 67088.50 64877.70 446.87
9963 63.7640 67585.00 64908.30 446.60
9964 63.7700 67383.20 64944.00 447.07
9965 63.7760 67797.50 64984.80 447.01
9966 63.7820 68251.70 65030.70 448.99
9967 63.7880 68107.50 65082.00 449.22
9968 63.7940 68032.20 65138.90 449.99
9969 63.8000 67933.10 65201.70 448.26
9970 63.8060 68389.70 65270.50 448.85
9971 63.8120 68606.70 65345.50 451.05
9972 63.8180 68788.20 65427.10 452.18
9973 63.8240 68769.60 65515.30 450.83
9974 63.8300 69046.90 65610.50 452.46
9975 63.8360 69185.30 65712.80 454.86
9976 63.8420 69212.00 65822.50 452.49
9977 63.8480 69195.50 65939.60 454.01
9978 63.8540 69794.30 66064.30 454.16
9979 63.8600 69620.20 66197.00 454.70
9980 63.8660 70455.00 66337.00 456.01
9981 63.8720 70425.60 66485.00 456.57
9982 63.8780 70608.70 66640.20 457.94
9983 63.8840 70584.60 66802.70 457.57
9984 63.8900 70846.70 66971.70 458.74
9985 63.8960 70920.10 67146.50 458.48
9986 63.9020 71692.90 67326.30 460.44
9987 63.9080 71440.50 67509.80 460.93
9988 63.9140 71461.80 67695.70 460.22
9989 63.9200 72178.90 67881.60 461.08
9990 63.9260 71517.10 68066.10 460.37
9991 63.9320 72682.00 68245.90 466.36
9992 63.9380 72285.50 68418.70 462.47
9993 63.9440 72416.10 68581.20 464.44
9994 63.9500 72711.00 68730.50 463.36
9995 63.9560 72759.00 68863.10 464.47
9996 63.9620 72825.80 68976.70 464.35
9997 63.9680 72330.80 69068.30 463.11
9998 63.9740 72392.90 69136.10 462.05
9999 63.9800 72889.00 69178.70 465.33
10000 63.9860 72607.20 69195.80 463.04
10001 63.9920 72397.80 69187.40 462.74
10002 63.9980 72555.10 69155.00 464.05
10003 64.0040 72169.50 69097.30 464.17
10004 64.0100 72685.50 69022.70 463.70
10005 64.0160 72654.20 68930.90 462.10
10006 64.0220 72400.70 68825.10 463.86
10007 64.0280 72189.40 68708.20 461.05
10008 64.0340 72376.00 68584.60 462.66
10009 64.0400 71845.10 68454.80 463.45
10010 64.0460 72067.20 68322.80 461.22
10011 64.0520 72068.80 68190.70 461.78
10012 64.0580 71467.60 68060.20 459.91
10013 64.0640 71496.40 67933.40 459.64
10014 64.0700 71547.40 67811.10 459.18
10015 64.0760 71428.40 67694.90 458.86
10016 64.0820 71417.30 67585.30 461.42
10017 64.0880 71699.70 67483.10 460.09
10018 64.0940 70895.80 67388.70 459.75
10019 64.1000 70405.30 67302.20 460.64
10020 64.1060 70444.70 67224.10 458.87
10021 64.1120 70520.20 67154.20 458.95
10022 64.1180 70100.10 67093.00 458.91
10023 64.1240 70186.30 67040.10 456.83
10024 64.1300 69958.70 66995.50 456.57
10025 64.1360 69717.80 66959.20 456.72
10026 64.1420 69419.80 66931.10 455.72
10027 64.1480 69749.10 66910.80 459.06
10028 64.1540 70115.80 66898.70 458.45
10029 64.1600 69887.80 66894.20 458.47
10030 64.1660 69617.40 66897.10 458.08
10031 64.1720 69649.90 66907.40 457.51
10032 64.1780 69483.70 66924.90 457.37
10033 64.1840 69703.90 66949.50 457.03
10034 64.1900 69775.00 66980.60 457.64
10035 64.1960 69570.20 67018.60 458.23
10036 64.2020 69785.10 67062.90 457.61
10037 64.2080 69619.80 67113.70 455.73
10038 64.2140 68645.60 67170.30 454.81
10039 64.2200 69675.90 67232.90 456.71
10040 64.2260 69256.20 67300.60 456.26
10041 64.2320 69453.80 67374.10 456.36
10042 64.2380 69061.00 67452.60 457.95
10043 64.2440 69174.90 67535.70 455.74
10044 64.2500 69122.60 67623.50 455.99
10045 64.2560 69227.60 67715.40 455.48
10046 64.2620 69312.20 67811.00 454.61
10047 64.2680 69595.70 67910.10 458.41
10048 64.2740 69565.40 68012.20 456.87
10049 64.2800 69961.70 68116.80 457.98
10050 64.2860 69897.50 68223.50 457.14
10051 64.2920 70427.00 68331.80 456.82
10052 64.2980 69719.00 68441.10 458.64
10053 64.3040 70519.80 68550.90 456.54
10054 64.3100 68918.40 68660.40 454.80
10055 64.3160 68252.60 68769.20 455.37
10056 64.3220 68287.00 68876.80 456.77
10057 64.3280 68657.10 68982.00 455.39
10058 64.3340 68047.30 69084.70 457.79
10059 64.3400 68459.10 69184.10 455.55
10060 64.3460 68872.40 69278.20 456.41
10061 64.3520 69620.10 69369.30 456.09
10062 64.3580 69780.90 69455.30 457.31
10063 64.3640 70048.50 69535.80 456.75
10064 64.3700 69819.20 69610.40 456.90
10065 64.3760 69592.50 69678.70 455.65
10066 64.3820 69869.60 69740.50 458.05
10067 64.3880 69733.80 69795.30 458.05
10068 64.3940 69971.50 69843.30 457.39
10069 64.4000 69910.10 69884.20 457.96
10070 64.4060 69965.80 69917.70 459.32
10071 64.4120 70095.30 69944.20 455.59
10072 64.4180 68922.70 69963.60 452.57
10073 64.4240 69583.50 69976.20 456.71
10074 64.4300 69651.20 69981.80 454.89
10075 64.4360 69313.50 69980.70 455.38
10076 64.4420 69145.50 69973.00 453.65
10077 64.4480 68904.90 69958.90 454.38
10078 64.4540 69047.80 69938.60 454.14
10079 64.4600 69111.70 69912.30 454.79
10080 64.4660 69075.70 69880.20 453.64
10081 64.4720 69090.40 69842.30 454.37
10082 64.4780 68510.20 69799.10 453.20
10083 64.4840 68244.50 69750.70 452.20
10084 64.4900 68348.20 69697.30 453.30
10085 64.4960 68306.50 69639.20 454.06
10086 64.5020 68538.90 69576.50 453.16
10087 64.5080 68347.00 69509.50 452.04
10088 64.5140 68468.10 69438.40 453.92
10089 64.5200 68139.50 69363.60 452.08
10090 64.5260 68034.30 69285.60 452.65
10091 64.5320 68375.00 69204.40 452.44
10092 64.5380 67674.70 69120.30 451.15
10093 64.5440 67999.10 69033.60 452.55
10094 64.5500 67628.10 68944.60 451.11
10095 64.5560 68035.20 68853.70 450.31
10096 64.5620 68628.20 68761.20 453.78
10097 64.5680 68475.70 68667.10 451.71
10098 64.5740 67872.90 68571.80 451.79
10099 64.5800 68087.60 68475.50 451.16
10100 64.5860 67505.30 68378.20 448.14
10101 64.5920 67898.50 68281.90 449.77
10102 64.5980 68978.60 68183.50 453.68
10103 64.6040 67660.30 68085.10 448.44
10104 64.6100 67881.50 67986.40 448.96
10105 64.6160 67371.80 67887.80 449.51
10106 64.6220 68063.10 67789.20 451.60
10107 64.6280 67991.80 67690.80 449.31
10108 64.6340 67017.60 67592.90 450.36
10109 64.6400 67300.90 67495.30 447.34
10110 64.6460 68066.60 67398.40 452.04
10111 64.6520 67300.80 67302.10 447.80
10112 64.6580 67662.90 67206.50 450.23
10113 64.6640 67784.00 67111.80 446.61
10114 64.6700 67109.10 67018.20 446.23
10115 64.6760 67500.60 66925.70 447.44
10116 64.6820 67405.70 66834.20 447.25
10117 64.6880 67040.40 66744.20 447.27
10118 64.6940 66494.90 66655.40 445.31
10119 64.7000 66826.90 66568.40 446.17
10120 64.7060 67084.70 66482.80 445.45
10121 64.7120 67166.40 66399.00 447.60
10122 64.7180 66827.10 66317.20 445.02
10123 64.7240 66803.30 66237.10 446.04
10124 64.7300 66523.80 66159.00 444.27
10125 64.7360 66661.90 66083.00 444.75
10126 64.7420 66828.80 66009.00 444.82
10127 64.7480 66886.20 65937.20 443.79
10128 64.7540 66394.60 65867.90 445.47
10129 64.7600 67404.20 65800.70 447.91
10130 64.7660 65915.60 65735.90 442.43
10131 64.7720 65942.30 65673.60 441.28
10132 64.7780 66080.40 65613.60 444.23
10133 64.7840 65725.90 65556.10 440.41
10134 64.7900 66097.30 65501.00 442.07
10135 64.7960 65855.50 65448.60 440.21
10136 64.8020 65647.20 65398.60 441.55
10137 64.8080 65196.30 65351.10 441.03
10138 64.8140 65676.80 65306.20 440.21
10139 64.8200 66378.00 65264.40 442.56
10140 64.8260 65551.80 65224.70 440.22
10141 64.8320 65494.50 65187.40 440.97
10142 64.8380 65765.30 65152.80 442.54
10143 64.8440 64987.10 65120.80 439.85
10144 64.8500 64490.00 65091.30 438.94
10145 64.8560 65241.50 65064.50 440.13
10146 64.8620 65077.80 65040.20 437.00
10147 64.8680 65473.60 65018.70 440.67
10148 64.8740 64658.40 64999.70 438.49
10149 64.8800 65220.00 64983.30 438.84
10150 64.8860 64303.50 64969.60 437.76
10151 64.8920 64849.60 64958.70 436.89
10152 64.8980 65080.00 64950.50 437.40
10153 64.9040 64833.30 64944.90 438.41
10154 64.9100 65191.00 64942.10 441.63
10155 64.9160 64922.30 64942.10 438.27
10156 64.9220 65166.80 64944.90 440.59
10157 64.9280 64814.60 64950.60 438.67
10158 64.9340 65039.70 64959.10 438.21
10159 64.9400 64655.10 64970.80 437.67
10160 64.9460 64861.80 64985.50 438.85
10161 64.9520 65115.90 65003.20 438.52
10162 64.9580 64778.00 65024.10 439.15
10163 64.9640 64433.80 65048.30 437.27
10164 64.9700 65382.90 65075.70 438.28
10165 64.9760 65094.20 65106.60 438.92
10166 64.9820 64930.50 65141.00 440.28
10167 64.9880 64774.60 65178.90 439.50
10168 64.9940 65292.30 65220.50 441.37
10169 65.0000 64680.50 65266.20 440.04
10170 65.0060 65607.50 65315.80 437.62
10171 65.0120 65558.90 65369.50 438.32
10172 65.0180 65866.50 65427.40 438.64
10173 65.0240 66484.40 65489.00 442.55
10174 65.0300 65789.00 65555.80 445.56
10175 65.0360 65360.30 65627.30 441.62
10176 65.0420 65498.10 65703.60 442.49
10177 65.0480 66104.60 65785.00 442.10
10178 65.0540 65848.30 65871.30 443.94
10179 65.0600 66243.80 65962.70 443.71
10180 65.0660 67007.40 66059.50 448.34
10181 65.0720 66230.30 66161.90 444.00
10182 65.0780 66628.30 66269.50 445.64
10183 65.0840 67103.80 66383.00 445.98
10184 65.0900 67201.70 66501.40 445.93
10185 65.0960 66833.50 66625.80 444.46
10186 65.1020 67013.70 66755.20 446.34
10187 65.1080 67085.20 66889.60 449.19
10188 65.1140 67160.70 67028.80 446.80
10189 65.1200 67368.20 67172.00 447.10
10190 65.1260 68017.00 67319.20 447.68
10191 65.1320 67419.80 67468.90 448.22
10192 65.1380 68148.70 67620.60 450.37
10193 65.1440 68146.90 67772.60 448.58
10194 65.1500 68057.60 67924.70 451.65
10195 65.1560 68790.10 68073.20 451.89
10196 65.1620 68572.50 68217.00 449.58
10197 65.1680 68351.40 68354.20 449.59
10198 65.1740 68443.60 68482.00 450.55
10199 65.1800 68488.30 68598.50 450.28
10200 65.1860 68962.20 68700.90 451.01
10201 65.1920 68644.40 68787.30 451.61
10202 65.1980 69355.50 68855.30 452.61
10203 65.2040 69150.60 68903.90 453.05
10204 65.2100 68919.60 68931.70 450.78
10205 65.2160 69015.50 68940.80 450.19
10206 65.2220 68742.80 68926.50 449.90
10207 65.2280 69019.30 68892.10 453.43
10208 65.2340 69717.50 68838.70 452.85
10209 65.2400 69071.70 68768.10 451.23
10210 65.2460 68914.50 68682.50 449.76
10211 65.2520 69289.40 68584.00 450.73
10212 65.2580 68783.90 68475.00 451.22
10213 65.2640 69083.00 68357.60 450.98
10214 65.2700 68578.90 68234.30 451.73
10215 65.2760 69305.60 68106.70 450.97
10216 65.2820 67886.20 67977.00 449.09
10217 65.2880 67631.30 67846.60 447.57
10218 65.2940 68394.00 67716.60 448.49
10219 65.3000 67937.30 67588.50 446.99
10220 65.3060 68081.90 67462.70 448.13
10221 65.3120 67820.10 67340.30 445.22
10222 65.3180 67438.10 67221.60 446.36
10223 65.3240 67664.50 67107.30 444.40
10224 65.3300 67053.80 66997.60 445.25
10225 65.3360 67525.50 66892.50 448.88
10226 65.3420 66753.50 66792.50 445.60
10227 65.3480 67665.50 66697.40 446.90
10228 65.3540 66599.90 66607.30 443.68
10229 65.3600 66621.90 66522.40 443.57
10230 65.3660 66824.70 66442.70 443.82
10231 65.3720 66686.90 66367.60 444.09
10232 65.3780 66749.80 66297.70 445.60
10233 65.3840 66054.30 66232.90 442.82
10234 65.3900 66257.50 66172.60 440.75
10235 65.3960 66185.30 66117.20 442.89
10236 65.4020 65211.00 66066.20 440.08
10237 65.4080 65839.40 66020.00 443.09
10238 65.4140 65729.40 65978.00 441.10
10239 65.4200 65677.50 65940.30 441.14
10240 65.4260 65807.30 65906.60 439.27
10241 65.4320 65882.40 65877.20 439.38
10242 65.4380 65488.10 65851.70 441.39
10243 65.4440 65619.90 65829.90 440.72
10244 65.4500 64978.60 65811.90 438.19
10245 65.4560 65116.70 65797.40 438.56
10246 65.4620 65440.90 65786.40 440.40
10247 65.4680 65326.80 65778.60 440.02
10248 65.4740 65115.90 65774.10 439.41
10249 65.4800 65593.10 65772.70 442.37
10250 65.4860 65173.20 65774.20 441.37
10251 65.4920 65199.90 65778.50 441.20
10252 65.4980 65069.70 65785.50 440.04
10253 65.5040 65612.10 65794.70 439.88
10254 65.5100 64977.70 65806.50 440.91
10255 65.5160 65557.10 65820.50 441.47
10256 65.5220 65578.70 65836.40 440.54
10257 65.5280 65756.40 65854.30 444.55
10258 65.5340 64904.00 65873.80 440.89
10259 65.5400 65673.80 65895.00 440.97
10260 65.5460 65597.00 65917.50 441.65
10261 65.5520 65255.90 65941.70 441.54
10262 65.5580 65154.30 65966.70 440.81
10263 65.5640 65929.80 65992.60 442.03
10264 65.5700 66221.80 66019.60 441.26
10265 65.5760 65791.00 66047.40 440.70
10266 65.5820 65903.20 66076.00 442.10
10267 65.5880 65980.10 66105.50 444.61
10268 65.5940 66242.30 66136.00 443.78
10269 65.6000 65742.10 66167.20 444.09
10270 65.6060 65705.20 66199.70 440.15
10271 65.6120 66332.00 66233.40 444.27
10272 65.6180 66412.70 66268.50 444.21
10273 65.6240 66400.50 66305.50 442.96
10274 65.6300 66791.30 66344.40 445.25
10275 65.6360 66296.80 66385.60 442.34
10276 65.6420 66478.10 66429.70 444.60
10277 65.6480 65980.00 66476.80 443.54
10278 65.6540 66714.40 66527.60 443.32
10279 65.6600 66676.20 66582.10 444.58
10280 65.6660 66347.00 66641.30 443.26
10281 65.6720 67101.00 66705.10 445.82
10282 65.6780 66856.40 66774.30 446.10
10283 65.6840 66902.40 66849.10 446.31
10284 65.6900 67015.80 66930.10 446.59
10285 65.6960 67466.80 67017.50 446.93
10286 65.7020 67683.10 67111.60 449.28
10287 65.7080 67510.50 67212.70 447.98
10288 65.7140 67944.50 67321.00 448.41
10289 65.7200 67743.80 67436.60 449.74
10290 65.7260 68026.60 67559.10 447.62
10291 65.7320 68136.90 67688.70 449.65
10292 65.7380 68335.90 67825.10 448.41
10293 65.7440 68354.60 67967.50 450.47
10294 65.7500 68748.50 68115.10 451.81
10295 65.7560 68435.60 68267.40 450.99
10296 65.7620 68821.60 68423.00 450.24
10297 65.7680 68926.10 68579.70 451.99
10298 65.7740 69301.70 68736.70 450.82
10299 65.7800 69424.80 68892.30 452.34
10300 65.7860 69351.60 69043.50 453.31
10301 65.7920 69525.70 69188.50 452.02
10302 65.7980 69443.80 69324.90 454.41
10303 65.8040 69648.80 69450.80 452.41
10304 65.8100 70100.40 69564.00 453.98
10305 65.8160 69691.00 69662.50 453.11
10306 65.8220 69883.10 69745.30 452.77
10307 65.8280 69651.80 69811.00 453.44
10308 65.8340 69787.30 69859.50 454.60
10309 65.8400 69420.70 69890.30 453.20
10310 65.8460 69371.10 69903.60 454.21
10311 65.8520 69972.50 69900.00 452.96
10312 65.8580 69092.20 69880.10 452.20
10313 65.8640 69248.00 69844.60 452.00
10314 65.8700 69448.80 69794.90 451.37
10315 65.8760 69474.10 69731.40 450.80
10316 65.8820 68763.60 69655.40 452.37
10317 65.8880 68892.40 69567.90 451.54
10318 65.8940 68603.30 69470.20 450.56
10319 65.9000 68709.60 69363.00 451.07
10320 65.9060 68587.20 69248.00 449.96
10321 65.9120 68678.50 69126.00 450.60
10322 65.9180 68024.10 68998.30 448.15
10323 65.9240 68078.50 68866.50 446.78
10324 65.9300 68512.80 68731.70 452.73
10325 65.9360 67609.60 68595.50 446.62
10326 65.9420 67720.30 68458.80 448.78
10327 65.9480 67027.50 68323.30 445.32
10328 65.9540 67254.00 68190.10 445.00
10329 65.9600 66423.70 68059.70 443.33
10330 65.9660 66068.40 67933.60 442.11
10331 65.9720 66798.50 67812.20 441.52
10332 65.9780 66270.50 67696.50 440.89
10333 65.9840 66035.40 67586.60 444.10
10334 65.9900 66390.50 67483.30 440.05
10335 65.9960 65872.80 67386.60 441.83
10336 66.0020 65629.80 67296.70 440.53
10337 66.0080 65311.40 67214.10 438.33
10338 66.0140 65568.50 67138.50 438.40
10339 66.0200 65230.70 67070.00 437.33
10340 66.0260 65804.00 67008.40 439.47
10341 66.0320 65100.10 66953.70 437.46
10342 66.0380 64908.70 66905.60 439.17
10343 66.0440 65211.80 66864.10 437.08
10344 66.0500 65041.50 66828.80 437.89
10345 66.0560 64775.80 66799.50 436.95
10346 66.0620 64933.00 66775.80 435.15
10347 66.0680 64411.60 66757.40 434.62
10348 66.0740 64632.40 66744.20 435.48
10349 66.0800 64504.60 66735.70 438.43
10350 66.0860 64707.60 66731.40 435.80
10351 66.0920 63539.20 66731.20 434.69
10352 66.0980 63740.20 66734.40 435.38
10353 66.1040 63444.20 66740.80 437.96
10354 66.1100 63858.30 66749.90 436.51
10355 66.1160 63287.70 66761.30 435.65
10356 66.1220 63988.70 66774.40 437.15
10357 66.1280 63186.70 66789.00 432.98
10358 66.1340 62881.90 66804.50 434.78
10359 66.1400 63163.70 66820.60 433.10
10360 66.1460 63532.90 66836.70 435.18
10361 66.1520 63486.30 66852.50 436.56
10362 66.1580 63431.60 66867.50 436.44
10363 66.1640 62976.40 66880.20 434.57
10364 66.1700 63068.80 66892.70 433.81
10365 66.1760 62890.60 66903.50 436.39
10366 66.1820 63082.60 66912.20 435.34
10367 66.1880 62995.80 66919.00 434.31
10368 66.1940 63395.40 66923.40 435.09
10369 66.2000 64011.90 66925.50 436.93
10370 66.2060 63291.90 66925.20 433.66
10371 66.2120 63664.30 66922.80 434.60
10372 66.2180 62326.00 66918.20 433.56
10373 66.2240 62989.80 66911.70 433.32
10374 66.2300 63673.60 66903.80 437.02
10375 66.2360 63655.60 66894.50 441.50
10376 66.2420 62976.10 66883.80 434.92
10377 66.2480 62822.80 66873.00 434.35
10378 66.2540 62990.90 66862.30 436.84
10379 66.2600 63168.90 66852.10 433.30
10380 66.2660 63271.60 66842.70 433.92
10381 66.2720 63411.40 66834.80 436.42
10382 66.2780 63375.20 66828.40 433.74
10383 66.2840 63874.00 66824.40 433.97
10384 66.2900 63329.80 66823.40 435.75
10385 66.2960 64000.70 66825.50 435.60
10386 66.3020 63390.80 66831.30 435.42
10387 66.3080 62943.60 66840.70 432.14
10388 66.3140 63205.20 66854.30 433.06
10389 66.3200 63918.90 66872.40 435.36
10390 66.3260 63793.70 66894.80 435.17
10391 66.3320 64467.60 66921.60 436.09
10392 66.3380 64107.20 66952.40 435.01
10393 66.3440 63592.30 66987.40 436.56
10394 66.3500 63623.10 67025.80 434.64
10395 66.3560 63208.80 67066.90 435.28
10396 66.3620 63311.60 67110.00 433.37
10397 66.3680 63950.60 67153.80 436.33
10398 66.3740 63670.70 67195.30 436.41
10399 66.3800 64139.80 67236.40 439.64
10400 66.3860 64251.50 67273.80 439.74
10401 66.3920 64208.70 67305.40 436.18
10402 66.3980 63989.70 67329.50 437.18
10403 66.4040 63896.40 67344.00 437.11
10404 66.4100 64485.20 67347.10 437.87
10405 66.4160 64759.00 67337.20 435.36
10406 66.4220 64979.20 67313.10 438.07
10407 66.4280 64724.40 67273.80 436.39
10408 66.4340 63736.50 67219.30 436.87
10409 66.4400 64247.30 67149.50 435.73
10410 66.4460 63800.90 67065.20 435.59
10411 66.4520 63731.80 66967.60 435.01
10412 66.4580 63669.50 66857.90 434.25
10413 66.4640 63665.70 66737.50 434.77
10414 66.4700 63846.20 66609.70 435.18
10415 66.4760 63644.10 66475.60 435.64
10416 66.4820 63888.90 66337.30 438.92
10417 66.4880 63197.70 66196.70 434.47
10418 66.4940 63436.70 66055.10 437.52
10419 66.5000 63020.40 65914.00 433.24
10420 66.5060 63452.20 65775.20 435.38
10421 66.5120 63272.20 65639.00 434.50
10422 66.5180 63457.90 65507.40 436.80
10423 66.5240 62507.90 65379.70 432.16
10424 66.5300 63343.60 65256.70 435.95
10425 66.5360 63308.40 65139.00 434.73
10426 66.5420 62919.80 65026.70 435.59
10427 66.5480 63263.50 64920.30 435.11
10428 66.5540 63045.40 64819.10 434.46
10429 66.5600 62753.10 64723.30 430.78
10430 66.5660 63723.60 64633.10 436.83
10431 66.5720 63552.10 64548.00 434.27
10432 66.5780 63372.60 64467.90 432.67
10433 66.5840 62849.00 64392.80 430.43
10434 66.5900 62898.30 64322.30 433.26
10435 66.5960 62553.20 64256.20 430.73
10436 66.6020 64029.10 64194.30 434.74
10437 66.6080 63132.30 64136.50 430.41
10438 66.6140 62907.90 64082.50 433.04
10439 66.6200 63104.70 64032.20 436.77
10440 66.6260 63504.60 63985.20 433.24
10441 66.6320 63450.20 63941.70 433.79
10442 66.6380 62639.40 63901.10 433.91
10443 66.6440 63175.50 63863.60 432.75
10444 66.6500 62693.90 63829.00 430.36
10445 66.6560 63118.00 63797.10 435.10
10446 66.6620 63151.20 63768.00 429.64
10447 66.6680 63071.70 63741.30 430.51
10448 66.6740 62737.10 63717.10 431.67
10449 66.6800 63065.90 63695.40 431.54
10450 66.6860 63482.90 63677.10 433.65
10451 66.6920 63017.20 63661.80 431.06
10452 66.6980 63469.90 63648.70 433.12
10453 66.7040 63251.70 63637.70 431.73
10454 66.7100 63279.70 63628.80 431.82
10455 66.7160 63442.80 63621.90 433.25
10456 66.7220 63223.10 63617.20 433.18
10457 66.7280 62797.90 63614.30 431.58
10458 66.7340 63667.00 63613.40 431.41
10459 66.7400 63500.00 63614.50 432.16
10460 66.7460 63007.10 63617.40 433.12
10461 66.7520 63645.30 63622.30 430.44
10462 66.7580 64101.20 63629.10 437.01
10463 66.7640 63747.60 63637.70 434.40
10464 66.7700 63899.90 63648.10 432.53
10465 66.7760 63486.30 63660.40 434.29
10466 66.7820 63545.30 63674.60 433.86
10467 66.7880 63130.90 63690.70 428.97
10468 66.7940 63590.70 63708.60 431.95
10469 66.8000 63979.10 63728.50 432.57
10470 66.8060 64779.30 63750.40 434.21
10471 66.8120 64667.80 63774.20 434.42
10472 66.8180 64854.60 63800.50 435.27
10473 66.8240 64402.30 63828.30 433.70
10474 66.8300 63891.20 63858.10 433.06
10475 66.8360 64989.70 63890.00 439.21
10476 66.8420 64118.10 63923.90 435.48
10477 66.8480 63954.60 63960.30 435.01
10478 66.8540 64639.40 63998.60 438.04
10479 66.8600 63692.60 64039.30 432.71
10480 66.8660 65131.50 64082.40 436.73
10481 66.8720 64999.70 64127.80 436.02
10482 66.8780 65092.40 64175.70 436.06
10483 66.8840 65381.10 64226.00 439.43
10484 66.8900 65309.40 64279.00 437.60
10485 66.8960 65336.70 64334.50 437.58
10486 66.9020 66030.10 64392.70 438.88
10487 66.9080 65674.10 64453.60 439.93
10488 66.9140 66699.70 64517.30 439.71
10489 66.9200 66053.10 64583.70 436.36
10490 66.9260 66163.00 64652.90 442.02
10491 66.9320 66385.80 64725.20 442.07
10492 66.9380 66508.50 64800.20 442.49
10493 66.9440 67040.50 64878.20 442.61
10494 66.9500 66399.80 64958.90 440.38
10495 66.9560 67196.00 65042.70 446.43
10496 66.9620 66638.80 65129.30 442.57
10497 66.9680 67920.60 65218.50 446.43
10498 66.9740 67907.80 65310.60 444.11
10499 66.9800 67476.20 65405.10 443.64
10500 66.9860 67471.10 65502.00 447.65
10501 66.9920 68131.00 65601.00 450.51
10502 66.9980 66935.50 65702.10 447.69
10503 67.0040 68136.60 65804.70 441.31
10504 67.0100 69119.70 65908.40 444.84
10505 67.0160 68895.20 66013.20 447.98
10506 67.0220 69890.30 66117.80 449.50
10507 67.0280 69512.50 66222.20 453.62
10508 67.0340 68873.50 66325.20 450.01
10509 67.0400 69285.60 66424.50 452.61
10510 67.0460 69303.20 66522.90 450.22
10511 67.0520 69455.10 66617.00 451.61
10512 67.0580 69751.30 66706.00 451.91
10513 67.0640 70463.00 66788.90 456.17
10514 67.0700 70002.30 66864.60 451.98
10515 67.0760 70342.00 66932.00 454.20
10516 67.0820 70152.40 66990.00 455.28
10517 67.0880 69465.10 67037.60 449.50
10518 67.0940 70479.00 67074.20 454.37
10519 67.1000 69724.70 67099.50 451.11
10520 67.1060 69627.30 67113.10 452.45
10521 67.1120 71182.20 67114.60 454.48
10522 67.1180 69665.10 67104.70 453.04
10523 67.1240 70138.30 67083.80 452.87
10524 67.1300 69407.30 67052.30 450.40
10525 67.1360 70179.10 67011.40 453.30
10526 67.1420 68828.20 66962.20 448.35
10527 67.1480 69668.40 66905.60 451.07
10528 67.1540 69792.60 66843.00 452.41
10529 67.1600 69733.30 66775.80 449.43
10530 67.1660 69080.40 66704.70 449.31
10531 67.1720 69091.70 66631.30 448.46
10532 67.1780 68859.00 66556.60 447.48
10533 67.1840 69082.30 66481.50 448.39
10534 67.1900 69696.10 66406.90 452.53
10535 67.1960 68455.60 66333.40 449.05
10536 67.2020 68793.10 66262.00 447.99
10537 67.2080 68359.30 66193.00 448.68
10538 67.2140 68570.80 66127.10 445.84
10539 67.2200 68427.30 66064.40 445.52
10540 67.2260 68658.50 66005.50 450.48
10541 67.2320 68475.70 65950.60 445.70
10542 67.2380 68752.50 65899.60 446.57
10543 67.2440 69168.30 65853.10 446.95
10544 67.2500 68355.60 65810.70 443.12
10545 67.2560 68643.50 65772.60 447.30
10546 67.2620 68665.50 65739.00 443.13
10547 67.2680 68168.20 65709.60 447.91
10548 67.2740 69312.30 65684.50 447.47
10549 67.2800 68116.10 65663.60 445.65
10550 67.2860 67724.80 65646.70 443.88
10551 67.2920 67257.70 65633.80 443.03
10552 67.2980 67695.60 65624.60 442.16
10553 67.3040 68358.60 65619.00 444.83
10554 67.3100 67659.70 65616.70 442.83
10555 67.3160 67802.00 65617.70 441.00
10556 67.3220 68159.70 65621.60 446.03
10557 67.3280 68453.10 65628.10 444.45
10558 67.3340 68337.80 65637.10 446.25
10559 67.3400 67996.10 65648.40 447.67
10560 67.3460 69194.60 65661.50 448.86
10561 67.3520 68358.80 65676.20 446.64
10562 67.3580 67894.30 65692.20 445.86
10563 67.3640 68365.40 65709.40 445.41
10564 67.3700 67821.90 65727.40 445.96
10565 67.3760 67917.00 65746.70 443.99
10566 67.3820 68250.80 65765.30 443.40
10567 67.3880 68172.10 65784.10 445.69
10568 67.3940 68635.20 65802.60 444.19
10569 67.4000 68118.40 65820.90 446.16
10570 67.4060 67746.90 65838.60 447.09
10571 67.4120 67188.70 65856.00 442.70
10572 67.4180 68849.40 65872.90 444.05
10573 67.4240 68038.10 65889.10 445.30
10574 67.4300 67780.50 65905.10 443.04
10575 67.4360 68401.30 65920.70 444.60
10576 67.4420 67758.50 65936.10 444.37
10577 67.4480 67804.40 65951.70 444.29
10578 67.4540 67283.80 65967.60 442.80
10579 67.4600 67764.10 65984.10 445.46
10580 67.4660 68149.70 66001.80 449.42
10581 67.4720 68225.20 66021.00 447.81
10582 67.4780 68234.50 66041.90 447.34
10583 67.4840 67045.20 66065.10 445.97
10584 67.4900 68018.30 66090.80 447.56
10585 67.4960 67470.70 66119.70 447.85
10586 67.5020 68099.90 66152.00 446.80
10587 67.5080 67754.00 66188.00 444.49
10588 67.5140 67724.50 66228.40 447.17
10589 67.5200 67556.40 66272.90 443.72
10590 67.5260 68326.20 66322.10 451.21
10591 67.5320 67854.90 66375.90 448.41
10592 67.5380 67280.80 66434.30 445.81
10593 67.5440 68464.00 66497.10 449.08
10594 67.5500 68232.80 66564.40 448.94
10595 67.5560 67860.40 66635.70 447.72
10596 67.5620 67637.90 66710.40 447.37
10597 67.5680 68204.70 66787.50 445.23
10598 67.5740 67482.50 66865.90 446.19
10599 67.5800 67176.60 66944.50 443.27
10600 67.5860 67259.90 67022.00 444.67
10601 67.5920 68041.40 67096.30 447.10
10602 67.5980 67458.50 67166.00 448.68
10603 67.6040 68088.30 67229.00 444.71
10604 67.6100 67749.10 67283.40 447.28
10605 67.6160 67950.30 67327.30 445.55
10606 67.6220 67799.70 67359.20 446.82
10607 67.6280 67606.30 67377.50 444.14
10608 67.6340 67330.60 67381.30 442.80
10609 67.6400 66894.40 67370.00 443.12
10610 67.6460 66413.40 67343.30 442.61
10611 67.6520 67071.30 67301.70 444.01
10612 67.6580 67493.90 67245.90 440.47
10613 67.6640 66833.70 67176.50 440.98
10614 67.6700 66627.80 67095.70 440.44
10615 67.6760 66632.20 67004.30 442.90
10616 67.6820 66283.30 66904.10 442.15
10617 67.6880 66092.90 66796.70 439.46
10618 67.6940 66368.80 66683.60 440.06
10619 67.7000 66756.80 66566.50 440.62
10620 67.7060 65999.90 66446.20 439.44
10621 67.7120 66362.80 66324.40 438.94
10622 67.7180 66620.10 66202.10 442.47
10623 67.7240 66645.30 66080.00 439.48
10624 67.7300 66065.10 65959.20 436.53
10625 67.7360 65325.20 65840.20 435.25
10626 67.7420 65854.30 65723.90 437.63
10627 67.7480 64977.70 65610.50 435.47
10628 67.7540 64855.80 65500.90 436.05
10629 67.7600 64491.70 65395.10 434.17
10630 67.7660 65129.70 65293.50 433.27
10631 67.7720 65353.90 65196.40 435.27
10632 67.7780 65290.30 65104.00 434.88
10633 67.7840 65044.90 65016.30 434.96
10634 67.7900 64579.20 64933.70 432.64
10635 67.7960 63915.00 64855.90 432.92
10636 67.8020 64021.40 64783.20 429.52
10637 67.8080 64168.00 64715.30 428.21
10638 67.8140 64611.30 64652.30 432.40
10639 67.8200 64375.00 64594.00 431.70
10640 67.8260 63342.90 64540.30 429.93
10641 67.8320 64483.60 64491.10 434.30
10642 67.8380 63800.30 64446.40 434.04
10643 67.8440 63552.10 64405.80 427.77
10644 67.8500 63376.80 64369.40 430.54
10645 67.8560 63855.40 64336.80 430.58
10646 67.8620 63744.10 64307.80 429.85
10647 67.8680 63567.70 64282.50 426.87
10648 67.8740 63815.10 64260.60 430.23
10649 67.8800 63553.20 64241.80 428.40
10650 67.8860 63891.00 64225.20 430.28
10651 67.8920 63585.00 64212.20 430.47
10652 67.8980 63509.20 64201.70 429.31
10653 67.9040 63838.60 64193.60 430.80
10654 67.9100 64197.10 64187.60 429.50
10655 67.9160 63813.50 64183.70 431.32
10656 67.9220 63591.70 64181.50 429.00
10657 67.9280 64043.20 64180.80 431.04
10658 67.9340 64036.00 64182.40 428.94
10659 67.9400 63489.90 64184.10 432.02
10660 67.9460 63007.70 64186.70 429.99
10661 67.9520 63619.00 64189.80 427.43
10662 67.9580 63385.70 64193.30 429.63
10663 67.9640 63690.40 64197.00 430.36
10664 67.9700 63497.80 64200.80 427.22
10665 67.9760 63210.80 64204.10 425.66
10666 67.9820 63423.70 64207.00 431.12
10667 67.9880 63842.80 64209.20 427.48
10668 67.9940 63138.60 64210.50 426.96
10669 68.0000 63522.10 64210.90 428.23
10670 68.0060 64007.40 64210.10 429.14
10671 68.0120 62679.50 64207.90 424.84
10672 68.0180 62808.90 64204.50 425.93
10673 68.0240 63248.30 64199.60 428.84
10674 68.0300 62632.40 64193.10 425.80
10675 68.0360 64228.50 64185.40 427.58
10676 68.0420 63314.50 64175.90 427.32
10677 68.0480 63264.40 64165.10 425.84
10678 68.0540 63148.70 64152.90 428.90
10679 68.0600 62696.10 64139.40 425.40
10680 68.0660 62478.30 64124.40 423.36
10681 68.0720 63077.20 64108.60 423.11
10682 68.0780 62747.10 64091.80 425.04
10683 68.0840 63533.80 64074.10 427.21
loop_
_pd_proc_info_excluded_regions
'from 0 to 4.000'
loop_
_refln_index_h
_refln_index_k
_refln_index_l
_refln_index_m_1
_refln_F_squared_calc
_refln_F_squared_meas
_refln_F_squared_sigma
_refln_observed_status
_refln_d_spacing
0 0 6 -10 0.04 0.06 0.03 o 11.569771
1 0 1 -2 24.38 9.09 0.28 o 7.024755
1 -1 2 -4 4.43 3.09 0.14 o 5.501327
0 0 3 -6 56.40 55.46 0.90 o 5.107631
1 -1 5 -8 0.07 0.07 0.00 o 5.062624
2 -1 0 0 3543.06 3485.28 56.47 o 4.563573
2 -1 3 -5 1.46 1.44 0.02 o 4.477330
2 -1 6 -10 0.09 0.09 0.00 o 4.245263
1 0 4 -6 20.89 15.98 0.30 o 3.981717
2 -2 1 -2 59.08 22.38 0.67 o 3.826925
2 -1 6 -11 0.07 0.07 0.00 o 3.745191
0 0 3 -4 4.04 2.08 0.05 o 3.543365
2 0 2 -4 21.43 9.81 0.21 o 3.512377
1 0 4 -8 1.87 1.94 0.03 o 3.447227
2 -1 3 -6 11.58 12.37 0.20 o 3.403086
2 0 5 -8 2.75 2.86 0.05 o 3.389675
2 -1 0 1 1171.91 1206.12 19.54 o 3.084038
2 -2 4 -6 30.44 31.62 0.51 o 3.000262
3 -1 4 -7 6.36 6.59 0.11 o 2.981101
3 -1 1 -2 6.25 4.84 0.08 o 2.932344
3 -2 5 -9 1.41 1.47 0.02 o 2.890838
1 -1 5 -10 0.68 0.71 0.01 o 2.857339
3 -2 2 -3 10.28 4.76 0.09 o 2.842036
2 -1 3 -4 2.39 1.24 0.02 o 2.798769
3 -2 2 -4 43.61 41.36 0.67 o 2.783424
2 -2 4 -8 24.25 25.32 0.41 o 2.750664
3 -2 5 -8 8.31 8.67 0.14 o 2.721158
1 -1 2 -2 0.67 0.65 0.01 o 2.704210
3 -1 1 -1 59.21 62.64 1.01 o 2.651635
3 0 0 0 8556.83 9172.96 148.62 o 2.634780
3 -3 6 -10 8.70 9.03 0.15 o 2.569007
3 0 6 -10 6.57 6.82 0.11 o 2.569007
0 0 6 -12 0.00 0.00 0.00 < 2.553815
2 -1 6 -9 0.06 0.06 0.00 o 2.548869
3 -1 4 -6 1.77 1.85 0.03 o 2.506997
2 0 5 -10 1.11 1.14 0.02 o 2.421800
3 -1 4 -8 0.95 0.77 0.01 o 2.355819
3 -3 3 -6 115.51 95.67 1.56 o 2.341585
3 0 3 -6 0.05 0.04 0.00 o 2.341585
2 0 2 -2 15.71 13.53 0.22 o 2.326438
1 0 1 0 520.60 513.81 8.44 o 2.316448
4 -2 0 0 369.04 267.75 4.44 o 2.281787
4 -2 3 -5 0.00 0.00 0.00 < 2.270773
4 -2 6 -10 0.02 0.02 0.00 o 2.238665
2 -1 6 -12 0.01 0.00 0.00 < 2.228591
3 -1 1 -3 53.39 40.47 0.67 o 2.210710
4 -3 4 -7 17.13 15.90 0.26 o 2.189714
4 -3 1 -2 59.31 66.60 1.11 o 2.170171
4 -2 6 -11 0.56 0.58 0.01 o 2.154937
4 -1 5 -9 1.06 1.09 0.02 o 2.153184
3 -2 5 -10 0.27 0.28 0.00 o 2.139234
4 -1 2 -3 9.45 8.73 0.14 o 2.132789
3 -3 3 -4 158.43 148.71 2.41 o 2.114321
3 0 3 -4 13.64 12.81 0.21 o 2.114321
4 -1 2 -4 81.29 76.48 1.24 o 2.107681
0 0 0 2 1771.41 1677.57 27.18 o 2.092036
4 -2 3 -6 1.75 1.82 0.03 o 2.083344
4 -1 5 -8 8.53 8.65 0.14 o 2.080256
3 -2 2 -2 3.21 3.01 0.05 o 2.072654
2 -2 1 0 3244.78 3139.21 50.91 o 2.065581
2 -1 3 -7 10.45 10.69 0.17 o 2.053876
4 -3 1 -1 394.41 375.95 6.09 o 2.048696
3 -2 2 -5 1.00 1.00 0.02 o 2.005675
4 -2 0 1 3114.48 3510.45 56.87 o 2.003258
4 -3 4 -6 93.22 93.72 1.52 o 1.979748
4 0 1 -2 200.27 203.29 3.29 o 1.959855
3 -2 5 -7 0.01 0.00 0.00 < 1.943741
4 -2 3 -4 5.38 5.33 0.09 o 1.918427
4 -4 2 -4 76.86 75.51 1.22 o 1.913463
4 -3 4 -8 0.25 0.25 0.00 o 1.902720
2 -1 0 2 500.34 481.85 7.81 o 1.901734
4 -4 5 -8 6.25 6.27 0.10 o 1.892871
3 -1 1 0 4213.66 4210.98 68.24 o 1.881796
3 -3 6 -12 1.17 1.17 0.02 o 1.833776
3 0 6 -12 5.47 5.46 0.09 o 1.833776
4 -2 6 -9 0.32 0.31 0.01 o 1.831942
4 -3 1 -3 5.17 3.57 0.06 o 1.823775
4 0 4 -6 2.17 2.10 0.03 o 1.816209
5 -2 4 -7 7.33 6.98 0.11 o 1.811933
5 -2 1 -2 90.37 42.82 0.76 o 1.800814
1 0 1 -4 1.90 1.29 0.02 o 1.792753
5 -3 5 -9 0.27 0.26 0.00 o 1.791072
4 -1 5 -10 3.47 3.33 0.05 o 1.783019
5 -3 2 -3 40.26 29.19 0.48 o 1.779282
0 0 6 -8 3.66 3.40 0.06 o 1.771682
2 -1 3 -3 9.50 7.88 0.13 o 1.768635
3 -1 4 -5 0.17 0.15 0.00 o 1.767945
5 -3 2 -4 0.04 0.04 0.00 o 1.764625
4 0 4 -8 54.36 51.45 0.83 o 1.756189
5 -3 5 -8 0.03 0.03 0.00 o 1.748436
4 -1 2 -2 37.76 35.02 0.57 o 1.743915
5 -2 1 -1 346.57 325.63 5.28 o 1.729572
5 -1 0 0 1248.47 1195.36 19.42 o 1.724869
5 -1 3 -5 11.47 11.01 0.18 o 1.720096
5 -4 3 -5 0.00 0.00 0.00 < 1.720096
5 -4 6 -10 0.90 0.88 0.01 o 1.706014
5 -1 6 -10 1.71 1.66 0.03 o 1.706014
4 -1 2 -5 0.45 0.45 0.01 o 1.703451
4 -2 6 -12 0.15 0.15 0.00 o 1.701543
5 -2 4 -6 11.49 11.23 0.18 o 1.687481
2 -2 1 -4 76.33 75.28 1.22 o 1.668617
5 -4 6 -11 0.88 0.86 0.01 o 1.668075
5 -1 6 -11 0.07 0.06 0.00 o 1.668075
4 -1 5 -7 0.25 0.25 0.00 o 1.665016
3 -1 4 -9 9.40 9.29 0.15 o 1.661856
4 -4 5 -10 5.20 5.13 0.08 o 1.660760
2 -1 6 -8 0.06 0.06 0.00 o 1.651588
5 -2 4 -8 3.09 3.07 0.05 o 1.639014
3 0 0 2 760.13 759.45 12.30 o 1.638384
3 0 0 -2 597.63 597.09 9.67 o 1.638384
5 -1 3 -6 1.83 1.84 0.03 o 1.634199
5 -4 3 -6 32.86 33.09 0.54 o 1.634199
4 -4 2 -2 39.73 39.60 0.64 o 1.629024
4 -3 1 0 2975.57 2855.92 46.31 o 1.625583
4 -2 3 -7 15.24 15.31 0.25 o 1.619860
1 -1 2 -6 29.02 29.25 0.47 o 1.608910
5 -1 0 -1 359.30 429.17 6.99 o 1.594678
5 -1 0 1 357.14 426.59 6.94 o 1.594678
5 -2 1 -3 8.79 8.80 0.14 o 1.587741
5 -5 1 -2 0.65 0.76 0.01 o 1.572521
3 -1 1 -4 7.11 7.62 0.12 o 1.567146
5 -3 5 -10 0.15 0.15 0.00 o 1.560631
1 -1 5 -6 55.60 59.22 0.96 o 1.556953
5 -4 3 -4 7.29 7.94 0.13 o 1.550878
5 -1 3 -4 35.80 39.00 0.63 o 1.550878
4 -3 4 -5 3.67 3.97 0.06 o 1.550493
5 0 2 -4 15.22 16.57 0.27 o 1.548252
4 -2 0 2 478.78 517.91 8.39 o 1.542019
5 0 5 -8 4.13 4.20 0.07 o 1.537283
5 -3 2 -2 9.04 9.75 0.16 o 1.534208
4 0 1 0 2131.24 2295.22 37.23 o 1.531332
3 -2 5 -11 0.04 0.04 0.00 o 1.522131
6 -3 0 0 5456.46 6290.65 102.02 o 1.521191
6 -3 3 -5 0.54 0.57 0.01 o 1.517915
2 0 2 -6 67.00 69.89 1.13 o 1.517371
6 -3 6 -10 0.05 0.05 0.00 o 1.508211
5 -3 2 -5 0.00 0.00 0.00 < 1.506439
5 -1 6 -9 0.09 0.09 0.00 o 1.504104
5 -4 6 -9 1.75 1.81 0.03 o 1.504104
2 -1 6 -13 0.30 0.31 0.00 o 1.497990
5 -5 4 -6 19.87 20.40 0.33 o 1.495360
6 -4 4 -7 0.63 0.65 0.01 o 1.492971
6 -4 1 -2 2.74 1.73 0.03 o 1.486732
0 0 3 -8 10.61 10.89 0.18 o 1.484145
6 -3 6 -11 0.36 0.37 0.01 o 1.481806
6 -2 5 -9 1.21 1.24 0.02 o 1.481236
3 -2 2 -1 65.91 51.02 0.87 o 1.480875
5 -3 5 -7 3.83 3.93 0.06 o 1.479661
4 -3 4 -9 2.44 2.50 0.04 o 1.477442
6 -2 2 -3 5.15 5.00 0.08 o 1.474547
2 0 5 -6 60.72 63.34 1.03 o 1.473554
3 0 6 -8 6.74 6.92 0.11 o 1.470212
3 -3 6 -8 4.55 4.67 0.08 o 1.470212
4 -2 3 -3 65.13 63.54 1.03 o 1.468470
6 -2 2 -4 1.87 1.80 0.03 o 1.466172
5 -5 4 -8 16.49 16.93 0.27 o 1.461322
6 -3 3 -6 0.56 0.57 0.01 o 1.457906
6 -2 5 -8 0.02 0.02 0.00 o 1.456846
5 -2 1 0 3488.36 3479.38 56.43 o 1.451779
6 -4 1 -1 56.76 56.12 0.91 o 1.445880
3 -2 2 -6 30.05 29.12 0.47 o 1.439865
6 -3 0 1 12.25 8.64 0.15 o 1.429637
5 -4 6 -12 0.02 0.02 0.00 o 1.429384
5 -1 6 -12 1.08 1.08 0.02 o 1.429384
6 -4 4 -6 4.14 3.92 0.06 o 1.421018
6 -1 4 -7 21.50 20.01 0.32 o 1.418967
1 0 4 -4 1.55 1.38 0.02 o 1.415668
6 -1 1 -2 2.23 1.68 0.03 o 1.413607
2 -1 3 -8 11.33 10.58 0.17 o 1.411383
4 -3 1 -4 1.24 1.13 0.02 o 1.409698
6 -5 5 -9 7.25 6.80 0.11 o 1.408881
5 0 5 -10 0.12 0.12 0.00 o 1.404951
6 -5 2 -3 39.80 32.55 0.54 o 1.403121
3 -2 5 -6 23.19 21.75 0.35 o 1.402266
4 -2 6 -8 0.06 0.06 0.00 o 1.399385
6 -3 3 -4 1.15 0.86 0.01 o 1.397823
5 -2 4 -5 9.55 7.69 0.12 o 1.397541
6 -5 2 -4 10.33 7.76 0.13 o 1.395899
6 -4 4 -8 0.40 0.38 0.01 o 1.391712
6 -5 5 -8 1.00 1.00 0.02 o 1.387844
5 0 2 -2 115.44 90.06 1.47 o 1.385580
5 -4 3 -7 0.06 0.05 0.00 o 1.379928
5 -1 3 -7 3.90 3.63 0.06 o 1.379928
6 -1 1 -1 68.83 54.85 0.90 o 1.378353
4 -1 5 -11 0.01 0.00 0.00 < 1.376664
3 -1 1 1 39.56 29.57 0.48 o 1.364869
6 -3 6 -9 0.10 0.10 0.00 o 1.363285
6 -4 1 -3 213.14 172.45 2.81 o 1.359909
6 -1 4 -6 3.44 3.52 0.06 o 1.356764
2 -2 4 -4 11.24 10.51 0.17 o 1.352105
4 0 1 -4 208.89 216.19 3.50 o 1.346901
4 -1 2 -1 36.21 32.22 0.53 o 1.345917
5 -2 4 -9 3.21 3.21 0.05 o 1.343338
6 -2 5 -10 1.26 1.24 0.02 o 1.342759
2 -1 0 3 433.08 455.25 7.38 o 1.333793
1 0 4 -10 2.85 2.81 0.05 o 1.333688
6 -1 4 -8 1.62 1.61 0.03 o 1.331187
5 -1 0 2 132.94 147.43 2.39 o 1.330849
5 -1 0 -2 203.79 226.01 3.66 o 1.330849
6 -2 2 -2 0.72 0.79 0.01 o 1.325818
5 -5 1 0 1725.41 1926.94 31.27 o 1.323961
6 0 0 0 6705.12 7514.33 121.85 o 1.317390
0 0 3 -2 225.72 247.67 4.01 o 1.315407
4 -1 2 -6 72.95 73.30 1.19 o 1.314906
6 0 6 -10 1.72 1.71 0.03 o 1.308932
6 -6 6 -10 4.08 4.04 0.07 o 1.308932
6 -2 2 -5 5.88 6.14 0.10 o 1.307774
6 -3 6 -12 0.02 0.02 0.00 o 1.306910
6 -1 1 -3 25.17 27.18 0.44 o 1.303275
4 -2 6 -13 0.12 0.12 0.00 o 1.302234
7 -3 4 -7 0.03 0.03 0.00 o 1.298933
3 -1 4 -4 0.04 0.04 0.00 o 1.296401
7 -3 1 -2 4.41 3.66 0.06 o 1.294818
3 -3 3 -8 2.04 2.07 0.03 o 1.293108
3 0 3 -8 25.96 26.36 0.43 o 1.293108
5 -2 1 -4 0.23 0.24 0.00 o 1.291812
7 -4 5 -9 4.25 4.25 0.07 o 1.291183
6 -2 5 -7 0.89 0.91 0.01 o 1.290139
6 -5 5 -10 3.72 3.71 0.06 o 1.288156
7 -4 2 -3 32.37 29.76 0.48 o 1.286744
4 -1 5 -6 69.01 70.71 1.15 o 1.286085
5 -1 3 -3 12.35 11.11 0.18 o 1.282700
5 -4 3 -3 2.61 2.35 0.04 o 1.282700
7 -4 2 -4 33.75 31.67 0.51 o 1.281168
2 -2 4 -10 0.29 0.29 0.00 o 1.280141
6 0 3 -6 31.58 32.35 0.52 o 1.275642
6 -6 3 -6 11.39 11.67 0.19 o 1.275642
7 -4 5 -8 2.33 2.40 0.04 o 1.274932
6 -5 2 -2 28.72 26.56 0.43 o 1.273176
6 -4 1 0 1314.56 1204.06 19.57 o 1.271531
6 -3 3 -7 0.78 0.80 0.01 o 1.268787
7 -3 1 -1 4.55 4.23 0.07 o 1.267562
5 -3 5 -11 2.39 2.47 0.04 o 1.266249
7 -2 0 0 1388.86 1306.30 21.23 o 1.265708
2 -1 3 -2 20.46 19.19 0.31 o 1.263949
7 -5 3 -5 18.53 17.41 0.28 o 1.263818
7 -2 3 -5 1.43 1.35 0.02 o 1.263818
4 -4 2 -6 1.24 1.17 0.02 o 1.263504
7 -2 6 -10 0.00 0.00 0.00 < 1.258201
7 -5 6 -10 0.02 0.02 0.00 o 1.258201
6 -5 2 -5 17.65 16.86 0.27 o 1.257172
4 -3 1 1 201.89 194.78 3.16 o 1.257051
7 -3 4 -6 1.73 1.66 0.03 o 1.250711
4 -2 3 -8 4.84 4.68 0.08 o 1.244127
7 -5 6 -11 0.09 0.10 0.00 o 1.242748
7 -2 6 -11 0.91 0.93 0.02 o 1.242748
5 -3 2 -1 50.23 53.66 0.88 o 1.242199
6 -5 5 -7 1.54 1.50 0.02 o 1.241482
4 -4 5 -6 0.85 0.83 0.01 o 1.237868
5 -1 6 -8 3.44 3.33 0.05 o 1.235885
5 -4 6 -8 1.12 1.09 0.02 o 1.235885
6 -6 3 -4 38.70 38.97 0.63 o 1.234809
6 0 3 -4 43.36 43.67 0.71 o 1.234809
6 -4 4 -5 5.04 4.94 0.08 o 1.234614
3 -1 4 -10 0.56 0.53 0.01 o 1.232565
7 -3 4 -8 11.00 10.62 0.17 o 1.230590
6 -3 0 2 177.04 190.07 3.09 o 1.230323
7 -5 3 -6 2.39 2.36 0.04 o 1.228548
7 -2 3 -6 3.77 3.72 0.06 o 1.228548
1 -1 5 -12 1.58 1.56 0.03 o 1.228197
6 -1 1 0 1022.30 1089.33 17.79 o 1.224875
5 -3 2 -6 41.60 43.14 0.70 o 1.217695
7 -2 0 -1 162.75 184.04 3.02 o 1.211489
7 -2 0 1 196.33 222.03 3.64 o 1.211489
7 -3 1 -3 12.20 12.95 0.21 o 1.208439
7 -6 4 -7 29.01 29.80 0.48 o 1.204975
4 -3 4 -4 11.51 11.79 0.19 o 1.202953
7 -6 1 -2 87.16 91.79 1.49 o 1.201688
2 -1 6 -7 0.28 0.28 0.00 o 1.200793
5 -5 1 -4 96.02 97.15 1.58 o 1.199284
7 -1 5 -9 0.00 0.00 0.00 < 1.198780
1 -1 2 0 2243.80 2322.85 37.87 o 1.197431
6 -4 4 -9 22.01 21.17 0.34 o 1.196766
7 -4 5 -10 3.23 3.06 0.05 o 1.196357
7 -1 2 -3 6.72 6.61 0.11 o 1.195226
5 -3 5 -6 38.60 39.45 0.64 o 1.194697
6 -3 3 -3 10.15 9.98 0.16 o 1.191983
7 -2 3 -4 0.34 0.33 0.01 o 1.191947
7 -5 3 -4 16.94 16.74 0.27 o 1.191947
6 -1 4 -5 0.21 0.22 0.00 o 1.191772
7 -1 2 -4 40.84 40.19 0.65 o 1.190753
4 -2 0 3 298.63 292.61 4.76 o 1.190003
2 0 5 -12 0.13 0.12 0.00 o 1.185997
7 -1 5 -8 3.87 3.63 0.06 o 1.185741
7 -4 2 -2 2.46 2.29 0.04 o 1.184328
7 -6 1 -1 37.21 22.93 0.39 o 1.179806
3 0 3 -2 21.69 15.18 0.26 o 1.176890
3 -3 3 -2 89.83 62.85 1.05 o 1.176890
3 -1 1 -5 9.75 8.72 0.14 o 1.175268
7 -4 2 -5 5.22 4.53 0.07 o 1.171414
5 -2 1 1 206.05 151.41 2.56 o 1.171316
6 -6 6 -12 2.12 1.95 0.03 o 1.170792
6 0 6 -12 0.04 0.04 0.00 o 1.170792
7 -5 6 -9 4.62 4.20 0.07 o 1.170315
7 -2 6 -9 3.21 2.92 0.05 o 1.170315
5 -4 6 -13 0.12 0.11 0.00 o 1.167427
5 -1 6 -13 0.07 0.07 0.00 o 1.167427
7 -6 4 -6 21.83 19.26 0.31 o 1.166181
4 0 4 -4 9.46 7.19 0.12 o 1.163219
6 -4 1 -4 4.88 3.69 0.06 o 1.159901
7 -4 5 -7 0.01 0.00 0.00 < 1.158689
2 0 2 0 1039.07 930.14 15.46 o 1.158224
6 -1 4 -9 5.73 5.04 0.08 o 1.157622
6 -3 6 -8 4.16 3.62 0.06 o 1.154135
4 -3 4 -10 7.10 6.35 0.10 o 1.151430
0 0 6 -14 0.05 0.04 0.00 o 1.149988
7 -6 4 -8 13.30 11.59 0.19 o 1.149819
3 -2 5 -12 1.85 1.69 0.03 o 1.147867
7 -3 1 0 828.28 612.33 10.05 o 1.145153
6 -2 5 -11 0.00 0.00 0.00 < 1.141290
8 -4 0 0 696.61 533.12 8.77 o 1.140893
4 -2 3 -2 1.35 1.03 0.02 o 1.139605
8 -4 3 -5 2.16 1.82 0.03 o 1.139509
5 0 2 -6 40.43 34.24 0.56 o 1.139279
8 -4 6 -10 1.13 1.00 0.02 o 1.135387
7 -2 6 -12 0.20 0.18 0.00 o 1.134066
7 -5 6 -12 0.06 0.05 0.00 o 1.134066
7 -6 1 -3 10.66 9.00 0.15 o 1.131688
8 -5 4 -7 6.72 5.87 0.10 o 1.128842
5 -2 4 -4 0.43 0.36 0.01 o 1.127179
8 -5 1 -2 94.86 82.20 1.33 o 1.126138
7 0 1 -2 208.16 180.37 2.93 o 1.126138
5 -1 3 -8 0.50 0.44 0.01 o 1.125012
5 -4 3 -8 5.13 4.51 0.07 o 1.125012
6 -1 1 -4 7.91 6.78 0.11 o 1.124159
8 -4 6 -11 0.01 0.00 0.00 < 1.123993
8 -3 5 -9 7.33 6.38 0.10 o 1.123744
6 -2 2 -1 5.70 5.07 0.08 o 1.123586
3 -2 2 0 613.27 559.73 9.12 o 1.122632
7 -1 5 -10 0.21 0.18 0.00 o 1.121747
8 -3 2 -3 34.98 30.49 0.49 o 1.120814
5 0 5 -6 29.36 25.64 0.42 o 1.120378
7 -3 4 -5 2.22 1.93 0.03 o 1.117964
8 -3 2 -4 0.12 0.10 0.00 o 1.117123
7 -7 2 -4 1.45 1.28 0.02 o 1.117123
4 0 4 -10 3.09 2.71 0.04 o 1.116442
2 -1 6 -14 0.72 0.64 0.01 o 1.115128
6 0 0 2 470.91 414.51 6.73 o 1.114775
6 0 0 -2 509.47 448.45 7.28 o 1.114775
8 -4 3 -6 0.22 0.19 0.00 o 1.113454
8 -3 5 -8 0.87 0.76 0.01 o 1.112982
7 -7 5 -8 9.59 8.42 0.14 o 1.112982
7 -1 2 -2 7.52 6.74 0.11 o 1.111813
1 0 1 2 104.09 93.58 1.52 o 1.111501
7 -2 3 -7 1.74 1.52 0.02 o 1.108886
7 -5 3 -7 11.07 9.67 0.16 o 1.108886
8 -5 1 -1 7.39 6.16 0.10 o 1.108069
6 -5 5 -11 0.29 0.26 0.00 o 1.107191
6 -2 2 -6 58.10 51.87 0.84 o 1.105355
4 -3 1 -5 2.33 2.12 0.03 o 1.104307
7 -1 2 -5 1.53 1.39 0.02 o 1.101108
8 -4 0 1 580.88 637.79 10.42 o 1.100707
6 -3 6 -13 0.01 0.00 0.00 < 1.097795
3 -2 2 -7 0.01 0.00 0.00 < 1.097416
8 -5 4 -6 4.82 4.38 0.07 o 1.096759
7 0 4 -6 110.39 100.21 1.63 o 1.096759
8 -2 4 -7 0.27 0.24 0.00 o 1.095815
8 -2 1 -2 46.06 51.02 0.83 o 1.093341
4 -2 6 -7 0.05 0.05 0.00 o 1.092667
8 -6 5 -9 0.00 0.00 0.00 < 1.091150
6 -5 2 -1 0.03 0.04 0.00 o 1.091005
7 -1 5 -7 2.75 2.54 0.04 o 1.090519
7 -3 4 -9 4.01 3.64 0.06 o 1.089630
8 -6 2 -3 0.26 0.27 0.00 o 1.088467
6 -2 5 -6 68.76 62.75 1.02 o 1.088068
8 -4 3 -4 27.32 25.29 0.41 o 1.085988
8 -6 2 -4 4.65 4.66 0.08 o 1.085086
5 -1 0 -3 196.13 204.38 3.33 o 1.084518
5 -1 0 3 294.83 307.23 5.01 o 1.084518
5 -2 4 -10 4.48 4.06 0.07 o 1.084461
8 -5 4 -8 15.52 14.31 0.23 o 1.083115
7 0 4 -8 3.34 3.08 0.05 o 1.083115
7 -2 0 -2 137.22 132.41 2.17 o 1.082933
7 -2 0 2 110.32 106.45 1.74 o 1.082933
4 -1 5 -12 0.03 0.03 0.00 o 1.081483
8 -6 5 -8 0.08 0.08 0.00 o 1.081289
2 -2 1 2 1.67 1.62 0.03 o 1.079931
7 -6 1 0 405.00 380.02 6.29 o 1.079212
8 -2 1 -1 9.39 8.69 0.14 o 1.076782
6 -5 2 -6 26.69 26.90 0.44 o 1.074291
3 -2 5 -5 0.34 0.37 0.01 o 1.074167
6 -4 1 1 18.11 16.08 0.27 o 1.070317
8 -4 6 -9 0.08 0.08 0.00 o 1.069552
8 -5 1 -3 0.69 0.71 0.01 o 1.067920
8 -2 4 -6 5.85 5.86 0.10 o 1.066395
2 -1 3 -9 15.48 14.11 0.23 o 1.065276
5 -5 4 -4 25.04 24.37 0.40 o 1.064128
6 -3 3 -8 1.17 1.17 0.02 o 1.062305
7 -3 1 -4 48.55 46.85 0.76 o 1.061586
4 -1 2 0 383.69 463.56 7.69 o 1.060300
7 -7 5 -10 1.26 1.15 0.02 o 1.059554
8 -3 5 -10 1.11 1.02 0.02 o 1.059554
6 -5 5 -6 15.29 14.92 0.24 o 1.058401
6 -6 6 -8 0.07 0.07 0.00 o 1.057160
6 0 6 -8 0.22 0.22 0.00 o 1.057160
7 -5 3 -3 59.57 57.38 0.93 o 1.056512
7 -2 3 -3 4.99 4.80 0.08 o 1.056512
7 -6 4 -5 0.11 0.10 0.00 o 1.056365
3 -3 6 -14 0.01 0.00 0.00 < 1.053970
3 0 6 -14 1.37 1.36 0.02 o 1.053970
8 -2 4 -8 7.65 7.54 0.12 o 1.053841
4 -4 5 -12 0.15 0.15 0.00 o 1.052337
8 -3 2 -2 1.23 1.21 0.02 o 1.051171
7 -7 2 -2 18.92 18.55 0.30 o 1.051171
3 -1 1 2 6.56 6.40 0.10 o 1.050907
7 -4 5 -11 0.24 0.25 0.00 o 1.047262
8 -1 0 0 929.65 866.99 14.19 o 1.046956
0 0 0 4 204.04 200.86 3.26 o 1.046018
5 -4 3 -2 0.92 0.88 0.01 o 1.045959
5 -1 3 -2 1.33 1.28 0.02 o 1.045959
8 -7 3 -5 0.08 0.08 0.00 o 1.045886
8 -1 3 -5 3.18 3.10 0.05 o 1.045886
5 -2 1 -5 8.64 8.45 0.14 o 1.044820
8 -1 6 -10 0.49 0.52 0.01 o 1.042695
8 -7 6 -10 1.70 1.82 0.03 o 1.042695
8 -3 2 -5 11.81 11.60 0.19 o 1.042109
6 -1 1 1 23.61 21.51 0.35 o 1.042041
8 -4 6 -12 0.12 0.13 0.00 o 1.041672
8 -2 1 -3 115.29 112.03 1.82 o 1.039829
4 -1 2 -7 0.59 0.58 0.01 o 1.038978
6 -4 4 -4 0.80 0.78 0.01 o 1.036327
8 -7 6 -11 0.01 0.00 0.00 < 1.033849
8 -1 6 -11 0.57 0.60 0.01 o 1.033849
7 -4 2 -1 31.40 30.91 0.51 o 1.033533
8 -3 5 -7 1.70 1.82 0.03 o 1.033120
4 -4 2 0 622.11 612.12 10.08 o 1.032791
7 -6 4 -9 3.30 3.49 0.06 o 1.032364
8 -6 5 -10 0.00 0.00 0.00 < 1.032101
7 -5 6 -8 0.43 0.46 0.01 o 1.029888
7 -2 6 -8 0.01 0.00 0.00 < 1.029888
6 -3 0 3 5.44 5.29 0.09 o 1.028013
5 -5 4 -10 9.50 9.99 0.16 o 1.027964
4 -2 6 -14 0.97 1.01 0.02 o 1.026938
8 -7 3 -6 4.39 4.71 0.08 o 1.025631
8 -1 3 -6 39.90 42.88 0.70 o 1.025631
5 -3 5 -12 0.83 0.87 0.01 o 1.025427
8 -6 2 -2 8.47 8.34 0.14 o 1.024348
8 -5 1 0 1556.76 1528.91 24.94 o 1.023491
7 0 1 0 234.06 229.87 3.77 o 1.023491
8 -4 3 -7 3.48 3.71 0.06 o 1.022058
2 -1 0 4 87.17 95.70 1.55 o 1.019578
7 -4 2 -6 18.84 20.06 0.33 o 1.019290
4 -1 5 -5 0.86 0.95 0.02 o 1.019184
8 -6 2 -5 0.41 0.45 0.01 o 1.015957
8 -1 0 1 124.72 122.09 2.00 o 1.015643
8 -1 0 -1 149.03 145.88 2.39 o 1.015643
9 -4 4 -7 32.93 34.72 0.56 o 1.011795
6 -1 4 -4 2.89 3.19 0.05 o 1.010597
9 -4 1 -2 13.28 15.25 0.25 o 1.009847
5 -4 6 -7 0.07 0.08 0.00 o 1.009316
5 -1 6 -7 0.85 0.92 0.01 o 1.009316
7 -6 1 -4 12.27 13.53 0.22 o 1.008419
9 -5 5 -9 0.04 0.04 0.00 o 1.008119
3 -1 4 -3 3.28 3.80 0.06 o 1.007933
8 -6 5 -7 18.56 19.83 0.32 o 1.007622
5 -3 2 0 539.75 643.84 10.53 o 1.007317
9 -5 2 -3 2.66 2.98 0.05 o 1.006003
7 -4 5 -6 53.20 57.76 0.94 o 1.005688
8 -1 3 -4 7.23 7.92 0.13 o 1.004045
8 -7 3 -4 0.31 0.34 0.01 o 1.004045
8 -5 4 -5 0.04 0.04 0.00 o 1.003940
9 -5 2 -4 4.06 4.47 0.07 o 1.003331
6 -4 4 -10 1.15 1.19 0.02 o 1.002838
8 -4 0 2 218.78 256.93 4.17 o 1.001629
9 -5 5 -8 4.34 4.55 0.07 o 1.000328
4 -3 1 2 11.37 13.14 0.21 o 0.999252
8 -2 1 0 1147.17 1366.49 22.22 o 0.998683
9 -4 1 -1 182.78 213.56 3.47 o 0.996756
7 -1 5 -11 2.13 2.19 0.04 o 0.996117
9 -3 0 0 1832.78 2155.36 35.05 o 0.995853
6 -3 3 -2 88.54 102.46 1.66 o 0.994996
9 -6 3 -5 0.08 0.09 0.00 o 0.994932
9 -3 3 -5 0.11 0.13 0.00 o 0.994932
9 -6 6 -10 3.51 3.67 0.06 o 0.992185
9 -3 6 -10 0.48 0.51 0.01 o 0.992185
7 -3 1 1 3.41 3.90 0.06 o 0.991621
8 -7 6 -9 1.27 1.34 0.02 o 0.991013
8 -1 6 -9 0.07 0.07 0.00 o 0.991013
7 -2 6 -13 0.08 0.09 0.00 o 0.989258
7 -5 6 -13 0.02 0.02 0.00 o 0.989258
5 -3 2 -7 5.60 5.95 0.10 o 0.988981
9 -4 4 -6 0.53 0.57 0.01 o 0.988500
4 -2 3 -9 3.42 3.61 0.06 o 0.987608
8 -8 1 -2 95.83 103.88 1.69 o 0.985995
6 0 3 -8 0.54 0.58 0.01 o 0.985239
6 -6 3 -8 7.18 7.62 0.12 o 0.985239
9 -6 6 -11 0.24 0.26 0.00 o 0.984554
9 -3 6 -11 0.09 0.09 0.00 o 0.984554
7 -1 2 -1 7.79 6.44 0.11 o 0.984281
8 -5 4 -9 0.28 0.30 0.00 o 0.983271
8 -4 3 -3 14.10 14.68 0.24 o 0.980613
8 -2 4 -5 2.03 2.20 0.04 o 0.980495
8 0 2 -4 0.05 0.05 0.00 o 0.979927
6 -1 4 -10 0.33 0.35 0.01 o 0.979467
9 -4 4 -8 0.00 0.00 0.00 < 0.978476
2 -1 3 -1 25.91 20.59 0.37 o 0.977549
9 -3 3 -6 0.57 0.61 0.01 o 0.977448
9 -6 3 -6 0.74 0.80 0.01 o 0.977448
5 0 5 -12 0.00 0.00 0.00 < 0.977271
8 0 5 -8 0.18 0.20 0.00 o 0.977129
4 0 1 2 108.68 80.56 1.34 o 0.976126
3 0 0 -4 335.91 290.22 4.74 o 0.972205
3 0 0 4 77.62 67.07 1.10 o 0.972205
7 -1 2 -6 2.63 2.79 0.05 o 0.971955
5 -3 5 -5 2.32 2.10 0.03 o 0.971863
1 0 1 -6 60.23 64.56 1.05 o 0.971747
6 -4 1 -5 48.12 44.99 0.73 o 0.971243
9 -3 0 1 0.72 0.56 0.01 o 0.968791
9 -3 0 -1 9.79 7.62 0.13 o 0.968791
8 -1 6 -12 0.01 0.00 0.00 < 0.968712
8 -7 6 -12 2.61 2.80 0.05 o 0.968712
3 -1 4 -11 1.95 2.12 0.03 o 0.967359
9 -4 1 -3 25.64 22.00 0.36 o 0.967229
8 -8 4 -6 0.02 0.02 0.00 o 0.966096
9 -7 4 -7 0.64 0.68 0.01 o 0.965450
7 -3 4 -4 7.28 6.19 0.10 o 0.964409
9 -7 1 -2 4.31 3.71 0.06 o 0.963757
6 -3 6 -7 0.00 0.00 0.00 < 0.963295
7 -2 3 -8 3.37 3.57 0.06 o 0.963051
7 -5 3 -8 1.91 2.02 0.03 o 0.963051
7 0 1 -4 0.72 0.62 0.01 o 0.962516
8 -5 1 -4 2.01 1.73 0.03 o 0.962516
9 -2 5 -9 2.46 2.66 0.04 o 0.962255
4 -3 4 -3 6.05 5.20 0.09 o 0.962093
5 0 2 0 962.85 830.63 13.68 o 0.961557
8 -2 4 -9 15.26 16.43 0.27 o 0.961212
9 -5 5 -10 0.04 0.04 0.00 o 0.961000
9 -2 2 -3 33.12 28.52 0.47 o 0.960414
7 -1 5 -6 2.07 1.94 0.03 o 0.960140
0 0 6 -6 31.20 28.99 0.47 o 0.959289
8 -4 6 -8 1.48 1.55 0.03 o 0.959213
9 -3 3 -4 27.26 25.24 0.41 o 0.958710
9 -6 3 -4 1.91 1.77 0.03 o 0.958710
9 -2 2 -4 23.94 21.94 0.36 o 0.958089
5 -1 6 -14 1.08 1.17 0.02 o 0.956829
5 -4 6 -14 0.35 0.38 0.01 o 0.956829
8 -8 4 -8 0.11 0.10 0.00 o 0.956731
6 -2 5 -12 2.53 2.76 0.04 o 0.955606
9 -2 5 -8 2.58 2.59 0.04 o 0.955472
9 -5 2 -2 0.23 0.20 0.00 o 0.954732
5 -2 1 2 1.36 1.21 0.02 o 0.954535
8 -7 3 -7 5.78 5.68 0.09 o 0.952877
8 -1 3 -7 0.41 0.40 0.01 o 0.952877
9 -7 1 -1 13.62 13.29 0.23 o 0.952358
8 -3 5 -11 0.31 0.34 0.01 o 0.951801
4 -2 0 4 42.41 41.01 0.67 o 0.950867
2 -2 1 -6 32.18 31.92 0.52 o 0.950439
6 -1 1 -5 4.51 4.38 0.07 o 0.949967
9 -5 2 -5 0.04 0.04 0.00 o 0.947928
7 -6 1 1 10.64 11.20 0.19 o 0.947876
9 -3 6 -9 2.74 2.78 0.05 o 0.947345
9 -6 6 -9 0.35 0.36 0.01 o 0.947345
9 -7 4 -6 5.29 5.46 0.09 o 0.945149
8 -2 1 -4 73.07 78.11 1.27 o 0.941796
8 -3 2 -1 15.99 17.02 0.28 o 0.941459
9 -5 5 -7 2.23 2.31 0.04 o 0.941147
6 -2 2 0 590.78 645.22 10.58 o 0.940898
8 0 5 -10 3.45 3.52 0.06 o 0.940376
2 -1 6 -6 33.50 37.50 0.61 o 0.938773
7 -2 0 -3 168.55 182.03 2.97 o 0.937281
7 -2 0 3 52.84 57.07 0.93 o 0.937281
7 -3 4 -10 13.75 14.11 0.23 o 0.937244
9 -7 4 -8 0.02 0.02 0.00 o 0.936375
8 -1 0 -2 27.18 29.08 0.48 o 0.936258
8 -1 0 2 72.57 77.65 1.27 o 0.936258
6 -5 5 -12 0.57 0.58 0.01 o 0.935320
8 0 2 -2 44.76 48.87 0.80 o 0.934501
9 -4 1 0 1083.31 1120.74 18.36 o 0.933850
8 -6 5 -11 1.42 1.44 0.02 o 0.931751
6 -6 3 -2 19.91 22.47 0.37 o 0.930834
6 0 3 -2 24.65 27.81 0.45 o 0.930834
7 -7 2 -6 9.45 10.39 0.17 o 0.930656
8 -3 2 -6 23.19 25.49 0.41 o 0.930656
3 -1 1 -6 22.73 24.88 0.41 o 0.930473
9 -3 6 -12 0.72 0.73 0.01 o 0.927808
9 -6 6 -12 1.83 1.87 0.03 o 0.927808
4 -3 4 -11 2.17 2.22 0.04 o 0.926619
9 -7 1 -3 23.45 26.44 0.43 o 0.926505
8 -4 6 -13 0.08 0.08 0.00 o 0.926131
6 -2 2 -7 1.21 1.32 0.02 o 0.925903
9 -1 4 -7 1.41 1.51 0.02 o 0.924941
5 -1 3 -9 6.00 6.39 0.10 o 0.924777
5 -4 3 -9 9.48 10.09 0.16 o 0.924777
7 -6 4 -4 1.08 1.20 0.02 o 0.924025
9 -1 1 -2 2.97 3.40 0.06 o 0.923452
9 -8 5 -9 3.08 3.30 0.05 o 0.922130
8 -6 2 -1 0.04 0.04 0.00 o 0.922043
5 -2 4 -3 2.56 2.82 0.05 o 0.921987
6 -5 2 0 904.25 1114.90 18.22 o 0.921516
9 -2 5 -10 4.49 4.75 0.08 o 0.921026
9 -8 2 -3 0.43 0.47 0.01 o 0.920509
8 -3 5 -6 24.01 25.84 0.42 o 0.920268
7 -7 5 -6 2.54 2.73 0.04 o 0.920268
8 -1 3 -3 32.03 34.96 0.57 o 0.919025
8 -7 3 -3 2.26 2.47 0.04 o 0.919025
9 -4 4 -5 3.71 4.02 0.07 o 0.918929
9 -8 2 -4 16.77 18.23 0.30 o 0.918461
6 -3 6 -14 0.01 0.00 0.00 < 0.917351
4 -2 3 -1 3.47 4.01 0.07 o 0.916502
9 -8 5 -8 0.00 0.00 0.00 < 0.916156
9 -2 2 -2 1.56 1.78 0.03 o 0.915503
5 -5 1 2 8.74 9.96 0.16 o 0.915329
8 -8 1 0 1225.75 1358.42 22.32 o 0.914891
1 -1 2 -8 0.53 0.57 0.01 o 0.914185
9 -3 3 -7 3.40 3.66 0.06 o 0.913867
9 -6 3 -7 2.71 2.92 0.05 o 0.913867
9 -1 1 -1 13.68 14.96 0.25 o 0.913410
10 -5 0 0 453.72 470.44 7.78 o 0.912715
3 -2 5 -13 0.21 0.22 0.00 o 0.912665
7 -2 3 -2 22.19 24.84 0.41 o 0.912055
7 -5 3 -2 3.78 4.23 0.07 o 0.912055
10 -5 3 -5 1.20 1.28 0.02 o 0.912006
8 -6 2 -6 21.38 22.70 0.37 o 0.911887
6 -2 5 -5 0.82 0.89 0.01 o 0.911811
7 -3 1 -5 9.89 10.68 0.17 o 0.911299
10 -5 6 -10 0.01 0.00 0.00 < 0.909888
9 -2 2 -5 0.86 0.93 0.02 o 0.909498
8 -5 1 1 24.37 24.14 0.40 o 0.909453
6 -5 2 -7 0.03 0.03 0.00 o 0.907415
9 -1 4 -6 6.27 6.68 0.11 o 0.907043
10 -6 4 -7 0.11 0.12 0.00 o 0.906509
10 -6 1 -2 75.04 71.56 1.17 o 0.905107
8 -4 3 -8 3.56 3.76 0.06 o 0.904522
10 -5 6 -11 0.00 0.00 0.00 < 0.903992
10 -4 5 -9 0.23 0.24 0.00 o 0.903863
9 -2 5 -7 0.98 1.03 0.02 o 0.903504
9 -4 4 -9 4.71 4.97 0.08 o 0.902998
10 -4 2 -3 3.58 3.52 0.06 o 0.902336
8 -6 5 -6 23.99 25.96 0.42 o 0.902109
3 0 6 -6 29.68 31.65 0.52 o 0.901403
3 -3 6 -6 71.81 76.59 1.25 o 0.901403
8 -1 6 -8 2.96 3.10 0.05 o 0.901340
8 -7 6 -8 0.66 0.69 0.01 o 0.901340
10 -4 2 -4 1.60 1.61 0.03 o 0.900407
7 -6 4 -10 0.36 0.37 0.01 o 0.900050
9 -1 4 -8 2.45 2.59 0.04 o 0.899280
9 -3 0 -2 30.42 28.80 0.47 o 0.899176
9 -3 0 2 71.29 67.49 1.11 o 0.899176
10 -5 3 -6 3.20 3.40 0.06 o 0.898482
7 -4 5 -12 0.32 0.31 0.01 o 0.898345
10 -4 5 -8 2.41 2.53 0.04 o 0.898234
6 -4 1 2 10.61 10.15 0.17 o 0.897455
9 -7 1 0 771.70 744.41 12.33 o 0.897042
1 -1 5 -4 4.14 4.01 0.07 o 0.896940
2 0 2 -8 1.22 1.28 0.02 o 0.896377
3 -2 2 1 49.29 47.70 0.78 o 0.896162
10 -6 1 -1 27.04 26.26 0.43 o 0.895645
5 -1 0 -4 6.33 6.26 0.10 o 0.894405
5 -1 0 4 72.98 72.10 1.18 o 0.894405
6 -5 5 -5 0.20 0.20 0.00 o 0.894139
4 -3 1 -6 68.36 69.02 1.12 o 0.894048
8 -2 1 1 6.13 5.98 0.10 o 0.891914
10 -5 0 1 48.08 46.65 0.77 o 0.891744
5 -2 4 -11 1.90 1.80 0.03 o 0.890627
9 -1 1 -3 11.69 11.87 0.19 o 0.890526
10 -6 4 -6 10.52 10.27 0.17 o 0.889641
10 -3 4 -7 0.86 0.81 0.01 o 0.889137
6 -3 3 -9 0.38 0.36 0.01 o 0.888991
7 0 4 -4 7.15 6.98 0.11 o 0.888324
8 -5 4 -4 6.91 6.74 0.11 o 0.888324
10 -3 1 -2 25.95 26.38 0.43 o 0.887814
7 -2 6 -7 0.47 0.43 0.01 o 0.887453
7 -5 6 -7 3.30 3.03 0.05 o 0.887453
9 -4 1 -4 0.19 0.19 0.00 o 0.886843
10 -7 5 -9 1.42 1.33 0.02 o 0.886639
7 -4 2 0 524.29 563.28 9.38 o 0.886093
9 -8 5 -10 6.31 5.88 0.10 o 0.885657
10 -7 2 -3 1.31 1.29 0.02 o 0.885198
2 -1 6 -15 4.54 4.30 0.07 o 0.884936
4 -2 6 -6 28.83 27.84 0.45 o 0.884318
9 -6 3 -3 0.66 0.64 0.01 o 0.883879
9 -3 3 -3 16.09 15.61 0.26 o 0.883879
10 -5 3 -4 3.80 3.71 0.06 o 0.883864
9 -7 4 -5 3.50 3.28 0.05 o 0.883792
10 -7 2 -4 13.31 12.94 0.21 o 0.883377
8 -4 0 3 102.97 102.71 1.69 o 0.883070
10 -6 4 -8 0.09 0.08 0.00 o 0.882313
10 -7 5 -8 0.97 0.86 0.01 o 0.881325
9 -8 2 -2 4.57 4.53 0.07 o 0.880744
6 -1 1 2 43.74 43.39 0.71 o 0.880589
2 0 5 -4 2.31 2.28 0.04 o 0.880103
3 -2 2 -8 0.27 0.24 0.00 o 0.879570
10 -3 1 -1 16.32 16.25 0.27 o 0.878879
9 -5 5 -11 0.02 0.00 0.00 < 0.878441
9 0 0 0 1180.31 1177.39 19.70 o 0.878260
4 -1 5 -13 0.18 0.17 0.00 o 0.878216
4 0 1 -6 39.35 34.60 0.56 o 0.877370
7 -6 1 -5 0.93 0.82 0.01 o 0.876998
9 0 6 -10 0.70 0.62 0.01 o 0.875741
9 -9 6 -10 8.28 7.29 0.12 o 0.875741
9 -8 2 -5 6.99 6.10 0.10 o 0.875393
10 -5 6 -9 1.29 1.11 0.02 o 0.874935
10 -6 1 -3 33.56 30.57 0.50 o 0.874040
8 -7 6 -13 0.63 0.57 0.01 o 0.873726
8 -1 6 -13 0.00 0.00 0.00 < 0.873726
7 -4 2 -7 0.24 0.21 0.00 o 0.873535
10 -3 4 -6 11.12 9.63 0.16 o 0.873203
8 -2 4 -4 14.83 12.77 0.21 o 0.871958
8 -8 1 -4 70.03 59.83 0.97 o 0.870557
9 -5 2 -1 5.28 4.72 0.08 o 0.870291
6 -4 4 -3 22.02 18.78 0.31 o 0.870245
9 -8 5 -7 1.37 1.18 0.02 o 0.870045
9 -7 4 -9 8.21 7.10 0.12 o 0.869593
10 -4 5 -10 0.87 0.75 0.01 o 0.869436
0 0 3 -10 11.98 10.31 0.17 o 0.868212
9 -3 6 -8 0.35 0.30 0.00 o 0.868112
9 -6 6 -8 0.11 0.09 0.00 o 0.868112
8 -5 4 -10 0.87 0.75 0.01 o 0.866959
7 0 4 -10 12.61 10.87 0.18 o 0.866959
6 0 6 -14 0.01 0.00 0.00 < 0.866343
6 -6 6 -14 1.82 1.64 0.03 o 0.866343
10 -3 4 -8 14.77 12.65 0.21 o 0.866271
5 -4 3 -1 15.60 13.01 0.21 o 0.865627
5 -1 3 -1 21.08 17.58 0.29 o 0.865627
9 0 3 -6 2.17 1.84 0.03 o 0.865557
9 -9 3 -6 0.46 0.39 0.01 o 0.865557
7 -1 5 -12 1.07 0.93 0.02 o 0.865435
10 -4 2 -2 1.33 1.09 0.02 o 0.864786
9 -1 1 0 956.19 809.91 13.24 o 0.864270
3 -2 5 -4 0.13 0.11 0.00 o 0.864179
4 -1 2 1 36.83 30.32 0.49 o 0.863483
10 -2 0 0 324.42 269.53 4.42 o 0.862434
6 -3 0 4 127.92 105.11 1.71 o 0.861910
8 -4 3 -2 22.38 18.45 0.30 o 0.861877
10 -2 3 -5 5.94 4.97 0.08 o 0.861836
10 -8 3 -5 7.61 6.37 0.10 o 0.861836
9 -5 2 -6 22.89 19.18 0.31 o 0.861736
7 -4 5 -5 0.07 0.06 0.00 o 0.861672
5 -2 1 -6 4.35 3.65 0.06 o 0.861591
10 -2 6 -10 1.50 1.31 0.02 o 0.860048
10 -8 6 -10 0.62 0.54 0.01 o 0.860048
10 -4 2 -5 2.96 2.44 0.04 o 0.859719
10 -5 6 -12 0.18 0.16 0.00 o 0.859474
10 -3 1 -3 6.06 4.94 0.08 o 0.858437
8 -1 3 -8 1.62 1.36 0.02 o 0.855513
8 -7 3 -8 0.77 0.64 0.01 o 0.855513
9 -7 1 -4 4.42 3.64 0.06 o 0.855137
10 -2 6 -11 0.02 0.02 0.00 o 0.855064
10 -8 6 -11 2.70 2.39 0.04 o 0.855064
6 -1 4 -3 2.57 2.11 0.03 o 0.854841
10 -4 5 -7 7.88 6.59 0.11 o 0.854651
7 -1 2 0 804.68 599.21 9.90 o 0.854465
10 -7 5 -10 13.26 11.64 0.19 o 0.854074
9 -5 5 -6 39.02 31.93 0.52 o 0.853470
2 -1 3 -10 3.92 3.45 0.06 o 0.852914
9 0 3 -4 6.44 5.28 0.09 o 0.852465
9 -9 3 -4 33.18 27.22 0.44 o 0.852465
9 -1 4 -5 2.52 2.06 0.03 o 0.852401
8 -2 4 -10 3.30 2.90 0.05 o 0.851726
7 -5 6 -14 0.39 0.35 0.01 o 0.851142
7 -2 6 -14 0.16 0.14 0.00 o 0.851142
10 -8 3 -6 3.95 3.24 0.05 o 0.850397
10 -2 3 -6 0.59 0.49 0.01 o 0.850397
10 -7 2 -2 21.07 16.39 0.27 o 0.849665
7 -3 1 2 18.60 14.54 0.24 o 0.849526
10 -6 1 0 530.29 417.50 6.97 o 0.849176
3 -1 1 3 1.12 0.86 0.01 o 0.848688
4 -1 2 -8 6.20 5.31 0.09 o 0.848611
10 -5 3 -7 8.19 6.89 0.11 o 0.848357
1 0 4 -2 0.85 0.69 0.01 o 0.847626
9 -2 5 -11 0.04 0.04 0.00 o 0.847597
5 -3 5 -13 0.04 0.04 0.00 o 0.847394
8 0 2 -6 0.07 0.06 0.00 o 0.846772
8 -5 1 -5 0.06 0.05 0.00 o 0.846301
10 -7 2 -5 0.36 0.28 0.00 o 0.844858
9 -4 1 1 116.28 92.12 1.54 o 0.844822
10 -2 0 -1 156.37 126.18 2.12 o 0.844677
10 -2 0 1 168.36 135.85 2.28 o 0.844677
6 -4 4 -11 4.25 3.71 0.06 o 0.843727
9 -3 6 -13 0.06 0.06 0.00 o 0.843359
9 -6 6 -13 0.19 0.16 0.00 o 0.843359
7 -1 2 -7 0.77 0.66 0.01 o 0.843187
8 -4 6 -7 1.58 1.36 0.02 o 0.841027
9 -2 2 -1 11.58 9.68 0.16 o 0.840269
10 -7 5 -7 0.40 0.34 0.01 o 0.840047
9 -1 4 -9 4.71 4.08 0.07 o 0.839640
8 0 5 -6 0.01 0.01 0.00 o 0.838925
4 -2 6 -15 7.81 6.93 0.11 o 0.838884
5 -1 6 -6 15.26 13.48 0.22 o 0.838357
5 -4 6 -6 44.95 39.70 0.65 o 0.838357
10 -2 3 -4 0.92 0.82 0.01 o 0.837970
10 -8 3 -4 0.64 0.58 0.01 o 0.837970
10 -6 4 -5 1.77 1.57 0.03 o 0.837910
8 -1 0 -3 27.11 23.99 0.39 o 0.837294
8 -1 0 3 64.17 56.80 0.93 o 0.837294
10 -5 0 2 34.54 29.04 0.48 o 0.836565
6 -3 3 -1 0.04 0.03 0.00 o 0.836069
8 -3 5 -12 0.11 0.10 0.00 o 0.835895
7 -7 5 -12 3.68 3.17 0.05 o 0.835895
10 -3 1 0 559.82 460.78 7.78 o 0.834846
4 -1 5 -4 2.16 2.07 0.03 o 0.834763
4 -4 2 -8 2.91 2.46 0.04 o 0.834309
5 -3 2 1 56.63 51.15 0.85 o 0.834136
2 -2 4 -2 3.25 2.92 0.05 o 0.833373
9 -2 2 -6 15.86 14.59 0.24 o 0.832561
7 -1 5 -5 0.11 0.10 0.00 o 0.832503
5 -5 1 -6 11.65 10.71 0.18 o 0.832430
8 -2 1 -5 34.79 32.60 0.53 o 0.832113
9 -9 6 -12 0.30 0.26 0.00 o 0.830520
9 0 6 -12 0.18 0.16 0.00 o 0.830520
10 -2 6 -9 0.18 0.15 0.00 o 0.830350
10 -8 6 -9 1.28 1.09 0.02 o 0.830350
6 -1 4 -11 5.71 4.96 0.08 o 0.829667
10 -9 4 -7 10.46 9.59 0.16 o 0.828462
11 -5 4 -7 0.82 0.75 0.01 o 0.828462
7 -2 3 -9 3.96 3.51 0.06 o 0.828344
7 -5 3 -9 0.16 0.14 0.00 o 0.828344
9 -4 4 -4 0.01 0.00 0.00 < 0.827804
11 -5 1 -2 4.40 4.53 0.07 o 0.827391
10 -9 1 -2 0.32 0.33 0.01 o 0.827391
9 -3 3 -8 0.76 0.70 0.01 o 0.826945
9 -6 3 -8 3.47 3.18 0.05 o 0.826945
9 -1 1 -4 2.80 2.79 0.05 o 0.826605
10 -1 5 -9 3.80 3.40 0.06 o 0.826440
11 -6 5 -9 4.35 3.88 0.06 o 0.826440
7 -3 4 -3 2.51 2.53 0.04 o 0.826338
8 -3 2 0 475.43 558.09 9.23 o 0.825998
7 -7 2 0 683.73 802.61 13.26 o 0.825998
10 -6 4 -9 2.26 2.05 0.03 o 0.825780
10 -1 2 -3 2.82 2.85 0.05 o 0.825273
11 -6 2 -3 6.39 6.46 0.11 o 0.825273
9 -2 5 -6 7.19 6.96 0.11 o 0.825099
3 -3 3 -10 7.06 6.31 0.10 o 0.824597
3 0 3 -10 2.12 1.90 0.03 o 0.824597
10 -5 3 -3 0.96 0.97 0.02 o 0.824203
10 -3 4 -5 0.94 0.92 0.02 o 0.824133
10 -1 2 -4 18.34 18.40 0.30 o 0.823796
11 -6 2 -4 4.86 4.87 0.08 o 0.823796
2 -1 0 5 71.17 69.53 1.14 o 0.823091
8 -6 5 -12 0.51 0.44 0.01 o 0.822216
11 -6 5 -8 0.07 0.07 0.00 o 0.822131
10 -1 5 -8 0.01 0.00 0.00 < 0.822131
7 -6 1 2 123.42 137.22 2.25 o 0.821534
4 -4 5 -4 2.06 2.16 0.04 o 0.821139
4 -3 1 3 7.43 7.77 0.13 o 0.820777
5 -3 2 -8 0.01 0.00 0.00 < 0.820706
11 -5 1 -1 12.09 13.29 0.22 o 0.820145
10 -9 1 -1 58.82 64.61 1.07 o 0.820145
3 -1 4 -2 27.65 30.66 0.50 o 0.819816
9 -8 5 -11 3.81 3.46 0.06 o 0.819789
11 -4 0 0 427.23 444.48 7.45 o 0.819642
6 0 0 4 64.42 67.21 1.10 o 0.819192
6 0 0 -4 40.04 41.78 0.68 o 0.819192
8 -1 3 -2 3.33 3.66 0.06 o 0.819164
8 -7 3 -2 3.80 4.18 0.07 o 0.819164
11 -7 3 -5 9.03 9.00 0.15 o 0.819128
11 -4 3 -5 0.50 0.50 0.01 o 0.819128
6 -4 1 -6 31.06 30.59 0.50 o 0.818918
11 -7 6 -10 8.01 7.42 0.12 o 0.817593
11 -4 6 -10 3.17 2.94 0.05 o 0.817593
9 -7 1 1 17.40 17.94 0.30 o 0.817277
1 0 4 -12 1.22 1.12 0.02 o 0.817253
10 -2 6 -12 0.39 0.35 0.01 o 0.817099
10 -8 6 -12 0.03 0.03 0.00 o 0.817099
8 -3 2 -7 1.33 1.32 0.02 o 0.815797
11 -5 4 -6 0.56 0.57 0.01 o 0.815527
10 -9 4 -6 4.91 4.92 0.08 o 0.815527
8 -8 4 -4 18.51 19.86 0.33 o 0.814512
10 -6 1 -4 52.47 55.87 0.92 o 0.813370
11 -4 6 -11 0.35 0.33 0.01 o 0.813307
11 -7 6 -11 0.41 0.38 0.01 o 0.813307
9 -8 2 -1 4.96 4.77 0.08 o 0.813153
8 -6 2 0 505.87 485.75 8.24 o 0.812792
10 -3 4 -9 1.50 1.47 0.02 o 0.812583
4 -2 3 -10 3.95 3.84 0.06 o 0.811457
6 -3 6 -6 10.19 11.01 0.18 o 0.811421
10 -5 6 -8 0.00 0.00 0.00 < 0.811375
9 -3 0 -3 5.34 5.17 0.09 o 0.810457
9 -3 0 3 1.02 0.99 0.02 o 0.810457
9 -4 4 -10 0.05 0.04 0.00 o 0.810433
8 -4 6 -14 0.02 0.00 0.00 < 0.809930
10 -9 4 -8 7.10 7.07 0.12 o 0.809871
11 -5 4 -8 0.00 0.00 0.00 < 0.809871
9 0 0 2 3.61 3.42 0.06 o 0.809795
9 0 0 -2 39.88 37.80 0.64 o 0.809795
11 -4 3 -6 1.51 1.62 0.03 o 0.809288
11 -7 3 -6 9.44 10.10 0.17 o 0.809288
5 -3 5 -4 0.51 0.50 0.01 o 0.808161
0 0 3 0 39.37 36.42 0.64 o 0.807608
10 -8 3 -7 2.03 2.12 0.03 o 0.807529
10 -2 3 -7 2.87 3.00 0.05 o 0.807529
10 -4 5 -11 1.22 1.17 0.02 o 0.806874
6 -2 5 -13 0.00 0.00 0.00 < 0.806699
7 -2 0 -4 47.03 46.63 0.77 o 0.806304
7 -2 0 4 11.39 11.29 0.19 o 0.806304
9 -8 2 -6 30.29 30.87 0.51 o 0.806162
8 -3 5 -5 0.03 0.03 0.00 o 0.806109
6 -1 1 -6 14.84 15.29 0.25 o 0.806043
2 -2 4 -12 0.02 0.02 0.00 o 0.804455
11 -4 0 1 9.70 7.86 0.16 o 0.804354
11 -4 0 -1 22.19 17.96 0.36 o 0.804354
7 -3 4 -11 0.56 0.54 0.01 o 0.803533
11 -5 1 -3 1.90 1.88 0.03 o 0.803459
10 -9 1 -3 22.03 21.76 0.37 o 0.803459
8 -6 2 -7 12.67 12.68 0.21 o 0.803067
11 -8 4 -7 1.72 1.72 0.03 o 0.802439
9 -7 4 -4 0.07 0.07 0.00 o 0.801841
11 -8 1 -2 13.11 12.89 0.23 o 0.801466
8 -1 6 -7 0.07 0.07 0.00 o 0.801200
8 -7 6 -7 2.59 2.56 0.04 o 0.801200
10 -3 1 -4 9.72 9.06 0.15 o 0.800751
11 -3 5 -9 0.01 0.00 0.00 < 0.800601
10 -4 2 -1 10.43 10.66 0.19 o 0.800544
7 -6 4 -3 3.93 3.67 0.06 o 0.800508
11 -6 5 -10 1.32 1.32 0.02 o 0.799878
10 -1 5 -10 0.05 0.05 0.00 o 0.799878
11 -3 2 -3 3.24 2.94 0.05 o 0.799540
9 -8 5 -6 13.89 13.31 0.22 o 0.799382
5 -4 6 -15 3.98 4.13 0.07 o 0.799347
5 -1 6 -15 3.72 3.85 0.06 o 0.799347
11 -4 3 -4 1.10 1.06 0.02 o 0.798556
11 -7 3 -4 9.10 8.77 0.14 o 0.798556
11 -3 2 -4 0.95 0.91 0.02 o 0.798197
8 -8 4 -10 18.35 18.37 0.30 o 0.797948
10 -2 0 -2 55.94 56.67 0.99 o 0.797339
10 -2 0 2 50.46 51.12 0.89 o 0.797339
11 -3 5 -8 2.55 2.46 0.04 o 0.796682
11 -6 2 -2 48.59 44.74 0.77 o 0.796253
10 -1 2 -2 1.69 1.55 0.03 o 0.796253
8 -5 1 2 17.07 15.82 0.27 o 0.796139
7 0 1 2 98.34 91.13 1.57 o 0.796139
5 -2 1 3 0.92 0.88 0.01 o 0.795449
5 0 2 -8 1.08 1.03 0.02 o 0.795385
2 -1 3 0 119.63 117.32 2.05 o 0.795252
6 -2 2 1 8.70 8.13 0.14 o 0.795235
11 -8 1 -1 33.17 33.49 0.59 o 0.794874
4 -3 4 -2 12.79 11.89 0.21 o 0.794574
10 -7 5 -11 1.01 1.05 0.02 o 0.794550
6 -5 5 -13 0.28 0.29 0.00 o 0.794383
9 -3 3 -2 59.04 57.95 0.97 o 0.793981
9 -6 3 -2 17.51 17.18 0.29 o 0.793981
10 -4 2 -6 13.76 12.88 0.21 o 0.793871
8 -6 5 -5 0.18 0.17 0.00 o 0.793820
9 -4 1 -5 7.90 7.41 0.12 o 0.793482
10 -1 2 -5 3.84 3.61 0.06 o 0.792293
11 -6 2 -5 11.69 10.97 0.18 o 0.792293
9 -1 1 1 3.53 3.28 0.06 o 0.792263
3 -1 4 -12 1.15 1.25 0.02 o 0.792240
11 -4 6 -9 0.15 0.15 0.00 o 0.791952
11 -7 6 -9 0.12 0.12 0.00 o 0.791952
10 -5 6 -13 1.23 1.33 0.02 o 0.791056
11 -8 4 -6 0.00 0.00 0.00 < 0.790668
8 -4 3 -9 1.93 1.88 0.03 o 0.790212
10 0 1 -2 40.01 38.64 0.64 o 0.789385
10 -7 2 -1 6.97 6.68 0.11 o 0.788504
10 -1 5 -7 0.85 0.81 0.01 o 0.788321
11 -6 5 -7 1.24 1.18 0.02 o 0.788321
10 -4 5 -6 6.34 5.98 0.10 o 0.787393
9 -9 6 -8 2.51 2.59 0.04 o 0.786882
9 0 6 -8 0.59 0.61 0.01 o 0.786882
10 -8 3 -3 3.24 3.04 0.05 o 0.786614
10 -2 3 -3 2.45 2.30 0.04 o 0.786614
10 -10 2 -4 0.00 0.00 0.00 < 0.786261
9 -7 4 -10 1.84 1.98 0.03 o 0.786023
4 -2 0 5 44.75 42.29 0.69 o 0.785648
11 -8 4 -8 21.35 21.98 0.36 o 0.785510
7 -2 3 -1 11.97 11.13 0.18 o 0.785030
7 -5 3 -1 18.52 17.22 0.28 o 0.785030
9 -5 5 -12 5.74 6.05 0.10 o 0.784887
10 -10 5 -8 14.12 15.09 0.25 o 0.784813
8 -2 1 2 0.04 0.03 0.00 o 0.784293
10 -9 1 0 543.77 523.71 8.66 o 0.784017
11 -5 1 0 723.46 696.77 11.52 o 0.784017
5 0 5 -4 0.38 0.35 0.01 o 0.783949
6 -2 2 -8 0.14 0.15 0.00 o 0.783573
6 -5 2 1 0.15 0.14 0.00 o 0.783430
4 0 4 -2 64.21 59.46 0.98 o 0.782798
10 -7 2 -6 0.39 0.38 0.01 o 0.782125
7 -3 1 -6 48.23 47.67 0.78 o 0.782016
10 -6 1 1 5.24 4.92 0.08 o 0.780587
11 -4 6 -12 3.33 3.46 0.06 o 0.780432
11 -7 6 -12 0.23 0.24 0.00 o 0.780432
7 -6 4 -11 1.81 1.90 0.03 o 0.779724
11 -8 1 -3 11.50 10.74 0.18 o 0.779656
10 0 4 -6 0.10 0.11 0.00 o 0.779062
11 -2 4 -7 21.45 23.30 0.38 o 0.778723
9 -1 4 -4 0.01 0.00 0.00 < 0.778176
11 -2 1 -2 17.49 16.34 0.27 o 0.777834
9 -3 6 -7 0.46 0.50 0.01 o 0.777591
9 -6 6 -7 1.22 1.32 0.02 o 0.777591
10 -5 3 -8 0.39 0.42 0.01 o 0.777463
11 -9 5 -9 2.36 2.52 0.04 o 0.777044
8 -5 4 -3 0.90 0.86 0.01 o 0.776958
9 -5 2 0 242.09 208.18 3.57 o 0.776676
11 -3 5 -10 0.09 0.10 0.00 o 0.776382
11 -9 2 -3 0.82 0.80 0.01 o 0.776073
1 -1 5 -14 0.60 0.61 0.01 o 0.776071
10 -7 5 -6 8.89 9.65 0.16 o 0.775928
6 -3 6 -15 4.80 4.91 0.08 o 0.775896
5 -4 3 -10 2.55 2.67 0.04 o 0.775511
5 -1 3 -10 3.49 3.66 0.06 o 0.775511
6 0 6 -6 51.78 56.27 0.92 o 0.775479
6 -6 6 -6 51.62 56.10 0.91 o 0.775479
10 -2 6 -8 0.03 0.03 0.00 o 0.775439
10 -8 6 -8 0.34 0.36 0.01 o 0.775439
10 -9 4 -5 0.00 0.00 0.00 < 0.775125
11 -5 4 -5 0.27 0.29 0.00 o 0.775125
11 -9 2 -4 0.08 0.08 0.00 o 0.774845
8 -7 6 -14 0.58 0.59 0.01 o 0.774178
8 -1 6 -14 0.27 0.27 0.00 o 0.774178
10 0 4 -8 6.39 6.85 0.11 o 0.774126
8 0 5 -12 0.22 0.23 0.00 o 0.773529
11 -9 5 -8 1.15 1.22 0.02 o 0.773459
11 -3 2 -2 12.03 11.83 0.20 o 0.773066
6 -2 5 -4 2.16 2.37 0.04 o 0.772632
6 -5 2 -8 1.00 1.07 0.02 o 0.772272
3 -3 3 0 407.92 397.85 6.71 o 0.772150
3 0 3 0 505.01 492.54 8.30 o 0.772150
11 -7 3 -7 0.04 0.05 0.00 o 0.772080
11 -4 3 -7 0.00 0.00 0.00 < 0.772080
11 -2 1 -1 72.85 71.09 1.20 o 0.771804
5 -2 4 -2 20.36 21.14 0.35 o 0.771530
7 -4 5 -13 0.22 0.22 0.00 o 0.771355
8 -4 0 4 10.94 12.30 0.20 o 0.771010
9 -7 1 -5 24.37 26.83 0.44 o 0.770529
11 -3 2 -5 2.60 2.85 0.05 o 0.769440
10 -3 1 1 25.52 28.80 0.48 o 0.769413
4 -3 4 -12 2.75 2.84 0.05 o 0.769392
2 -1 6 -5 0.01 0.00 0.00 < 0.769207
9 -5 2 -7 3.04 3.23 0.05 o 0.768177
11 -2 4 -6 4.04 4.33 0.07 o 0.767952
10 -6 4 -4 6.49 7.49 0.12 o 0.767104
3 -1 1 -7 0.54 0.57 0.01 o 0.766893
8 -2 4 -3 22.90 27.44 0.45 o 0.765937
11 -3 5 -7 7.52 7.87 0.13 o 0.765800
8 0 2 0 526.53 693.27 11.37 o 0.765666
10 -9 4 -9 4.72 4.87 0.08 o 0.765492
11 -5 4 -9 2.65 2.74 0.04 o 0.765492
10 -10 5 -10 0.14 0.14 0.00 o 0.765385
2 0 5 -14 0.03 0.03 0.00 o 0.765087
7 -5 6 -6 12.85 14.11 0.23 o 0.764520
7 -2 6 -6 16.84 18.49 0.30 o 0.764520
10 -5 0 3 41.70 51.29 0.84 o 0.763713
9 -1 4 -10 1.01 1.04 0.02 o 0.763694
1 -1 2 2 0.21 0.26 0.00 o 0.763586
11 -2 4 -8 2.09 2.18 0.04 o 0.763223
11 -4 0 2 3.55 4.53 0.07 o 0.763160
11 -4 0 -2 24.72 31.54 0.52 o 0.763160
9 -2 5 -12 0.51 0.54 0.01 o 0.762651
10 -10 2 -2 0.27 0.33 0.01 o 0.762207
11 -8 1 0 872.40 1152.85 18.89 o 0.761854
6 -5 5 -4 0.17 0.20 0.00 o 0.761791
6 -4 1 3 7.06 8.47 0.14 o 0.761502
4 -2 3 0 321.84 409.43 6.70 o 0.761329
7 -4 2 1 22.81 28.76 0.47 o 0.761314
12 -6 0 0 1188.85 1530.36 25.09 o 0.760596
12 -6 3 -5 3.05 3.41 0.06 o 0.760185
9 -5 5 -5 0.46 0.52 0.01 o 0.760073
7 -6 1 -6 34.87 38.31 0.63 o 0.760017
12 -6 6 -10 1.47 1.56 0.03 o 0.758957
4 0 4 -12 8.42 8.73 0.14 o 0.758685
8 -5 4 -11 0.53 0.56 0.01 o 0.757912
11 -2 1 -3 14.90 17.60 0.29 o 0.757850
10 -8 6 -13 0.52 0.53 0.01 o 0.757645
10 -2 6 -13 0.09 0.10 0.00 o 0.757645
12 -7 4 -7 11.10 11.95 0.19 o 0.756993
8 -7 3 -9 0.97 1.04 0.02 o 0.756903
8 -1 3 -9 0.19 0.20 0.00 o 0.756903
10 -3 4 -4 4.73 5.36 0.09 o 0.756491
12 -7 1 -2 14.47 16.71 0.27 o 0.756176
9 0 3 -8 0.18 0.19 0.00 o 0.755835
9 -9 3 -8 3.15 3.41 0.06 o 0.755835
11 -5 1 -4 12.80 14.64 0.24 o 0.755576
10 -9 1 -4 0.39 0.45 0.01 o 0.755576
12 -6 6 -11 1.14 1.19 0.02 o 0.755526
12 -5 5 -9 0.11 0.12 0.00 o 0.755450
9 -2 2 0 230.38 236.43 3.94 o 0.755112
11 -9 5 -10 0.03 0.03 0.00 o 0.754842
12 -5 2 -3 11.59 13.14 0.21 o 0.754558
3 -2 5 -14 0.10 0.10 0.00 o 0.754557
6 -3 3 -10 4.12 4.35 0.07 o 0.754041
11 -4 3 -3 2.94 3.30 0.05 o 0.753740
11 -7 3 -3 16.07 18.09 0.30 o 0.753740
11 -8 4 -5 0.07 0.08 0.00 o 0.753687
12 -5 2 -4 8.70 9.75 0.16 o 0.753429
10 -6 4 -10 14.88 15.80 0.26 o 0.753220
2 0 2 2 3.83 4.20 0.07 o 0.753116
5 -1 0 5 65.12 71.80 1.17 o 0.752889
5 -1 0 -5 30.72 33.87 0.55 o 0.752889
9 -6 6 -14 0.06 0.06 0.00 o 0.752816
9 -3 6 -14 0.51 0.52 0.01 o 0.752816
8 -4 3 -1 2.20 1.88 0.03 o 0.752346
12 -6 3 -6 0.34 0.37 0.01 o 0.752300
12 -5 5 -8 0.32 0.35 0.01 o 0.752154
11 -9 2 -2 1.72 1.56 0.03 o 0.751793
9 -4 1 2 0.78 0.67 0.01 o 0.751697
10 0 1 0 337.34 288.81 4.98 o 0.751454
6 -1 1 3 18.51 19.31 0.32 o 0.751117
7 -4 2 -8 0.64 0.71 0.01 o 0.751063
12 -7 1 -1 11.60 9.47 0.16 o 0.750633
5 -5 4 -2 15.52 12.61 0.21 o 0.750380
11 -6 5 -11 5.55 5.84 0.09 o 0.750359
10 -1 5 -11 1.11 1.17 0.02 o 0.750359
11 -1 0 0 378.16 309.19 5.40 o 0.750247
7 -1 5 -13 0.16 0.17 0.00 o 0.750219
10 -5 3 -2 0.00 0.00 0.00 o 0.749880
11 -1 3 -5 1.53 1.69 0.03 o 0.749853
11 -10 3 -5 0.06 0.06 0.00 o 0.749853
9 -1 1 -5 12.81 13.88 0.23 o 0.749460
11 -1 6 -10 0.20 0.22 0.00 o 0.748675
11 -10 6 -10 0.93 0.98 0.02 o 0.748675
11 -9 2 -5 0.01 0.01 0.00 o 0.748457
5 -2 4 -12 0.08 0.08 0.00 o 0.748413
12 -6 0 1 1.24 0.94 0.02 o 0.748332
8 -2 4 -11 1.22 1.29 0.02 o 0.747671
9 -2 2 -7 0.21 0.23 0.00 o 0.747295
12 -7 4 -6 3.01 3.37 0.05 o 0.747087
12 -4 4 -7 0.03 0.03 0.00 o 0.746789
4 -3 1 -7 2.65 2.86 0.05 o 0.746113
12 -4 1 -2 0.12 0.11 0.00 o 0.746004
10 -2 3 -8 0.03 0.04 0.00 o 0.745677
10 -8 3 -8 2.02 2.18 0.04 o 0.745677
11 -10 6 -11 0.85 0.90 0.01 o 0.745380
11 -1 6 -11 0.03 0.03 0.00 o 0.745380
12 -8 5 -9 0.32 0.34 0.01 o 0.745307
10 -1 2 -1 0.30 0.26 0.00 o 0.745261
11 -6 2 -1 4.88 4.15 0.07 o 0.745261
11 -9 5 -7 8.47 9.14 0.15 o 0.745106
11 -8 4 -9 0.64 0.68 0.01 o 0.744822
12 -8 2 -3 1.94 1.75 0.03 o 0.744451
11 -4 6 -8 1.14 1.22 0.02 o 0.743891
11 -7 6 -8 1.05 1.13 0.02 o 0.743891
12 -6 3 -4 5.59 5.67 0.09 o 0.743656
12 -8 2 -4 2.13 2.12 0.03 o 0.743366
10 -3 4 -10 0.48 0.51 0.01 o 0.743165
3 -2 2 2 32.62 29.96 0.50 o 0.743066
12 -7 4 -8 0.01 0.00 0.00 < 0.742732
11 -10 3 -6 3.68 3.66 0.06 o 0.742282
11 -1 3 -6 0.39 0.39 0.01 o 0.742282
9 -8 5 -12 0.65 0.69 0.01 o 0.742205
12 -8 5 -8 10.61 11.32 0.18 o 0.742142
0 0 6 -16 8.97 9.39 0.15 o 0.742073
8 -8 1 2 1.82 1.66 0.03 o 0.741703
11 -2 1 0 736.64 687.41 11.66 o 0.741469
7 -4 5 -4 12.97 13.50 0.22 o 0.741412
7 -1 2 1 3.92 3.67 0.06 o 0.740972
12 -4 1 -1 17.40 16.40 0.28 o 0.740680
6 -4 4 -2 7.55 7.33 0.12 o 0.740437
8 -1 0 4 21.55 21.69 0.35 o 0.739978
8 -1 0 -4 49.97 50.28 0.82 o 0.739978
10 -1 2 -6 14.07 13.88 0.23 o 0.739868
11 -6 2 -6 4.86 4.79 0.08 o 0.739868
9 -2 5 -5 0.45 0.45 0.01 o 0.739827
8 -5 1 -6 6.27 6.17 0.10 o 0.739776
7 0 1 -6 103.54 101.95 1.66 o 0.739776
10 -6 1 -5 10.67 10.56 0.17 o 0.739553
11 -1 0 -1 6.04 6.09 0.10 o 0.738469
11 -1 0 1 19.66 19.83 0.33 o 0.738469
4 -2 6 -5 2.36 2.35 0.04 o 0.738384
12 -6 6 -9 2.00 2.13 0.03 o 0.738314
12 -7 1 -3 12.74 13.49 0.22 o 0.737777
12 -4 4 -6 0.56 0.55 0.01 o 0.737273
9 -3 3 -9 0.46 0.47 0.01 o 0.736903
9 -6 3 -9 0.10 0.10 0.00 o 0.736903
10 -5 6 -7 3.36 3.29 0.05 o 0.736026
11 -8 1 -4 9.73 9.88 0.16 o 0.735678
9 -4 4 -3 3.99 4.08 0.07 o 0.735490
9 -8 2 0 209.38 250.73 4.14 o 0.735250
12 -5 5 -10 10.97 11.55 0.19 o 0.735001
4 -1 5 -14 0.00 0.00 0.00 < 0.734737
11 -6 5 -6 5.84 5.74 0.09 o 0.734616
10 -1 5 -6 26.60 26.14 0.43 o 0.734616
7 -5 6 -15 3.01 3.22 0.05 o 0.734589
7 -2 6 -15 3.89 4.16 0.07 o 0.734589
8 -4 6 -6 3.95 3.88 0.06 o 0.734235
11 -1 3 -4 32.91 33.16 0.54 o 0.733975
11 -10 3 -4 1.60 1.61 0.03 o 0.733975
11 -2 4 -5 0.56 0.56 0.01 o 0.733934
10 -2 0 -3 49.89 51.49 0.84 o 0.733520
10 -2 0 3 55.93 57.72 0.94 o 0.733520
6 -3 0 5 0.37 0.37 0.01 o 0.733198
12 -4 4 -8 0.38 0.38 0.01 o 0.733086
10 -4 5 -12 0.40 0.42 0.01 o 0.732579
2 -1 6 -16 6.48 6.87 0.11 o 0.732452
12 -5 2 -2 1.41 1.47 0.02 o 0.732185
9 -7 1 2 10.90 11.40 0.19 o 0.732096
7 -3 1 3 1.11 1.13 0.02 o 0.731560
7 -1 2 -8 1.04 1.04 0.02 o 0.731511
3 -2 2 -9 0.14 0.14 0.00 o 0.731454
5 -1 3 0 175.52 183.98 3.02 o 0.731407
5 -4 3 0 130.32 136.60 2.24 o 0.731407
6 -1 4 -2 11.26 11.78 0.19 o 0.730880
11 -3 5 -11 0.20 0.21 0.00 o 0.730861
12 -3 0 0 720.06 753.57 12.37 o 0.730757
8 -3 5 -13 0.21 0.23 0.00 o 0.730731
9 0 3 -2 5.71 5.92 0.10 o 0.730418
9 -9 3 -2 73.35 76.01 1.24 o 0.730418
12 -3 3 -5 0.55 0.55 0.01 o 0.730392
12 -9 3 -5 0.20 0.21 0.00 o 0.730392
8 -2 1 -6 7.63 7.71 0.13 o 0.730244
10 -3 1 -5 0.00 0.00 0.00 < 0.730029
12 -9 6 -10 1.89 1.88 0.03 o 0.729303
12 -3 6 -10 0.21 0.21 0.00 o 0.729303
12 -5 2 -5 1.01 1.03 0.02 o 0.729103
11 -5 1 1 13.89 14.37 0.23 o 0.729079
10 -9 1 1 51.07 52.81 0.86 o 0.729079
5 -5 4 -12 0.09 0.10 0.00 o 0.729062
12 -6 6 -12 0.18 0.19 0.00 o 0.728953
11 -1 6 -9 1.89 1.90 0.03 o 0.728838
11 -10 6 -9 0.00 0.00 0.00 < 0.728838
12 -4 1 -3 82.48 84.98 1.39 o 0.728320
11 -7 6 -13 0.18 0.19 0.00 o 0.728139
11 -4 6 -13 0.09 0.10 0.00 o 0.728139
9 -8 2 -7 0.01 0.01 0.00 o 0.728028
1 0 1 4 0.01 0.01 0.00 o 0.727494
5 -2 1 -7 2.69 2.76 0.04 o 0.726935
10 0 1 -4 126.01 130.07 2.12 o 0.726302
12 -9 6 -11 0.13 0.13 0.00 o 0.726257
12 -3 6 -11 0.27 0.27 0.00 o 0.726257
11 -3 2 -1 9.85 9.79 0.16 o 0.726147
12 -5 5 -7 0.02 0.02 0.00 o 0.726004
10 -4 2 0 201.15 190.61 3.15 o 0.725889
11 -2 4 -9 0.80 0.81 0.01 o 0.725741
12 -8 5 -10 0.08 0.08 0.00 o 0.725650
4 -4 5 -14 0.64 0.66 0.01 o 0.725396
6 0 3 -10 1.97 1.98 0.03 o 0.724938
6 -6 3 -10 0.03 0.03 0.00 o 0.724938
4 -1 2 2 15.65 15.91 0.26 o 0.724116
8 -1 3 -1 6.70 5.98 0.10 o 0.723431
8 -7 3 -1 8.66 7.72 0.13 o 0.723431
12 -3 3 -6 1.52 1.60 0.03 o 0.723390
12 -9 3 -6 0.25 0.26 0.00 o 0.723390
10 -7 5 -12 0.06 0.06 0.00 o 0.723319
12 -8 2 -2 1.96 1.85 0.03 o 0.722940
12 -7 1 0 273.98 250.61 4.38 o 0.722638
7 -1 5 -4 0.82 0.85 0.01 o 0.722585
8 -3 2 1 19.40 17.62 0.29 o 0.722178
12 -6 3 -7 0.69 0.72 0.01 o 0.722133
8 -6 5 -13 1.64 1.62 0.03 o 0.721540
9 -3 0 4 64.77 66.70 1.09 o 0.721257
9 -3 0 -4 9.77 10.06 0.16 o 0.721257
10 -2 3 -2 1.96 1.82 0.03 o 0.721238
10 -8 3 -2 3.03 2.82 0.05 o 0.721238
11 -3 2 -6 17.32 18.26 0.30 o 0.721155
9 -8 5 -5 0.68 0.72 0.01 o 0.721118
3 -2 5 -3 1.56 1.50 0.02 o 0.720629
12 -8 2 -5 0.69 0.72 0.01 o 0.719972
6 -4 4 -12 0.77 0.77 0.01 o 0.719933
12 -3 0 1 0.76 0.70 0.01 o 0.719860
12 -3 0 -1 5.77 5.30 0.09 o 0.719860
11 -10 6 -12 0.45 0.45 0.01 o 0.719828
11 -1 6 -12 0.31 0.30 0.00 o 0.719828
9 -4 4 -11 3.55 3.58 0.06 o 0.719272
10 -4 2 -7 5.21 5.49 0.09 o 0.718937
2 -2 1 4 0.54 0.56 0.01 o 0.718423
11 -5 4 -4 4.10 4.06 0.07 o 0.718057
10 -9 4 -4 1.83 1.81 0.03 o 0.718057
11 -11 1 -2 18.08 18.89 0.32 o 0.717788
11 -4 3 -8 3.69 3.86 0.06 o 0.717496
11 -7 3 -8 5.09 5.33 0.09 o 0.717496
11 -2 1 -4 0.02 0.02 0.00 o 0.717274
9 -7 4 -3 0.37 0.39 0.01 o 0.717099
12 -8 5 -7 2.14 2.24 0.04 o 0.716987
10 -7 2 0 228.38 249.48 4.23 o 0.716877
5 -3 5 -14 0.20 0.19 0.00 o 0.716402
11 -3 5 -6 9.99 10.39 0.17 o 0.716289
7 -2 3 -10 0.68 0.70 0.01 o 0.715961
7 -5 3 -10 1.01 1.03 0.02 o 0.715961
12 -3 3 -4 3.71 3.77 0.06 o 0.715695
12 -9 3 -4 2.71 2.76 0.05 o 0.715695
12 -7 4 -5 1.00 0.99 0.02 o 0.715657
11 0 2 -4 50.76 53.80 0.89 o 0.715437
4 -4 2 2 26.43 28.42 0.47 o 0.715169
10 -5 6 -14 0.30 0.30 0.00 o 0.714912
12 -6 0 2 51.16 58.44 0.98 o 0.714819
11 0 5 -8 5.96 6.14 0.10 o 0.714345
3 -3 6 -16 8.78 8.76 0.14 o 0.714283
3 0 6 -16 12.66 12.63 0.21 o 0.714283
9 -1 1 2 1.87 2.15 0.04 o 0.713953
12 -4 1 0 423.61 502.70 8.52 o 0.713745
7 -6 1 3 15.65 17.03 0.28 o 0.713456
8 -3 2 -8 0.00 0.00 0.00 < 0.713410
7 -7 2 -8 18.11 18.56 0.30 o 0.713410
4 -1 2 -9 0.17 0.17 0.00 o 0.713357
6 -3 3 0 271.94 320.75 5.39 o 0.713314
8 -6 2 1 5.91 6.95 0.12 o 0.713302
11 -1 3 -7 5.28 5.26 0.09 o 0.713259
11 -10 3 -7 2.48 2.47 0.04 o 0.713259
7 -3 4 -2 0.24 0.28 0.01 o 0.712825
11 -9 5 -11 0.08 0.08 0.00 o 0.712807
10 -10 2 -6 4.13 4.17 0.07 o 0.712316
10 -4 5 -5 2.19 2.26 0.04 o 0.712280
11 -8 1 1 27.17 32.90 0.56 o 0.711154
6 -1 4 -12 0.00 0.00 0.00 < 0.711138
5 -1 6 -5 0.04 0.04 0.00 o 0.710992
5 -4 6 -5 0.10 0.11 0.00 o 0.710992
12 -3 6 -9 1.79 1.84 0.03 o 0.710930
12 -9 6 -9 0.03 0.03 0.00 o 0.710930
2 -1 3 -11 3.32 3.42 0.06 o 0.710253
10 -7 2 -7 0.47 0.46 0.01 o 0.710178
11 -11 4 -6 0.34 0.34 0.01 o 0.710000
12 -10 4 -7 0.06 0.06 0.00 o 0.709744
3 -1 1 4 1.32 1.39 0.02 o 0.709683
12 -10 1 -2 7.82 9.39 0.16 o 0.709070
10 -8 6 -7 3.85 3.68 0.06 o 0.708886
10 -2 6 -7 4.42 4.23 0.07 o 0.708886
12 -2 5 -9 0.18 0.18 0.00 o 0.708472
11 -9 2 -1 7.10 8.62 0.15 o 0.708432
12 -7 4 -9 3.59 3.49 0.06 o 0.708055
12 -2 2 -3 2.56 2.94 0.05 o 0.707736
10 -10 5 -6 2.78 2.75 0.05 o 0.707626
8 -4 6 -15 3.21 3.27 0.05 o 0.707602
8 -1 6 -6 44.65 44.29 0.73 o 0.707285
8 -7 6 -6 26.08 25.86 0.43 o 0.707285
12 -6 3 -3 0.39 0.43 0.01 o 0.707061
12 -4 4 -5 3.88 3.94 0.07 o 0.707017
12 -2 2 -4 0.06 0.06 0.00 o 0.706804
11 -4 0 3 5.32 6.06 0.10 o 0.706647
11 -4 0 -3 45.21 51.45 0.87 o 0.706647
10 -9 4 -10 0.22 0.22 0.00 o 0.706631
11 -5 4 -10 6.83 6.80 0.11 o 0.706631
5 -3 2 2 26.76 30.29 0.51 o 0.706545
11 -11 4 -8 0.66 0.65 0.01 o 0.706258
11 -1 0 2 24.57 29.41 0.53 o 0.706208
11 -1 0 -2 23.34 27.94 0.50 o 0.706208
9 -3 3 -1 0.43 0.50 0.01 o 0.705909
9 -6 3 -1 0.58 0.68 0.01 o 0.705909
12 -2 5 -8 1.71 1.68 0.03 o 0.705751
4 -2 6 -16 6.71 6.83 0.11 o 0.705692
10 -6 1 2 19.05 21.48 0.39 o 0.705373
8 -3 5 -4 0.58 0.60 0.01 o 0.705123
7 -7 5 -4 1.03 1.07 0.02 o 0.705123
8 -6 2 -8 0.00 0.00 0.00 < 0.704849
12 -10 1 -1 34.20 35.07 0.71 o 0.704494
11 -9 2 -6 10.77 11.00 0.18 o 0.703795
10 -7 5 -5 0.00 0.00 0.00 < 0.703760
9 -4 1 -6 10.70 10.92 0.18 o 0.703716
4 -1 5 -3 0.65 0.61 0.01 o 0.703306
12 -3 6 -12 0.12 0.12 0.00 o 0.702560
12 -9 6 -12 0.22 0.22 0.00 o 0.702560
9 -7 4 -11 7.70 7.48 0.12 o 0.702044
12 -10 4 -6 1.75 1.79 0.03 o 0.701560
13 -6 4 -7 0.78 0.81 0.01 o 0.701313
10 -5 3 -9 0.00 0.00 0.00 < 0.701241
11 -8 4 -4 0.01 0.00 0.00 < 0.700914
6 -4 1 -7 0.40 0.41 0.01 o 0.700753
13 -6 1 -2 29.20 24.13 0.44 o 0.700663
12 -7 1 -4 0.34 0.29 0.01 o 0.700186
13 -7 5 -9 0.46 0.47 0.01 o 0.700085
9 -1 4 -3 0.64 0.55 0.01 o 0.700023
12 -4 4 -9 5.56 5.73 0.09 o 0.699684
11 0 5 -10 5.96 6.04 0.10 o 0.699602
13 -7 2 -3 2.03 1.70 0.03 o 0.699375
5 0 5 -14 0.16 0.16 0.00 o 0.699374
11 -9 5 -6 12.68 13.13 0.22 o 0.699269
12 -6 6 -8 2.30 2.38 0.04 o 0.698911
11 -1 3 -3 1.39 1.18 0.02 o 0.698724
11 -10 3 -3 0.19 0.16 0.00 o 0.698724
13 -7 2 -4 0.12 0.11 0.00 o 0.698476
7 -2 0 -5 56.62 53.90 0.91 o 0.698046
7 -2 0 5 4.81 4.58 0.08 o 0.698046
9 -9 6 -14 0.31 0.32 0.01 o 0.697987
9 0 6 -14 0.04 0.04 0.00 o 0.697987
12 -10 4 -8 0.04 0.04 0.00 o 0.697950
13 -7 5 -8 5.12 5.34 0.09 o 0.697460
0 0 0 6 6.66 6.81 0.11 o 0.697345
11 0 2 -2 22.09 17.53 0.31 o 0.697172
10 -3 1 2 42.57 33.36 0.60 o 0.697096
8 -6 5 -4 2.28 2.02 0.03 o 0.696854
8 -5 1 3 1.96 1.67 0.03 o 0.696633
5 -3 2 -9 0.13 0.14 0.00 o 0.696541
12 -3 3 -7 7.58 7.74 0.13 o 0.696449
12 -9 3 -7 0.11 0.11 0.00 o 0.696449
13 -6 1 -1 2.04 1.61 0.03 o 0.696246
7 -6 4 -2 12.58 10.16 0.18 o 0.696045
12 -5 5 -11 0.00 0.00 0.00 < 0.696028
13 -5 0 0 433.36 349.70 6.42 o 0.695938
9 -5 5 -13 0.38 0.38 0.01 o 0.695916
11 -4 3 -2 0.21 0.17 0.00 o 0.695646
11 -7 3 -2 4.45 3.70 0.06 o 0.695646
13 -8 3 -5 0.06 0.05 0.00 o 0.695624
13 -5 3 -5 5.96 5.69 0.10 o 0.695624
8 -8 1 -6 0.04 0.04 0.00 o 0.695495
10 -9 1 -5 2.14 2.00 0.03 o 0.695310
11 -5 1 -5 4.15 3.88 0.07 o 0.695310
13 -5 6 -10 2.02 2.08 0.03 o 0.694683
13 -8 6 -10 0.02 0.02 0.00 o 0.694683
11 -2 1 1 37.05 30.08 0.54 o 0.694489
7 -3 4 -12 2.68 2.73 0.04 o 0.694474
6 -3 6 -5 0.67 0.62 0.01 o 0.694338
12 -10 1 -3 41.40 35.75 0.62 o 0.693833
13 -6 4 -6 9.17 9.02 0.15 o 0.693414
4 -3 1 4 24.70 23.36 0.39 o 0.693119
10 0 4 -4 32.72 30.85 0.52 o 0.692790
6 -1 1 -7 4.53 4.48 0.07 o 0.692635
12 -4 1 -4 3.21 3.01 0.05 o 0.692087
13 -8 6 -11 0.99 1.03 0.02 o 0.692048
13 -5 6 -11 1.08 1.12 0.02 o 0.692048
12 -5 2 -1 0.35 0.31 0.01 o 0.691953
10 -6 4 -3 2.81 2.63 0.04 o 0.691930
12 -2 5 -10 0.00 0.00 0.00 < 0.691523
6 -2 5 -14 0.07 0.07 0.00 o 0.691303
8 -4 3 -10 0.01 0.00 0.00 < 0.690907
9 -3 6 -6 27.38 26.49 0.44 o 0.690885
9 -6 6 -6 9.48 9.17 0.15 o 0.690885
11 -1 6 -8 1.64 1.64 0.03 o 0.690856
11 -10 6 -8 2.49 2.48 0.04 o 0.690856
11 -8 4 -10 0.01 0.00 0.00 < 0.690275
5 0 2 2 6.81 6.53 0.11 o 0.690195
10 -8 6 -14 0.08 0.08 0.00 o 0.689964
10 -2 6 -14 1.12 1.13 0.02 o 0.689964
13 -6 4 -8 14.18 13.85 0.23 o 0.689927
12 -3 0 2 15.09 14.37 0.25 o 0.689880
12 -3 0 -2 4.42 4.21 0.07 o 0.689880
13 -8 3 -6 0.56 0.54 0.01 o 0.689567
13 -5 3 -6 3.33 3.20 0.05 o 0.689567
10 -1 5 -12 0.62 0.65 0.01 o 0.689505
11 -6 5 -12 0.14 0.15 0.00 o 0.689505
2 -1 0 6 45.43 43.69 0.73 o 0.689344
12 -2 2 -2 0.92 0.90 0.02 o 0.689177
3 -1 4 -1 2.85 2.83 0.05 o 0.689134
11 -11 1 0 465.48 464.97 8.50 o 0.688915
8 -2 1 3 2.24 2.20 0.04 o 0.688655
6 -6 3 0 78.84 80.84 1.40 o 0.688527
6 0 3 0 61.18 62.74 1.09 o 0.688527
9 -5 2 1 18.05 18.51 0.32 o 0.688516
12 -8 5 -11 0.03 0.03 0.00 o 0.688071
10 -5 0 4 2.69 2.65 0.04 o 0.687718
12 -5 2 -6 19.62 18.87 0.31 o 0.687630
9 -7 1 -6 24.16 23.19 0.39 o 0.687556
5 -3 5 -3 6.19 6.36 0.11 o 0.687174
12 -2 2 -5 1.62 1.59 0.03 o 0.686604
13 -5 0 -1 8.30 9.00 0.16 o 0.686507
13 -5 0 1 14.88 16.13 0.28 o 0.686507
9 -1 4 -11 4.47 4.44 0.07 o 0.685997
13 -6 1 -3 0.42 0.43 0.01 o 0.685951
12 -6 6 -13 0.27 0.27 0.00 o 0.685799
4 -2 3 -11 4.46 4.45 0.07 o 0.685773
12 -1 4 -7 0.09 0.08 0.00 o 0.685315
13 -9 4 -7 0.03 0.03 0.00 o 0.685315
4 0 1 4 0.35 0.34 0.01 o 0.685260
11 -2 4 -4 0.54 0.53 0.01 o 0.684942
12 -1 1 -2 1.80 1.93 0.03 o 0.684709
13 -9 1 -2 7.59 8.15 0.14 o 0.684709
1 0 7 -6 23.90 23.65 0.40 o 0.684618
11 -7 6 -7 1.30 1.27 0.02 o 0.684543
11 -4 6 -7 0.18 0.17 0.00 o 0.684543
12 -11 5 -9 0.53 0.51 0.01 o 0.684169
13 -4 5 -9 5.53 5.39 0.09 o 0.684169
12 -8 2 -1 4.07 4.39 0.07 o 0.684134
10 -3 4 -3 0.00 0.00 0.00 < 0.684111
12 -2 5 -7 5.63 5.52 0.09 o 0.684014
10 -1 2 0 157.24 170.05 2.89 o 0.683918
11 -6 2 0 352.59 381.34 6.46 o 0.683918
13 -7 5 -10 0.08 0.07 0.00 o 0.683718
13 -4 2 -3 30.58 32.24 0.54 o 0.683507
12 -11 2 -3 9.74 10.27 0.17 o 0.683507
6 -5 5 -14 0.06 0.06 0.00 o 0.683506
12 -5 5 -6 6.22 6.14 0.10 o 0.683408
8 -7 6 -15 2.02 2.02 0.03 o 0.683386
8 -1 6 -15 1.98 1.97 0.03 o 0.683386
12 -9 3 -3 0.14 0.15 0.00 o 0.682899
12 -3 3 -3 7.71 8.07 0.14 o 0.682899
13 -5 3 -4 0.02 0.02 0.00 o 0.682892
13 -8 3 -4 0.37 0.38 0.01 o 0.682892
13 -4 2 -4 1.54 1.59 0.03 o 0.682667
12 -11 2 -4 0.05 0.05 0.00 o 0.682667
10 0 4 -10 10.67 10.24 0.17 o 0.682512
6 -2 2 2 10.02 10.69 0.18 o 0.682434
12 -11 5 -8 0.26 0.25 0.00 o 0.681719
13 -4 5 -8 0.67 0.65 0.01 o 0.681719
5 -1 6 -16 6.62 6.44 0.11 o 0.681665
5 -4 6 -16 5.92 5.76 0.09 o 0.681665
13 -7 2 -2 1.47 1.58 0.03 o 0.681450
12 -10 1 0 273.96 298.44 5.14 o 0.681197
9 -5 2 -8 1.34 1.31 0.02 o 0.680906
7 -2 3 0 79.18 85.39 1.46 o 0.680822
7 -5 3 0 76.70 82.72 1.41 o 0.680822
13 -9 1 -1 3.07 3.33 0.06 o 0.680585
12 -1 1 -1 6.37 6.91 0.12 o 0.680585
8 -5 4 -2 6.41 6.82 0.12 o 0.680397
7 0 4 -2 5.06 5.39 0.09 o 0.680397
9 -2 5 -13 0.29 0.28 0.00 o 0.680277
12 -8 2 -6 13.64 14.31 0.24 o 0.679955
11 -8 1 -5 1.52 1.62 0.03 o 0.679711
13 -7 2 -5 0.61 0.65 0.01 o 0.678962
12 -7 1 1 7.35 7.73 0.13 o 0.678943
7 -6 4 -12 5.53 5.30 0.09 o 0.678930
13 -8 6 -9 0.01 0.00 0.00 < 0.678748
13 -5 6 -9 0.23 0.23 0.00 o 0.678748
10 -6 4 -11 2.35 2.25 0.04 o 0.678375
11 -10 6 -13 1.80 1.69 0.03 o 0.678184
11 -1 6 -13 0.11 0.10 0.00 o 0.678184
11 -6 2 -7 0.04 0.04 0.00 o 0.678094
10 -1 2 -7 1.34 1.37 0.02 o 0.678094
13 -9 4 -6 0.85 0.88 0.01 o 0.677939
12 -1 4 -6 0.66 0.68 0.01 o 0.677939
5 -2 1 4 0.93 1.01 0.02 o 0.677663
10 -2 3 -9 0.17 0.17 0.00 o 0.677651
10 -8 3 -9 0.32 0.31 0.01 o 0.677651
7 -3 1 -7 0.00 0.00 0.00 < 0.677211
2 -2 7 -6 12.90 13.97 0.23 o 0.677042
12 -6 3 -8 1.55 1.55 0.03 o 0.676885
13 -7 5 -7 2.79 2.80 0.05 o 0.676458
12 -8 5 -6 17.56 17.93 0.30 o 0.675871
12 -3 6 -8 0.11 0.11 0.00 o 0.675548
12 -9 6 -8 2.06 2.03 0.03 o 0.675548
12 -10 4 -5 3.90 4.08 0.07 o 0.675340
11 -2 4 -10 1.06 1.02 0.02 o 0.675004
6 -5 2 2 0.20 0.21 0.00 o 0.674930
8 -4 0 5 14.12 14.79 0.25 o 0.674766
12 -1 4 -8 0.14 0.14 0.00 o 0.674679
13 -9 4 -8 0.35 0.35 0.01 o 0.674679
10 -5 3 -1 6.36 6.93 0.13 o 0.674375
11 -3 5 -12 1.51 1.40 0.02 o 0.674284
3 0 0 -6 0.02 0.02 0.00 o 0.674134
3 0 0 6 2.95 3.02 0.05 o 0.674134
4 -3 4 -1 1.81 1.86 0.04 o 0.673938
13 -6 1 0 107.27 97.67 2.19 o 0.673733
9 -5 5 -4 6.19 6.56 0.11 o 0.673690
8 0 2 -8 0.33 0.33 0.01 o 0.673451
6 -2 2 -9 0.02 0.02 0.00 o 0.673406
9 -2 2 1 9.73 10.40 0.20 o 0.673360
8 -2 4 -2 0.07 0.07 0.00 o 0.672958
9 0 0 4 1.85 1.91 0.03 o 0.672613
9 0 0 -4 53.01 54.63 0.93 o 0.672613
11 -6 5 -5 1.65 1.68 0.03 o 0.672500
10 -1 5 -5 0.04 0.04 0.00 o 0.672500
9 -1 1 -6 15.11 15.39 0.26 o 0.672462
12 -4 1 1 3.13 3.49 0.07 o 0.671552
13 -8 6 -12 0.06 0.06 0.00 o 0.671453
13 -5 6 -12 0.08 0.08 0.00 o 0.671453
10 -3 4 -11 0.02 0.02 0.00 o 0.671002
13 -9 1 -3 5.23 5.29 0.10 o 0.670959
12 -1 1 -3 6.51 6.58 0.12 o 0.670959
13 -3 4 -7 1.51 1.50 0.02 o 0.670364
12 -7 4 -4 0.16 0.16 0.00 o 0.670015
13 -3 1 -2 10.05 10.54 0.20 o 0.669797
3 -1 7 -6 15.99 15.93 0.27 o 0.669712
2 -1 3 1 17.49 17.30 0.32 o 0.669618
11 -1 3 -8 0.58 0.57 0.01 o 0.669560
11 -10 3 -8 1.65 1.62 0.03 o 0.669560
11 -11 1 -4 8.21 7.86 0.14 o 0.669380
3 -1 4 -13 0.32 0.29 0.00 o 0.669329
13 -10 5 -9 0.21 0.20 0.00 o 0.669292
11 -3 2 0 218.23 250.04 4.76 o 0.669057
12 -10 4 -9 0.56 0.54 0.01 o 0.668941
13 -4 5 -10 0.32 0.31 0.01 o 0.668869
12 -11 5 -10 2.61 2.47 0.04 o 0.668869
13 -10 2 -3 10.28 9.73 0.17 o 0.668671
7 -4 5 -14 1.26 1.13 0.02 o 0.668670
9 -6 6 -15 2.69 2.42 0.04 o 0.668558
9 -3 6 -15 3.51 3.16 0.05 o 0.668558
8 -1 3 -10 1.11 1.05 0.02 o 0.668312
8 -7 3 -10 3.60 3.41 0.06 o 0.668312
13 -6 4 -5 1.01 0.99 0.02 o 0.668065
13 -10 2 -4 3.18 3.10 0.05 o 0.667885
12 -6 0 3 1.77 1.69 0.03 o 0.667753
11 -7 6 -14 0.00 0.00 0.00 < 0.667458
11 -4 6 -14 0.55 0.49 0.01 o 0.667458
10 -10 5 -12 0.46 0.42 0.01 o 0.667042
13 -10 5 -8 0.08 0.08 0.00 o 0.666997
6 -3 6 -16 5.92 5.33 0.09 o 0.666946
4 -2 0 6 47.33 45.18 0.75 o 0.666897
13 -4 2 -2 0.05 0.05 0.00 o 0.666745
12 -11 2 -2 3.06 2.96 0.05 o 0.666745
10 -9 1 2 8.51 8.21 0.15 o 0.666678
11 -5 1 2 6.22 6.00 0.11 o 0.666678
8 0 5 -4 0.54 0.52 0.01 o 0.666467
9 -4 1 3 9.42 9.24 0.15 o 0.666273
9 -2 2 -8 1.20 1.13 0.02 o 0.666235
6 -5 2 -9 0.51 0.48 0.01 o 0.666193
13 -5 3 -7 0.04 0.04 0.00 o 0.666112
13 -8 3 -7 3.42 3.20 0.05 o 0.666112
13 -3 1 -1 0.57 0.54 0.01 o 0.665935
9 -8 5 -13 0.00 0.00 0.00 < 0.665646
10 -2 0 4 10.00 9.66 0.16 o 0.665424
10 -2 0 -4 3.75 3.62 0.06 o 0.665424
10 -6 1 -6 55.40 51.80 0.86 o 0.665278
11 -2 1 -5 1.25 1.19 0.02 o 0.665116
6 -2 5 -3 0.71 0.70 0.01 o 0.664931
1 0 1 -8 1.49 1.38 0.02 o 0.664629
13 -4 2 -5 9.89 9.34 0.16 o 0.664415
12 -11 2 -5 6.68 6.31 0.11 o 0.664415
7 0 4 -12 5.36 4.89 0.08 o 0.664384
8 -5 4 -12 1.54 1.40 0.02 o 0.664384
7 -2 6 -5 0.00 0.00 0.00 < 0.664265
7 -5 6 -5 0.45 0.42 0.01 o 0.664265
12 -3 6 -13 0.36 0.33 0.01 o 0.663685
12 -9 6 -13 0.73 0.67 0.01 o 0.663685
5 -1 3 -11 1.61 1.46 0.02 o 0.663662
5 -4 3 -11 1.52 1.38 0.02 o 0.663662
11 -3 2 -7 4.52 4.07 0.07 o 0.663601
13 -3 4 -6 2.07 1.86 0.03 o 0.663456
5 -5 1 4 0.67 0.63 0.01 o 0.663197
12 -4 4 -4 4.11 3.85 0.06 o 0.662909
7 -6 1 -7 5.37 4.80 0.08 o 0.662773
12 -10 1 -4 4.42 4.19 0.07 o 0.662293
13 -4 5 -7 0.05 0.05 0.00 o 0.662067
12 -11 5 -7 0.01 0.00 0.00 < 0.662067
10 -10 2 0 197.09 188.71 3.19 o 0.661980
13 -6 4 -9 1.37 1.21 0.02 o 0.661868
10 -5 6 -6 12.89 11.50 0.19 o 0.661239
11 -1 0 -3 6.32 5.89 0.10 o 0.660717
11 -1 0 3 20.15 18.79 0.31 o 0.660717
12 -7 4 -10 0.58 0.52 0.01 o 0.660704
7 -4 2 2 28.50 26.54 0.44 o 0.660634
13 -3 4 -8 0.20 0.17 0.00 o 0.660400
13 -5 0 2 13.12 12.28 0.21 o 0.660358
13 -5 0 -2 5.20 4.87 0.08 o 0.660358
11 -9 5 -12 0.51 0.46 0.01 o 0.660029
5 -2 4 -1 2.43 2.27 0.04 o 0.659704
12 -1 1 0 288.22 278.31 4.71 o 0.659512
13 -9 1 0 222.30 214.66 3.63 o 0.659512
9 -2 5 -4 1.50 1.35 0.02 o 0.659471
8 -4 3 0 143.84 133.80 2.25 o 0.659171
9 -8 2 1 3.65 3.39 0.06 o 0.659162
12 -2 5 -11 1.94 1.73 0.03 o 0.658771
12 0 0 0 720.80 694.99 11.73 o 0.658695
10 -4 5 -13 1.40 1.27 0.02 o 0.658676
12 -6 3 -2 4.10 3.70 0.06 o 0.658447
11 0 2 -6 7.31 6.46 0.11 o 0.658384
11 -3 5 -5 0.00 0.00 0.00 < 0.658355
10 -3 1 -6 22.32 19.68 0.33 o 0.658319
6 -5 5 -3 6.07 5.40 0.09 o 0.657984
0 0 6 -4 1.54 1.37 0.02 o 0.657704
2 -2 1 -8 3.49 3.02 0.05 o 0.657690
12 0 6 -10 0.47 0.41 0.01 o 0.657630
12 -12 6 -10 3.19 2.81 0.05 o 0.657630
8 -2 4 -12 0.10 0.09 0.00 o 0.657453
13 -3 1 -3 0.04 0.04 0.00 o 0.656909
6 -4 1 4 2.93 2.54 0.04 o 0.656303
11 -4 3 -9 0.22 0.19 0.00 o 0.656292
11 -7 3 -9 0.36 0.31 0.01 o 0.656292
4 -3 7 -6 8.10 6.98 0.12 o 0.655739
12 -9 3 -8 8.09 7.00 0.12 o 0.655596
12 -3 3 -8 1.44 1.25 0.02 o 0.655596
13 -6 1 -4 7.71 6.70 0.11 o 0.655427
4 -3 4 -13 0.49 0.44 0.01 o 0.655380
12 -2 2 -1 16.16 14.37 0.24 o 0.655313
11 -5 4 -3 0.99 0.86 0.01 o 0.655293
10 -9 4 -3 0.27 0.23 0.00 o 0.655293
11 -9 2 0 193.52 168.95 2.87 o 0.655124
13 -10 5 -10 3.99 3.47 0.06 o 0.654948
7 -1 5 -14 0.16 0.15 0.00 o 0.654761
11 0 5 -6 22.38 19.19 0.32 o 0.654675
9 -3 3 -10 0.07 0.06 0.00 o 0.654424
9 -6 3 -10 2.77 2.41 0.04 o 0.654424
13 -5 3 -3 28.06 24.29 0.40 o 0.654227
13 -8 3 -3 0.05 0.04 0.00 o 0.654227
13 -9 4 -5 0.17 0.14 0.00 o 0.654192
12 -1 4 -5 0.42 0.35 0.01 o 0.654192
12 -4 4 -10 1.88 1.63 0.03 o 0.653887
8 -1 0 5 26.87 22.60 0.37 o 0.653671
8 -1 0 -5 5.54 4.66 0.08 o 0.653671
10 -2 3 -1 1.37 1.12 0.02 o 0.653315
10 -8 3 -1 1.65 1.35 0.02 o 0.653315
12 0 3 -6 0.06 0.05 0.00 o 0.653285
12 -12 3 -6 0.01 0.00 0.00 < 0.653285
13 -10 2 -2 5.65 4.75 0.08 o 0.652953
11 -8 1 2 6.87 5.54 0.09 o 0.652890
9 -7 1 3 0.06 0.05 0.00 o 0.652510
9 -8 2 -8 1.38 1.19 0.02 o 0.652474
7 -4 2 -9 0.01 0.00 0.00 < 0.652434
10 -4 2 1 2.26 1.72 0.03 o 0.652391
9 -4 4 -2 2.38 1.91 0.03 o 0.652027
13 -7 5 -11 0.02 0.01 0.00 o 0.652013
14 -7 0 0 396.58 298.12 5.39 o 0.651939
13 -2 0 0 350.77 263.68 4.77 o 0.651939
10 -7 5 -13 0.00 0.00 0.00 < 0.651921
11 -1 3 -2 0.04 0.03 0.00 o 0.651698
11 -10 3 -2 3.65 2.92 0.05 o 0.651698
14 -7 3 -5 3.90 3.30 0.05 o 0.651681
13 -2 3 -5 1.46 1.24 0.02 o 0.651681
13 -11 3 -5 8.99 7.62 0.13 o 0.651681
12 -2 2 -6 21.72 18.46 0.31 o 0.651637
12 -7 1 -5 0.34 0.28 0.00 o 0.651423
2 -1 6 -4 0.35 0.27 0.00 o 0.650978
3 -1 1 -8 0.61 0.53 0.01 o 0.650965
13 -2 6 -10 0.27 0.24 0.00 o 0.650907
14 -7 6 -10 1.75 1.53 0.03 o 0.650907
13 -11 6 -10 0.09 0.08 0.00 o 0.650907
13 -10 2 -5 4.02 3.42 0.06 o 0.650764
6 -3 3 -11 0.06 0.06 0.00 o 0.650056
11 -9 2 -7 3.84 3.28 0.05 o 0.649999
14 -8 4 -7 0.00 0.00 0.00 < 0.649666
6 -1 1 4 0.00 0.00 0.00 < 0.649619
8 -5 1 -7 1.76 1.50 0.02 o 0.649221
14 -8 1 -2 39.96 29.91 0.52 o 0.649150
4 0 7 -6 18.85 16.04 0.27 o 0.649072
12 -6 6 -7 1.37 1.17 0.02 o 0.649008
4 -2 3 1 33.84 25.30 0.43 o 0.648987
13 -2 6 -11 1.47 1.34 0.02 o 0.648738
14 -7 6 -11 0.12 0.11 0.00 o 0.648738
13 -11 6 -11 4.53 4.14 0.07 o 0.648738
14 -6 5 -9 1.48 1.28 0.02 o 0.648690
13 -7 2 -1 2.51 1.87 0.03 o 0.648660
13 -10 5 -7 0.07 0.06 0.00 o 0.648557
13 -9 4 -9 0.39 0.33 0.01 o 0.648370
12 -1 4 -9 3.66 3.15 0.05 o 0.648370
14 -6 2 -3 0.03 0.02 0.00 o 0.648125
12 -2 5 -6 28.33 24.24 0.40 o 0.648041
9 0 6 -6 13.66 11.71 0.19 o 0.647779
9 -9 6 -6 22.44 19.23 0.32 o 0.647779
13 -5 6 -8 0.09 0.07 0.00 o 0.647756
13 -8 6 -8 0.08 0.07 0.00 o 0.647756
12 -12 3 -4 0.90 0.71 0.01 o 0.647601
12 0 3 -4 0.12 0.09 0.00 o 0.647601
14 -6 2 -4 3.85 3.02 0.05 o 0.647409
12 -3 0 3 0.18 0.14 0.00 o 0.647288
12 -3 0 -3 2.23 1.71 0.03 o 0.647288
7 -1 2 2 0.02 0.01 0.00 o 0.647210
13 -11 3 -6 2.38 2.02 0.03 o 0.646692
14 -7 3 -6 3.96 3.36 0.06 o 0.646692
13 -2 3 -6 0.76 0.65 0.01 o 0.646692
12 -5 5 -12 0.48 0.45 0.01 o 0.646641
14 -6 5 -8 2.40 2.07 0.03 o 0.646600
6 0 6 -16 6.29 5.86 0.10 o 0.646554
6 -6 6 -16 8.21 7.65 0.13 o 0.646554
5 -1 0 6 32.02 27.44 0.45 o 0.646508
5 -1 0 -6 46.64 39.96 0.66 o 0.646508
10 0 1 2 9.72 7.35 0.13 o 0.646309
13 -3 1 0 191.80 141.67 2.59 o 0.646155
9 -8 5 -4 1.73 1.36 0.02 o 0.646117
10 -4 2 -8 7.43 6.41 0.11 o 0.645906
10 -7 2 1 1.65 1.25 0.02 o 0.645826
14 -8 1 -1 1.18 0.90 0.02 o 0.645632
8 -8 4 -2 0.81 0.63 0.01 o 0.645472
11 -4 0 4 0.51 0.40 0.01 o 0.645167
11 -4 0 -4 7.88 6.23 0.10 o 0.645167
13 -7 2 -6 3.85 3.08 0.05 o 0.645094
11 -9 5 -5 0.00 0.00 0.00 < 0.645067
12 -4 1 -5 34.11 27.00 0.45 o 0.644886
7 -4 5 -3 1.73 1.35 0.02 o 0.644718
12 -10 1 1 3.00 2.35 0.04 o 0.644230
14 -7 0 1 12.98 10.13 0.18 o 0.644166
13 -2 0 1 0.06 0.05 0.00 o 0.644166
13 -2 0 -1 7.60 5.93 0.10 o 0.644166
8 -4 6 -5 0.80 0.64 0.01 o 0.644110
10 -9 4 -11 0.00 0.00 0.00 < 0.643745
11 -5 4 -11 2.23 2.04 0.03 o 0.643745
14 -8 4 -6 0.02 0.01 0.00 o 0.643372
14 -5 4 -7 1.65 1.40 0.02 o 0.643182
11 -11 4 -4 0.01 0.00 0.00 < 0.642873
8 -2 1 -7 0.11 0.10 0.00 o 0.642749
14 -5 1 -2 5.81 4.72 0.08 o 0.642680
5 -2 7 -6 21.69 17.34 0.29 o 0.642605
11 -1 6 -7 0.49 0.43 0.01 o 0.642543
11 -10 6 -7 1.26 1.11 0.02 o 0.642543
13 -9 1 -4 3.81 3.03 0.05 o 0.642312
12 -1 1 -4 0.12 0.10 0.00 o 0.642312
5 -2 4 -13 0.45 0.42 0.01 o 0.642267
14 -9 5 -9 0.43 0.40 0.01 o 0.642234
11 -8 4 -3 0.55 0.44 0.01 o 0.642186
12 -5 2 0 249.34 205.11 3.56 o 0.642026
3 -2 5 -15 2.76 2.55 0.04 o 0.641970
14 -9 2 -3 4.40 3.56 0.06 o 0.641686
8 -3 5 -14 0.52 0.48 0.01 o 0.641685
7 -7 5 -14 0.14 0.13 0.00 o 0.641685
13 -7 5 -6 2.52 2.11 0.04 o 0.641604
10 -5 6 -15 3.97 3.68 0.06 o 0.641586
10 -2 6 -6 10.47 8.74 0.15 o 0.641350
10 -8 6 -6 10.56 8.81 0.15 o 0.641350
14 -7 3 -4 0.80 0.64 0.01 o 0.641177
13 -11 3 -4 3.40 2.73 0.05 o 0.641177
13 -2 3 -4 1.02 0.82 0.01 o 0.641177
13 -3 4 -5 0.73 0.59 0.01 o 0.641150
14 -9 2 -4 1.47 1.19 0.02 o 0.640991
9 -3 0 5 0.22 0.18 0.00 o 0.640659
9 -3 0 -5 2.26 1.83 0.03 o 0.640659
14 -8 4 -8 0.02 0.02 0.00 o 0.640584
12 -8 5 -12 2.30 2.12 0.03 o 0.640246
14 -9 5 -8 0.00 0.00 0.00 < 0.640206
7 -2 6 -16 3.95 3.63 0.06 o 0.640161
7 -5 6 -16 4.89 4.49 0.07 o 0.640161
6 -4 4 -1 0.57 0.48 0.01 o 0.639949
11 -2 1 2 0.10 0.09 0.00 o 0.639924
10 -4 5 -4 0.69 0.57 0.01 o 0.639737
9 -1 1 3 1.10 0.91 0.02 o 0.639565
10 -7 2 -8 0.08 0.07 0.00 o 0.639532
7 -1 2 -9 1.06 0.96 0.02 o 0.639494
8 -1 3 0 58.12 48.87 0.85 o 0.639463
8 -7 3 0 93.17 78.34 1.36 o 0.639463
14 -5 1 -1 0.08 0.07 0.00 o 0.639266
9 -7 4 -2 8.57 7.18 0.12 o 0.639110
13 -4 5 -11 3.36 3.11 0.05 o 0.639098
12 -11 5 -11 5.04 4.67 0.08 o 0.639098
12 -3 3 -2 15.63 13.09 0.22 o 0.638801
12 -9 3 -2 9.87 8.27 0.14 o 0.638801
3 -3 6 -4 2.17 1.83 0.03 o 0.638123
3 0 6 -4 0.35 0.30 0.01 o 0.638123
4 -3 1 -8 0.30 0.27 0.00 o 0.638111
13 -6 1 1 4.13 3.96 0.07 o 0.637906
9 -4 4 -12 0.15 0.14 0.00 o 0.637894
12 0 6 -12 0.01 0.00 0.00 < 0.637821
12 -12 6 -12 1.00 0.92 0.02 o 0.637821
13 -2 6 -9 0.02 0.02 0.00 o 0.637744
14 -7 6 -9 0.00 0.00 0.00 < 0.637744
13 -11 6 -9 0.04 0.04 0.00 o 0.637744
14 -8 1 -3 7.46 6.38 0.11 o 0.637397
13 -8 6 -13 2.38 2.18 0.04 o 0.637275
13 -5 6 -13 0.30 0.27 0.00 o 0.637275
12 -5 2 -7 0.19 0.18 0.00 o 0.637201
1 -1 2 -10 1.12 1.02 0.02 o 0.637089
14 -5 4 -6 2.05 1.91 0.03 o 0.637072
7 -3 1 4 8.50 7.90 0.13 o 0.636843
12 -10 4 -4 0.18 0.17 0.00 o 0.636588
12 -11 2 -1 5.05 4.76 0.09 o 0.635939
13 -4 2 -1 10.70 10.10 0.18 o 0.635939
12 -8 2 0 207.77 192.12 3.57 o 0.635766
13 -3 4 -9 0.42 0.39 0.01 o 0.635666
14 -6 5 -10 0.01 0.00 0.00 < 0.635605
8 -6 5 -14 0.02 0.02 0.00 o 0.635434
11 -11 4 -10 4.68 4.26 0.07 o 0.634635
8 -3 2 2 10.20 10.79 0.19 o 0.634573
7 -7 2 2 9.62 10.18 0.18 o 0.634573
12 -6 6 -14 0.09 0.08 0.00 o 0.634393
14 -5 4 -8 3.43 3.22 0.05 o 0.634365
11 -4 3 -1 1.20 1.20 0.02 o 0.634112
11 -7 3 -1 15.98 15.91 0.28 o 0.634112
6 -3 0 6 0.04 0.04 0.00 o 0.633911
14 -6 2 -2 6.22 6.74 0.12 o 0.633781
6 -1 4 -1 0.12 0.12 0.00 o 0.633748
3 -2 2 3 1.88 2.00 0.03 o 0.633558
10 -7 5 -4 5.23 5.43 0.09 o 0.633542
10 -6 1 3 2.68 3.09 0.05 o 0.633376
14 -4 0 0 243.42 226.64 4.34 o 0.632854
14 -4 3 -5 0.12 0.12 0.00 o 0.632617
14 -10 3 -5 0.46 0.47 0.01 o 0.632617
13 -4 2 -6 4.65 4.66 0.08 o 0.632578
12 -11 2 -6 8.82 8.84 0.15 o 0.632578
12 -5 5 -5 0.01 0.00 0.00 < 0.632552
11 -5 1 -6 1.03 1.03 0.02 o 0.632520
10 -9 1 -6 16.04 16.05 0.27 o 0.632520
7 -1 5 -3 5.67 6.62 0.11 o 0.632223
4 -2 6 -4 1.86 2.17 0.04 o 0.631974
4 0 1 -8 0.58 0.55 0.01 o 0.631963
14 -10 6 -10 1.85 1.68 0.03 o 0.631909
14 -4 6 -10 3.86 3.50 0.06 o 0.631909
14 -6 2 -5 0.40 0.44 0.01 o 0.631779
8 -8 4 -12 0.01 0.00 0.00 < 0.631752
13 -11 6 -12 0.25 0.22 0.00 o 0.631681
14 -7 6 -12 0.53 0.46 0.01 o 0.631681
13 -2 6 -12 1.24 1.08 0.02 o 0.631681
11 -8 4 -11 0.06 0.06 0.00 o 0.631305
14 -5 1 -3 0.21 0.25 0.00 o 0.631269
12 -8 2 -7 1.32 1.31 0.02 o 0.631079
2 0 2 -10 0.01 0.00 0.00 < 0.630970
13 -12 4 -7 2.42 2.38 0.04 o 0.630774
13 -6 4 -4 0.09 0.11 0.00 o 0.630484
13 -12 1 -2 16.80 20.19 0.34 o 0.630301
5 -5 7 -6 3.20 3.62 0.06 o 0.630230
12 -3 6 -7 3.13 3.06 0.05 o 0.630172
12 -9 6 -7 0.30 0.30 0.00 o 0.630172
5 -1 3 1 21.19 24.95 0.42 o 0.630152
5 -4 3 1 18.63 21.94 0.37 o 0.630152
13 -8 3 -8 0.42 0.41 0.01 o 0.630104
13 -5 3 -8 0.53 0.51 0.01 o 0.630104
13 -3 1 -4 2.40 2.79 0.05 o 0.629954
14 -4 6 -11 0.39 0.34 0.01 o 0.629924
14 -10 6 -11 0.78 0.68 0.01 o 0.629924
13 -1 5 -9 0.76 0.72 0.01 o 0.629880
11 -2 4 -3 1.70 1.97 0.03 o 0.629835
14 -6 5 -7 4.18 4.10 0.07 o 0.629759
4 -1 5 -15 2.41 2.21 0.04 o 0.629631
14 -9 5 -10 0.00 0.00 0.00 < 0.629528
13 -1 2 -3 0.04 0.05 0.00 o 0.629363
13 -4 5 -6 5.83 6.08 0.10 o 0.629286
12 -11 5 -6 7.40 7.70 0.13 o 0.629286
10 -5 3 -10 0.19 0.17 0.00 o 0.629063
13 -1 2 -4 6.08 6.99 0.12 o 0.628708
1 -1 5 -2 27.72 35.25 0.60 o 0.628637
12 -10 4 -10 0.66 0.61 0.01 o 0.628586
8 -6 2 2 1.53 1.84 0.03 o 0.628526
11 -1 6 -14 0.00 0.00 0.00 < 0.628351
11 -10 6 -14 0.19 0.17 0.00 o 0.628351
12 0 0 2 17.34 21.82 0.37 o 0.628288
12 0 0 -2 8.23 10.36 0.18 o 0.628288
14 -4 3 -6 6.16 6.90 0.12 o 0.628051
14 -10 3 -6 1.40 1.57 0.03 o 0.628051
13 -1 5 -8 0.15 0.15 0.00 o 0.627966
14 -9 2 -2 1.64 2.02 0.03 o 0.627756
12 -7 1 2 24.00 30.32 0.51 o 0.627700
14 -8 1 0 342.22 471.71 8.12 o 0.627559
10 -3 1 3 11.82 14.04 0.24 o 0.627362
8 -3 2 -9 1.16 1.08 0.02 o 0.627295
9 -6 3 0 187.80 246.55 4.20 o 0.627265
9 -3 3 0 219.97 288.79 4.92 o 0.627265
13 -11 3 -7 0.16 0.18 0.00 o 0.627228
14 -7 3 -7 1.65 1.80 0.03 o 0.627228
13 -2 3 -7 0.03 0.03 0.00 o 0.627228
13 -12 1 -1 0.81 1.08 0.02 o 0.627080
9 -1 4 -2 11.00 13.46 0.23 o 0.626933
13 -10 5 -11 1.34 1.22 0.02 o 0.626921
11 -6 5 -13 0.03 0.03 0.00 o 0.626839
10 -1 5 -13 0.28 0.26 0.00 o 0.626839
12 -8 5 -5 0.02 0.03 0.00 o 0.626562
5 -2 1 -8 3.18 3.06 0.05 o 0.625989
14 -9 2 -5 4.14 4.68 0.08 o 0.625810
13 -9 1 1 3.19 4.24 0.07 o 0.625795
12 -1 1 1 14.11 18.78 0.32 o 0.625795
9 -7 4 -12 1.00 0.93 0.02 o 0.625784
14 -4 0 1 30.47 40.46 0.69 o 0.625737
14 -4 0 -1 25.70 34.13 0.58 o 0.625737
8 -1 6 -5 0.66 0.74 0.01 o 0.625685
8 -7 6 -5 0.00 0.00 0.00 < 0.625685
7 -2 3 -11 1.02 0.95 0.02 o 0.625181
7 -5 3 -11 0.78 0.73 0.01 o 0.625181
3 -2 2 -10 0.19 0.18 0.00 o 0.625024
13 -12 4 -6 3.08 3.34 0.06 o 0.625009
7 -6 1 4 0.75 0.86 0.01 o 0.624792
12 -6 3 -9 0.02 0.02 0.00 o 0.624783
9 -4 1 -7 11.54 11.94 0.20 o 0.624438
2 -1 6 -17 0.92 0.85 0.01 o 0.624360
6 -4 7 -6 18.54 20.65 0.35 o 0.624305
6 -4 4 -13 0.56 0.53 0.01 o 0.623995
13 -10 2 -1 14.19 17.70 0.30 o 0.623938
14 -9 5 -7 0.13 0.13 0.00 o 0.623847
10 -8 6 -15 0.59 0.56 0.01 o 0.623371
10 -2 6 -15 1.80 1.70 0.03 o 0.623371
11 -4 6 -6 20.68 21.31 0.36 o 0.623154
11 -7 6 -6 9.26 9.54 0.16 o 0.623154
14 -10 3 -4 0.81 0.94 0.02 o 0.622995
14 -4 3 -4 0.03 0.03 0.00 o 0.622995
14 -8 4 -5 1.91 2.10 0.04 o 0.622970
2 0 5 -2 4.48 5.28 0.09 o 0.622757
13 -5 0 3 11.48 13.98 0.24 o 0.622717
13 -5 0 -3 0.87 1.05 0.02 o 0.622717
13 -6 4 -10 0.12 0.12 0.00 o 0.622707
13 -12 4 -8 2.01 1.97 0.03 o 0.622452
14 -7 0 2 14.15 16.48 0.29 o 0.622417
13 -2 0 2 1.80 2.10 0.04 o 0.622417
13 -2 0 -2 8.47 9.87 0.17 o 0.622417
11 0 5 -12 0.07 0.07 0.00 o 0.622141
8 -4 6 -16 3.92 3.69 0.06 o 0.622063
7 -3 4 -1 2.08 2.35 0.04 o 0.621869
12 -4 1 2 12.10 13.81 0.24 o 0.621845
14 -5 1 0 348.25 376.80 7.02 o 0.621708
4 -1 2 3 0.12 0.14 0.00 o 0.621689
8 -6 2 -9 1.23 1.24 0.02 o 0.621451
11 -6 2 1 2.19 2.37 0.04 o 0.621415
10 -1 2 1 0.77 0.83 0.01 o 0.621415
10 -6 4 -2 25.84 28.97 0.50 o 0.621099
13 -10 2 -6 2.44 2.46 0.04 o 0.620763
11 -8 1 -6 5.95 5.95 0.10 o 0.620709
12 -10 1 -5 19.13 20.97 0.35 o 0.620577
8 -3 5 -3 10.30 11.39 0.19 o 0.620427
14 -10 6 -9 0.03 0.03 0.00 o 0.619845
14 -4 6 -9 1.31 1.35 0.02 o 0.619845
11 -2 4 -11 1.15 1.20 0.02 o 0.619560
13 -12 1 -3 0.31 0.31 0.01 o 0.619526
14 -11 4 -7 0.05 0.05 0.00 o 0.619058
11 -10 3 -9 0.42 0.43 0.01 o 0.619009
11 -1 3 -9 0.42 0.43 0.01 o 0.619009
13 -9 4 -4 0.42 0.42 0.01 o 0.618783
12 -1 4 -4 1.10 1.08 0.02 o 0.618783
14 -11 1 -2 6.55 6.27 0.12 o 0.618611
6 -1 7 -6 11.13 10.97 0.19 o 0.618544
6 -3 3 1 3.64 3.47 0.06 o 0.618470
6 -1 4 -13 0.59 0.60 0.01 o 0.618243
14 -3 5 -9 0.08 0.08 0.00 o 0.618213
12 -7 4 -3 1.60 1.43 0.02 o 0.618170
11 0 2 0 308.72 279.10 5.43 o 0.618028
5 -3 5 -15 1.59 1.56 0.03 o 0.617978
14 -8 4 -9 0.08 0.09 0.00 o 0.617937
13 -1 5 -10 0.26 0.27 0.00 o 0.617880
14 -3 2 -3 4.89 4.29 0.08 o 0.617724
9 -5 5 -14 0.00 0.00 0.00 < 0.617723
13 -10 5 -6 5.61 5.75 0.10 o 0.617651
9 0 3 -10 0.29 0.30 0.01 o 0.617441
9 -9 3 -10 1.08 1.13 0.02 o 0.617441
12 -12 6 -8 1.95 2.02 0.03 o 0.617404
12 0 6 -8 4.33 4.49 0.07 o 0.617404
14 -7 3 -3 2.34 1.94 0.03 o 0.617275
13 -2 3 -3 0.35 0.29 0.01 o 0.617275
13 -11 3 -3 19.17 15.83 0.28 o 0.617275
14 -5 4 -5 0.20 0.20 0.00 o 0.617246
14 -3 2 -4 1.00 0.83 0.01 o 0.617104
3 -2 5 -2 7.99 6.92 0.13 o 0.617038
10 -5 0 5 15.61 14.53 0.25 o 0.616808
12 -3 6 -14 0.10 0.10 0.00 o 0.616767
12 -9 6 -14 1.97 2.00 0.03 o 0.616767
12 -2 5 -12 3.03 3.20 0.05 o 0.616439
14 -3 5 -8 1.15 1.21 0.02 o 0.616403
6 0 0 6 0.23 0.24 0.00 o 0.616324
6 0 0 -6 0.50 0.51 0.01 o 0.616324
13 -1 2 -2 0.01 0.00 0.00 < 0.616205
11 -6 2 -8 0.17 0.18 0.00 o 0.615802
10 -1 2 -8 0.10 0.11 0.00 o 0.615802
14 -11 1 -1 7.63 5.94 0.12 o 0.615565
10 -3 4 -2 5.06 3.78 0.07 o 0.615426
11 -3 5 -13 0.49 0.51 0.01 o 0.615337
12 -6 0 4 9.74 7.97 0.14 o 0.615162
13 -8 3 -2 7.04 5.20 0.09 o 0.615150
13 -5 3 -2 2.29 1.69 0.03 o 0.615150
10 0 1 -6 37.08 35.64 0.60 o 0.615046
13 -6 1 -5 0.86 0.75 0.01 o 0.614918
8 -6 5 -3 1.51 1.16 0.02 o 0.614772
5 -1 6 -4 1.01 0.79 0.01 o 0.614544
5 -4 6 -4 2.73 2.13 0.04 o 0.614544
5 -5 1 -8 1.23 1.34 0.02 o 0.614533
13 -1 2 -5 0.44 0.39 0.01 o 0.614364
13 -3 1 1 2.32 1.66 0.03 o 0.614350
9 -1 4 -12 0.10 0.11 0.00 o 0.614339
14 -10 6 -12 1.58 1.66 0.03 o 0.614274
14 -4 6 -12 0.23 0.24 0.00 o 0.614274
9 -3 6 -5 1.41 1.28 0.02 o 0.614245
9 -6 6 -5 0.03 0.03 0.00 o 0.614245
4 -1 2 -10 0.11 0.11 0.00 o 0.613620
14 -11 4 -6 0.02 0.02 0.00 o 0.613605
0 0 3 -12 0.17 0.18 0.00 o 0.613574
8 -5 1 4 9.60 8.58 0.15 o 0.613400
7 0 1 4 4.05 3.62 0.06 o 0.613400
9 -7 1 -7 0.01 0.01 0.00 o 0.613065
14 -8 1 -4 19.70 16.40 0.29 o 0.612685
12 -4 4 -3 19.47 16.22 0.28 o 0.612576
13 -1 5 -7 1.18 1.23 0.02 o 0.612506
12 -2 2 0 159.15 106.15 2.04 o 0.612437
14 -5 4 -9 0.68 0.74 0.01 o 0.612348
8 0 5 -14 0.38 0.40 0.01 o 0.612141
10 -8 3 -10 0.05 0.05 0.00 o 0.611866
10 -2 3 -10 2.06 2.20 0.04 o 0.611866
14 -7 6 -8 3.73 4.01 0.07 o 0.611831
13 -11 6 -8 0.00 0.00 0.00 < 0.611831
13 -2 6 -8 0.46 0.49 0.01 o 0.611831
12 -1 4 -10 0.42 0.45 0.01 o 0.611427
13 -9 4 -10 2.90 3.09 0.05 o 0.611427
9 -5 2 2 30.09 24.07 0.43 o 0.611371
14 -11 4 -8 3.16 3.28 0.05 o 0.611185
13 -7 5 -12 0.01 0.00 0.00 < 0.610891
7 -2 0 -6 27.76 27.64 0.46 o 0.610779
7 -2 0 6 23.69 23.58 0.40 o 0.610779
7 -6 4 -1 0.23 0.18 0.00 o 0.610633
13 -12 1 0 125.09 87.79 1.68 o 0.610481
5 -3 2 3 0.62 0.56 0.01 o 0.610463
10 -1 5 -4 9.03 8.16 0.14 o 0.610449
11 -6 5 -4 0.57 0.51 0.01 o 0.610449
11 -3 2 1 14.61 11.51 0.21 o 0.610203
14 -4 3 -7 0.03 0.03 0.00 o 0.610177
14 -10 3 -7 0.08 0.08 0.00 o 0.610177
14 -6 5 -11 0.09 0.09 0.00 o 0.609894
11 -1 0 4 4.57 4.09 0.07 o 0.609648
11 -1 0 -4 5.70 5.10 0.09 o 0.609648
11 -2 1 -6 0.73 0.72 0.01 o 0.609535
6 -4 1 -8 1.48 1.48 0.02 o 0.609036
3 -1 1 5 1.08 1.08 0.02 o 0.608931
10 -6 4 -12 1.60 1.71 0.03 o 0.608847
12 -7 4 -11 0.02 0.02 0.00 o 0.608447
14 -11 1 -3 2.46 2.24 0.04 o 0.608415
8 -4 3 -11 0.37 0.40 0.01 o 0.608291
12 -2 2 -7 6.53 6.48 0.11 o 0.608245
4 -4 2 -10 0.78 0.81 0.01 o 0.608147
2 -1 3 -12 2.89 3.07 0.05 o 0.608102
15 -7 4 -7 0.65 0.64 0.01 o 0.607972
8 -2 1 4 0.06 0.06 0.00 o 0.607933
12 -9 3 -9 0.08 0.08 0.00 o 0.607925
12 -3 3 -9 0.42 0.42 0.01 o 0.607925
13 -3 4 -4 0.71 0.69 0.01 o 0.607711
13 0 1 -2 20.41 18.71 0.32 o 0.607548
15 -7 1 -2 0.75 0.69 0.01 o 0.607548
4 -2 6 -17 0.20 0.19 0.00 o 0.607535
7 -3 7 -6 30.12 30.06 0.51 o 0.607485
13 -5 6 -7 0.92 0.92 0.02 o 0.607432
13 -8 6 -7 2.01 1.99 0.03 o 0.607432
14 -5 1 -4 3.42 3.32 0.06 o 0.607237
7 -3 4 -13 0.34 0.36 0.01 o 0.607199
15 -8 5 -9 0.00 0.00 0.00 < 0.607171
14 -6 2 -1 0.69 0.64 0.01 o 0.607146
13 -7 2 0 297.97 283.86 4.99 o 0.606996
14 -3 5 -10 4.73 4.77 0.08 o 0.606856
15 -8 2 -3 4.42 4.29 0.07 o 0.606708
9 -2 5 -14 0.21 0.22 0.00 o 0.606707
11 -4 6 -15 2.08 2.12 0.03 o 0.606624
11 -7 6 -15 2.76 2.80 0.05 o 0.606624
13 -12 4 -5 0.02 0.02 0.00 o 0.606255
15 -8 2 -4 6.00 6.07 0.10 o 0.606120
13 -13 2 -4 0.19 0.20 0.00 o 0.606120
4 -1 5 -2 0.60 0.60 0.01 o 0.606058
8 0 2 2 4.92 4.82 0.08 o 0.605958
14 -4 0 -2 8.32 8.71 0.15 o 0.605745
14 -4 0 2 17.93 18.75 0.33 o 0.605745
12 -6 3 -1 0.01 0.00 0.00 < 0.605556
15 -8 5 -8 0.06 0.06 0.00 o 0.605456
13 -13 5 -8 3.34 3.31 0.06 o 0.605456
8 -1 6 -16 4.69 4.57 0.08 o 0.605419
8 -7 6 -16 5.59 5.46 0.09 o 0.605419
14 -3 2 -2 2.09 2.14 0.04 o 0.605268
11 -11 1 2 0.82 0.89 0.02 o 0.605218
10 -9 1 3 13.64 14.09 0.24 o 0.604915
11 -5 1 3 2.79 2.88 0.05 o 0.604915
11 -3 2 -8 1.91 1.89 0.03 o 0.604887
9 -5 2 -9 0.48 0.48 0.01 o 0.604855
10 -5 3 0 118.00 141.13 2.45 o 0.604828
15 -7 1 -1 10.68 13.54 0.24 o 0.604662
14 -9 5 -11 6.76 6.78 0.11 o 0.604519
15 -6 0 0 325.87 425.36 7.54 o 0.604460
11 -9 5 -13 3.15 3.23 0.05 o 0.604446
15 -9 3 -5 0.42 0.42 0.01 o 0.604254
15 -6 3 -5 0.01 0.00 0.00 < 0.604254
14 -6 2 -6 0.51 0.51 0.01 o 0.604220
12 -2 5 -5 2.33 2.33 0.04 o 0.604197
13 -9 1 -5 3.39 3.41 0.06 o 0.604048
12 -1 1 -5 2.07 2.09 0.03 o 0.604048
1 0 4 0 145.30 186.48 3.19 o 0.603936
6 -3 6 -4 0.50 0.53 0.01 o 0.603694
6 -1 1 -8 1.86 1.85 0.03 o 0.603683
15 -9 6 -10 1.37 1.37 0.02 o 0.603637
15 -6 6 -10 0.97 0.97 0.02 o 0.603637
14 -3 2 -5 4.53 4.56 0.08 o 0.603523
10 -3 4 -12 7.50 7.46 0.12 o 0.603500
12 -4 4 -11 4.59 4.59 0.08 o 0.603110
13 -2 6 -13 0.13 0.13 0.00 o 0.602976
14 -7 6 -13 0.03 0.03 0.00 o 0.602976
13 -11 6 -13 0.12 0.12 0.00 o 0.602976
13 -7 2 -7 0.44 0.44 0.01 o 0.602913
5 -3 2 -10 0.10 0.10 0.00 o 0.602818
13 0 4 -6 16.13 16.13 0.27 o 0.602804
15 -7 4 -6 1.50 1.49 0.02 o 0.602804
14 -2 4 -7 0.34 0.34 0.01 o 0.602647
9 -1 1 -7 1.57 1.57 0.03 o 0.602292
14 -2 1 -2 4.70 6.46 0.11 o 0.602235
12 0 3 -8 0.25 0.25 0.00 o 0.602062
12 -12 3 -8 0.44 0.44 0.01 o 0.602062
15 -9 6 -11 2.55 2.50 0.04 o 0.601906
15 -6 6 -11 0.60 0.59 0.01 o 0.601906
14 -12 5 -9 2.59 2.57 0.04 o 0.601868
14 -9 2 -1 0.03 0.04 0.00 o 0.601843
14 -3 5 -7 1.09 1.09 0.02 o 0.601762
6 -2 5 -15 2.23 2.17 0.04 o 0.601650
13 -12 4 -9 2.52 2.49 0.04 o 0.601612
14 -12 2 -3 0.70 0.82 0.01 o 0.601416
14 -6 5 -6 1.46 1.47 0.02 o 0.601349
14 -4 3 -3 0.44 0.51 0.01 o 0.601002
14 -10 3 -3 0.42 0.49 0.01 o 0.601002
14 -12 2 -4 0.39 0.45 0.01 o 0.600844
4 -4 5 -2 7.40 9.56 0.16 o 0.600783
13 -3 4 -10 6.34 6.27 0.10 o 0.600738
9 -2 2 2 16.03 19.14 0.32 o 0.600685
10 -2 0 -5 2.49 2.64 0.04 o 0.600570
10 -2 0 5 3.77 4.00 0.07 o 0.600570
13 0 4 -8 9.57 9.56 0.16 o 0.600509
15 -7 4 -8 0.56 0.56 0.01 o 0.600509
11 -1 3 -1 8.36 10.19 0.17 o 0.600294
11 -10 3 -1 1.11 1.35 0.02 o 0.600294
15 -9 3 -6 0.74 0.75 0.01 o 0.600271
15 -6 3 -6 1.83 1.86 0.03 o 0.600271
12 -11 5 -12 1.72 1.60 0.03 o 0.600230
13 -4 5 -12 0.08 0.08 0.00 o 0.600230
14 -12 5 -8 0.37 0.37 0.01 o 0.600197
8 -5 4 -1 2.05 2.45 0.04 o 0.599986
12 -10 1 2 6.51 7.75 0.13 o 0.599965
14 -11 1 0 360.74 524.92 9.34 o 0.599841
11 -3 5 -4 0.71 0.82 0.01 o 0.599811
10 -10 2 -8 12.07 12.14 0.20 o 0.599642
11 -9 2 1 15.05 17.85 0.31 o 0.599578
14 -2 1 -1 4.04 5.02 0.09 o 0.599423
12 -3 0 4 7.95 9.29 0.16 o 0.599051
12 -3 0 -4 4.32 5.05 0.08 o 0.599051
14 -9 2 -6 10.06 10.90 0.18 o 0.598992
13 -7 5 -5 0.93 1.01 0.02 o 0.598971
12 -7 1 -6 13.00 14.04 0.23 o 0.598944
2 -2 4 0 59.67 68.09 1.17 o 0.598716
9 -5 5 -3 0.67 0.78 0.01 o 0.598691
4 -3 1 5 0.41 0.45 0.01 o 0.598370
14 -8 1 1 0.10 0.12 0.00 o 0.598301
15 -6 0 1 0.30 0.34 0.01 o 0.598249
15 -6 0 -1 2.17 2.51 0.04 o 0.598249
15 -7 1 -3 2.12 2.42 0.04 o 0.597881
14 -2 4 -6 2.43 2.63 0.04 o 0.597613
3 0 3 -12 1.19 1.08 0.02 o 0.597584
3 -3 3 -12 0.33 0.30 0.00 o 0.597584
15 -10 4 -7 3.83 3.94 0.07 o 0.597460
10 -6 1 -7 0.25 0.26 0.00 o 0.597114
15 -10 1 -2 4.04 4.52 0.08 o 0.597058
7 -6 7 -6 5.99 6.77 0.11 o 0.596998
7 -5 3 1 13.63 15.25 0.26 o 0.596932
7 -2 3 1 7.80 8.72 0.15 o 0.596932
13 -2 3 -8 1.66 1.68 0.03 o 0.596890
14 -7 3 -8 3.76 3.79 0.06 o 0.596890
13 -11 3 -8 0.04 0.04 0.00 o 0.596890
13 -12 1 -4 5.00 5.62 0.09 o 0.596763
7 -6 4 -13 1.64 1.51 0.02 o 0.596727
15 -5 5 -9 0.03 0.03 0.00 o 0.596701
13 -4 2 0 173.33 188.58 3.26 o 0.596534
12 -11 2 0 240.59 261.76 4.52 o 0.596534
6 -5 5 -15 3.44 3.27 0.05 o 0.596489
15 -8 5 -10 5.20 4.76 0.08 o 0.596401
13 -13 5 -10 0.35 0.32 0.01 o 0.596401
15 -5 2 -3 4.38 4.87 0.08 o 0.596261
9 -8 5 -14 0.00 0.00 0.00 < 0.596260
14 -9 5 -6 8.64 9.49 0.16 o 0.596195
11 -4 3 -10 3.82 3.51 0.06 o 0.596006
11 -7 3 -10 0.65 0.59 0.01 o 0.596006
12 -6 6 -6 22.16 24.45 0.41 o 0.595991
14 -4 6 -8 2.42 2.30 0.04 o 0.595973
14 -10 6 -8 0.19 0.18 0.00 o 0.595973
15 -6 3 -4 1.77 1.97 0.03 o 0.595852
15 -9 3 -4 8.47 9.43 0.16 o 0.595852
14 -11 4 -5 0.27 0.30 0.00 o 0.595831
15 -5 2 -4 0.00 0.00 0.00 < 0.595703
5 -3 5 -2 4.87 5.29 0.09 o 0.595644
13 -8 6 -14 0.40 0.37 0.01 o 0.595400
13 -5 6 -14 0.22 0.20 0.00 o 0.595400
14 -2 4 -8 0.77 0.76 0.01 o 0.595376
15 -5 5 -8 6.65 6.35 0.11 o 0.595073
9 -3 6 -16 5.72 5.45 0.09 o 0.595037
9 -6 6 -16 4.13 3.94 0.07 o 0.595037
8 -4 0 6 20.21 22.08 0.37 o 0.595001
13 -13 2 -2 6.05 6.52 0.11 o 0.594894
15 -8 2 -2 12.84 13.84 0.23 o 0.594894
8 -2 4 -1 0.05 0.05 0.00 o 0.594867
13 -6 1 2 32.70 34.55 0.59 o 0.594846
6 -2 2 3 0.63 0.69 0.01 o 0.594709
10 -10 5 -4 0.21 0.23 0.00 o 0.594696
11 -8 1 3 0.18 0.19 0.00 o 0.594558
11 -9 2 -8 0.27 0.28 0.00 o 0.594532
9 -2 2 -9 0.40 0.37 0.01 o 0.594501
9 0 3 0 153.12 157.53 2.73 o 0.594476
9 -9 3 0 214.93 221.12 3.82 o 0.594476
15 -10 1 -1 15.83 15.67 0.27 o 0.594318
10 -9 4 -2 0.15 0.16 0.00 o 0.594193
11 -5 4 -2 16.38 17.54 0.30 o 0.594193
13 -1 5 -11 0.03 0.03 0.00 o 0.594183
12 -5 5 -13 0.01 0.00 0.00 < 0.594113
12 -4 1 -6 2.11 2.26 0.04 o 0.593851
13 -3 1 -5 0.12 0.13 0.00 o 0.593736
3 -1 4 0 17.66 17.96 0.31 o 0.593629
7 -3 1 -8 0.91 0.88 0.01 o 0.593389
15 -8 2 -5 0.48 0.52 0.01 o 0.593237
14 -5 1 1 0.08 0.08 0.00 o 0.593224
10 -5 6 -5 0.13 0.13 0.00 o 0.593130
15 -6 6 -9 0.10 0.09 0.00 o 0.593094
15 -9 6 -9 0.01 0.00 0.00 < 0.593094
14 -2 1 -3 19.57 19.98 0.34 o 0.592815
8 -1 3 -11 0.66 0.62 0.01 o 0.592701
8 -7 3 -11 1.27 1.19 0.02 o 0.592701
2 -1 0 7 6.72 6.51 0.11 o 0.592663
13 -4 2 -7 0.12 0.12 0.00 o 0.592658
12 -11 2 -7 0.41 0.40 0.01 o 0.592658
5 0 2 -10 0.00 0.00 0.00 < 0.592567
15 -10 4 -6 0.78 0.77 0.01 o 0.592554
4 -2 3 -12 1.85 1.75 0.03 o 0.592526
9 -4 1 4 3.29 3.46 0.06 o 0.592369
14 -8 4 -4 2.26 2.35 0.04 o 0.592164
10 -3 1 -7 0.00 0.00 0.00 < 0.592067
5 -1 6 -17 0.68 0.65 0.01 o 0.592001
5 -4 6 -17 0.55 0.52 0.01 o 0.592001
13 -1 2 -1 1.43 1.40 0.02 o 0.591641
12 -10 4 -3 4.27 4.37 0.07 o 0.591627
15 -8 5 -7 0.50 0.48 0.01 o 0.591564
14 -11 4 -9 0.23 0.23 0.00 o 0.591422
14 -12 5 -10 0.02 0.02 0.00 o 0.591372
10 -4 5 -14 0.04 0.04 0.00 o 0.591235
11 -1 6 -6 0.08 0.07 0.00 o 0.590973
11 -10 6 -6 11.97 11.10 0.19 o 0.590973
14 -7 0 3 3.93 3.89 0.07 o 0.590600
13 -2 0 3 1.13 1.12 0.02 o 0.590600
13 -2 0 -3 10.13 10.02 0.17 o 0.590600
9 -8 2 2 6.80 6.73 0.12 o 0.590541
15 -10 4 -8 0.12 0.11 0.00 o 0.590373
12 -3 3 -1 1.15 1.17 0.02 o 0.590170
12 -9 3 -1 0.00 0.00 0.00 < 0.590170
13 -10 5 -12 1.79 1.73 0.03 o 0.590109
14 -12 2 -2 4.95 4.97 0.09 o 0.589903
13 0 1 0 101.48 102.72 1.90 o 0.589739
15 -7 1 0 230.93 233.77 4.31 o 0.589739
6 -5 2 3 0.43 0.40 0.01 o 0.589723
11 -9 5 -4 0.16 0.15 0.00 o 0.589710
10 -2 3 0 149.38 152.67 2.68 o 0.589495
10 -8 3 0 132.04 134.95 2.37 o 0.589495
12 -5 2 1 6.13 6.26 0.11 o 0.589489
12 -8 5 -13 0.49 0.47 0.01 o 0.589141
12 0 3 -2 6.20 6.08 0.10 o 0.588977
12 -12 3 -2 4.87 4.77 0.08 o 0.588977
13 -1 2 -6 4.88 4.33 0.07 o 0.588932
13 -4 5 -5 0.26 0.23 0.00 o 0.588912
12 -11 5 -5 1.28 1.13 0.02 o 0.588912
9 -2 5 -3 3.18 2.92 0.05 o 0.588646
6 0 6 -4 0.98 0.87 0.01 o 0.588445
6 -6 6 -4 2.66 2.35 0.04 o 0.588445
5 -2 1 5 0.68 0.60 0.01 o 0.588341
1 0 4 -14 0.05 0.04 0.00 o 0.588314
14 -12 2 -5 0.27 0.23 0.00 o 0.588287
15 -9 6 -12 0.25 0.25 0.00 o 0.588208
15 -6 6 -12 0.09 0.09 0.00 o 0.588208
15 -10 1 -3 4.48 4.10 0.07 o 0.587876
14 -10 6 -13 0.05 0.05 0.00 o 0.587780
14 -4 6 -13 0.01 0.00 0.00 < 0.587780
6 -2 2 -10 0.65 0.65 0.01 o 0.587634
15 -4 4 -7 9.40 8.69 0.14 o 0.587476
8 -8 1 4 6.30 5.24 0.09 o 0.587441
13 -5 3 -9 0.01 0.00 0.00 < 0.587434
13 -8 3 -9 1.18 1.13 0.02 o 0.587434
14 -5 4 -4 0.21 0.18 0.00 o 0.587241
15 -4 1 -2 1.49 1.39 0.02 o 0.587094
8 -5 7 -6 24.95 21.27 0.36 o 0.587036
7 0 7 -6 1.42 1.21 0.02 o 0.587036
14 -11 1 -4 1.07 0.88 0.02 o 0.586813
8 -5 4 -13 0.54 0.53 0.01 o 0.586779
15 -11 5 -9 0.70 0.68 0.01 o 0.586754
13 -6 4 -3 2.20 1.81 0.03 o 0.586717
14 -12 5 -7 3.75 3.51 0.06 o 0.586656
13 -10 2 0 176.43 168.84 2.96 o 0.586595
7 -4 5 -15 2.71 2.58 0.04 o 0.586552
15 -5 5 -10 0.47 0.46 0.01 o 0.586469
15 -11 2 -3 0.03 0.02 0.00 o 0.586335
10 -7 5 -14 0.65 0.63 0.01 o 0.586335
13 -1 5 -6 1.71 1.52 0.03 o 0.586273
15 -7 4 -5 0.01 0.00 0.00 < 0.585926
15 -11 2 -4 0.04 0.03 0.00 o 0.585805
5 0 5 -2 0.27 0.22 0.00 o 0.585748
14 -8 4 -10 2.56 2.48 0.04 o 0.585707
10 -4 2 2 4.54 3.68 0.06 o 0.585658
11 -4 0 5 0.29 0.24 0.00 o 0.585551
11 -4 0 -5 16.69 13.84 0.24 o 0.585551
15 -11 5 -8 1.73 1.65 0.03 o 0.585205
15 -5 2 -2 0.00 0.00 0.00 < 0.585035
13 -9 1 2 16.09 12.77 0.22 o 0.584990
12 -1 1 2 7.52 5.97 0.10 o 0.584990
14 -2 1 0 254.21 221.92 4.03 o 0.584876
11 -2 1 3 4.53 3.57 0.06 o 0.584716
12 -5 2 -8 5.05 4.67 0.08 o 0.584691
9 -8 2 -9 0.00 0.00 0.00 < 0.584662
12 -8 2 1 5.92 4.57 0.08 o 0.584631
15 -9 3 -7 0.00 0.00 0.00 < 0.584608
15 -6 3 -7 0.87 0.78 0.01 o 0.584608
15 -4 1 -1 20.82 16.29 0.29 o 0.584488
11 -8 4 -2 13.53 10.53 0.18 o 0.584369
14 -3 5 -11 1.30 1.25 0.02 o 0.584359
14 -1 0 0 247.05 198.47 3.62 o 0.584306
14 -7 3 -2 8.14 6.28 0.11 o 0.584132
13 -2 3 -2 7.53 5.81 0.10 o 0.584132
13 -11 3 -2 0.06 0.04 0.00 o 0.584132
14 -13 3 -5 1.90 1.61 0.03 o 0.584120
14 -1 3 -5 5.34 4.54 0.08 o 0.584120
4 -3 4 0 23.15 16.96 0.30 o 0.583832
7 -2 6 -4 0.66 0.52 0.01 o 0.583613
7 -5 6 -4 0.01 0.00 0.00 < 0.583613
7 -6 1 -8 0.72 0.66 0.01 o 0.583604
14 -1 6 -10 1.99 1.91 0.03 o 0.583562
14 -13 6 -10 0.00 0.00 0.00 < 0.583562
2 -2 4 -14 0.14 0.14 0.00 o 0.583486
15 -5 2 -5 0.02 0.00 0.00 < 0.583459
13 -12 1 1 4.30 3.15 0.06 o 0.583447
11 -5 4 -12 0.00 0.00 0.00 < 0.583438
10 -9 4 -12 1.26 1.23 0.02 o 0.583438
12 -10 4 -11 7.21 6.92 0.11 o 0.583086
9 -3 3 -11 0.02 0.02 0.00 o 0.582949
9 -6 3 -11 0.00 0.00 0.00 < 0.582949
13 -10 2 -7 0.42 0.38 0.01 o 0.582908
6 -5 2 -10 0.07 0.06 0.00 o 0.582822
15 -4 4 -6 1.71 1.54 0.03 o 0.582809
0 0 3 2 40.13 31.58 0.55 o 0.582673
9 -7 1 4 0.42 0.35 0.01 o 0.582634
6 -3 6 -17 0.29 0.28 0.00 o 0.582284
8 -2 7 -6 4.77 4.20 0.07 o 0.582239
8 -4 3 1 16.81 12.16 0.22 o 0.582177
14 -10 3 -8 0.47 0.42 0.01 o 0.582139
14 -4 3 -8 4.61 4.18 0.07 o 0.582139
14 -1 6 -11 0.01 0.00 0.00 < 0.581998
14 -13 6 -11 0.47 0.45 0.01 o 0.581998
8 -2 4 -13 1.14 1.12 0.02 o 0.581988
14 -3 2 -1 0.15 0.11 0.00 o 0.581941
15 -5 5 -7 0.19 0.17 0.00 o 0.581867
15 -7 4 -9 0.02 0.02 0.00 o 0.581732
12 -6 6 -15 4.26 4.24 0.07 o 0.581481
12 -3 6 -6 5.96 5.36 0.09 o 0.581305
12 -9 6 -6 5.70 5.13 0.09 o 0.581305
14 -2 4 -5 5.39 4.80 0.08 o 0.581156
6 -2 5 -2 6.53 4.63 0.08 o 0.580982
14 -5 4 -10 0.03 0.02 0.00 o 0.580942
10 -7 2 2 18.32 13.72 0.24 o 0.580894
15 -4 4 -8 4.70 4.25 0.07 o 0.580734
15 -6 0 2 8.93 5.92 0.11 o 0.580706
15 -6 0 -2 1.05 0.70 0.01 o 0.580706
14 -13 3 -6 2.58 2.31 0.04 o 0.580519
14 -1 3 -6 8.25 7.39 0.12 o 0.580519
8 -1 0 6 32.00 28.68 0.48 o 0.580386
8 -1 0 -6 11.77 10.54 0.18 o 0.580386
9 -4 4 -1 1.38 0.95 0.02 o 0.580261
15 -10 1 0 263.81 131.15 2.98 o 0.580131
7 -4 2 3 2.51 2.09 0.04 o 0.580115
12 -5 5 -4 1.32 1.13 0.02 o 0.580103
12 -8 2 -8 3.32 2.98 0.05 o 0.579950
10 -4 2 -9 0.03 0.02 0.00 o 0.579922
10 0 4 -2 22.85 17.84 0.31 o 0.579636
13 -5 0 4 6.66 5.57 0.10 o 0.579415
13 -5 0 -4 3.30 2.76 0.05 o 0.579415
14 -3 2 -6 0.75 0.67 0.01 o 0.579362
13 -10 5 -5 0.95 0.84 0.01 o 0.579343
11 -11 1 -6 2.16 1.91 0.03 o 0.579318
14 -8 1 -5 6.66 5.75 0.10 o 0.579211
4 0 4 0 16.26 11.13 0.21 o 0.579112
9 -8 5 -3 0.60 0.50 0.01 o 0.579090
3 -1 7 -5 0.30 0.25 0.00 o 0.579062
3 -1 4 -14 0.21 0.21 0.00 o 0.578774
14 -1 0 -1 2.60 1.61 0.03 o 0.578690
14 -1 0 1 6.40 3.95 0.09 o 0.578690
10 -8 6 -5 0.04 0.04 0.00 o 0.578649
10 -2 6 -5 0.07 0.06 0.00 o 0.578649
13 -6 4 -11 0.15 0.13 0.00 o 0.578384
15 -4 1 -3 1.33 1.02 0.02 o 0.578357
4 -2 0 7 8.93 7.96 0.13 o 0.578215
5 -1 3 -12 1.45 1.35 0.02 o 0.578088
5 -4 3 -12 1.59 1.48 0.02 o 0.578088
2 -1 3 2 15.33 12.74 0.22 o 0.577981
13 -12 4 -4 0.03 0.03 0.00 o 0.577752
14 -7 6 -7 0.06 0.05 0.00 o 0.577512
13 -2 6 -7 0.00 0.00 0.00 < 0.577512
13 -11 6 -7 0.79 0.70 0.01 o 0.577512
13 0 1 -4 0.45 0.37 0.01 o 0.577344
15 -7 1 -4 0.42 0.35 0.01 o 0.577344
13 -9 4 -3 0.06 0.05 0.00 o 0.577253
12 -1 4 -3 0.21 0.18 0.00 o 0.577253
7 -1 5 -15 2.69 2.59 0.04 o 0.577096
14 -2 4 -9 1.32 1.18 0.02 o 0.577063
15 -11 5 -10 0.19 0.17 0.00 o 0.577017
14 -3 5 -6 2.60 2.25 0.04 o 0.576830
11 -1 6 -15 1.35 1.29 0.02 o 0.576817
11 -10 6 -15 1.93 1.85 0.03 o 0.576817
15 -6 3 -3 1.85 1.52 0.03 o 0.576524
15 -9 3 -3 2.53 2.08 0.04 o 0.576524
14 -13 3 -4 0.01 0.00 0.00 < 0.576520
14 -1 3 -4 3.53 2.96 0.05 o 0.576520
15 -10 4 -5 0.37 0.32 0.01 o 0.576500
6 -5 5 -2 4.93 4.60 0.08 o 0.576331
14 -4 0 3 8.99 7.88 0.14 o 0.576299
14 -4 0 -3 5.40 4.74 0.08 o 0.576299
14 -6 5 -12 0.08 0.07 0.00 o 0.575843
10 -5 6 -16 3.79 3.65 0.06 o 0.575781
15 -11 2 -2 0.04 0.04 0.00 o 0.575651
13 -3 1 2 17.75 19.28 0.34 o 0.575608
12 -8 5 -4 0.01 0.00 0.00 < 0.575472
12 -7 1 3 22.62 20.57 0.36 o 0.575347
10 -7 2 -9 0.20 0.18 0.00 o 0.575296
11 -4 3 0 102.42 122.43 2.18 o 0.575273
11 -7 3 0 64.87 77.55 1.39 o 0.575273
11 -2 4 -2 9.20 9.00 0.16 o 0.575016
15 -8 5 -11 0.01 0.00 0.00 < 0.575007
15 -3 0 0 273.51 385.01 7.03 o 0.574956
15 -3 3 -5 2.10 1.73 0.03 o 0.574779
15 -12 3 -5 0.50 0.41 0.01 o 0.574779
12 -10 1 -6 14.08 11.83 0.20 o 0.574706
14 -5 1 -5 0.13 0.10 0.00 o 0.574602
5 -2 4 0 17.09 20.28 0.36 o 0.574505
10 -4 5 -3 0.05 0.05 0.00 o 0.574483
7 0 1 -8 0.36 0.32 0.01 o 0.574288
8 -5 1 -8 8.47 7.34 0.12 o 0.574288
15 -3 6 -10 0.36 0.32 0.01 o 0.574248
15 -12 6 -10 0.14 0.13 0.00 o 0.574248
6 -4 1 5 0.00 0.00 0.00 < 0.574200
15 -11 2 -5 0.20 0.17 0.00 o 0.574150
14 -11 1 1 2.79 3.77 0.07 o 0.574138
11 -8 4 -12 0.29 0.26 0.00 o 0.574130
14 -13 6 -9 0.22 0.20 0.00 o 0.574020
14 -1 6 -9 0.33 0.29 0.00 o 0.574020
7 -4 2 -10 3.05 2.71 0.05 o 0.573542
9 -1 1 4 3.47 3.13 0.05 o 0.573363
11 -5 1 -7 0.01 0.00 0.00 < 0.573089
10 -9 1 -7 2.25 1.90 0.03 o 0.573089
14 -2 1 -4 19.23 20.26 0.35 o 0.572779
15 -3 6 -11 0.63 0.56 0.01 o 0.572757
15 -12 6 -11 0.05 0.04 0.00 o 0.572757
15 -8 2 -1 1.39 1.69 0.03 o 0.572703
15 -11 5 -7 1.63 1.39 0.02 o 0.572633
14 -6 2 0 251.14 306.89 5.44 o 0.572577
15 -10 4 -9 3.30 2.85 0.05 o 0.572504
12 -6 3 -10 0.40 0.34 0.01 o 0.572109
15 -9 6 -8 0.90 0.77 0.01 o 0.572081
15 -6 6 -8 0.00 0.00 0.00 < 0.572081
13 -12 4 -10 0.25 0.22 0.00 o 0.571750
12 -12 6 -14 0.29 0.26 0.00 o 0.571573
12 0 6 -14 0.07 0.06 0.00 o 0.571573
13 -5 3 -1 8.91 10.41 0.18 o 0.571368
13 -8 3 -1 1.02 1.20 0.02 o 0.571368
15 -3 3 -6 0.25 0.22 0.00 o 0.571348
15 -12 3 -6 0.15 0.13 0.00 o 0.571348
14 -9 5 -12 0.00 0.00 0.00 < 0.571312
9 -3 0 6 0.47 0.40 0.01 o 0.571221
9 -3 0 -6 3.40 2.90 0.05 o 0.571221
9 -7 4 -1 3.62 4.21 0.07 o 0.571102
15 -4 1 0 264.81 287.94 5.40 o 0.570977
7 -1 2 3 1.65 1.92 0.03 o 0.570962
12 -4 1 3 0.82 0.97 0.02 o 0.570829
14 -12 5 -11 0.10 0.09 0.00 o 0.570496
16 -8 0 0 161.11 167.15 3.16 o 0.570447
12 -2 5 -13 0.22 0.19 0.00 o 0.570435
14 -4 3 -2 4.28 5.00 0.09 o 0.570285
14 -10 3 -2 3.23 3.77 0.07 o 0.570285
16 -8 3 -5 1.25 1.35 0.02 o 0.570273
13 -13 2 -6 0.80 0.80 0.01 o 0.570245
15 -8 2 -6 13.41 13.45 0.24 o 0.570245
13 -6 1 -6 21.95 22.01 0.39 o 0.570203
10 -7 5 -3 0.32 0.38 0.01 o 0.569984
4 -3 7 -5 0.44 0.52 0.01 o 0.569958
8 -4 6 -4 0.76 0.89 0.02 o 0.569802
8 -2 1 -8 1.89 1.55 0.03 o 0.569794
16 -8 6 -10 1.16 1.00 0.02 o 0.569755
6 -1 1 5 8.10 8.49 0.15 o 0.569708
4 -3 4 -14 0.04 0.03 0.00 o 0.569684
10 0 4 -12 1.68 1.47 0.02 o 0.569640
15 -3 0 1 0.86 0.85 0.02 o 0.569604
15 -3 0 -1 1.32 1.31 0.03 o 0.569604
14 -1 6 -12 0.76 0.67 0.01 o 0.569587
14 -13 6 -12 0.11 0.10 0.00 o 0.569587
12 -1 4 -11 0.38 0.32 0.01 o 0.569312
13 -9 4 -11 1.55 1.34 0.02 o 0.569312
14 -6 2 -7 2.08 2.01 0.04 o 0.569146
6 -3 3 -12 0.01 0.00 0.00 < 0.569029
3 -3 3 2 6.33 7.36 0.13 o 0.568928
3 0 3 2 0.11 0.13 0.00 o 0.568928
16 -9 4 -7 0.75 0.69 0.01 o 0.568922
10 -6 1 4 1.95 2.29 0.04 o 0.568891
14 -11 4 -4 0.11 0.13 0.00 o 0.568709
16 -9 1 -2 0.04 0.04 0.00 o 0.568575
9 -4 7 -6 12.81 14.71 0.26 o 0.568523
8 -1 3 1 1.94 2.04 0.04 o 0.568466
8 -7 3 1 0.95 1.00 0.02 o 0.568466
15 -10 1 -4 0.44 0.51 0.01 o 0.568320
16 -8 6 -11 1.54 1.32 0.02 o 0.568298
9 -4 4 -13 1.39 1.22 0.02 o 0.568289
16 -7 5 -9 0.07 0.06 0.00 o 0.568266
14 -12 2 -1 3.17 3.12 0.06 o 0.568246
13 -3 4 -3 0.31 0.36 0.01 o 0.568233
14 -9 2 0 150.25 139.87 2.85 o 0.568122
8 -3 5 -15 1.11 0.99 0.02 o 0.568083
16 -7 2 -3 0.42 0.46 0.01 o 0.567886
11 -6 5 -14 0.17 0.15 0.00 o 0.567886
10 -1 5 -14 0.04 0.03 0.00 o 0.567886
13 -13 5 -6 0.75 0.83 0.01 o 0.567830
15 -8 5 -6 8.99 9.96 0.17 o 0.567830
12 -3 6 -15 1.40 1.25 0.02 o 0.567817
12 -9 6 -15 1.60 1.43 0.02 o 0.567817
