#------------------------------------------------------------------------------
#$Date: 2019-11-17 09:46:44 +0200 (Sun, 17 Nov 2019) $
#$Revision: 229174 $
#$URL: file:///home/coder/svn-repositories/cod/cif/7/04/69/7046945.cif $
#------------------------------------------------------------------------------
#
# This file is available in the Crystallography Open Database (COD),
# http://www.crystallography.net/
#
# All data on this site have been placed in the public domain by the
# contributors.
#
data_7046945
loop_
_publ_author_name
'Ji, Weiwei'
'Xia, Zhiguo'
'Liu, Ke'
'Ali Khan, Sayed'
'Hao, Luyuan'
'Xu, Xin'
'Yin, Liangjun'
'Molokeev, Maxim S.'
'Agathopoulos, Simeon'
'Yang, Wenyun'
'Ma, Xiaobai'
'Sun, Kai'
'da Silva, Ivan'
_publ_section_title
;
 The crystal structure and luminescence properties of a novel green-yellow
 emitting
 Ca<sub>1.5</sub>Mg<sub>0.5</sub>Si<sub>1-x</sub>Li<sub>x</sub>O<sub>4-\d</sub>:Ce<sup>3+</sup>
 phosphor with high quantum efficiency and thermal stability.
;
_journal_issue                   29
_journal_name_full
'Dalton transactions (Cambridge, England : 2003)'
_journal_page_first              9834
_journal_page_last               9844
_journal_paper_doi               10.1039/c8dt02241k
_journal_volume                  47
_journal_year                    2018
_chemical_formula_moiety         'Li0.16 Mg4 O32 Si7.84, 12(Ca)'
_chemical_formula_sum            'Ca12 Li0.16 Mg4 O32 Si7.84'
_chemical_formula_weight         1311.62
_space_group_crystal_system      monoclinic
_space_group_IT_number           14
_space_group_name_Hall           '-P 2ybc'
_space_group_name_H-M_alt        'P 1 21/c 1'
_symmetry_space_group_name_Hall  '-P 2ybc'
_symmetry_space_group_name_H-M   'P 1 21/c 1'
_audit_creation_method           SHELXL-2014/7
_cell_angle_alpha                90
_cell_angle_beta                 92.088(2)
_cell_angle_gamma                90
_cell_formula_units_Z            1
_cell_length_a                   9.3416(4)
_cell_length_b                   5.3045(3)
_cell_length_c                   13.2848(7)
_cell_measurement_reflns_used    24619
_cell_measurement_temperature    273(2)
_cell_measurement_theta_max      27.557
_cell_measurement_theta_min      3.069
_cell_volume                     657.86(6)
_computing_cell_refinement       'APEX2 (Bruker, 2003-2008)'
_computing_data_collection       'APEX2 (Bruker, 2003-2008)'
_computing_data_reduction        'SAINT (Bruker, 2009)'
_computing_molecular_graphics    'DIAMOND (Brandenburg, 2005)'
_computing_publication_material  'publCIF (Westrip, 2009)'
_computing_structure_refinement  'SHELXL-2014/7 (Sheldrick, 2014)'
_computing_structure_solution    'SHELXS-2014 (Sheldrick, 2014)'
_diffrn_ambient_temperature      273(2)
_diffrn_measured_fraction_theta_full 0.999
_diffrn_measured_fraction_theta_max 0.999
_diffrn_measurement_device_type  'Bruker APEX-II CCD'
_diffrn_measurement_method       '\f and \w scans'
_diffrn_radiation_type           MoK\a
_diffrn_radiation_wavelength     0.71073
_diffrn_reflns_av_R_equivalents  0.0564
_diffrn_reflns_av_unetI/netI     0.0223
_diffrn_reflns_Laue_measured_fraction_full 0.999
_diffrn_reflns_Laue_measured_fraction_max 0.999
_diffrn_reflns_limit_h_max       12
_diffrn_reflns_limit_h_min       -12
_diffrn_reflns_limit_k_max       6
_diffrn_reflns_limit_k_min       -6
_diffrn_reflns_limit_l_max       17
_diffrn_reflns_limit_l_min       -17
_diffrn_reflns_number            24619
_diffrn_reflns_point_group_measured_fraction_full 0.999
_diffrn_reflns_point_group_measured_fraction_max 0.999
_diffrn_reflns_theta_full        25.242
_diffrn_reflns_theta_max         27.557
_diffrn_reflns_theta_min         3.069
_exptl_absorpt_coefficient_mu    2.981
_exptl_absorpt_correction_T_max  0.7456
_exptl_absorpt_correction_T_min  0.6841
_exptl_absorpt_correction_type   multi-scan
_exptl_absorpt_process_details
;
SADABS-2004/1. Bruker AXS Inc., Madison, Wisconsin, USA, 2004
;
_exptl_crystal_colour            colourless
_exptl_crystal_density_diffrn    3.337
_exptl_crystal_description       block
_exptl_crystal_F_000             659
_exptl_crystal_size_max          0.04
_exptl_crystal_size_mid          0.03
_exptl_crystal_size_min          0.02
_refine_diff_density_max         0.833
_refine_diff_density_min         -0.459
_refine_diff_density_rms         0.141
_refine_ls_extinction_coef       0.0023(8)
_refine_ls_extinction_expression Fc^*^=kFc[1+0.001xFc^2^\l^3^/sin(2\q)]^-1/4^
_refine_ls_extinction_method     'SHELXL-2014/7 (Sheldrick 2014'
_refine_ls_goodness_of_fit_ref   1.064
_refine_ls_hydrogen_treatment    undef
_refine_ls_matrix_type           full
_refine_ls_number_parameters     130
_refine_ls_number_reflns         1509
_refine_ls_number_restraints     0
_refine_ls_restrained_S_all      1.064
_refine_ls_R_factor_all          0.0343
_refine_ls_R_factor_gt           0.0295
_refine_ls_shift/su_max          0.001
_refine_ls_shift/su_mean         0.000
_refine_ls_structure_factor_coef Fsqd
_refine_ls_weighting_details
'w=1/[\s^2^(Fo^2^)+(0.0532P)^2^+0.4782P] where P=(Fo^2^+2Fc^2^)/3'
_refine_ls_weighting_scheme      calc
_refine_ls_wR_factor_gt          0.0780
_refine_ls_wR_factor_ref         0.0811
_reflns_Friedel_coverage         0.000
_reflns_number_gt                1366
_reflns_number_total             1509
_reflns_threshold_expression     'I > 2\s(I)'
_cod_data_source_file            c8dt02241k3.cif
_cod_data_source_block           c
_cod_depositor_comments
'Adding full bibliography for 7046944--7046945.cif.'
_cod_database_code               7046945
_shelx_shelxl_version_number     2014/7
_shelx_space_group_comment
;
The symmetry employed for this shelxl refinement is uniquely defined
by the following loop, which should always be used as a source of
symmetry information in preference to the above space-group names.
They are only intended as comments.
;
_shelx_res_file
;

    c.res created by SHELXL-2014/7


TITL c.res in P2(1)/c

REM SHELXT solution in P2(1)/c
REM R1 0.064,  Rweak 0.002,  Alpha 0.042,  Orientation as input
REM Formula found by SHELXT:  O8 Mg Si2 Ca3

CELL  0.71073   9.3416   5.3045  13.2848   90.000   92.088   90.000
ZERR    8.000   0.0004   0.0003   0.0007    0.000    0.002    0.000
LATT  1
SYMM -X, 1/2+Y, 1/2-Z
SFAC O MG SI CA LI
UNIT 32 4 8 12  1
TEMP 0.000
L.S. 10
acta
BOND $H
LIST 6
FMAP 2
PLAN 20
EXYZ SI1 LI1
EADP SI1 LI1
EXYZ SI2 LI2
EADP SI2 LI2
WGHT    0.053200    0.478200
EXTI    0.002291
FVAR       0.37906   0.98184   0.97919
CA1   4    0.075318    0.227170    0.918731    11.00000    0.01539    0.01075 =
         0.00608    0.00111    0.00051   -0.00314
CA2   4    0.774793    0.178875    0.744091    11.00000    0.01813    0.00516 =
         0.00778   -0.00005   -0.00497    0.00135
CA3   4    0.574848    0.732832    0.902767    11.00000    0.01355    0.01243 =
         0.00915    0.00193    0.00146   -0.00001
MG    2    0.253139    0.756480    0.503945    11.00000    0.00839    0.00642 =
         0.00505    0.00066    0.00005   -0.00065
SI1   3    0.093292    0.227843    0.641265    21.00000    0.00693    0.00383 =
         0.00269   -0.00033   -0.00011    0.00025
LI1   5    0.093292    0.227843    0.641265   -21.00000    0.00693    0.00383 =
         0.00269   -0.00033   -0.00011    0.00025
SI2   3    0.600319    0.729212    0.633110    31.00000    0.00655    0.00401 =
         0.00373    0.00004   -0.00062    0.00058
LI2   5    0.600319    0.729212    0.633110   -31.00000    0.00655    0.00401 =
         0.00373    0.00004   -0.00062    0.00058
O1    1    0.175156    0.457074    0.583054    11.00000    0.01914    0.00679 =
         0.00974    0.00148    0.00180   -0.00368
O2    1    0.677211    0.453895    0.625210    11.00000    0.01459    0.00753 =
         0.00838   -0.00012   -0.00063    0.00444
O3    1    0.693557    0.920496    0.564390    11.00000    0.02020    0.00779 =
         0.01203    0.00258    0.00307   -0.00370
O4    1    0.184648   -0.027612    0.626777    11.00000    0.01448    0.00731 =
         0.00800    0.00128    0.00227    0.00472
O5    1   -0.058963    0.205740    0.576963    11.00000    0.00897    0.01807 =
         0.01144   -0.00091   -0.00264    0.00096
O6    1    0.069090    0.313547    0.754629    11.00000    0.01772    0.01009 =
         0.00550   -0.00201    0.00163    0.00063
O7    1    0.445286    0.712445    0.574007    11.00000    0.01028    0.01858 =
         0.01503   -0.00241   -0.00429    0.00223
O8    1    0.593548    0.859397    0.741511    11.00000    0.01693    0.01347 =
         0.00843   -0.00442    0.00117    0.00087
HKLF 4

REM  c.res in P2(1)/c
REM R1 =  0.0295 for    1366 Fo > 4sig(Fo)  and  0.0343 for all    1509 data
REM    130 parameters refined using      0 restraints

END

WGHT      0.0497      0.4115

REM Highest difference peak  0.833,  deepest hole -0.459,  1-sigma level  0.141
Q1    1   0.7006  0.1987  0.7549  11.00000  0.05    0.83
Q2    1   0.5056  0.6537  0.6312  11.00000  0.05    0.65
Q3    1   0.6612  0.8291  0.9112  11.00000  0.05    0.63
Q4    1   0.1815  0.3248  0.9155  11.00000  0.05    0.61
Q5    1   0.8157  0.2597  0.7558  11.00000  0.05    0.61
Q6    1   0.1762  0.1297  0.9097  11.00000  0.05    0.61
Q7    1   0.4832  0.6388  0.9113  11.00000  0.05    0.60
Q8    1  -0.0001  0.1541  0.6286  11.00000  0.05    0.59
Q9    1  -0.0188  0.1202  0.9129  11.00000  0.05    0.56
Q10   1  -0.0190  0.3371  0.9124  11.00000  0.05    0.55
Q11   1   0.8731  0.2921  0.7530  11.00000  0.05    0.55
Q12   1   0.2621  0.4025  0.5879  11.00000  0.05    0.53
Q13   1   0.4927  0.8253  0.6362  11.00000  0.05    0.52
Q14   1   0.6677  0.6239  0.9038  11.00000  0.05    0.50
Q15   1   0.1608  0.8414  0.5000  11.00000  0.05    0.50
Q16   1  -0.0057  0.3272  0.6395  11.00000  0.05    0.49
Q17   1   0.6908  0.8426  0.6343  11.00000  0.05    0.49
Q18   1   0.6127  0.3193  0.7560  11.00000  0.05    0.48
Q19   1   0.4678  0.8362  0.9049  11.00000  0.05    0.48
Q20   1   0.8087  0.1388  0.7543  11.00000  0.05    0.46
;
_shelx_res_checksum              50207
_shelx_hkl_file
;
   2   0   0    1.90    0.50
   2   0   0    2.00    0.70
   2   0   0    2.10    0.50
  -2   0   0    2.50    0.60
  -2   0   0    1.40    0.40
   2   0   0    1.60    0.70
   2   0   0    2.50    0.50
  -2   0   0    2.00    0.80
  -2   0   0    1.30    0.80
  -2   0   0    1.40    0.60
   2   0   0    2.80    0.50
   3   0   0   20.50    1.80
  -3   0   0   20.40    1.90
  -3   0   0   21.40    2.20
  -3   0   0   20.10    2.60
  -3   0   0   22.50    1.70
   3   0   0   22.50    1.80
   3   0   0   20.90    1.70
   3   0   0   22.60    2.50
  -3   0   0   25.20    2.50
  -3   0   0   21.20    2.30
  -3   0   0   23.10    1.70
   3   0   0   21.30    2.20
  -3   0   0   21.50    1.80
   3   0   0   21.50    2.10
  -4   0   0  175.58   11.20
   4   0   0  168.28   10.80
   4   0   0  166.58   10.40
   4   0   0  163.58   11.20
  -4   0   0  173.48   10.30
  -4   0   0  168.08   10.30
   4   0   0  176.58   10.40
  -4   0   0  180.08   10.80
   4   0   0  174.88   10.80
   4   0   0  166.08   10.90
  -4   0   0  175.68   11.00
  -4   0   0  165.08   10.50
  -4   0   0  162.58   10.40
   4   0   0  169.88   10.30
   4   0   0  176.68   10.30
  -4   0   0  170.38   11.00
   5   0   0  141.99    8.90
   5   0   0  147.59    8.70
   5   0   0  143.59    8.90
  -5   0   0  147.29    9.80
  -5   0   0  145.59    8.80
   5   0   0  143.29    9.40
   5   0   0  144.79    8.60
  -5   0   0  133.09    9.10
  -5   0   0  134.99    8.90
   5   0   0  145.99   10.10
   5   0   0  140.09    9.40
   5   0   0  138.89    9.60
  -5   0   0  151.88   10.00
   6   0   0 4163.98  244.08
   6   0   0 4385.26  245.08
   6   0   0 4249.08  244.98
   6   0   0 4186.38  244.58
   6   0   0 4214.48  245.28
   6   0   0 4204.68  244.68
  -6   0   0 4321.67  245.28
  -6   0   0 4160.68  244.28
   6   0   0 4068.39  244.18
  -6   0   0 4101.79  244.18
  -6   0   0 4033.50  243.88
  -6   0   0 4134.69  243.88
   6   0   0 4112.99  244.58
   7   0   0  173.08   12.50
   7   0   0  176.48   12.40
  -7   0   0  172.68   11.50
   7   0   0  177.98   12.00
   7   0   0  170.48   11.90
   7   0   0  176.88   11.20
  -7   0   0  185.88   10.80
  -7   0   0  174.98   11.30
  -7   0   0  178.28   10.80
   7   0   0  183.48   13.30
   7   0   0  178.58   11.30
  -7   0   0  185.98   12.80
   7   0   0  184.68   11.90
   8   0   0  618.64   40.20
  -8   0   0  695.83   40.60
   8   0   0  718.63   41.10
   8   0   0  664.53   41.00
  -8   0   0  666.63   41.80
   8   0   0  683.53   40.40
  -8   0   0  680.23   40.40
   8   0   0  654.23   40.90
   8   0   0  710.83   41.50
   8   0   0  672.83   41.60
  -9   0   0    5.70    2.40
  -9   0   0    3.70    3.40
   9   0   0    5.40    3.20
   9   0   0    2.00    3.40
   9   0   0    5.30    2.70
   9   0   0    7.60    2.90
   9   0   0   -1.50    2.10
  -9   0   0    2.00    1.80
   9   0   0    1.40    1.80
   9   0   0   -1.00    4.40
  10   0   0   94.39    8.30
 -10   0   0   89.29    7.40
  10   0   0   68.49    9.10
  10   0   0   90.09    7.00
 -10   0   0   77.99    8.80
  10   0   0   76.19    8.30
  10   0   0   74.09    9.50
 -10   0   0   92.19    6.90
  10   0   0   86.79    6.60
 -11   0   0   31.60    4.00
  11   0   0   34.20    6.70
  11   0   0   28.20    3.80
  11   0   0   35.30    5.60
  11   0   0   23.30    3.70
 -11   0   0   24.20    5.80
 -11   0   0   32.20    4.50
 -12   0   0  452.15   33.10
  12   0   0  491.35   29.80
  12   0   0  483.35   32.70
  12   0   0  518.25   29.70
 -12   0   0  481.95   30.10
   0  -1   0    0.50    0.60
   0  -1   0    0.50    0.80
   0  -1   0    0.80    0.70
   0  -1   0   -0.50    0.70
   0  -1   0    0.40    0.90
   0  -1   0   -0.30    0.90
   0  -1   0    0.90    0.90
   0   1   0    0.00    1.10
   0   1   0   -1.60    0.60
   0   1   0    0.10    0.70
   0   1   0    0.30    0.80
   0   1   0    0.90    0.90
   0   1   0    0.30    0.80
   0   1   0   -0.30    0.70
   1  -1   0   98.59    5.50
   1  -1   0   90.89    5.70
  -1  -1   0   80.59    7.20
   1  -1   0   93.19    6.10
   1  -1   0  100.09    6.00
  -1  -1   0   87.19    5.90
   1  -1   0   94.69    5.90
  -1  -1   0   76.09    5.80
   1  -1   0  102.49    6.20
  -1  -1   0   73.19    6.00
   1  -1   0   96.49    6.00
   1   1   0   77.19    6.00
  -1   1   0   98.39    6.20
  -1   1   0   90.09    5.70
  -1   1   0   92.79    5.90
   1   1   0   83.29    5.90
   1   1   0   79.09    6.10
  -1   1   0   95.79    5.90
   1   1   0   76.89    5.80
  -1   1   0  106.69    6.30
   1   1   0   77.49    5.80
  -1   1   0   98.39    5.90
  -2  -1   0   43.70    4.10
  -2  -1   0   52.19    3.90
   2  -1   0   47.90    3.70
  -2  -1   0   50.89    3.60
   2  -1   0   49.70    3.80
   2  -1   0   50.39    2.90
   2  -1   0   47.30    3.50
   2  -1   0   44.60    3.50
   2  -1   0   42.60    3.80
  -2  -1   0   49.99    3.70
  -2  -1   0   46.40    3.60
  -2  -1   0   50.49    4.00
  -2  -1   0   43.90    4.20
   2  -1   0   45.80    3.50
  -2  -1   0   46.20    3.50
   2   1   0   49.60    3.90
   2   1   0   53.89    4.20
   2   1   0   47.50    3.50
  -2   1   0   48.70    3.00
  -2   1   0   44.20    3.50
  -2   1   0   45.30    3.60
  -2   1   0   50.99    4.30
  -2   1   0   47.10    3.60
   2   1   0   47.90    3.60
  -2   1   0   46.30    4.00
   2   1   0   47.70    3.60
  -2   1   0   48.70    3.50
   2   1   0   53.59    4.00
  -2   1   0   40.90    3.70
   2   1   0   52.59    3.70
   3  -1   0 8232.98  490.85
  -3  -1   0 8343.07  491.05
  -3  -1   0 8707.13  491.05
  -3   1   0 8368.06  491.05
  -4  -1   0  195.68   12.20
   4  -1   0  193.98   12.30
   4  -1   0  195.18   11.90
   4  -1   0  185.68   12.40
   4  -1   0  201.28   12.30
   4  -1   0  204.68   12.00
  -4  -1   0  199.18   12.70
   4  -1   0  209.48   12.70
   4  -1   0  200.48   11.90
  -4  -1   0  209.28   12.80
  -4  -1   0  193.98   12.30
  -4  -1   0  190.08   12.20
  -4  -1   0  192.58   12.00
  -4  -1   0  184.48   11.90
   4  -1   0  194.08   12.10
   4   1   0  190.28   12.30
   4   1   0  185.08   12.60
   4   1   0  195.68   12.60
   4   1   0  202.98   13.20
   4   1   0  202.38   12.10
  -4   1   0  203.68   12.10
  -4   1   0  189.58   12.70
  -4   1   0  181.58   12.60
  -4   1   0  200.98   12.50
   4   1   0  198.88   12.00
  -4   1   0  197.78   12.10
   4   1   0  183.98   12.10
   4   1   0  196.48   12.20
  -4   1   0  212.38   12.50
  -4   1   0  189.98   12.20
   5  -1   0    3.20    1.30
  -5  -1   0    4.70    1.40
   5  -1   0    2.50    1.30
   5  -1   0    2.20    1.10
   5  -1   0    3.50    1.20
   5  -1   0    4.80    1.50
  -5  -1   0    2.90    1.90
  -5  -1   0    3.60    2.20
   5  -1   0    1.50    1.60
  -5  -1   0    2.50    1.10
   5  -1   0    2.70    1.00
  -5  -1   0    2.50    1.00
  -5  -1   0    3.70    1.40
   5  -1   0    5.00    1.60
  -5   1   0    1.20    1.10
   5   1   0    2.90    1.10
   5   1   0    3.20    1.90
   5   1   0    1.70    2.60
   5   1   0    5.20    1.50
  -5   1   0    1.40    1.40
   5   1   0    3.50    1.80
  -5   1   0    2.30    1.10
   5   1   0    3.20    1.10
   5   1   0    5.20    2.30
  -5   1   0    1.20    1.80
   5   1   0    1.90    1.50
   5   1   0    1.10    1.30
  -5   1   0    2.80    1.80
  -5   1   0    3.60    2.40
  -5   1   0    2.20    1.10
   6  -1   0   20.30    2.90
  -6  -1   0   18.50    3.60
  -6  -1   0   18.00    2.10
   6  -1   0   22.10    3.20
   6  -1   0   20.90    2.50
  -6  -1   0   24.90    3.60
   6  -1   0   17.60    2.40
   6  -1   0   20.20    2.20
   6  -1   0   19.90    2.40
  -6  -1   0   18.90    2.60
  -6  -1   0   19.40    2.50
  -6  -1   0   20.50    2.20
   6  -1   0   19.20    2.30
   6  -1   0   19.90    2.60
   6   1   0   21.70    2.60
  -6   1   0   22.80    3.20
  -6   1   0   16.50    3.10
  -6   1   0   27.20    3.30
   6   1   0   20.50    3.10
   6   1   0   22.60    2.20
  -6   1   0   15.10    2.90
   6   1   0   20.30    2.90
  -6   1   0   18.50    2.30
   6   1   0   18.50    2.40
   6   1   0   17.80    3.90
  -6   1   0   16.10    2.20
   6   1   0   19.60    2.20
  -6   1   0   19.40    2.20
   6   1   0   17.80    2.60
   6   1   0   13.30    2.80
  -7  -1   0  195.98   13.10
   7  -1   0  205.98   12.90
   7  -1   0  197.08   13.80
  -7  -1   0  199.98   13.00
  -7  -1   0  198.88   12.60
  -7  -1   0  220.38   14.20
   7  -1   0  209.48   12.30
   7  -1   0  210.48   13.90
  -7  -1   0  211.28   12.50
  -7  -1   0  209.28   14.20
   7  -1   0  205.68   13.00
   7  -1   0  204.58   13.20
  -7   1   0  198.58   14.20
   7   1   0  200.18   14.10
  -7   1   0  204.08   14.10
   7   1   0  211.68   13.50
  -7   1   0  199.38   12.60
   7   1   0  205.78   12.90
   7   1   0  172.78   14.80
   7   1   0  205.38   13.10
  -7   1   0  199.48   13.50
  -7   1   0  195.58   13.10
  -7   1   0  217.18   12.80
  -7   1   0  205.68   14.00
   7   1   0  218.28   14.00
   7   1   0  217.28   13.40
  -8  -1   0  111.39    9.40
   8  -1   0  118.09    8.70
   8  -1   0  115.99    9.30
   8  -1   0  104.89    9.10
   8  -1   0  120.19    8.50
  -8  -1   0  120.79    7.30
  -8  -1   0  113.39    8.20
   8  -1   0  115.59    7.90
   8  -1   0  114.69    8.20
  -8  -1   0  114.99    8.30
   8   1   0  123.29    9.40
  -8   1   0  117.09    8.70
   8   1   0  102.29   11.00
   8   1   0  124.79    8.60
   8   1   0  109.99    8.60
  -8   1   0  121.89    9.80
   8   1   0  118.59    8.00
  -8   1   0  126.59   10.00
  -8   1   0  109.19    8.30
   8   1   0  103.29    9.50
  -8   1   0  118.29    7.50
   8   1   0  110.59    8.10
  -9  -1   0 1650.43   98.99
   9  -1   0 1693.03   98.69
   9  -1   0 1707.63   99.89
  -9  -1   0 1618.14  100.19
   9  -1   0 1666.33   99.09
   9  -1   0 1675.03   98.89
   9  -1   0 1684.83   98.99
  -9  -1   0 1642.64   98.89
   9   1   0 1712.23   99.19
   9   1   0 1733.03  100.29
   9   1   0 1681.53   99.19
  -9   1   0 1633.14   98.99
   9   1   0 1677.93   98.79
  -9   1   0 1673.53  100.19
   9   1   0 1693.43   99.89
  -9   1   0 1682.33   99.19
   9   1   0 1669.13   98.79
  10  -1   0  105.99    8.50
 -10  -1   0  104.89    8.00
  10  -1   0  106.59   10.60
  10  -1   0  107.29    8.40
 -10  -1   0  107.99    8.60
  10  -1   0  108.29    7.70
 -10  -1   0  101.59    9.80
 -10   1   0  102.99    8.30
 -10   1   0  108.69   10.40
  10   1   0  102.39   10.30
  10   1   0  101.69    8.00
 -10   1   0  103.79    9.00
  10   1   0  102.09    7.90
 -10   1   0  108.49   11.10
  10   1   0   97.39    8.60
  10   1   0  104.29   10.60
 -11  -1   0    5.30    2.80
 -11  -1   0    4.70    5.00
  11  -1   0    5.80    2.70
  11  -1   0    4.60    6.20
  11  -1   0    5.80    3.50
  11  -1   0    1.80    4.90
 -11  -1   0    9.20    3.60
  11   1   0   10.30    6.10
  11   1   0    4.40    5.30
 -11   1   0   13.50    4.10
  11   1   0    5.40    2.90
 -11   1   0    2.40    3.10
  11   1   0   10.80    3.10
  12  -1   0    6.30    6.50
  12  -1   0   -0.40    3.10
  12  -1   0    3.10    3.30
  12   1   0    3.00    3.00
  12   1   0    8.00    6.60
  12   1   0    3.40    3.30
   0  -2   0 7398.76  431.16
   0  -2   0 7953.70  430.66
   0  -2   0 7253.37  430.76
   0  -2   0 7030.80  430.86
   0  -2   0 7264.67  430.76
   0  -2   0 7758.52  430.76
   0   2   0 7700.03  430.66
   0   2   0 7329.97  431.16
   0   2   0 7360.26  430.76
   0   2   0 7102.09  430.86
   0   2   0 6977.30  430.86
   1  -2   0   15.30    2.70
  -1  -2   0   18.70    2.60
  -1  -2   0   16.00    2.60
  -1  -2   0   14.20    2.20
   1  -2   0   12.90    2.30
  -1  -2   0   14.20    2.60
  -1  -2   0   15.30    2.40
   1  -2   0   15.40    2.30
   1  -2   0   10.10    1.90
   1  -2   0   14.60    2.70
   1  -2   0   15.50    1.70
  -1  -2   0   14.00    2.20
   1  -2   0   13.20    2.10
   1  -2   0   14.80    2.60
   1   2   0   14.80    2.40
  -1   2   0   10.60    1.80
  -1   2   0   12.90    1.90
   1   2   0   13.80    2.30
   1   2   0   14.00    2.30
   1   2   0   13.40    2.50
   1   2   0   15.60    2.70
  -1   2   0   18.00    2.70
   1   2   0   17.00    2.30
  -1   2   0   16.00    2.80
  -1   2   0   15.80    2.50
  -1   2   0   15.30    1.70
  -1   2   0   12.60    2.50
   1   2   0   10.60    2.10
   2  -2   0 1825.52   96.49
  -2  -2   0 1465.75   96.39
   2  -2   0 1754.72   95.69
   2  -2   0 1703.03   96.19
  -2  -2   0 1490.25   96.69
   2  -2   0 1793.62   96.49
   2  -2   0 1796.52   96.59
  -2  -2   0 1456.65   96.49
  -2  -2   0 1465.65   96.29
  -2  -2   0 1437.66   96.29
  -2  -2   0 1569.54   96.39
  -2  -2   0 1426.56   96.49
   2  -2   0 1774.32   96.99
  -2  -2   0 1600.34   96.39
   2  -2   0 1742.73   96.89
   2   2   0 1516.75   96.69
   2   2   0 1489.65   96.39
   2   2   0 1503.25   96.39
  -2   2   0 1856.41   97.09
   2   2   0 1591.34   96.69
  -2   2   0 1686.93   96.09
  -2   2   0 1689.33   95.69
   2   2   0 1465.65   96.29
  -2   2   0 1747.83   96.99
   2   2   0 1515.35   96.59
  -2   2   0 1778.82   96.59
  -2   2   0 1775.52   96.49
  -2   2   0 1744.53   96.39
  -2   2   0 1805.82   96.59
   3  -2   0    2.00    1.50
   3  -2   0    2.10    2.90
   3  -2   0    0.50    1.50
   3  -2   0    1.20    0.50
  -3  -2   0   -2.60    1.90
  -3  -2   0    1.20    1.50
  -3  -2   0    2.70    1.60
   3  -2   0    1.60    1.40
  -3  -2   0    0.20    1.20
   3  -2   0    1.10    1.30
  -3  -2   0    0.90    1.40
  -3  -2   0    1.20    1.80
   3  -2   0   -0.90    2.00
  -3  -2   0    3.50    2.20
   3   2   0    1.90    1.30
  -3   2   0    1.80    1.70
   3   2   0   -0.70    1.20
  -3   2   0    2.30    1.40
  -3   2   0    0.60    1.90
  -3   2   0   -0.10    1.40
  -3   2   0    0.10    1.60
   3   2   0    2.60    2.40
   3   2   0   -0.10    1.90
  -3   2   0    1.40    0.50
   3   2   0    0.00    1.60
   3   2   0    0.50    1.40
  -4  -2   0   34.20    3.70
   4  -2   0   18.60    3.00
  -4  -2   0   30.50    3.90
  -4  -2   0   25.90    3.20
   4  -2   0   31.80    3.40
   4  -2   0   30.10    3.20
  -4  -2   0   29.30    4.00
   4  -2   0   27.70    3.60
  -4  -2   0   27.00    3.20
   4  -2   0   26.10    4.00
  -4  -2   0   36.90    4.10
  -4  -2   0   26.90    3.00
  -4  -2   0   28.20    3.50
   4  -2   0   25.20    3.10
  -4   2   0   30.10    4.00
   4   2   0   24.00    3.90
   4   2   0   25.60    3.00
   4   2   0   29.80    3.80
   4   2   0   28.80    3.30
   4   2   0   23.70    3.40
  -4   2   0   27.90    3.30
   4   2   0   23.50    3.10
  -4   2   0   19.80    2.80
  -4   2   0   28.60    3.70
  -4   2   0   28.50    3.20
  -4   2   0   20.10    3.10
  -4   2   0   27.90    3.30
  -5  -2   0   11.80    1.90
   5  -2   0   13.10    2.30
   5  -2   0   12.50    2.20
   5  -2   0    9.90    2.40
  -5  -2   0   14.90    3.20
  -5  -2   0    7.70    1.90
   5  -2   0   10.60    2.40
  -5  -2   0    6.50    3.00
  -5  -2   0    8.50    2.20
   5  -2   0   10.10    2.70
   5  -2   0   12.00    2.40
  -5  -2   0    8.60    2.70
   5   2   0    7.60    2.60
  -5   2   0    6.20    2.60
   5   2   0   12.10    3.70
  -5   2   0   12.10    2.30
  -5   2   0    6.60    2.30
  -5   2   0    8.60    2.70
  -5   2   0    7.70    2.10
   5   2   0    7.80    2.20
   5   2   0   11.90    2.90
  -5   2   0   11.20    2.40
   5   2   0   11.80    2.00
  -5   2   0   11.20    2.10
   6  -2   0 5267.57  302.07
   6  -2   0 5406.16  301.97
  -6  -2   0 5457.95  302.47
   6  -2   0 5269.97  302.07
  -6  -2   0 5233.08  302.37
   6  -2   0 5096.39  301.47
  -6  -2   0 5231.38  301.87
  -6  -2   0 5173.28  301.67
   6  -2   0 5094.39  301.77
   6  -2   0 5309.57  302.67
  -6  -2   0 5033.20  301.77
  -6  -2   0 5020.20  301.37
  -6   2   0 5401.16  301.97
  -6   2   0 4932.71  301.57
   6   2   0 5187.68  301.67
   6   2   0 4956.80  301.87
   6   2   0 4655.33  301.77
   6   2   0 5248.27  302.97
   6   2   0 5055.59  301.87
   6   2   0 5201.58  302.37
  -6   2   0 5135.79  302.67
  -6   2   0 5185.18  301.67
   6   2   0 5402.66  302.47
  -6   2   0 4956.20  302.37
  -6   2   0 5046.70  301.97
  -7  -2   0  104.79    8.60
   7  -2   0  103.39    8.50
   7  -2   0  120.99    9.50
   7  -2   0  107.19    8.10
   7  -2   0  107.99    6.70
  -7  -2   0  113.39    8.30
  -7  -2   0  108.99    7.60
   7  -2   0  106.49    6.70
   7  -2   0  107.29    8.20
  -7  -2   0   96.09    9.10
   7  -2   0  109.19    8.70
  -7   2   0  102.89    9.00
   7   2   0  105.99    9.10
  -7   2   0  115.89    9.40
   7   2   0  117.19    7.60
  -7   2   0  107.39    8.40
  -7   2   0  119.79    8.10
  -7   2   0  109.69    9.50
   7   2   0   97.69    8.20
   7   2   0  104.79    8.50
  -7   2   0  113.09    8.90
   7   2   0  107.19    7.90
   7   2   0  112.19    9.40
  -8  -2   0   12.20    2.90
  -8  -2   0   17.10    3.80
  -8  -2   0   17.30    3.50
   8  -2   0   17.60    2.90
   8  -2   0   16.50    2.00
   8  -2   0   16.50    3.70
   8  -2   0   15.20    3.30
   8  -2   0   10.10    2.40
  -8  -2   0   14.30    2.40
   8  -2   0   15.30    1.70
   8  -2   0   19.00    4.70
   8   2   0   17.10    4.20
  -8   2   0   13.80    4.00
   8   2   0   11.40    3.20
   8   2   0   14.60    4.40
   8   2   0   12.50    2.90
   8   2   0   12.90    2.50
   8   2   0   14.20    2.40
   8   2   0    5.30    3.10
  -8   2   0   15.50    2.70
  -8   2   0   12.70    3.60
  -8   2   0   16.80    3.20
  -8   2   0   10.20    4.10
   9  -2   0    3.30    2.20
  -9  -2   0    3.00    2.50
  -9  -2   0    1.10    3.70
  -9  -2   0    8.80    3.80
   9  -2   0    2.60    6.80
   9  -2   0    4.50    3.10
   9  -2   0   15.40    4.90
  -9  -2   0    5.80    2.40
   9  -2   0    3.00    2.40
  -9   2   0    1.60    3.80
  -9   2   0    0.80    4.00
   9   2   0    2.90    2.10
  -9   2   0    5.80    3.70
  -9   2   0    3.10    2.70
  -9   2   0    3.00    2.40
   9   2   0    4.80    3.00
   9   2   0   -4.20    3.10
   9   2   0    2.30    4.60
   9   2   0    2.80    4.00
   9   2   0    4.80    3.30
 -10  -2   0    3.70    2.90
  10  -2   0    6.70    5.30
  10  -2   0    3.30    3.60
 -10  -2   0    3.20    4.20
 -10  -2   0    5.80    4.10
  10  -2   0    3.40    2.80
  10   2   0    1.40    5.30
 -10   2   0    2.90    4.00
  10   2   0    1.80    3.30
 -10   2   0    1.50    4.50
 -10   2   0    8.30    5.40
 -10   2   0    0.40    3.10
  10   2   0    2.20    5.00
  10   2   0   -1.10    2.50
 -11  -2   0   12.30    5.30
 -11  -2   0    7.00    3.20
  11  -2   0    7.40    3.70
  11  -2   0   15.60    6.90
  11   2   0    3.00    6.10
  11   2   0    3.80    5.60
 -11   2   0    0.10    8.30
  11   2   0    4.40    3.10
 -11   2   0   13.30    3.80
 -11   2   0   10.00    7.80
   0  -3   0    5.40    2.40
   0  -3   0   -2.20    2.20
   0  -3   0   -3.10    1.70
   0  -3   0   -0.40    1.90
   0  -3   0    0.40    1.90
   0  -3   0   -0.70    2.00
   0  -3   0   -2.10    2.30
   0   3   0    2.60    2.20
   0   3   0    2.10    1.90
   0   3   0   -5.20    2.30
   0   3   0    1.30    1.90
   0   3   0   -3.60    2.20
   0   3   0   -0.10    1.50
   1  -3   0   31.00    3.60
  -1  -3   0   37.60    4.60
   1  -3   0   31.50    4.80
   1  -3   0   43.60    4.40
  -1  -3   0   28.90    3.90
  -1  -3   0   35.50    4.40
  -1  -3   0   40.00    4.30
  -1  -3   0   27.90    4.30
   1  -3   0   36.90    4.30
  -1  -3   0   34.40    4.00
   1  -3   0   38.20    4.40
   1  -3   0   34.40    4.30
  -1  -3   0   27.10    3.80
   1  -3   0   35.90    5.40
   1  -3   0   46.20    5.00
  -1   3   0   31.50    4.60
  -1   3   0   44.60    4.90
  -1   3   0   30.80    4.80
   1   3   0   42.00    5.40
   1   3   0   38.20    5.00
  -1   3   0   31.70    3.40
   1   3   0   37.00    4.50
  -1   3   0   33.10    4.20
   1   3   0   28.10    3.90
   1   3   0   42.00    4.60
   1   3   0   31.70    4.00
   1   3   0   34.70    4.00
  -1   3   0   39.50    4.30
  -1   3   0   33.40    5.00
  -2  -3   0   -1.90    2.20
   2  -3   0    4.20    2.70
   2  -3   0   -0.60    2.40
  -2  -3   0   -1.80    1.90
  -2  -3   0    3.20    2.30
  -2  -3   0    0.90    1.80
  -2  -3   0    6.40    3.10
  -2  -3   0    2.30    2.40
  -2  -3   0    6.00    2.40
   2  -3   0   -0.40    1.90
   2  -3   0    1.00    1.20
  -2  -3   0    5.90    2.80
   2  -3   0    1.00    1.80
   2  -3   0   -1.20    1.60
   2  -3   0    0.30    2.20
   2  -3   0    0.90    2.50
  -2   3   0    2.70    2.20
   2   3   0    4.10    3.00
  -2   3   0   -0.50    2.50
  -2   3   0    1.70    1.40
   2   3   0   -0.80    1.80
  -2   3   0    5.10    2.00
  -2   3   0    2.80    2.00
   2   3   0    3.40    2.80
   2   3   0    2.10    1.90
  -2   3   0    5.30    2.30
   2   3   0    0.80    1.80
   2   3   0    1.20    2.00
   2   3   0    4.10    2.40
  -2   3   0    2.60    2.30
   3  -3   0 3727.13  205.88
   3  -3   0 3726.63  204.58
   3  -3   0 3549.34  205.38
  -3  -3   0 3170.78  205.68
   3  -3   0 3770.62  205.88
   3  -3   0 3790.02  205.88
  -3  -3   0 3209.08  205.58
   3  -3   0 3861.41  206.68
   3  -3   0 3859.21  206.48
  -3  -3   0 3233.78  206.08
  -3  -3   0 3153.08  205.88
  -3  -3   0 3427.36  205.68
  -3  -3   0 3297.57  205.98
   3  -3   0 3883.11  206.18
  -3  -3   0 3239.08  205.68
  -3  -3   0 3264.97  205.58
   3   3   0 3220.98  205.98
  -3   3   0 3885.01  206.78
  -3   3   0 3845.12  205.98
   3   3   0 3133.29  205.68
   3   3   0 3205.08  205.68
  -3   3   0 3715.93  205.28
   3   3   0 3126.89  205.58
  -3   3   0 3865.81  205.88
   3   3   0 3160.58  205.88
  -3   3   0 3680.73  206.58
   3   3   0 3193.38  205.58
  -3   3   0 3876.81  206.08
   3   3   0 3235.78  206.08
  -3   3   0 3531.35  204.58
  -3   3   0 3782.52  205.78
   4  -3   0   33.00    4.10
  -4  -3   0   28.50    4.50
  -4  -3   0   33.40    4.90
   4  -3   0   35.60    5.10
  -4  -3   0   28.10    3.90
  -4  -3   0   23.80    4.10
   4  -3   0   30.30    4.00
   4  -3   0   29.10    4.30
  -4  -3   0   27.00    3.70
  -4  -3   0   29.60    4.50
  -4  -3   0   34.40    4.40
   4  -3   0   29.70    3.70
  -4  -3   0   36.90    4.70
   4   3   0   29.10    4.20
   4   3   0   31.20    4.40
  -4   3   0   20.20    3.70
   4   3   0   29.20    4.50
  -4   3   0   27.40    3.80
   4   3   0   22.30    3.30
   4   3   0   30.90    3.90
  -4   3   0   26.00    4.10
   4   3   0   24.40    4.60
   4   3   0   29.70    4.20
  -4   3   0   30.60    4.70
  -4   3   0   27.80    4.00
  -4   3   0   27.00    3.40
  -5  -3   0    8.30    2.90
  -5  -3   0   13.00    3.00
  -5  -3   0   15.20    3.70
  -5  -3   0   16.90    3.90
   5  -3   0   16.40    3.50
   5  -3   0   11.90    3.20
   5  -3   0   11.30    2.90
  -5  -3   0    8.00    4.40
  -5  -3   0    7.70    2.90
  -5  -3   0   19.80    3.80
   5  -3   0   20.20    4.10
  -5  -3   0   13.60    2.40
   5   3   0   13.40    3.50
  -5   3   0    5.00    3.10
  -5   3   0   12.90    3.10
  -5   3   0   11.20    3.10
  -5   3   0   11.20    2.50
   5   3   0   11.80    2.80
   5   3   0   13.40    4.50
   5   3   0   10.20    2.80
   5   3   0    6.60    2.60
   5   3   0   14.50    5.10
   5   3   0   11.80    3.20
   6  -3   0    4.70    3.20
   6  -3   0   11.70    3.60
  -6  -3   0   11.90    3.40
   6  -3   0    9.20    4.20
  -6  -3   0   13.10    3.20
  -6  -3   0    8.40    2.60
  -6  -3   0    9.90    3.60
  -6  -3   0   13.00    3.50
   6  -3   0   12.10    2.90
  -6  -3   0    6.10    3.90
   6  -3   0    7.40    2.80
   6   3   0    7.20    3.90
  -6   3   0    8.80    3.90
  -6   3   0   10.30    2.90
   6   3   0    4.10    3.50
  -6   3   0    6.80    3.00
  -6   3   0   12.10    3.40
   6   3   0    2.80    2.90
  -6   3   0   16.00    3.60
  -6   3   0   11.50    3.50
   6   3   0    9.40    2.60
  -7  -3   0  135.09   10.20
   7  -3   0  130.99   10.00
  -7  -3   0  136.99   10.30
   7  -3   0  124.39   10.40
  -7  -3   0  131.09    9.40
   7  -3   0  115.09   10.00
   7  -3   0  127.69   10.30
   7   3   0  135.59   10.90
   7   3   0  111.49   10.70
  -7   3   0   89.19   10.80
  -7   3   0  131.89   11.40
   7   3   0  130.49    9.50
   7   3   0  121.59   10.40
  -7   3   0  117.89   10.50
  -7   3   0  129.19   10.50
   7   3   0  127.39    9.50
  -7   3   0  132.19    9.90
  -7   3   0  128.39   10.20
   8  -3   0    9.70    4.30
  -8  -3   0    6.00    2.60
   8  -3   0    9.60    3.60
  -8  -3   0   10.90    4.80
   8  -3   0    4.70    4.20
   8  -3   0    7.60    3.40
  -8  -3   0    4.80    3.20
  -8  -3   0    7.90    3.70
   8   3   0    1.80    4.00
  -8   3   0    9.80    3.20
   8   3   0    1.30    3.60
  -8   3   0    8.10    3.30
   8   3   0    5.10    2.60
  -8   3   0    3.50    4.20
   8   3   0    6.90    3.50
   8   3   0   -0.70    2.80
   8   3   0   -1.10    3.50
  -8   3   0    4.30    3.50
   8   3   0    7.50    4.90
   9  -3   0  738.33   47.70
   9  -3   0  771.32   47.50
  -9  -3   0  789.02   47.30
  -9  -3   0  718.93   47.70
  -9   3   0  779.42   47.50
   9   3   0  800.22   48.30
   9   3   0  802.72   46.80
   9   3   0  816.32   47.20
  -9   3   0  769.12   48.90
  -9   3   0  731.93   48.20
   9   3   0  756.32   47.30
   9   3   0  757.52   48.20
 -10  -3   0    3.40    4.10
 -10  -3   0    3.00    3.50
  10  -3   0   -3.80    5.90
  10  -3   0   12.30    4.60
  10   3   0    4.10    3.20
 -10   3   0    7.30    4.90
 -10   3   0   14.30    6.60
  10   3   0   11.80    6.10
  10   3   0    1.60    5.10
 -10   3   0    3.80    4.20
   0  -4   0 2905.81  162.78
   0  -4   0 2750.92  162.98
   0  -4   0 2784.92  163.58
   0  -4   0 2643.94  162.38
   0  -4   0 2781.52  162.88
   0  -4   0 2780.42  162.08
   0  -4   0 2757.92  162.98
   0   4   0 2722.43  162.08
   0   4   0 2672.83  162.28
   0   4   0 2798.02  163.78
   0   4   0 2777.12  163.08
   0   4   0 2737.73  162.78
   0   4   0 2712.73  162.88
   0   4   0 2783.62  163.48
  -1  -4   0   14.20    3.90
   1  -4   0   12.70    2.80
   1  -4   0   14.30    4.10
  -1  -4   0   -0.80    5.50
  -1  -4   0    5.20    3.30
  -1  -4   0   17.60    4.20
  -1  -4   0   10.20    3.60
   1  -4   0   15.60    4.60
  -1  -4   0   10.20    3.70
   1  -4   0    9.40    3.40
  -1  -4   0   11.80    3.70
   1  -4   0   10.40    3.30
   1  -4   0   19.10    4.00
  -1  -4   0   16.40    3.50
   1  -4   0   12.80    3.60
   1   4   0   12.70    3.80
   1   4   0    8.00    3.10
   1   4   0   15.80    3.70
   1   4   0   18.30    3.80
   1   4   0   24.40    5.80
  -1   4   0    2.60    3.20
   1   4   0   16.70    4.00
  -1   4   0   13.30    5.20
  -1   4   0   12.20    2.40
  -1   4   0    7.60    3.00
   1   4   0   15.50    3.30
  -1   4   0    7.50    3.10
  -1   4   0   12.90    3.90
  -1   4   0   12.80    3.70
   2  -4   0  144.09   11.70
   2  -4   0  140.89   13.10
  -2  -4   0  157.48   11.80
  -2  -4   0  167.18   13.30
  -2  -4   0  161.78   12.10
   2  -4   0  156.58   10.30
  -2  -4   0  145.89   11.90
   2  -4   0  147.59   11.30
  -2  -4   0  159.18   12.40
   2  -4   0  161.88   12.10
   2  -4   0  152.38   11.70
  -2  -4   0  148.39   11.50
   2  -4   0  150.08   11.60
  -2  -4   0  152.28   11.60
   2   4   0  142.39   12.10
  -2   4   0  154.18   11.80
  -2   4   0  149.69   12.40
  -2   4   0  156.18   11.80
  -2   4   0  148.19   10.10
   2   4   0  161.48   11.20
  -2   4   0  144.69   11.00
   2   4   0  153.88   11.50
  -2   4   0  156.18   12.30
   2   4   0  147.79   11.90
   2   4   0  169.28   13.20
   2   4   0  164.58   12.20
   2   4   0  160.98   12.40
   3  -4   0   10.30    3.50
   3  -4   0    3.20    2.90
  -3  -4   0    1.30    3.50
   3  -4   0    2.40    3.90
   3  -4   0    8.40    3.40
  -3  -4   0    5.40    3.60
  -3  -4   0   10.80    4.30
  -3  -4   0    9.80    3.80
   3  -4   0    2.30    3.40
  -3  -4   0    9.00    3.70
  -3  -4   0   12.50    5.20
  -3  -4   0    7.20    2.80
  -3  -4   0   -0.90    3.30
   3  -4   0    7.00    1.90
   3  -4   0    6.90    3.30
   3   4   0   13.30    3.50
   3   4   0    5.20    2.70
   3   4   0    5.20    3.40
  -3   4   0    4.90    3.40
   3   4   0    5.80    4.80
   3   4   0    7.40    4.80
  -3   4   0    7.20    1.90
  -3   4   0    8.20    3.70
  -3   4   0   -9.30    4.60
  -3   4   0   10.70    3.10
   3   4   0    3.80    3.00
   3   4   0    8.50    3.40
  -3   4   0    5.30    4.40
  -3   4   0    5.10    4.90
  -4  -4   0  138.19   12.00
   4  -4   0  156.38   12.30
   4  -4   0  170.48   12.50
  -4  -4   0  144.59   11.70
  -4  -4   0  135.09   11.00
   4  -4   0  169.98   11.60
  -4  -4   0  141.29   11.80
   4  -4   0  142.49   12.00
  -4  -4   0  124.59   11.90
   4  -4   0  150.78   11.20
  -4  -4   0  130.89   12.10
   4   4   0  130.89   11.50
   4   4   0  140.19   11.80
   4   4   0  136.49   11.40
   4   4   0  125.89   10.90
   4   4   0  125.89   11.60
  -4   4   0  177.48   13.60
  -4   4   0  159.98   11.40
  -4   4   0  173.08   12.00
  -4   4   0  160.58   11.00
  -4   4   0  159.08   12.90
  -4   4   0  170.38    9.50
   5  -4   0    1.20    3.80
  -5  -4   0   -2.50    4.00
  -5  -4   0   -0.50    3.30
  -5  -4   0   -2.90    3.30
   5  -4   0    1.40    3.10
   5  -4   0    1.10    3.60
   5  -4   0    4.70    3.90
   5  -4   0    3.20    3.20
  -5  -4   0   -0.10    4.10
  -5  -4   0    2.80    2.90
  -5  -4   0    9.40    5.00
   5   4   0   -3.70    3.10
   5   4   0    5.90    4.10
   5   4   0    7.40    3.90
  -5   4   0   -1.00    4.00
   5   4   0    9.20    3.10
   5   4   0    4.00    3.20
  -5   4   0    3.20    3.20
  -5   4   0    3.40    3.80
  -5   4   0   -4.00    2.90
  -5   4   0    0.40    5.60
   6  -4   0  940.61   55.59
  -6  -4   0  872.11   55.19
   6  -4   0  938.41   56.39
   6  -4   0  930.71   56.29
  -6  -4   0  928.41   56.79
  -6  -4   0  895.21   56.09
   6  -4   0  935.81   55.79
  -6  -4   0  940.51   56.09
  -6  -4   0  865.91   56.39
  -6   4   0  935.61   57.09
  -6   4   0  872.71   56.59
  -6   4   0  910.91   55.59
   6   4   0  948.61   56.39
   6   4   0  865.31   55.79
   6   4   0  929.81   55.59
  -6   4   0  947.31   55.29
   6   4   0  930.71   55.59
   6   4   0  879.11   55.79
  -6   4   0  919.81   56.29
  -7  -4   0    0.00    3.70
   7  -4   0    9.80    4.70
   7  -4   0    2.90    4.20
  -7  -4   0    1.90    4.30
  -7  -4   0   -1.50    4.20
  -7  -4   0   -0.40    5.40
  -7   4   0    3.50    5.10
  -7   4   0   -5.80    4.10
   7   4   0   -2.90    3.10
   7   4   0   -1.60    4.40
  -7   4   0    4.20    4.00
   7   4   0   -5.30    3.70
   7   4   0   13.80    3.90
   8  -4   0   97.29   11.60
  -8  -4   0  105.99   10.50
  -8   4   0  105.19   11.00
   8   4   0  142.09   10.20
   8   4   0   96.69   10.00
  -8   4   0  119.29   11.50
   8   4   0  109.09   11.80
   8   4   0  111.59   12.30
  -8   4   0  110.79   12.90
   9  -4   0    4.80    6.20
  -9  -4   0   17.40    5.10
  -9  -4   0    7.90    5.40
   9  -4   0   11.80    5.50
   9   4   0   14.80    5.60
  -9   4   0   11.80    6.90
  -9   4   0    8.90    5.80
   9   4   0   18.20    6.50
  -9   4   0    8.00    5.20
   9   4   0   16.90    4.40
   0  -5   0   -3.30    3.70
   0  -5   0    3.30    4.50
   0  -5   0    0.50    3.80
   0  -5   0    8.40    4.70
   0  -5   0    3.40    3.40
   0  -5   0    7.30    5.20
   0  -5   0   -3.70    4.20
   0   5   0    1.90    4.30
   0   5   0   -4.50    4.80
   0   5   0   -3.90    6.50
   0   5   0   -2.70    4.00
   0   5   0   10.60    4.30
   0   5   0   -9.40    3.80
   0   5   0    5.80    3.10
  -1  -5   0  168.98   14.20
   1  -5   0  165.38   14.10
   1  -5   0  161.58   13.80
  -1  -5   0  163.68   13.20
   1  -5   0  177.48   13.60
  -1  -5   0  159.98   12.50
   1  -5   0  178.88   14.90
   1  -5   0  166.58   11.90
  -1  -5   0  158.38   13.70
  -1  -5   0  160.58   14.40
  -1  -5   0  168.88   14.00
   1  -5   0  170.28   13.40
   1  -5   0  156.08   12.80
  -1   5   0  169.98   14.40
   1   5   0  183.98   13.70
  -1   5   0  170.58   13.50
   1   5   0  176.38   12.50
   1   5   0  156.78   15.40
  -1   5   0  168.48   17.10
  -1   5   0  161.58   11.60
   1   5   0  173.68   13.20
  -1   5   0  158.08   14.20
   1   5   0  173.48   16.60
  -1   5   0  141.39   13.00
   1   5   0  159.38   14.30
  -1   5   0  153.18   13.30
   2  -5   0   27.10    3.90
   2  -5   0   25.50    5.70
  -2  -5   0   21.70    5.50
   2  -5   0   22.10    4.80
   2  -5   0   25.70    6.30
   2  -5   0   23.60    5.10
  -2  -5   0   22.60    4.70
  -2  -5   0   26.30    6.00
  -2  -5   0   29.50    6.20
  -2  -5   0   16.60    5.60
   2  -5   0   30.90    5.50
  -2   5   0   23.40    7.90
  -2   5   0   27.30    6.40
   2   5   0   34.80    6.30
  -2   5   0   31.50    6.30
  -2   5   0   19.50    5.60
  -2   5   0   26.00    3.70
   2   5   0   22.50    5.00
   2   5   0   21.00    4.70
   2   5   0   13.40    5.70
  -2   5   0   23.80    4.90
  -3  -5   0  587.64   40.30
  -3  -5   0  564.44   40.40
   3  -5   0  674.83   40.10
  -3  -5   0  588.74   39.60
  -3  -5   0  592.24   41.10
   3  -5   0  741.03   40.10
  -3  -5   0  614.94   44.20
   3  -5   0  710.53   40.60
   3  -5   0  670.23   40.80
   3  -5   0  662.13   38.30
   3  -5   0  638.24   41.70
  -3   5   0  641.04   40.60
   3   5   0  608.04   39.80
  -3   5   0  643.54   39.30
   3   5   0  654.33   40.10
  -3   5   0  619.14   40.40
   3   5   0  548.45   42.30
  -3   5   0  667.93   41.30
  -3   5   0  682.43   42.50
   3   5   0  585.34   40.60
  -3   5   0  667.93   38.20
   3   5   0  599.84   40.20
   4  -5   0   21.80    5.40
   4  -5   0   22.50    6.40
  -4  -5   0   22.70    5.00
  -4  -5   0   13.50    5.10
   4  -5   0   35.50    6.50
  -4  -5   0   27.20    6.20
   4  -5   0   27.80    5.80
  -4  -5   0   17.30    6.80
   4   5   0   15.40    5.20
  -4   5   0   22.20    3.00
  -4   5   0   19.70    5.50
   4   5   0   20.90    7.30
  -4   5   0   10.60    4.40
  -4   5   0   20.20    7.50
   4   5   0   22.00    5.10
  -4   5   0    5.50    5.10
   4   5   0   35.70    6.30
  -5  -5   0   62.49    9.30
  -5  -5   0   71.69    9.10
   5  -5   0   95.19    9.80
   5  -5   0   92.99   10.50
  -5  -5   0   83.19   10.40
   5  -5   0   97.39   10.70
  -5   5   0   93.19   11.20
  -5   5   0  105.99   11.50
   5   5   0   81.19    9.60
   5   5   0   93.79    9.90
   5   5   0   89.49   12.60
  -6  -5   0   30.00    7.50
   6  -5   0   27.00    6.10
  -6  -5   0   46.60    8.10
   6  -5   0   31.70    6.80
   6  -5   0   31.00    7.00
  -6  -5   0   25.50    5.60
  -6   5   0   29.40    8.00
   6   5   0   22.20    7.00
   6   5   0   36.20    6.20
  -6   5   0   32.20    7.20
  -7  -5   0   65.89   10.60
  -7  -5   0   72.09    9.90
   7  -5   0   81.79   10.00
  -7  -5   0   88.49    9.90
   7  -5   0   76.59   11.40
   7   5   0   95.49   10.60
  -7   5   0  117.19   13.50
  -7   5   0   88.49   10.50
   7   5   0   88.29   10.00
  -8  -5   0   10.60    5.30
   8  -5   0    9.90    7.60
   8  -5   0   25.80    6.80
   8  -5   0   11.60    7.20
  -8   5   0   10.00    6.70
  -8   5   0   14.10    8.40
   8   5   0    5.20    6.50
  -8   5   0   16.00    6.80
   8   5   0   10.00    5.00
   8   5   0   16.10    7.00
   0  -6   0  341.47   25.50
   0  -6   0  305.47   22.40
   0  -6   0  342.07   23.80
   0  -6   0  322.77   24.30
   0   6   0  315.47   23.90
   0   6   0  324.87   24.90
   0   6   0  311.07   22.70
   0   6   0  355.26   23.90
   1  -6   0   27.60    5.30
   1  -6   0   25.00    7.40
  -1  -6   0   17.70    8.00
  -1  -6   0   25.80    7.00
  -1  -6   0   27.20    5.40
   1  -6   0   28.10    7.90
  -1  -6   0   24.60    8.20
   1   6   0   20.10    7.40
  -1   6   0   20.70    6.70
   1   6   0   22.80    7.10
  -1   6   0   36.00    7.60
  -1   6   0   28.90    4.90
   1   6   0   23.50    5.40
   1   6   0   24.30    7.60
  -1   6   0   14.60    6.90
  -2  -6   0  132.59   22.10
  -2  -6   0  126.99   11.50
  -2  -6   0  141.99   14.40
   2  -6   0  129.39   14.00
   2  -6   0  109.29   11.90
  -2   6   0  123.69   14.30
  -2   6   0  135.39   10.40
  -2   6   0  132.59   14.20
   2   6   0  135.39   12.70
   2   6   0  123.59   14.20
   2   6   0  116.09   13.50
  -3  -6   0   60.39    9.30
  -3  -6   0   62.29    7.50
  -3  -6   0   56.09   10.20
   3  -6   0   56.69    9.00
   3  -6   0   62.09    9.20
   3  -6   0   44.30    7.40
  -3   6   0   48.30    9.50
   3   6   0   62.09   10.00
   3   6   0   53.39    8.00
  -3   6   0   50.19    9.60
   3   6   0   40.00    7.40
  -4  -6   0  112.29   13.30
  -4  -6   0  147.49   16.20
   4  -6   0  125.69   13.20
   4  -6   0  120.39   18.70
  -4  -6   0  119.69   12.70
   4  -6   0  134.59   15.10
   4   6   0  141.49   13.90
  -4   6   0  146.39   14.60
   4   6   0  158.38   13.90
  -4   6   0  144.79   16.00
   4   6   0  113.49   15.40
  -5  -6   0   71.99   11.30
   5  -6   0   63.79    9.60
   5  -6   0   54.89    9.60
  -5  -6   0   78.59   11.20
   5  -6   0   70.19   10.30
  -5  -6   0   65.09    8.50
  -5   6   0   58.39   10.20
   5   6   0   69.79    9.10
  -5   6   0   72.69   10.90
   5   6   0   70.99   10.90
   5   6   0   70.09    9.50
   6   6   0  251.07   21.10
  -6   6   0  229.38   21.70
 -12   0   1   -0.10    3.30
 -12   0   1    4.00    7.40
  12   0  -1   -0.20    6.70
  11   0  -1    1.10    2.00
 -11   0   1    2.50    2.40
  11   0  -1    1.70    4.70
  11   0  -1   -1.40    2.10
  11   0  -1   -4.60    5.20
 -11   0   1    2.70    4.30
  11   0  -1    0.20    4.60
 -11   0   1    1.30    2.70
 -10   0   1   -0.10    2.30
  10   0  -1   -0.60    1.70
  10   0  -1   -0.60    3.20
 -10   0   1    0.50    3.50
  10   0  -1   -1.80    3.30
 -10   0   1   -2.40    1.70
  10   0  -1    4.60    4.50
  10   0  -1    2.40    2.00
  -9   0   1    2.70    3.20
   9   0  -1    1.90    1.70
  -9   0   1    1.10    1.70
   9   0  -1    1.40    1.60
   9   0  -1    1.00    4.30
   9   0  -1    4.90    2.80
   9   0  -1    1.10    3.00
  -9   0   1    0.00    1.70
   9   0  -1   -1.80    2.60
   9   0  -1    8.50    4.60
   8   0  -1   -0.30    1.40
  -8   0   1    1.70    1.70
   8   0  -1   -1.70    2.60
  -8   0   1    2.00    2.70
  -8   0   1   -0.50    1.30
   8   0  -1   -4.50    3.60
   8   0  -1    2.70    2.40
   8   0  -1    0.80    2.20
   8   0  -1   -0.20    1.10
   8   0  -1   -0.50    2.30
   7   0  -1    3.50    2.10
   7   0  -1    1.50    1.10
   7   0  -1   -1.10    1.90
   7   0  -1    0.60    2.90
   7   0  -1    0.60    1.00
   7   0  -1    1.00    2.00
   7   0  -1   -1.30    2.90
  -7   0   1    0.00    1.00
   7   0  -1    0.10    1.90
  -7   0   1   -0.50    1.40
  -7   0   1   -1.90    2.20
   6   0  -1    0.00    1.90
   6   0  -1   -1.90    1.50
   6   0  -1    1.50    0.80
   6   0  -1    2.10    2.60
   6   0  -1   -0.10    1.60
  -6   0   1   -2.60    2.30
   6   0  -1   -1.40    2.20
  -6   0   1   -0.60    0.90
   6   0  -1    1.30    0.80
  -6   0   1    1.40    1.10
   6   0  -1    0.50    1.70
   5   0  -1    0.90    0.60
  -5   0   1   -0.70    0.60
   5   0  -1    2.10    1.40
   5   0  -1    3.20    1.80
  -5   0   1   -0.80    1.80
   5   0  -1    0.10    0.60
   5   0  -1    0.00    1.40
  -5   0   1    1.20    0.90
  -5   0   1    0.70    2.00
   5   0  -1    0.60    1.90
   5   0  -1   -0.50    1.30
   4   0  -1    1.20    0.50
   4   0  -1    3.30    1.40
  -4   0   1    0.80    1.80
   4   0  -1   -0.40    1.40
   4   0  -1    0.20    0.60
   4   0  -1   -0.30    1.10
  -4   0   1   -0.60    0.50
  -4   0   1   -1.20    0.70
   4   0  -1   -1.70    1.30
  -4   0   1    1.50    1.60
   4   0  -1   -1.10    1.20
   3   0  -1    0.20    1.00
  -3   0   1    0.00    0.50
   3   0  -1    0.10    1.00
  -3   0   1    0.70    1.30
   3   0  -1   -0.10    0.40
   3   0  -1    1.50    1.10
  -3   0   1    0.10    0.40
   3   0  -1    0.60    0.80
   3   0  -1    0.00    0.40
  -3   0   1    1.10    1.20
   3   0  -1    0.30    1.10
  -2   0   1   -0.10    0.90
   2   0  -1   -0.10    0.80
  -2   0   1   -0.50    1.00
   2   0  -1   -0.10    0.90
   2   0  -1    1.60    0.90
  -2   0   1    0.90    1.00
  -1   0   1    0.30    0.50
  -1   0   1    0.20    0.60
  -1   0   1    0.00    0.50
   1   0  -1   -0.10    0.50
   1   0  -1    0.60    0.50
   1   0  -1    0.20    0.40
  -1   0  -1    0.20    0.40
  -1   0  -1    0.10    0.20
   1   0   1    0.40    0.40
   1   0   1    0.10    0.40
   1   0   1    0.10    0.30
  -1   0  -1    0.30    0.40
   1   0   1    0.20    0.40
   1   0   1   -0.80    0.40
   1   0   1    0.10    0.30
  -1   0  -1    0.10    0.40
  -1   0  -1   -0.20    0.40
   1   0   1    0.40    0.50
   2   0   1    1.50    0.80
  -2   0  -1    0.10    0.60
  -2   0  -1    0.20    0.60
  -2   0  -1   -0.10    0.30
   2   0   1   -0.40    0.80
  -2   0  -1    0.30    0.90
   2   0   1    0.40    0.60
   2   0   1    0.30    0.50
  -2   0  -1   -0.10    0.60
   2   0   1    1.60    0.70
   2   0   1    0.00    0.70
  -2   0  -1    0.10    0.60
  -2   0  -1   -0.30    0.80
  -2   0  -1   -0.90    1.20
   2   0   1   -0.50    0.90
   3   0   1    0.20    0.80
  -3   0  -1    0.00    0.60
   3   0   1    0.50    0.80
   3   0   1    0.80    0.60
  -3   0  -1    0.20    1.30
   3   0   1   -0.10    1.00
   3   0   1    0.90    0.80
  -3   0  -1    0.60    0.60
  -3   0  -1    0.20    0.70
  -3   0  -1    0.20    0.80
   3   0   1    0.60    0.60
  -3   0  -1    0.60    0.60
  -3   0  -1   -0.80    0.90
   3   0   1    1.30    0.90
  -3   0  -1   -1.10    1.00
  -4   0  -1    0.60    1.00
   4   0   1   -0.90    1.30
  -4   0  -1    0.80    0.70
  -4   0  -1    1.00    0.90
   4   0   1   -0.10    0.80
  -4   0  -1    0.30    1.00
  -4   0  -1   -1.30    1.20
   4   0   1    0.10    0.80
   4   0   1    0.30    0.90
   4   0   1    2.90    1.40
   4   0   1   -0.60    1.00
  -4   0  -1   -0.90    1.30
  -4   0  -1   -0.60    0.80
   4   0   1    0.00    0.90
  -4   0  -1    0.20    1.50
  -5   0  -1   -0.50    0.90
  -5   0  -1   -0.90    1.60
   5   0   1    1.20    1.30
  -5   0  -1   -2.50    2.00
   5   0   1    0.70    1.00
   5   0   1   -3.10    1.40
  -5   0  -1   -0.20    0.90
   5   0   1    2.00    1.20
  -5   0  -1    0.10    1.00
  -5   0  -1    0.10    1.60
  -5   0  -1   -0.10    1.40
   5   0   1    0.70    1.00
  -5   0  -1   -0.90    1.20
   5   0   1    0.00    1.00
   6   0   1    1.50    1.40
   6   0   1    0.00    1.60
  -6   0  -1    1.00    1.20
   6   0   1    5.00    2.70
  -6   0  -1    1.30    1.80
   6   0   1   -1.10    1.10
   6   0   1    1.70    1.70
   6   0   1   -0.40    1.10
   6   0   1    1.70    1.40
   6   0   1    0.30    1.30
  -6   0  -1    2.70    1.20
  -6   0  -1   -1.30    2.10
  -6   0  -1    0.60    1.20
  -6   0  -1    2.40    2.10
   7   0   1   -0.10    1.40
  -7   0  -1   -1.70    2.20
   7   0   1    0.40    2.40
   7   0   1    2.40    1.30
   7   0   1    1.00    1.60
  -7   0  -1   -1.20    2.40
  -7   0  -1    0.90    1.40
  -7   0  -1    0.90    1.30
   7   0   1    0.30    1.40
   7   0   1   -0.60    1.40
   7   0   1    0.70    3.10
   7   0   1    1.20    1.80
   7   0   1   -1.00    1.90
  -7   0  -1   -1.70    1.80
   8   0   1    0.60    2.20
  -8   0  -1    1.80    1.60
  -8   0  -1   -0.40    1.70
   8   0   1   -0.70    3.60
   8   0   1    1.30    1.80
  -8   0  -1    0.90    2.30
  -8   0  -1    3.50    3.10
   8   0   1    5.20    3.30
   8   0   1    2.90    1.60
   8   0   1    0.60    1.80
   9   0   1    0.40    4.60
  -9   0  -1   -4.00    3.40
   9   0   1   -1.00    3.50
   9   0   1    2.90    2.40
  -9   0  -1   -0.70    1.90
  -9   0  -1    3.30    2.70
   9   0   1   -2.50    2.30
  -9   0  -1    1.90    1.70
   9   0   1    0.70    2.30
   9   0   1   -1.00    1.70
   9   0   1    5.00    2.80
  10   0   1    4.30    2.40
  10   0   1   -2.50    2.50
 -10   0  -1   -4.80    3.00
 -10   0  -1    4.50    2.50
  10   0   1   -8.30    5.80
  10   0   1    2.50    4.20
  10   0   1    1.20    2.90
 -10   0  -1    1.30    3.80
  10   0   1   -2.30    3.40
  11   0   1    0.40    2.80
 -11   0  -1   -2.70    4.10
 -11   0  -1   -2.70    4.60
  11   0   1    3.20    5.70
 -11   0  -1   -3.90    2.60
  11   0   1    2.10    3.10
  11   0   1    9.80    4.20
 -12   0  -1    3.20    3.50
  12   0   1  -11.20    6.40
 -12   0  -1   -3.80    6.10
  12   0   1    1.10    3.50
  12  -1  -1   16.30    7.00
  12  -1  -1    7.70    2.40
  12  -1  -1    3.60    2.60
 -12  -1   1    6.70    2.80
  12   1  -1    8.40    6.90
  12   1  -1    6.80    2.40
  12   1  -1   -2.30    7.00
 -11  -1   1    3.60    4.60
  11  -1  -1   -0.20    4.50
  11  -1  -1    4.90    5.30
 -11  -1   1    2.10    2.40
  11  -1  -1   -1.80    2.50
 -11  -1   1    5.80    3.30
  11  -1  -1    1.70    2.50
  11   1  -1   -0.90    5.70
 -11   1   1   -1.20    5.10
 -11   1   1    0.50    2.70
  11   1  -1    1.30    2.60
  11   1  -1    2.70    2.30
  11   1  -1    7.80    6.00
 -11   1   1    1.00    3.40
 -10  -1   1  -10.60    3.50
  10  -1  -1    2.00    4.00
  10  -1  -1    6.40    4.40
  10  -1  -1   -0.40    3.10
  10  -1  -1   -7.90    5.40
 -10  -1   1   -0.80    2.00
  10  -1  -1   -0.50    1.80
 -10  -1   1    1.70    2.60
  10  -1  -1   -0.20    2.30
 -10   1   1   -2.50    3.70
  10   1  -1   -4.80    2.10
  10   1  -1    0.30    4.10
  10   1  -1   -4.80    4.30
  10   1  -1   -0.10    1.80
  10   1  -1   -1.50    3.20
 -10   1   1    2.80    2.30
 -10   1   1    1.30    2.90
 -10   1   1    4.90    5.00
  -9  -1   1    3.30    2.30
   9  -1  -1    6.80    2.30
   9  -1  -1   14.40    3.80
   9  -1  -1    6.20    3.70
  -9  -1   1    2.10    3.50
   9  -1  -1    3.40    2.60
  -9  -1   1    1.40    1.90
   9  -1  -1    0.50    3.20
   9  -1  -1    7.10    1.80
   9   1  -1    1.80    2.90
  -9   1   1    5.10    2.20
   9   1  -1    7.70    4.30
   9   1  -1   -3.30    3.40
   9   1  -1    6.30    2.90
  -9   1   1    2.70    2.30
   9   1  -1    3.60    1.90
  -9   1   1    4.20    4.10
   9   1  -1    1.00    1.90
  -8  -1   1   -1.60    1.50
   8  -1  -1    4.80    4.30
  -8  -1   1    2.20    2.80
   8  -1  -1    0.20    1.90
   8  -1  -1   -0.70    1.90
   8  -1  -1    2.00    2.50
   8  -1  -1    3.30    2.70
   8  -1  -1    0.50    1.40
  -8  -1   1    0.20    1.50
   8  -1  -1    2.50    2.70
   8   1  -1    5.10    3.00
   8   1  -1   -3.50    4.70
   8   1  -1    0.00    2.30
   8   1  -1   -0.40    1.50
  -8   1   1    4.10    3.20
  -8   1   1    3.20    2.10
   8   1  -1    1.10    2.90
  -8   1   1    0.60    1.70
   8   1  -1   -0.60    1.40
  -8   1   1   -3.20    3.00
   8   1  -1    4.90    2.60
   7  -1  -1   20.00    4.00
   7  -1  -1   24.10    3.10
   7  -1  -1   26.40    3.10
   7  -1  -1   32.10    4.70
  -7  -1   1   31.30    4.40
   7  -1  -1   38.90    4.30
   7  -1  -1   28.50    3.20
  -7  -1   1   23.70    2.80
  -7  -1   1   26.30    2.90
   7  -1  -1   26.90    2.70
   7   1  -1   25.70    3.70
   7   1  -1   27.50    3.70
   7   1  -1   25.60    5.40
  -7   1   1   29.00    4.30
  -7   1   1   29.50    3.80
   7   1  -1   22.70    4.90
   7   1  -1   26.40    4.00
   7   1  -1   24.10    3.80
  -7   1   1   31.60    4.70
   7   1  -1   24.60    2.60
   7   1  -1   24.60    3.00
  -7   1   1   24.30    3.00
  -7   1   1   25.80    2.00
   6  -1  -1   69.49    4.90
   6  -1  -1   62.59    5.10
  -6  -1   1   70.09    4.20
   6  -1  -1   66.49    5.00
  -6  -1   1   65.79    4.10
   6  -1  -1   63.79    5.50
  -6  -1   1   61.19    6.00
   6  -1  -1   61.49    4.60
   6  -1  -1   63.49    6.00
  -6  -1   1   68.19    4.80
  -6  -1   1   52.99    4.70
   6   1  -1   51.99    6.80
  -6   1   1   63.09    4.80
  -6   1   1   71.79    6.30
  -6   1   1   61.09    5.20
  -6   1   1   65.49    5.50
  -6   1   1   67.39    6.10
  -6   1   1   70.89    4.40
   6   1  -1   65.69    5.60
   6   1  -1   58.09    5.60
   6   1  -1   69.99    7.20
  -6   1   1   61.79    4.20
   6   1  -1   58.39    4.60
   6   1  -1   58.19    5.50
   6   1  -1   64.29    5.50
   6   1  -1   57.39    4.40
   5  -1  -1  109.19    6.80
  -5  -1   1  117.19    7.00
   5  -1  -1  107.89    7.60
   5  -1  -1  106.89    7.20
   5  -1  -1  108.49    7.90
   5  -1  -1  106.29    8.10
  -5  -1   1  106.59    8.00
  -5  -1   1  112.09    8.00
   5  -1  -1  108.89    7.30
   5  -1  -1  109.39    7.30
   5  -1  -1  110.99    6.70
  -5  -1   1  122.79    7.40
  -5  -1   1  102.89    7.20
  -5   1   1  111.79    7.00
   5   1  -1  109.39    7.90
   5   1  -1  112.99    7.30
   5   1  -1  106.89    8.00
  -5   1   1  110.19    8.30
  -5   1   1  100.49    7.20
   5   1  -1  107.89    7.00
  -5   1   1  107.49    7.70
  -5   1   1  110.49    6.90
   5   1  -1  107.59    8.70
  -5   1   1  100.29    8.00
   5   1  -1  110.39    8.00
  -5   1   1  111.29    7.60
   5   1  -1  116.99    8.10
   5   1  -1  115.79    6.70
   4  -1  -1  106.49    6.90
   4  -1  -1  109.19    7.20
  -4  -1   1  108.79    7.10
   4  -1  -1  105.59    7.10
   4  -1  -1  105.49    7.00
   4  -1  -1  103.19    6.90
  -4  -1   1  112.49    7.60
  -4  -1   1  103.19    7.40
  -4  -1   1  105.99    7.00
  -4  -1   1  105.99    6.70
   4  -1  -1  111.59    7.90
  -4  -1   1  107.69    6.80
  -4  -1   1  104.89    7.90
  -4  -1   1  116.19    7.80
   4  -1  -1  108.99    6.80
   4  -1  -1  109.19    7.30
   4   1  -1  113.19    8.20
   4   1  -1  109.69    6.70
   4   1  -1  106.99    7.00
   4   1  -1  106.89    6.90
   4   1  -1  105.59    7.60
  -4   1   1  108.59    6.90
  -4   1   1  107.49    6.90
  -4   1   1  110.49    7.20
  -4   1   1  113.99    7.80
  -4   1   1  104.59    7.80
  -4   1   1  112.29    7.90
  -4   1   1  106.29    7.00
   4   1  -1  112.59    7.70
   4   1  -1  109.39    6.90
   3  -1  -1   20.50    2.60
  -3  -1   1   21.20    1.90
   3  -1  -1   19.30    2.10
  -3  -1   1   22.30    2.60
   3  -1  -1   23.50    2.20
  -3  -1   1   27.70    3.10
  -3  -1   1   19.50    2.30
   3  -1  -1   22.90    2.20
   3  -1  -1   20.50    2.10
   3  -1  -1   23.10    1.90
  -3  -1   1   19.00    2.00
  -3  -1   1   16.10    2.20
  -3  -1   1   18.90    2.90
  -3   1   1   17.40    2.30
   3   1  -1   18.40    2.50
  -3   1   1   20.00    2.30
  -3   1   1   23.40    2.80
  -3   1   1   21.30    1.90
  -3   1   1   17.10    2.00
  -3   1   1   14.10    2.30
  -3   1   1   22.80    2.10
  -3   1   1   19.60    2.10
   3   1  -1   21.50    2.10
   3   1  -1   21.10    2.80
   3   1  -1   20.40    2.00
   3   1  -1   19.80    1.90
   3   1  -1   11.60    3.80
  -2  -1   1   20.80    2.40
   2  -1  -1   18.50    2.30
   2  -1  -1   22.10    2.20
  -2  -1   1   25.90    2.90
   2  -1  -1   21.20    2.00
  -2  -1   1   21.40    2.10
   2  -1  -1   18.90    1.80
   2  -1  -1   19.00    2.50
  -2  -1   1   22.80    2.10
  -2  -1   1   21.00    2.50
   2  -1  -1   23.80    1.70
   2  -1  -1   22.10    2.00
  -2  -1   1   20.00    2.60
  -2   1   1   21.10    2.70
   2   1  -1   22.30    2.00
  -2   1   1   21.10    1.80
  -2   1   1   18.30    2.20
   2   1  -1   21.10    2.30
   2   1  -1   18.30    2.00
  -2   1   1   21.90    1.90
   2   1  -1   18.70    2.40
   2   1  -1   21.30    2.50
  -2   1   1   19.50    1.70
   2   1  -1   25.00    2.90
  -2   1   1   20.10    2.50
  -2   1   1   20.80    2.20
  -1  -1   1   48.50    4.10
  -1  -1   1   50.79    4.00
   1  -1  -1   61.39    4.40
   1  -1  -1   63.89    4.20
   1  -1  -1   59.79    3.70
   1  -1  -1   58.09    3.70
   1  -1  -1   63.79    4.10
  -1  -1   1   51.79    4.30
   1  -1  -1   67.79    4.30
   1  -1  -1   64.89    4.50
  -1  -1   1   54.39    4.50
  -1  -1   1   53.09    4.40
  -1   1   1   63.19    4.40
   1   1  -1   48.30    4.20
   1   1  -1   49.99    4.00
  -1   1   1   59.59    3.70
   1   1  -1   49.70    4.00
   1   1  -1   49.90    4.00
  -1   1   1   63.69    4.10
   1   1  -1   65.69    5.00
  -1   1   1   61.89    4.10
   1   1  -1   57.19    4.50
  -1   1   1   61.89    4.20
   1   1  -1   55.29    4.20
  -1   1   1   59.69    3.70
   0  -1   1    0.70    0.90
   0  -1  -1    0.00    0.70
   0  -1   1    0.60    0.70
   0  -1  -1    0.90    1.00
   0  -1   1    0.30    0.70
   0  -1   1    0.80    0.80
   0  -1   1   -2.20    1.00
   0  -1  -1    1.70    0.80
   0  -1  -1    0.90    0.90
   0  -1   1    0.10    0.80
   0  -1  -1    0.30    0.80
   0  -1   1    0.10    0.90
   0  -1  -1    1.10    0.80
   0  -1  -1    0.20    0.80
   0   1  -1   -0.50    1.10
   0   1   1    1.50    1.00
   0   1  -1   -0.20    0.70
   0   1  -1    0.10    1.00
   0   1  -1    1.10    0.70
   0   1   1    1.00    0.80
   0   1   1    0.10    1.00
   0   1   1    0.20    0.60
   0   1   1    1.40    0.90
   0   1   1    0.20    0.70
   0   1   1   -0.70    0.70
   0   1  -1   -0.60    0.80
   0   1  -1    1.50    0.80
  -1  -1  -1   84.79    6.60
   1  -1   1  110.59    6.60
  -1  -1  -1   92.79    6.60
  -1  -1  -1   88.09    6.60
   1  -1   1  108.89    7.00
  -1  -1  -1   92.89    6.70
  -1  -1  -1   94.49    6.50
   1  -1   1  113.19    7.00
   1  -1   1  113.69    6.60
   1  -1   1  111.19    6.90
  -1  -1  -1   88.69    6.50
   1  -1   1  115.29    6.80
   1   1   1   92.69    6.60
  -1   1  -1  116.29    6.20
   1   1   1   83.49    6.50
   1   1   1   90.99    6.50
  -1   1  -1  114.79    6.70
   1   1   1   86.99    6.50
   1   1   1  100.29    6.70
   1   1   1   93.09    6.60
   1   1   1   97.99    6.80
  -1   1  -1  114.79    7.00
  -1   1  -1  121.09    7.00
  -1   1  -1  104.09    6.50
  -1   1  -1  106.09    6.60
   2  -1   1    0.90    0.80
   2  -1   1    0.90    1.30
  -2  -1  -1    0.10    1.20
   2  -1   1    0.40    1.20
  -2  -1  -1    1.20    0.80
  -2  -1  -1    0.60    1.10
  -2  -1  -1    1.20    1.60
   2  -1   1   -0.30    0.80
  -2  -1  -1    0.40    1.30
   2  -1   1    1.20    1.00
  -2  -1  -1    0.50    0.80
   2   1   1   -0.20    1.30
  -2   1  -1   -0.40    1.20
   2   1   1    1.80    0.70
   2   1   1    1.80    1.50
   2   1   1    0.00    1.40
  -2   1  -1    1.90    1.00
   2   1   1    1.90    1.00
   2   1   1    0.40    0.90
  -2   1  -1   -2.10    1.00
  -2   1  -1   -0.40    0.90
  -2   1  -1    0.00    0.90
  -3  -1  -1    0.30    0.70
  -3  -1  -1   -1.10    1.30
   3  -1   1    2.10    1.10
   3  -1   1    1.80    1.10
   3  -1   1    0.60    0.90
   3  -1   1   -0.20    1.10
   3  -1   1    0.50    0.30
  -3  -1  -1    1.50    1.00
  -3  -1  -1   -0.20    1.00
   3  -1   1    0.00    1.00
   3  -1   1    1.30    1.30
  -3  -1  -1    1.30    1.70
  -3  -1  -1    0.80    0.80
   3  -1   1    0.00    0.60
  -3   1  -1    0.80    1.60
  -3   1  -1    1.70    1.20
  -3   1  -1    0.90    1.30
   3   1   1    0.20    1.10
   3   1   1    0.60    0.90
  -3   1  -1   -0.20    1.10
  -3   1  -1    0.90    1.50
   3   1   1    1.30    1.00
  -3   1  -1   -0.20    0.90
   3   1   1   -0.80    1.40
  -3   1  -1   -1.10    0.80
   3   1   1   -1.40    1.50
   3   1   1    0.50    0.90
   3   1   1    0.10    1.10
   4  -1   1    2.00    0.80
   4  -1   1    0.70    1.20
   4  -1   1    0.40    1.20
  -4  -1  -1   -0.10    1.00
   4  -1   1    2.50    1.50
   4  -1   1    2.60    1.10
  -4  -1  -1    2.30    1.20
   4  -1   1    2.60    1.20
  -4  -1  -1    1.70    1.80
  -4  -1  -1    2.80    0.90
  -4  -1  -1    3.40    2.00
   4  -1   1    3.10    1.40
   4  -1   1    2.00    0.90
  -4  -1  -1    1.80    1.00
  -4   1  -1    3.60    1.30
   4   1   1    1.00    1.00
   4   1   1    3.10    2.10
   4   1   1    0.90    1.10
   4   1   1    2.50    1.50
   4   1   1    0.70    1.00
  -4   1  -1    3.00    1.10
   4   1   1    2.30    1.10
  -4   1  -1    3.70    1.90
  -4   1  -1    2.00    1.10
  -4   1  -1    2.20    1.10
  -4   1  -1    2.90    1.60
   4   1   1    2.30    1.70
   4   1   1    2.30    1.50
  -4   1  -1    0.40    1.50
   5  -1   1   65.69    5.00
  -5  -1  -1   67.49    5.20
  -5  -1  -1   70.19    5.20
  -5  -1  -1   73.29    6.20
   5  -1   1   72.49    4.90
   5  -1   1   61.49    5.90
  -5  -1  -1   68.59    4.80
   5  -1   1   67.89    4.90
   5  -1   1   69.99    5.30
   5  -1   1   77.49    5.00
   5  -1   1   72.39    5.60
   5  -1   1   66.59    5.40
  -5  -1  -1   65.79    4.90
  -5  -1  -1   68.49    5.90
   5   1   1   73.29    5.10
  -5   1  -1   63.09    5.80
  -5   1  -1   75.79    5.10
  -5   1  -1   65.39    5.10
   5   1   1   71.79    5.20
  -5   1  -1   71.39    5.60
  -5   1  -1   66.99    5.00
   5   1   1   67.59    5.60
   5   1   1   68.29    4.90
   5   1   1   58.99    6.10
  -5   1  -1   72.49    5.60
   5   1   1   70.29    5.80
   5   1   1   64.99    5.00
   5   1   1   68.09    5.30
   5   1   1   59.29    5.10
  -5   1  -1   67.09    5.50
   6  -1   1    7.70    1.80
   6  -1   1    5.30    1.90
   6  -1   1    7.90    1.90
  -6  -1  -1    6.50    3.50
   6  -1   1   11.30    1.70
  -6  -1  -1    5.80    1.50
   6  -1   1    6.80    2.30
  -6  -1  -1    7.30    1.80
   6  -1   1    7.30    1.80
  -6  -1  -1    9.00    1.70
  -6  -1  -1    7.80    2.10
   6  -1   1    9.40    2.60
  -6  -1  -1    5.20    2.70
   6  -1   1   11.80    2.30
   6   1   1   10.70    1.90
  -6   1  -1   11.10    3.00
   6   1   1    5.90    2.40
   6   1   1    7.00    2.90
  -6   1  -1    9.10    1.90
   6   1   1    7.90    1.90
  -6   1  -1    8.00    2.30
   6   1   1    9.40    1.80
  -6   1  -1    8.20    2.30
  -6   1  -1    9.60    1.90
   6   1   1    3.40    3.10
   6   1   1    4.90    2.40
   6   1   1    6.60    1.70
  -6   1  -1    9.30    1.60
  -6   1  -1    9.00    2.40
   7  -1   1    9.00    2.30
   7  -1   1    5.70    2.40
   7  -1   1   15.00    2.30
   7  -1   1    9.80    2.80
   7  -1   1   11.30    2.70
  -7  -1  -1   14.00    2.00
   7  -1   1   10.20    2.10
  -7  -1  -1   11.80    3.30
   7  -1   1   12.40    2.10
  -7  -1  -1   11.40    2.60
   7  -1   1    9.90    2.10
  -7  -1  -1    9.20    3.30
  -7  -1  -1   10.40    2.20
  -7  -1  -1   11.10    2.10
  -7   1  -1    7.70    2.90
   7   1   1   11.90    2.00
   7   1   1   12.00    2.50
   7   1   1   14.00    2.50
   7   1   1   13.80    3.20
   7   1   1   11.00    2.00
   7   1   1   14.80    4.50
   7   1   1   10.00    3.20
  -7   1  -1   12.30    2.20
  -7   1  -1   10.40    3.10
   7   1   1   12.60    2.10
  -7   1  -1    7.80    2.90
  -7   1  -1   13.00    3.00
  -7   1  -1    9.40    2.00
  -7   1  -1   11.70    2.20
   8  -1   1    0.70    1.80
  -8  -1  -1    2.40    3.10
  -8  -1  -1    3.30    1.70
   8  -1   1    2.10    2.70
  -8  -1  -1    2.40    2.50
  -8  -1  -1    1.30    1.90
   8  -1   1    6.70    1.80
   8  -1   1    2.50    2.80
   8  -1   1    2.00    1.80
  -8  -1  -1    3.70    3.50
   8  -1   1    4.20    3.10
   8  -1   1    3.60    2.40
   8   1   1    0.90    1.90
   8   1   1    0.00    1.90
  -8   1  -1    0.70    2.00
   8   1   1    2.30    1.50
   8   1   1    3.00    1.80
  -8   1  -1    6.80    3.20
   8   1   1    1.30    3.30
   8   1   1    1.60    2.20
  -8   1  -1    4.70    2.90
   8   1   1    3.40    2.90
  -8   1  -1   -0.70    2.60
  -8   1  -1    1.10    1.90
  -9  -1  -1    5.40    3.00
   9  -1   1    8.00    3.40
  -9  -1  -1   12.80    4.20
  -9  -1  -1    2.80    2.20
   9  -1   1   12.00    3.00
  -9  -1  -1    5.00    2.00
   9  -1   1    1.70    3.90
   9  -1   1    6.60    2.30
   9  -1   1    3.50    2.30
   9  -1   1   10.10    3.30
  -9   1  -1    5.50    3.60
  -9   1  -1    5.70    2.30
   9   1   1    7.10    4.00
  -9   1  -1    9.20    4.00
   9   1   1    0.60    3.70
   9   1   1    5.50    2.30
   9   1   1    2.40    2.60
  -9   1  -1    4.80    3.20
   9   1   1    3.80    2.50
   9   1   1    7.60    2.20
  -9   1  -1    6.20    2.40
 -10  -1  -1   19.20    3.60
 -10  -1  -1   20.10    4.10
  10  -1   1   24.90    3.70
  10  -1   1   17.20    3.10
  10  -1   1   13.10    5.40
 -10  -1  -1   18.40    5.00
  10  -1   1   20.40    4.00
  10   1   1   24.00    6.40
 -10   1  -1   28.70    4.80
  10   1   1   23.40    3.50
 -10   1  -1   17.60    4.80
 -10   1  -1   17.50    3.60
  10   1   1   22.50    3.50
 -10   1  -1   29.30    5.60
  10   1   1   21.20    5.40
  11  -1   1   -3.10    2.60
 -11  -1  -1   -0.10    2.70
  11  -1   1    1.40    3.60
  11  -1   1   -4.50    5.30
 -11  -1  -1   -2.20    4.90
 -11   1  -1   -1.50    3.30
  11   1   1   -4.30    5.40
  11   1   1    0.20    3.30
  11   1   1   -4.20    5.20
  11   1   1   -0.10    3.20
 -11   1  -1    8.60    5.60
  11  -2  -1   26.20    7.10
 -11  -2   1   11.10    5.20
 -11  -2   1   14.20    3.40
  11  -2  -1   11.80    3.90
  11  -2  -1   17.20    3.40
  11   2  -1   27.90    7.50
 -11   2   1   21.60    7.70
  11   2  -1   21.70    3.40
 -11   2   1   11.90    7.00
  11   2  -1   11.70    5.70
 -11   2   1   25.10    4.10
  10  -2  -1   44.90    5.30
 -10  -2   1   42.50    6.40
 -10  -2   1   50.59    5.90
  10  -2  -1   48.30    5.10
  10  -2  -1   34.50    6.60
 -10  -2   1   43.30    5.60
 -10   2   1   43.70    6.20
  10   2  -1   43.40    6.10
 -10   2   1   52.89    8.20
  10   2  -1   43.90    5.10
  10   2  -1   57.79    8.00
  10   2  -1   43.60    7.50
  10   2  -1   54.99    6.00
 -10   2   1   45.20    5.40
 -10   2   1   44.10    7.40
   9  -2  -1  112.09    8.90
   9  -2  -1  111.69    8.10
   9  -2  -1  116.59    9.90
  -9  -2   1  106.29    9.00
  -9  -2   1  102.29    9.40
   9  -2  -1  104.59    7.70
  -9  -2   1  109.29    8.30
   9   2  -1  101.99    7.80
   9   2  -1  112.09    9.40
   9   2  -1  106.99    8.50
  -9   2   1  102.19    8.60
   9   2  -1  113.89   10.90
  -9   2   1  104.49    9.60
  -9   2   1  117.29   10.30
   9   2  -1  101.79   10.30
   9   2  -1  109.89    9.20
  -9   2   1  111.99   11.20
   8  -2  -1   27.40    5.40
   8  -2  -1   31.70    4.50
  -8  -2   1   30.10    4.70
  -8  -2   1   29.90    3.30
   8  -2  -1   38.00    4.20
  -8  -2   1   33.60    4.10
   8  -2  -1   25.50    4.50
   8  -2  -1   32.90    3.30
  -8  -2   1   39.10    4.90
   8  -2  -1   31.80    4.30
   8   2  -1   32.60    5.00
   8   2  -1   26.00    5.40
  -8   2   1   25.60    4.90
  -8   2   1   25.00    5.10
   8   2  -1   35.60    4.00
   8   2  -1   42.40    5.40
   8   2  -1   36.10    4.80
   8   2  -1   31.50    3.80
  -8   2   1   32.10    4.10
  -8   2   1   36.70    5.00
  -8   2   1   35.00    5.60
  -8   2   1   34.30    3.90
   7  -2  -1  118.59    9.30
  -7  -2   1  126.29   10.00
   7  -2  -1  120.39    8.20
   7  -2  -1  135.29    8.50
  -7  -2   1  127.59    8.40
   7  -2  -1  124.89    8.90
   7  -2  -1  121.69   10.60
   7  -2  -1  132.79    8.10
   7  -2  -1  124.29    9.30
  -7  -2   1  125.49    9.30
   7   2  -1  127.19    8.20
   7   2  -1  122.79    9.70
  -7   2   1  143.99    9.70
   7   2  -1  121.29    9.80
   7   2  -1  135.99   10.10
  -7   2   1  122.19   10.60
   7   2  -1  117.19    8.70
   7   2  -1  126.59   10.30
  -7   2   1  130.79    9.30
   7   2  -1  126.89    9.00
  -7   2   1  110.69    9.90
  -7   2   1  136.99    8.80
  -7   2   1  129.49   10.20
   7   2  -1  147.99    9.70
  -6  -2   1    3.40    3.00
  -6  -2   1    6.40    3.50
   6  -2  -1   -0.30    1.90
   6  -2  -1    2.20    1.90
   6  -2  -1    4.40    1.00
   6  -2  -1    4.70    2.80
  -6  -2   1    0.60    1.90
  -6  -2   1    1.30    2.20
   6  -2  -1    2.00    1.20
  -6  -2   1    0.20    1.50
   6  -2  -1    2.10    2.00
  -6  -2   1    0.20    1.90
  -6  -2   1    3.50    2.50
  -6  -2   1    1.80    2.90
   6  -2  -1    0.30    1.50
   6  -2  -1    2.00    2.40
   6   2  -1   -0.50    1.50
  -6   2   1    1.30    2.60
  -6   2   1    3.50    2.80
   6   2  -1   -2.20    1.30
  -6   2   1    1.90    1.80
  -6   2   1    2.80    2.60
   6   2  -1   -0.60    2.10
   6   2  -1    4.20    2.20
   6   2  -1    1.50    2.50
   6   2  -1    8.60    4.00
  -6   2   1    0.50    1.80
  -6   2   1   -0.60    2.60
  -6   2   1    4.60    2.30
   6   2  -1   -1.40    2.20
   5  -2  -1   48.60    4.20
  -5  -2   1   45.80    5.70
   5  -2  -1   48.40    3.40
   5  -2  -1   48.70    4.70
   5  -2  -1   50.39    4.60
  -5  -2   1   47.60    4.90
   5  -2  -1   47.60    4.50
  -5  -2   1   52.29    4.30
  -5  -2   1   44.80    5.10
  -5  -2   1   47.10    4.10
  -5  -2   1   47.60    5.10
   5  -2  -1   53.39    3.40
   5  -2  -1   50.69    4.70
   5  -2  -1   49.99    5.50
  -5  -2   1   48.70    4.80
  -5  -2   1   48.10    5.80
   5   2  -1   50.59    6.20
   5   2  -1   49.10    4.30
  -5   2   1   48.80    4.60
  -5   2   1   48.30    4.40
  -5   2   1   46.90    4.60
  -5   2   1   47.00    5.20
  -5   2   1   45.20    5.30
  -5   2   1   55.39    4.50
   5   2  -1   50.99    4.10
   5   2  -1   54.49    4.90
   5   2  -1   55.19    5.10
  -5   2   1   41.20    5.00
   5   2  -1   56.79    5.50
   5   2  -1   54.59    5.00
  -4  -2   1   96.89    6.90
  -4  -2   1  101.09    7.60
   4  -2  -1  105.89    8.10
   4  -2  -1  105.69    7.00
  -4  -2   1   94.19    7.70
   4  -2  -1   94.39    7.20
   4  -2  -1  111.59    6.20
   4  -2  -1   97.89    7.40
  -4  -2   1   96.59    7.50
  -4  -2   1   98.29    8.20
  -4  -2   1  103.29    7.10
   4  -2  -1   92.29    7.00
  -4  -2   1  102.19    7.60
  -4   2   1   99.19    7.20
   4   2  -1  100.19    7.00
  -4   2   1  100.29    7.70
  -4   2   1  100.79    8.00
   4   2  -1  100.69    6.90
   4   2  -1  104.59    7.60
   4   2  -1   99.39    7.20
   4   2  -1   96.59    7.50
  -4   2   1  100.39    7.20
  -4   2   1   90.49    7.00
   4   2  -1   94.89    8.40
   4   2  -1  105.69    7.80
  -4   2   1   97.59    7.30
  -4   2   1   91.59    7.60
  -3  -2   1   66.19    5.70
   3  -2  -1   67.89    5.20
  -3  -2   1   71.29    5.20
  -3  -2   1   74.19    5.60
   3  -2  -1   70.99    4.50
   3  -2  -1   64.09    5.40
   3  -2  -1   66.79    5.20
   3  -2  -1   73.09    5.60
  -3  -2   1   72.69    5.80
  -3  -2   1   70.09    5.30
  -3  -2   1   71.89    5.90
  -3  -2   1   62.69    5.20
  -3  -2   1   75.19    6.20
   3  -2  -1   61.89    5.10
   3  -2  -1   60.89    6.10
  -3   2   1   65.09    5.90
   3   2  -1   71.89    5.70
   3   2  -1   69.39    5.30
  -3   2   1   69.39    5.50
  -3   2   1   71.49    5.50
  -3   2   1   71.59    5.70
  -3   2   1   70.49    5.20
   3   2  -1   69.49    5.90
  -3   2   1   66.19    4.40
   3   2  -1   63.99    5.20
  -3   2   1   66.09    4.90
   3   2  -1   68.69    5.20
   3   2  -1   75.89    6.50
   2  -2  -1  127.09    8.10
  -2  -2   1  109.79    8.00
  -2  -2   1  110.79    8.10
   2  -2  -1  131.59    7.40
   2  -2  -1  128.39    8.30
   2  -2  -1  132.99    8.40
  -2  -2   1   98.89    8.30
   2  -2  -1  123.29    8.00
   2  -2  -1  121.59    7.70
  -2  -2   1   94.49    7.80
   2  -2  -1  125.79    8.60
  -2  -2   1  114.79    8.00
   2  -2  -1  123.09    8.20
  -2  -2   1  102.59    8.50
  -2   2   1  120.79    7.50
  -2   2   1  109.89    7.40
  -2   2   1  125.99    8.00
  -2   2   1  123.89    8.10
   2   2  -1  101.59    8.40
   2   2  -1  105.49    7.80
   2   2  -1   97.39    8.20
  -2   2   1  130.89    8.20
   2   2  -1  102.59    8.50
   2   2  -1   96.89    7.80
  -2   2   1  129.09    8.70
  -2   2   1  132.79    8.30
  -2   2   1  126.79    8.60
   2   2  -1  108.49    8.00
   1  -2  -1   19.20    2.80
   1  -2  -1   13.90    2.40
  -1  -2   1   15.40    2.60
   1  -2  -1   17.20    1.90
   1  -2  -1   10.90    2.20
  -1  -2   1   17.90    3.00
  -1  -2   1   15.40    2.30
   1  -2  -1   16.00    2.60
   1  -2  -1   15.40    2.00
   1  -2  -1   19.50    2.50
  -1  -2   1   12.80    2.10
   1  -2  -1   11.30    2.00
  -1  -2   1   18.40    2.40
  -1  -2   1   15.50    2.20
   1   2  -1   14.20    2.60
  -1   2   1   15.20    1.90
  -1   2   1   11.40    2.10
  -1   2   1   15.90    2.30
  -1   2   1   17.10    2.70
   1   2  -1   12.50    2.10
   1   2  -1   15.00    2.30
   1   2  -1   15.20    2.30
  -1   2   1   18.00    1.90
  -1   2   1   14.80    2.50
   1   2  -1   15.10    2.10
   0  -2  -1   48.90    4.50
   0  -2   1   44.00    4.00
   0  -2  -1   46.60    4.00
   0  -2  -1   44.60    4.30
   0  -2  -1   40.00    4.00
   0  -2  -1   44.50    4.10
   0  -2   1   41.90    4.20
   0  -2   1   46.90    4.00
   0  -2   1   46.90    4.30
   0  -2   1   44.40    3.70
   0  -2  -1   41.40    4.20
   0  -2   1   42.20    3.90
   0  -2  -1   46.40    3.70
   0  -2   1   42.40    4.80
   0   2   1   51.99    3.90
   0   2  -1   54.99    4.90
   0   2  -1   42.80    4.10
   0   2   1   48.30    4.20
   0   2   1   42.60    3.80
   0   2  -1   45.00    4.20
   0   2   1   45.80    4.20
   0   2   1   53.29    5.80
   0   2   1   38.60    4.60
   0   2  -1   42.90    4.00
   0   2  -1   51.59    3.80
   0   2  -1   49.30    4.80
   0   2   1   48.40    4.40
   0   2  -1   43.90    4.20
   1  -2   1   45.50    4.00
  -1  -2  -1   45.50    4.10
  -1  -2  -1   42.50    4.70
  -1  -2  -1   50.89    4.20
   1  -2   1   48.50    3.30
  -1  -2  -1   44.60    4.10
  -1  -2  -1   36.50    4.70
   1  -2   1   45.30    4.10
  -1  -2  -1   43.10    4.30
   1  -2   1   45.60    4.50
   1  -2   1   43.40    4.10
   1  -2   1   42.00    4.60
  -1  -2  -1   46.40    4.30
   1  -2   1   50.79    4.10
  -1   2  -1   42.40    4.00
  -1   2  -1   45.30    3.90
   1   2   1   45.20    4.00
   1   2   1   51.29    4.40
  -1   2  -1   44.40    4.20
   1   2   1   42.20    4.10
   1   2   1   44.50    4.00
   1   2   1   53.09    4.40
  -1   2  -1   49.40    4.50
  -1   2  -1   48.10    4.80
   1   2   1   43.10    4.00
  -1   2  -1   43.60    4.40
  -1   2  -1   44.10    3.80
   1   2   1   42.00    4.60
   2  -2   1  820.22   45.00
   2  -2   1  851.61   44.70
  -2  -2  -1  706.23   44.30
  -2  -2  -1  653.03   44.50
  -2  -2  -1  670.63   44.20
  -2  -2  -1  676.93   44.30
   2  -2   1  837.22   45.00
  -2  -2  -1  696.13   44.40
   2  -2   1  835.12   44.40
  -2  -2  -1  654.63   44.20
   2  -2   1  758.22   44.20
   2  -2   1  823.02   44.40
   2   2   1  669.63   44.30
   2   2   1  666.43   44.20
  -2   2  -1  758.02   44.10
   2   2   1  666.93   44.20
   2   2   1  668.83   44.30
  -2   2  -1  811.52   44.90
  -2   2  -1  841.02   44.30
  -2   2  -1  825.32   44.50
   2   2   1  683.03   44.40
   2   2   1  665.93   44.50
  -2   2  -1  797.92   44.60
  -2   2  -1  855.31   43.60
   2   2   1  650.83   44.10
   3  -2   1  130.99    9.50
  -3  -2  -1  153.88   10.10
  -3  -2  -1  151.78   10.10
   3  -2   1  123.09   10.30
  -3  -2  -1  158.38   10.10
  -3  -2  -1  138.09    9.90
   3  -2   1  146.79    9.70
   3  -2   1  136.99   10.10
   3  -2   1  134.59    9.70
  -3  -2  -1  141.09    9.70
  -3  -2  -1  149.19    9.70
   3  -2   1  142.59    9.90
  -3  -2  -1  149.29    9.80
   3   2   1  141.79    9.60
   3   2   1  142.19    9.60
  -3   2  -1  143.59    9.50
   3   2   1  156.38   10.40
   3   2   1  157.18   10.40
  -3   2  -1  141.39    9.80
  -3   2  -1  140.09    9.70
  -3   2  -1  140.29   10.20
   3   2   1  151.58   10.20
  -3   2  -1  146.19    9.80
   3   2   1  152.98   10.00
  -3   2  -1  136.79   10.10
  -4  -2  -1  191.58   12.70
   4  -2   1  182.38   12.30
  -4  -2  -1  201.08   13.00
  -4  -2  -1  190.98   12.60
  -4  -2  -1  187.78   12.20
  -4  -2  -1  183.48   12.70
   4  -2   1  218.38   12.40
   4  -2   1  181.08   12.60
   4  -2   1  178.98   13.00
  -4  -2  -1  191.58   13.00
   4  -2   1  188.78   12.90
  -4  -2  -1  184.78   12.30
  -4  -2  -1  181.68   12.30
   4   2   1  189.28   12.80
   4   2   1  182.28   12.40
  -4   2  -1  177.58   12.30
  -4   2  -1  181.88   12.50
  -4   2  -1  196.38   12.50
   4   2   1  180.08   12.30
   4   2   1  197.48   13.30
   4   2   1  192.08   12.90
  -4   2  -1  199.18   12.80
   4   2   1  199.18   12.60
  -4   2  -1  205.58   13.20
   5  -2   1   18.90    3.20
   5  -2   1   22.20    3.20
   5  -2   1   26.80    3.70
  -5  -2  -1   20.50    3.10
  -5  -2  -1   24.50    3.70
   5  -2   1   25.10    3.00
  -5  -2  -1   25.00    3.90
  -5  -2  -1   26.90    3.40
   5  -2   1   19.50    3.30
   5  -2   1   20.80    2.80
  -5  -2  -1   14.80    2.20
  -5  -2  -1   18.00    2.80
  -5   2  -1   18.40    2.70
   5   2   1   20.70    3.10
   5   2   1   17.10    2.70
   5   2   1   24.40    4.10
   5   2   1   20.60    3.40
   5   2   1   24.40    2.90
  -5   2  -1   22.50    3.10
  -5   2  -1   22.70    3.60
  -5   2  -1   23.50    3.50
   5   2   1   22.50    3.40
  -5   2  -1   21.10    3.20
  -5   2  -1   22.30    3.50
  -5   2  -1   27.90    3.50
   5   2   1   17.80    2.60
  -6  -2  -1  504.95   31.50
  -6  -2  -1  486.45   30.70
   6  -2   1  519.35   31.20
   6  -2   1  515.35   31.20
   6  -2   1  509.95   31.10
   6  -2   1  506.25   30.60
  -6  -2  -1  492.35   30.40
  -6  -2  -1  512.95   31.50
   6  -2   1  527.65   31.60
  -6  -2  -1  521.95   31.10
   6  -2   1  470.55   30.70
  -6  -2  -1  518.35   30.50
  -6   2  -1  508.05   31.00
  -6   2  -1  509.05   30.80
   6   2   1  501.35   30.60
  -6   2  -1  511.35   31.50
   6   2   1  495.55   30.60
  -6   2  -1  476.05   30.60
   6   2   1  490.25   32.10
   6   2   1  521.45   31.50
  -6   2  -1  541.15   31.10
  -6   2  -1  501.25   31.50
   6   2   1  492.75   31.10
   6   2   1  501.35   31.20
   6   2   1  471.25   31.30
  -7  -2  -1   40.70    5.20
   7  -2   1   42.30    5.40
  -7  -2  -1   48.10    5.70
   7  -2   1   50.09    5.80
  -7  -2  -1   39.90    4.70
  -7  -2  -1   38.90    4.30
   7  -2   1   39.50    5.00
   7  -2   1   41.50    5.40
   7  -2   1   39.80    4.60
  -7   2  -1   49.50    6.20
  -7   2  -1   36.00    5.00
   7   2   1   47.50    4.50
   7   2   1   47.00    5.60
  -7   2  -1   39.60    5.80
   7   2   1   38.40    4.70
   7   2   1   47.90    5.80
  -7   2  -1   44.70    5.10
   7   2   1   37.50    4.40
   7   2   1   31.70    4.50
  -7   2  -1   28.70    4.90
  -8  -2  -1   18.10    4.10
   8  -2   1   12.00    3.80
   8  -2   1   21.60    4.00
   8  -2   1   15.80    3.50
  -8  -2  -1    6.70    2.70
  -8  -2  -1   13.30    2.70
  -8  -2  -1   15.10    3.90
   8  -2   1   11.80    2.70
   8  -2   1    8.70    3.00
   8   2   1   11.00    2.70
  -8   2  -1    9.50    4.60
   8   2   1   10.90    2.70
  -8   2  -1   14.30    3.80
   8   2   1    9.40    4.30
   8   2   1   13.00    4.20
  -8   2  -1   12.50    3.10
  -8   2  -1   15.80    3.20
   8   2   1   14.00    2.60
  -8   2  -1    8.20    3.30
   8   2   1   11.50    3.00
   9  -2   1   66.09    6.00
  -9  -2  -1   59.09    7.20
  -9  -2  -1   54.99    6.20
  -9  -2  -1   61.09    5.60
   9  -2   1   58.49    7.40
   9  -2   1   54.09    6.20
   9  -2   1   65.59    7.20
  -9  -2  -1   55.19    6.60
   9  -2   1   82.89    8.30
  -9   2  -1   61.39    7.30
   9   2   1   58.99    6.70
   9   2   1   52.89    7.10
   9   2   1   63.59    7.70
  -9   2  -1   59.39    6.10
   9   2   1   64.39    6.00
  -9   2  -1   65.09    6.80
  -9   2  -1   44.30    6.70
  -9   2  -1   72.29    8.50
  10  -2   1   34.80    5.50
  10  -2   1   35.50    6.80
 -10  -2  -1   31.90    4.80
 -10  -2  -1   44.10    6.60
  10  -2   1   49.30    5.70
 -10   2  -1   29.10    6.40
 -10   2  -1   35.50    5.50
  10   2   1   41.40    4.70
 -10   2  -1   37.00    6.60
  10   2   1   33.50    4.90
  10   2   1   38.90    7.00
  10   2   1   40.90    7.00
  11  -2   1   -4.00    6.30
 -11  -2  -1    0.50    3.20
  11  -2   1    7.20    4.20
 -11  -2  -1    4.90    5.60
  11   2   1   -7.90    5.70
 -11   2  -1    5.30    3.80
  11   2   1   -1.40    3.10
  11   2   1    8.90    6.60
 -10  -3   1   88.89    9.90
  10  -3  -1   89.89   11.30
 -10  -3   1   90.09    8.50
  10  -3  -1   93.99    9.40
 -10   3   1   85.49   12.80
 -10   3   1   84.99    9.20
 -10   3   1   82.39   10.10
  10   3  -1   80.19    7.70
  10   3  -1   92.39   11.10
  10   3  -1   83.49   10.90
   9  -3  -1    7.50    3.30
   9  -3  -1    5.00    5.30
   9  -3  -1    0.80    3.70
  -9  -3   1    2.50    5.20
  -9  -3   1    1.40    3.20
  -9  -3   1   -3.30    3.70
   9   3  -1   -1.50    3.70
   9   3  -1    2.40    5.00
   9   3  -1    1.20    5.10
   9   3  -1    3.70    2.80
  -9   3   1   -5.20    3.70
  -9   3   1   -2.00    4.40
  -9   3   1    0.50    5.20
   9   3  -1   -3.80    4.10
   8  -3  -1   55.49    6.90
  -8  -3   1   57.49    5.40
   8  -3  -1   53.79    6.40
  -8  -3   1   50.29    6.30
   8  -3  -1   49.20    5.90
  -8  -3   1   56.09    6.70
   8  -3  -1   50.39    6.50
   8   3  -1   47.20    5.90
   8   3  -1   56.89    7.30
   8   3  -1   47.70    6.60
   8   3  -1   49.99    5.70
  -8   3   1   46.10    6.60
  -8   3   1   54.79    7.70
  -8   3   1   60.19    6.10
  -8   3   1   61.39    6.90
   8   3  -1   62.49    7.90
   8   3  -1   45.90    5.40
  -7  -3   1   -1.90    4.50
  -7  -3   1    2.10    3.40
  -7  -3   1    1.30    2.40
   7  -3  -1   -3.80    3.00
   7  -3  -1   -3.00    2.80
   7  -3  -1    1.00    2.90
  -7  -3   1    0.50    2.70
  -7  -3   1    0.50    3.60
   7   3  -1    1.00    3.90
   7   3  -1    4.00    3.60
  -7   3   1   -0.90    3.60
   7   3  -1   -1.70    3.30
   7   3  -1   -2.10    2.20
  -7   3   1    0.30    3.20
   7   3  -1    4.70    2.50
  -7   3   1   -3.00    3.80
  -7   3   1   -1.50    2.90
  -7   3   1    5.60    3.10
  -7   3   1   -1.40    3.20
   6  -3  -1  127.09    9.80
   6  -3  -1  132.69   10.40
  -6  -3   1  135.39   10.40
  -6  -3   1  130.49    9.40
  -6  -3   1  139.99   10.70
   6  -3  -1  130.59   10.20
   6  -3  -1  140.09   17.50
   6  -3  -1  135.49    9.80
  -6  -3   1  133.59   10.30
  -6  -3   1  117.79   11.30
  -6   3   1  145.59    9.80
  -6   3   1  130.09   10.30
  -6   3   1  119.29   11.00
   6   3  -1  128.99   13.40
  -6   3   1  131.99    9.80
   6   3  -1  124.19    9.90
  -6   3   1  129.99   10.80
  -6   3   1  126.59   10.40
   6   3  -1  120.89   10.80
   6   3  -1  137.89    9.70
  -5  -3   1  121.79   10.20
   5  -3  -1  141.79   10.40
  -5  -3   1  145.39   12.10
  -5  -3   1  129.79    9.70
   5  -3  -1  145.99   11.50
   5  -3  -1  157.08    9.90
  -5  -3   1  134.19   10.50
  -5  -3   1  127.99   11.00
   5  -3  -1  129.79    9.90
   5  -3  -1  131.89   10.30
  -5  -3   1  137.29   10.60
  -5  -3   1  126.39   10.00
   5  -3  -1  143.59   10.50
  -5  -3   1  139.49   10.70
  -5   3   1  124.09   10.20
   5   3  -1  122.79   11.70
  -5   3   1  134.29   10.40
   5   3  -1  136.29   10.70
   5   3  -1  134.99   10.20
   5   3  -1  143.79    9.90
  -5   3   1  161.08   11.50
  -5   3   1  132.29   10.80
  -5   3   1  141.89    9.80
  -5   3   1  155.88    9.80
  -5   3   1  133.69   10.30
   5   3  -1  140.29    9.80
   5   3  -1  126.19   12.60
  -4  -3   1   69.29    6.10
   4  -3  -1   66.99    4.40
  -4  -3   1   82.89    6.70
  -4  -3   1   62.49    5.60
  -4  -3   1   64.19    6.90
   4  -3  -1   67.99    6.60
  -4  -3   1   66.99    7.10
  -4  -3   1   60.89    6.50
   4  -3  -1   59.39    7.00
   4  -3  -1   78.79    6.20
   4  -3  -1   58.89    5.60
   4  -3  -1   70.89    6.20
   4  -3  -1   72.59    6.50
  -4  -3   1   66.69    7.00
   4   3  -1   67.79    7.60
  -4   3   1   61.59    5.50
  -4   3   1   64.49    8.10
  -4   3   1   59.99    6.20
   4   3  -1   64.29    5.80
   4   3  -1   68.29    6.40
  -4   3   1   65.09    7.00
  -4   3   1   67.09    5.70
   4   3  -1   64.09    7.10
  -4   3   1   68.39    6.30
  -4   3   1   61.69    6.30
   4   3  -1   55.99    5.90
   4   3  -1   62.29    5.70
   3  -3  -1  373.96   22.60
  -3  -3   1  334.77   22.90
   3  -3  -1  406.36   23.00
  -3  -3   1  314.57   22.40
  -3  -3   1  344.97   23.20
  -3  -3   1  316.07   22.30
   3  -3  -1  390.76   22.60
  -3  -3   1  348.77   22.50
   3  -3  -1  382.66   22.10
   3  -3  -1  388.36   21.50
   3  -3  -1  411.76   23.20
   3  -3  -1  381.16   23.40
  -3  -3   1  329.97   22.50
  -3  -3   1  335.07   23.00
  -3  -3   1  308.37   22.90
   3   3  -1  310.37   22.30
  -3   3   1  407.06   23.60
  -3   3   1  392.86   22.80
  -3   3   1  384.76   22.00
  -3   3   1  375.16   21.50
   3   3  -1  310.47   22.90
   3   3  -1  312.87   22.50
  -3   3   1  392.76   23.60
   3   3  -1  320.47   23.00
  -3   3   1  401.76   22.90
   3   3  -1  318.27   22.50
   3   3  -1  330.97   22.40
  -3   3   1  389.66   22.60
   2  -3  -1   36.50    4.30
   2  -3  -1   43.00    5.20
  -2  -3   1   38.40    4.70
   2  -3  -1   38.50    4.50
  -2  -3   1   39.20    4.70
   2  -3  -1   40.80    5.10
   2  -3  -1   40.60    4.90
   2  -3  -1   37.00    4.50
   2  -3  -1   36.90    4.80
  -2  -3   1   44.40    4.80
  -2  -3   1   38.20    4.70
  -2  -3   1   39.60    5.10
  -2  -3   1   36.90    4.40
   2  -3  -1   43.30    3.50
  -2  -3   1   32.40    5.20
   2   3  -1   38.00    4.40
   2   3  -1   43.80    5.10
   2   3  -1   32.80    4.90
  -2   3   1   36.30    3.40
  -2   3   1   45.70    5.60
   2   3  -1   37.20    4.40
   2   3  -1   31.40    4.60
  -2   3   1   38.50    5.00
  -2   3   1   39.40    5.00
  -2   3   1   37.40    4.50
   2   3  -1   38.70    4.40
   2   3  -1   44.50    4.90
   1  -3  -1  329.37   21.10
  -1  -3   1  346.37   22.00
  -1  -3   1  328.27   21.70
  -1  -3   1  331.47   22.00
   1  -3  -1  339.97   21.90
   1  -3  -1  353.36   21.40
  -1  -3   1  376.76   21.50
  -1  -3   1  336.97   22.40
  -1  -3   1  347.67   21.70
   1  -3  -1  340.67   22.30
  -1  -3   1  305.77   22.50
   1  -3  -1  341.17   21.70
   1  -3  -1  351.56   22.50
  -1  -3   1  342.87   21.40
   1  -3  -1  333.57   21.70
   1  -3  -1  348.57   21.80
  -1   3   1  347.47   22.00
   1   3  -1  351.76   21.90
   1   3  -1  414.06   25.10
  -1   3   1  351.96   22.30
  -1   3   1  342.67   21.80
  -1   3   1  341.47   21.00
   1   3  -1  343.67   21.80
   1   3  -1  341.27   21.40
   1   3  -1  348.07   22.50
   1   3  -1  346.67   21.80
  -1   3   1  351.06   22.60
   1   3  -1  349.57   22.40
  -1   3   1  329.47   21.60
   0  -3  -1   13.80    2.80
   0  -3  -1   11.80    2.50
   0  -3  -1   12.00    2.60
   0  -3   1   14.70    2.80
   0  -3  -1   11.00    3.00
   0  -3   1   11.70    4.30
   0  -3   1   13.40    2.80
   0  -3   1   14.20    2.90
   0  -3  -1   14.50    2.40
   0  -3   1   14.00    2.30
   0  -3   1   15.30    3.30
   0  -3  -1   14.00    3.40
   0  -3   1   15.80    3.00
   0  -3  -1   10.90    3.00
   0  -3  -1   12.90    3.80
   0  -3   1   13.60    3.20
   0   3  -1   11.50    3.00
   0   3  -1   12.80    3.50
   0   3   1   10.60    3.20
   0   3   1   12.80    2.70
   0   3   1    8.60    3.40
   0   3   1   10.90    2.40
   0   3   1   13.80    2.90
   0   3  -1    2.20    3.40
   0   3  -1   11.80    2.70
   0   3  -1    9.30    2.60
   0   3  -1   11.70    2.30
   0   3  -1   14.80    3.10
   0   3   1   10.80    2.10
  -1  -3  -1  490.05   29.70
   1  -3   1  488.75   29.50
  -1  -3  -1  482.25   29.50
   1  -3   1  487.55   28.80
   1  -3   1  458.15   29.50
   1  -3   1  483.15   30.40
  -1  -3  -1  475.55   29.70
  -1  -3  -1  464.15   29.50
  -1  -3  -1  475.15   29.30
   1  -3   1  484.65   29.90
  -1  -3  -1  465.65   30.10
   1  -3   1  483.65   29.30
   1  -3   1  483.75   29.70
   1   3   1  497.65   30.40
   1   3   1  475.25   29.80
   1   3   1  484.65   29.50
  -1   3  -1  483.45   30.40
  -1   3  -1  476.75   29.70
   1   3   1  468.15   29.20
  -1   3  -1  467.95   30.20
  -1   3  -1  487.65   29.80
  -1   3  -1  470.65   28.80
   1   3   1  484.65   29.90
  -1   3  -1  469.45   29.70
   1   3   1  497.15   29.60
  -1   3  -1  490.15   29.40
   2  -3   1   -2.50    2.30
   2  -3   1    0.60    1.80
   2  -3   1    2.20    4.60
  -2  -3  -1   -2.70    2.10
  -2  -3  -1   -0.80    2.20
   2  -3   1    0.60    1.90
   2  -3   1    3.70    2.10
  -2  -3  -1   -2.60    1.90
  -2  -3  -1    3.80    2.70
  -2  -3  -1    3.40    2.60
  -2  -3  -1   -1.40    1.50
   2  -3   1   -2.50    3.60
  -2  -3  -1    0.10    3.10
  -2  -3  -1   -2.50    2.20
   2  -3   1   -1.40    1.10
   2  -3   1    1.30    2.30
   2   3   1    0.50    2.00
   2   3   1    1.80    2.00
   2   3   1   -2.90    2.60
  -2   3  -1    2.20    2.00
   2   3   1    0.30    1.90
  -2   3  -1   -0.10    1.20
  -2   3  -1   -3.10    2.20
  -2   3  -1   -2.00    2.50
  -2   3  -1   -0.50    1.80
   2   3   1    1.10    1.70
   2   3   1    1.90    2.00
  -2   3  -1    0.10    2.50
   2   3   1    1.60    2.90
  -2   3  -1   -1.60    2.00
  -3  -3  -1  181.88   14.40
   3  -3   1  219.48   15.10
   3  -3   1  229.28   14.10
  -3  -3  -1  196.58   14.20
   3  -3   1  253.57   15.20
   3  -3   1  238.98   14.60
  -3  -3  -1  187.98   13.80
   3  -3   1  229.68   14.10
   3  -3   1  216.98   13.90
  -3  -3  -1  190.88   14.10
  -3  -3  -1  189.78   14.20
  -3  -3  -1  187.58   14.20
  -3  -3  -1  188.68   13.90
  -3  -3  -1  201.08   14.30
  -3   3  -1  223.08   14.00
  -3   3  -1  242.08   12.80
   3   3   1  195.58   14.80
   3   3   1  203.58   14.60
  -3   3  -1  230.48   14.90
  -3   3  -1  233.68   14.40
   3   3   1  172.58   13.90
   3   3   1  186.68   13.80
  -3   3  -1  224.38   14.30
  -3   3  -1  234.78   15.00
   3   3   1  184.38   13.90
   3   3   1  206.08   14.10
   3   3   1  202.58   14.10
  -3   3  -1  221.18   13.80
   4  -3   1   29.90    3.90
  -4  -3  -1   36.80    4.30
  -4  -3  -1   32.00    4.80
   4  -3   1   32.50    4.10
  -4  -3  -1   35.00    4.80
   4  -3   1   28.40    4.00
   4  -3   1   36.50    4.90
  -4  -3  -1   33.10    4.70
  -4  -3  -1   28.50    5.00
   4  -3   1   28.50    4.60
  -4  -3  -1   28.60    3.90
   4  -3   1   25.80    4.50
   4   3   1   31.10    5.30
  -4   3  -1   37.20    5.10
   4   3   1   36.40    4.60
  -4   3  -1   33.80    4.80
  -4   3  -1   34.20    4.30
  -4   3  -1   34.50    4.10
   4   3   1   24.90    3.80
  -4   3  -1   34.10    4.20
  -4   3  -1   26.80    4.10
   4   3   1   34.90    5.20
   4   3   1   33.50    4.30
  -4   3  -1   39.70    4.80
   4   3   1   42.60    4.70
   4   3   1   40.60    4.90
  -5  -3  -1   78.29    7.50
  -5  -3  -1   62.59    5.90
   5  -3   1   59.49    7.10
  -5  -3  -1   66.69    7.00
  -5  -3  -1   69.29    7.10
  -5  -3  -1   92.49   11.20
   5  -3   1   69.89    6.80
  -5  -3  -1   55.39    6.70
   5  -3   1   67.99    7.60
   5  -3   1   69.29    6.40
   5  -3   1   71.99    7.00
   5  -3   1   75.19    6.50
  -5  -3  -1   75.09    6.70
  -5   3  -1   78.39    7.50
   5   3   1   75.89    6.50
  -5   3  -1   73.59    6.80
  -5   3  -1   60.89    6.50
   5   3   1   66.09    8.20
  -5   3  -1   63.29    7.20
  -5   3  -1   76.49    7.40
   5   3   1   67.79    6.30
   5   3   1   56.59    6.50
   5   3   1   67.59    6.50
  -5   3  -1   74.99    6.30
  -5   3  -1   57.19    6.10
   5   3   1   66.19    8.10
  -6  -3  -1  163.78   12.10
   6  -3   1  181.48   12.60
  -6  -3  -1  160.88   12.50
  -6  -3  -1  162.58   12.60
  -6  -3  -1  175.28   12.10
   6  -3   1  176.98   12.50
   6  -3   1  147.59   12.00
   6  -3   1  160.18   13.50
  -6  -3  -1  160.28   11.40
   6  -3   1  159.38   11.70
   6   3   1  170.68   12.10
  -6   3  -1  174.38   12.40
   6   3   1  140.39   11.60
   6   3   1  166.48   12.20
   6   3   1  174.78   12.80
   6   3   1  171.78   11.80
  -6   3  -1  166.88   12.10
  -6   3  -1  181.18   13.10
  -6   3  -1  166.48   11.80
   6   3   1  174.28   11.70
  -6   3  -1  159.98   12.40
  -6   3  -1  177.18   13.00
   7  -3   1   18.60    3.80
   7  -3   1   21.80    4.40
   7  -3   1   16.20    4.20
  -7  -3  -1   17.50    3.90
  -7  -3  -1   14.10    3.70
  -7  -3  -1   11.90    3.70
  -7  -3  -1   15.80    4.00
   7  -3   1   10.30    3.90
  -7  -3  -1   18.10    3.20
  -7   3  -1   12.90    3.60
  -7   3  -1   19.70    4.50
   7   3   1   13.50    4.00
   7   3   1   21.10    3.40
  -7   3  -1   15.10    4.20
   7   3   1   20.90    5.30
   7   3   1   13.90    4.60
  -7   3  -1   18.50    4.50
  -7   3  -1   17.50    4.20
   7   3   1   15.70    3.40
   7   3   1   17.40    3.30
  -8  -3  -1   59.69    7.50
  -8  -3  -1   61.59    6.50
   8  -3   1   55.29    6.80
   8  -3   1   59.69    7.60
  -8  -3  -1   63.59    7.20
   8  -3   1   57.79    6.50
  -8   3  -1   63.19    7.30
   8   3   1   56.69    7.30
  -8   3  -1   57.19    7.70
   8   3   1   68.09    6.60
  -8   3  -1   65.79    7.80
   8   3   1   54.49    7.20
   8   3   1   60.59    7.30
  -8   3  -1   65.59    8.70
   8   3   1   57.99    6.70
   8   3   1   49.80    7.20
  -9  -3  -1   25.80    4.80
  -9  -3  -1   21.10    5.30
   9  -3   1   19.00    6.00
   9  -3   1   30.90    5.30
   9   3   1   29.00    5.80
   9   3   1   28.60    6.30
  -9   3  -1   21.90    5.00
   9   3   1   27.10    4.40
  -9   3  -1   23.90    7.10
  -9   3  -1   22.70    5.40
 -10  -3  -1   25.80    5.10
  10  -3   1   33.40    5.90
 -10  -3  -1   35.70    6.40
  10  -3   1   21.60    7.20
 -10   3  -1   37.70    7.80
 -10   3  -1   33.90    5.80
  10   3   1   27.10    4.50
  10   3   1   38.70    7.00
 -10   3  -1   23.40    6.20
  10   3   1   46.90    7.90
   9  -4  -1   58.09    7.60
   9  -4  -1   55.89    8.10
  -9  -4   1   63.79    7.80
  -9  -4   1   62.69    7.80
  -9   4   1   57.49    7.60
   9   4  -1   71.69    8.90
   9   4  -1   53.99    6.40
   9   4  -1   62.79    8.60
  -9   4   1   49.70    8.40
  -9   4   1   57.99    9.70
  -8  -4   1   30.80    5.80
   8  -4  -1   18.20    5.60
  -8  -4   1   27.10    7.20
   8  -4  -1   17.30    5.60
  -8   4   1   19.40    5.40
  -8   4   1   22.10    5.50
   8   4  -1   25.50    7.10
   8   4  -1   18.90    5.90
   8   4  -1   17.10    4.20
   8   4  -1   22.70    5.10
  -8   4   1   18.80    6.60
   7  -4  -1   87.59    8.90
  -7  -4   1   77.19    9.60
  -7  -4   1   95.49    8.80
   7  -4  -1   84.69    9.60
  -7  -4   1   97.59   10.80
  -7  -4   1   88.59    9.90
  -7   4   1   97.49   11.40
  -7   4   1   77.59    8.80
   7   4  -1   65.99    9.00
   7   4  -1   86.49    9.40
  -7   4   1   82.29    8.40
  -7   4   1   87.79    9.70
   6  -4  -1   32.10    5.50
  -6  -4   1   31.60    6.20
   6  -4  -1   38.10    5.40
  -6  -4   1   25.40    6.40
  -6  -4   1   35.10    5.10
  -6  -4   1   49.30    5.90
  -6  -4   1   40.90    5.20
  -6  -4   1   33.30    6.20
   6  -4  -1   48.30    6.40
   6   4  -1   32.60    6.10
   6   4  -1   31.60    5.30
  -6   4   1   37.40    6.70
   6   4  -1   35.30    5.60
  -6   4   1   41.70    6.30
   6   4  -1   44.20    5.80
  -6   4   1   33.70    4.80
   6   4  -1   33.20    4.90
   5  -4  -1   83.89    9.00
   5  -4  -1   74.79    7.80
   5  -4  -1   82.79    9.30
  -5  -4   1   95.19    9.70
  -5  -4   1   77.39    9.60
   5  -4  -1   79.29    8.30
   5  -4  -1   88.79    9.20
  -5  -4   1   79.79    7.70
  -5  -4   1   82.29    8.40
  -5  -4   1   95.19    8.50
   5   4  -1   77.09    8.60
  -5   4   1   67.99   11.30
  -5   4   1   87.39    8.00
   5   4  -1   98.59    8.10
   5   4  -1  105.49    9.40
  -5   4   1   72.39    8.10
  -5   4   1   72.49    9.60
   5   4  -1   93.79    9.10
   5   4  -1   82.39    8.40
  -5   4   1   93.39    7.80
  -5   4   1   92.19    9.20
  -4  -4   1  434.86   31.90
   4  -4  -1  570.54   30.00
   4  -4  -1  511.95   31.10
   4  -4  -1  569.84   32.20
  -4  -4   1  429.06   32.10
  -4  -4   1  422.06   31.30
  -4  -4   1  453.65   32.10
   4  -4  -1  567.94   31.90
   4  -4  -1  574.44   32.50
   4  -4  -1  493.05   31.90
  -4  -4   1  473.25   31.40
   4   4  -1  447.16   32.00
  -4   4   1  540.55   32.00
  -4   4   1  564.74   31.70
   4   4  -1  459.15   31.50
   4   4  -1  466.75   31.70
  -4   4   1  536.45   32.90
  -4   4   1  534.05   30.80
  -4   4   1  568.14   33.30
   4   4  -1  457.55   31.40
   4   4  -1  460.95   31.30
  -3  -4   1   50.49    6.90
  -3  -4   1   54.79    6.70
  -3  -4   1   64.69    7.50
  -3  -4   1   55.99    7.50
  -3  -4   1   63.69    6.80
   3  -4  -1   56.89    7.10
   3  -4  -1   60.79    6.90
   3  -4  -1   57.29    6.60
   3  -4  -1   49.30    6.70
  -3  -4   1   49.30    6.20
  -3  -4   1   68.69    7.70
   3  -4  -1   48.80    6.30
   3  -4  -1   60.09    7.70
  -3   4   1   56.19    4.80
  -3   4   1   62.19    7.70
   3   4  -1   47.80    6.00
   3   4  -1   68.39    7.20
   3   4  -1   57.39    6.20
   3   4  -1   42.60    6.70
  -3   4   1   52.39    5.70
   3   4  -1   41.20    7.20
  -3   4   1   48.60    7.10
  -3   4   1   61.39    6.90
  -3   4   1   56.69    7.40
   3   4  -1   54.59    6.80
   3   4  -1   56.09    6.50
   2  -4  -1  207.28   13.40
  -2  -4   1  210.28   14.70
   2  -4  -1  217.88   14.10
  -2  -4   1  206.38   14.70
  -2  -4   1  207.98   15.00
   2  -4  -1  215.98   14.90
   2  -4  -1  198.78   14.50
   2  -4  -1  211.48   14.70
  -2  -4   1  215.48   15.90
  -2  -4   1  192.28   14.20
   2  -4  -1  198.38   14.60
  -2  -4   1  213.48   14.50
  -2  -4   1  198.18   14.60
  -2  -4   1  201.48   15.40
   2  -4  -1  212.48   15.60
   2   4  -1  186.48   15.80
   2   4  -1  212.88   14.50
  -2   4   1  215.48   13.90
   2   4  -1  214.18   15.30
  -2   4   1  223.28   15.20
  -2   4   1  198.08   13.20
   2   4  -1  183.88   15.20
   2   4  -1  209.38   14.90
   2   4  -1  199.88   14.20
  -2   4   1  202.78   15.20
  -2   4   1  239.18   16.60
  -2   4   1  209.28   14.70
   2   4  -1  186.78   14.90
  -1  -4   1   24.70    4.30
   1  -4  -1   25.60    4.20
   1  -4  -1   25.10    4.00
  -1  -4   1   29.70    4.10
  -1  -4   1   23.30    4.50
   1  -4  -1   21.60    4.00
   1  -4  -1   14.30    5.70
  -1  -4   1   21.50    5.70
  -1  -4   1   24.50    4.40
   1  -4  -1   28.70    3.60
   1  -4  -1   20.90    4.30
  -1  -4   1   25.30    4.10
   1  -4  -1   21.80    4.50
   1  -4  -1   16.10    3.90
  -1  -4   1   23.10    4.50
  -1  -4   1   29.60    5.30
  -1   4   1   27.00    4.90
   1   4  -1   15.60    3.70
  -1   4   1   25.80    5.50
  -1   4   1   21.70    3.60
  -1   4   1   25.30    4.40
   1   4  -1   23.20    4.40
   1   4  -1   25.10    5.70
   1   4  -1   10.30    3.90
  -1   4   1   25.30    4.10
  -1   4   1   23.10    3.30
   1   4  -1   24.60    4.50
   1   4  -1   17.30    3.50
  -1   4   1   27.20    4.90
   0  -4  -1 1092.59   70.29
   0  -4  -1 1123.39   70.69
   0  -4  -1 1167.28   71.29
   0  -4   1 1205.08   70.69
   0  -4   1 1109.59   70.09
   0  -4  -1 1149.48   70.69
   0  -4  -1 1239.18   70.09
   0  -4  -1 1224.58   70.29
   0  -4   1 1166.18   70.79
   0  -4   1 1167.78   70.79
   0  -4   1 1213.98   69.89
   0  -4   1 1181.28   71.49
   0  -4   1 1211.28   70.69
   0  -4  -1 1193.28   70.69
   0   4  -1 1199.18   70.79
   0   4  -1 1174.98   71.29
   0   4   1 1155.78   70.49
   0   4  -1 1178.18   70.89
   0   4   1 1111.29   69.99
   0   4  -1 1150.68   69.79
   0   4   1 1201.88   70.89
   0   4   1 1174.88   71.19
   0   4   1 1150.78   71.59
   0   4   1 1163.78   70.69
   0   4  -1 1220.68   70.69
   0   4  -1 1219.08   71.79
   0   4  -1 1135.69   70.29
   0   4   1 1207.18   69.89
   1  -4   1   10.10    4.40
  -1  -4  -1   14.60    4.10
   1  -4   1   16.00    3.70
   1  -4   1   18.50    3.90
  -1  -4  -1   16.60    3.60
   1  -4   1   -4.70    6.10
   1  -4   1    9.20    3.50
   1  -4   1   17.20    2.80
   1  -4   1    8.60    3.30
  -1  -4  -1   -2.60    5.10
   1  -4   1   12.30    4.00
  -1  -4  -1   18.60    3.90
  -1  -4  -1   15.40    3.80
  -1  -4  -1   12.40    3.30
  -1  -4  -1   11.80    3.40
  -1  -4  -1   11.20    3.60
   1   4   1   11.60    5.00
   1   4   1   14.00    4.00
  -1   4  -1   14.80    3.60
  -1   4  -1   16.80    4.10
  -1   4  -1   13.20    4.20
   1   4   1   14.10    3.70
   1   4   1   11.00    3.00
   1   4   1   13.30    3.10
  -1   4  -1   15.60    2.70
  -1   4  -1   19.40    3.90
  -1   4  -1   10.20    3.40
  -1   4  -1   19.80    5.20
   1   4   1   14.70    3.70
   1   4   1   11.40    3.40
  -2  -4  -1   93.59    9.20
  -2  -4  -1  102.69    9.00
  -2  -4  -1   99.39    9.00
   2  -4   1  103.59    7.10
  -2  -4  -1   93.69    9.00
   2  -4   1  103.69    9.20
  -2  -4  -1   95.39    8.60
  -2  -4  -1   94.29    8.70
   2  -4   1  102.89    8.80
   2  -4   1  102.19    8.60
   2  -4   1   85.89   10.00
   2  -4   1  101.09    8.90
   2  -4   1   88.49    9.70
   2   4   1   94.79    8.20
   2   4   1  106.89    9.00
  -2   4  -1   96.59    9.50
  -2   4  -1   93.59   10.90
  -2   4  -1  104.09    8.90
   2   4   1   89.79    8.30
   2   4   1   90.49    9.20
   2   4   1   94.19    9.40
  -2   4  -1  106.79   11.60
  -2   4  -1  111.09    8.50
   2   4   1  107.19    9.30
  -2   4  -1   94.79    8.90
   2   4   1   82.29   10.80
  -2   4  -1   91.89    7.00
   3  -4   1   23.20    5.30
  -3  -4  -1   21.60    4.90
  -3  -4  -1   34.20    5.60
  -3  -4  -1   46.50    5.50
   3  -4   1   22.70    4.40
   3  -4   1   24.70    5.00
  -3  -4  -1   35.60    5.60
  -3  -4  -1   29.50    5.50
  -3  -4  -1   37.50    5.20
   3  -4   1   37.20    5.10
   3  -4   1   34.60    5.30
   3  -4   1   28.30    4.60
   3   4   1   25.90    4.40
   3   4   1   31.90    5.80
  -3   4  -1   33.30    4.90
   3   4   1   32.10    4.90
   3   4   1   40.90    5.70
  -3   4  -1   30.20    4.30
  -3   4  -1   32.00    3.40
  -3   4  -1   30.60    4.90
  -3   4  -1   37.70    6.40
   3   4   1   29.30    6.20
  -3   4  -1   36.60    4.20
  -3   4  -1   32.80    5.70
  -3   4  -1   28.70    5.20
   3   4   1   38.30    5.30
   3   4   1   34.70    4.70
  -4  -4  -1  224.98   16.80
  -4  -4  -1  238.18   17.40
  -4  -4  -1  241.08   17.60
   4  -4   1  290.87   17.40
   4  -4   1  260.67   17.20
  -4  -4  -1  230.48   17.50
   4  -4   1  260.47   17.50
  -4  -4  -1  216.38   17.50
   4  -4   1  259.17   18.10
   4  -4   1  298.37   18.20
  -4  -4  -1  226.48   17.60
   4   4   1  229.78   17.30
  -4   4  -1  281.87   18.90
   4   4   1  218.98   17.20
  -4   4  -1  259.07   17.10
  -4   4  -1  277.07   17.20
   4   4   1  229.08   16.90
  -4   4  -1  279.47   17.70
   4   4   1  241.48   17.40
   4   4   1  210.38   16.80
  -4   4  -1  274.47   18.50
  -4   4  -1  268.87   16.90
   5  -4   1   27.00    5.70
  -5  -4  -1   28.20    5.80
  -5  -4  -1   32.60    5.60
   5  -4   1   34.30    5.80
   5  -4   1   26.40    4.90
   5  -4   1   32.80    5.00
  -5  -4  -1   30.80    5.20
  -5  -4  -1   31.70    5.40
  -5  -4  -1   24.90    5.20
   5   4   1   29.50    4.80
  -5   4  -1   24.00    4.60
  -5   4  -1   27.20    4.30
  -5   4  -1   28.20    5.60
  -5   4  -1   29.60    6.20
  -5   4  -1   34.30    5.20
  -5   4  -1   32.80    5.40
   5   4   1   31.90    4.70
   5   4   1   34.70    5.70
   5   4   1   24.70    4.50
   5   4   1   22.90    5.30
   6  -4   1  247.78   17.10
  -6  -4  -1  199.48   15.20
  -6  -4  -1  221.18   16.90
  -6  -4  -1  189.18   17.00
   6  -4   1  234.98   16.90
   6  -4   1  275.97   16.60
  -6  -4  -1  189.68   15.80
  -6  -4  -1  228.98   16.40
   6  -4   1  259.67   16.20
  -6  -4  -1  208.58   16.40
   6   4   1  213.78   15.70
  -6   4  -1  272.37   17.90
   6   4   1  193.38   15.50
   6   4   1  213.18   16.00
   6   4   1  221.78   16.60
  -6   4  -1  223.08   15.80
  -6   4  -1  259.07   18.00
  -6   4  -1  242.18   16.90
   6   4   1  201.48   16.10
   7  -4   1   35.10    6.10
   7  -4   1   27.90    6.10
  -7  -4  -1   33.00    8.30
  -7   4  -1   25.60    5.30
  -7   4  -1   25.00    5.70
   7   4   1   32.60    5.60
   7   4   1   32.40    5.10
  -7   4  -1   31.90    7.20
   7   4   1   28.20    6.00
   7   4   1   50.29    6.90
   8  -4   1    6.60    5.90
  -8  -4  -1   13.90    4.60
   8  -4   1   14.00    5.70
  -8  -4  -1    6.40    4.40
   8   4   1    8.40    5.80
  -8   4  -1    7.70    5.20
   8   4   1    9.60    4.00
  -8   4  -1   10.70    6.50
  -8   4  -1   10.90    4.70
   8   4   1    5.40    4.70
   8   4   1   12.40    4.30
  -9  -4  -1  105.99   10.40
   9  -4   1   94.29   11.00
  -9  -4  -1   79.69   10.20
   9  -4   1   95.89   10.80
  -9   4  -1   91.79   12.50
   9   4   1   93.89   10.70
  -9   4  -1   88.19   11.00
   9   4   1   70.99    8.90
   9   4   1   93.09   11.50
  -9   4  -1   74.49    9.90
  -8  -5   1   52.89    7.50
  -8  -5   1   37.70    9.30
   8  -5  -1   40.70   10.10
   8  -5  -1   59.79    8.50
  -8  -5   1   51.99    8.90
  -8   5   1   63.69   10.80
   8   5  -1   69.39    9.90
  -8   5   1   42.10    8.30
   8   5  -1   54.19    7.00
   8   5  -1   36.10    7.90
  -7  -5   1   -3.40    6.10
   7  -5  -1   22.90    6.90
  -7  -5   1    1.80    6.90
   7  -5  -1   16.50    7.00
   7  -5  -1   15.70    6.00
  -7  -5   1   17.30    4.90
  -7   5   1   19.00    7.20
   7   5  -1   17.10    5.20
  -7   5   1    6.40    6.80
   7   5  -1   25.40    6.20
   7   5  -1   17.80    6.60
  -6  -5   1   67.19    9.20
  -6  -5   1   56.19    9.00
   6  -5  -1   50.79    7.20
   6  -5  -1   62.19    8.60
   6  -5  -1   46.60    8.10
  -6  -5   1   61.19    7.40
  -6   5   1   58.19    9.70
   6   5  -1   46.70    7.10
   6   5  -1   54.89    7.90
  -6   5   1   55.59    8.40
  -5  -5   1    3.20    5.90
   5  -5  -1    4.20    5.30
   5  -5  -1    4.00    4.50
   5  -5  -1   -0.60    4.50
  -5  -5   1   11.00    6.20
  -5  -5   1    1.60    4.30
   5   5  -1    8.70    4.90
   5   5  -1   10.30    5.70
  -5   5   1   -0.30    5.20
   5   5  -1    1.60    4.50
  -5   5   1    4.50    5.30
  -4  -5   1   39.30    7.00
  -4  -5   1   14.20    4.80
  -4  -5   1   28.60    6.90
   4  -5  -1   24.80    5.90
  -4  -5   1   25.80    5.30
   4  -5  -1   33.40    5.80
   4  -5  -1   35.40    6.70
   4  -5  -1   32.40    5.60
  -4   5   1   38.30    6.30
  -4   5   1   25.10    3.50
  -4   5   1   25.90    6.40
   4   5  -1   21.40    5.80
  -4   5   1   28.30    4.80
   4   5  -1   38.30    5.90
  -4   5   1   36.30    6.60
   4   5  -1   31.60    5.70
   4   5  -1   43.30    7.00
  -3  -5   1  174.08   15.10
   3  -5  -1  195.28   15.00
  -3  -5   1  166.28   14.80
   3  -5  -1  189.58   15.00
  -3  -5   1  166.58   15.80
   3  -5  -1  184.18   13.70
   3  -5  -1  181.28   14.10
   3  -5  -1  182.48   16.30
   3  -5  -1  180.58   12.20
  -3  -5   1  188.48   13.50
  -3   5   1  158.38   14.50
  -3   5   1  168.28   14.90
  -3   5   1  167.78   13.00
   3   5  -1  191.58   14.30
   3   5  -1  171.88   14.10
  -3   5   1  178.18   17.80
   3   5  -1  180.28   15.00
  -3   5   1  174.98   12.00
  -3   5   1  180.68   14.90
   3   5  -1  189.58   15.90
   2  -5  -1   31.40    4.40
   2  -5  -1   29.00    5.70
  -2  -5   1   29.20    6.20
  -2  -5   1   42.40    7.10
  -2  -5   1   29.40    6.00
   2  -5  -1   41.00    6.60
   2  -5  -1   42.00    6.10
  -2  -5   1   40.30    6.50
   2  -5  -1   43.40    5.90
   2  -5  -1   45.20    8.00
  -2  -5   1   39.00    5.50
  -2   5   1   32.70    6.10
   2   5  -1   51.09    7.10
   2   5  -1   32.70    6.70
  -2   5   1   40.30    5.00
  -2   5   1   29.80    5.10
   2   5  -1   31.90    6.80
  -2   5   1   30.10    8.10
   2   5  -1   41.70    6.00
  -2   5   1   51.39    6.90
   2   5  -1   43.20    5.60
  -2   5   1   36.00    6.70
  -1  -5   1    5.20    3.40
   1  -5  -1    1.20    4.80
  -1  -5   1    3.40    4.20
   1  -5  -1    1.00    3.90
  -1  -5   1   -1.40    5.00
   1  -5  -1    8.20    3.30
  -1  -5   1   -0.30    5.20
   1  -5  -1    2.80    3.60
   1  -5  -1    3.20    4.80
   1  -5  -1   -0.70    3.70
  -1  -5   1    4.80    5.20
   1  -5  -1    1.40    4.20
  -1  -5   1    7.30    5.00
   1   5  -1    1.50    4.40
   1   5  -1  -13.60   10.30
  -1   5   1    4.20    4.00
   1   5  -1    5.70    3.40
   1   5  -1    0.70    4.20
  -1   5   1    0.80    4.00
  -1   5   1    3.50    2.80
   1   5  -1    0.40    5.00
  -1   5   1   -3.20    5.40
  -1   5   1    2.70    4.30
  -1   5   1  -10.40    6.40
  -1   5   1    2.10    3.90
   1   5  -1   -1.70    3.60
   0  -5   1    2.40    5.10
   0  -5  -1    5.90    3.80
   0  -5   1   -1.10    4.40
   0  -5  -1    4.20    4.50
   0  -5   1    3.70    3.50
   0  -5   1    9.00    4.90
   0  -5  -1    0.50    3.60
   0  -5  -1    0.40    5.10
   0  -5  -1   -5.30    4.00
   0  -5   1    4.50    4.80
   0  -5   1    6.60    4.40
   0  -5  -1    2.50    4.10
   0  -5  -1   -0.20    3.90
   0  -5   1    1.90    3.30
   0   5   1   -3.20    4.00
   0   5   1   -0.30    4.40
   0   5  -1    7.80    6.20
   0   5   1   -1.10    4.00
   0   5  -1   10.10    4.90
   0   5  -1    4.90    3.90
   0   5   1   -0.60    4.30
   0   5  -1    0.80    5.10
   0   5  -1    5.60    4.00
   0   5   1    7.60    3.00
   0   5   1    8.40    7.60
   0   5   1    3.20    5.60
   0   5  -1    1.00    2.90
  -1  -5  -1   14.10    4.00
   1  -5   1    6.70    3.30
   1  -5   1   -3.80    4.80
  -1  -5  -1   11.30    3.90
   1  -5   1   11.70    4.00
  -1  -5  -1   11.00    4.80
   1  -5   1   13.70    5.40
   1  -5   1    2.30    4.30
  -1  -5  -1    1.50    4.30
   1  -5   1   15.80    5.20
   1  -5   1   10.50    4.70
  -1  -5  -1   11.60    4.70
  -1  -5  -1    6.20    4.80
  -1   5  -1   11.30    5.70
   1   5   1   10.40    5.50
  -1   5  -1   11.20    6.60
   1   5   1   11.60    4.90
  -1   5  -1    5.70    5.70
  -1   5  -1    4.80    4.30
  -1   5  -1   14.30    4.90
   1   5   1   16.80    4.30
   1   5   1    6.70    7.30
   1   5   1    9.50    3.50
  -1   5  -1   18.10    4.70
  -1   5  -1    5.30    3.00
   1   5   1   -1.10    4.50
   2  -5   1   21.80    5.90
  -2  -5  -1   15.10    5.00
  -2  -5  -1   17.10    5.10
   2  -5   1   13.10    4.80
   2  -5   1   14.80    4.30
   2  -5   1   19.30    5.80
  -2  -5  -1   19.20    5.80
   2  -5   1   21.60    5.00
  -2  -5  -1   23.80    6.00
  -2  -5  -1   19.90    4.60
  -2   5  -1   18.00    5.20
  -2   5  -1   23.00    7.50
  -2   5  -1   12.90    4.70
  -2   5  -1   10.30    7.10
   2   5   1   18.50    4.70
   2   5   1   24.10    6.20
   2   5   1   20.10    4.40
  -2   5  -1   19.10    5.00
  -2   5  -1   19.60    4.90
  -2   5  -1   17.40    3.20
   2   5   1   22.10    5.60
  -2   5  -1   13.70    5.20
   2   5   1   12.30    5.30
  -3  -5  -1  420.86   29.50
   3  -5   1  443.86   28.60
   3  -5   1  489.45   29.20
   3  -5   1  456.95   29.60
  -3  -5  -1  403.76   28.50
   3  -5   1  453.85   29.10
  -3  -5  -1  417.56   29.50
  -3  -5  -1  441.36   29.10
   3  -5   1  472.35   30.80
  -3  -5  -1  422.36   29.70
  -3   5  -1  443.76   29.20
  -3   5  -1  483.65   31.20
  -3   5  -1  441.46   29.40
   3   5   1  440.56   28.80
  -3   5  -1  444.16   30.10
  -3   5  -1  430.56   26.70
   3   5   1  441.26   29.70
   3   5   1  423.76   29.70
   3   5   1  420.26   29.50
   3   5   1  432.16   28.60
  -3   5  -1  440.76   27.30
  -4  -5  -1   -1.00    5.00
  -4  -5  -1   -4.20    3.90
   4  -5   1   -5.40    4.50
  -4  -5  -1   -3.50    5.50
   4  -5   1   -9.80    5.70
  -4  -5  -1    6.70    5.30
   4  -5   1   -4.70    8.50
   4   5   1    0.30    4.60
  -4   5  -1    0.20    4.70
   4   5   1   -3.20    4.10
   4   5   1    5.70    4.70
   4   5   1    2.90    4.30
  -4   5  -1   -2.10    8.10
   5  -5   1   75.39    9.40
  -5  -5  -1   48.50    8.60
   5  -5   1   54.99    7.60
  -5  -5  -1   46.70    8.30
   5  -5   1   68.39    8.30
   5   5   1   55.39    8.00
   5   5   1   57.09    7.60
  -5   5  -1   62.89    8.60
   5   5   1   45.40    7.80
  -5   5  -1   60.99    9.20
  -6  -5  -1   22.00    7.30
  -6  -5  -1   28.70    6.70
   6  -5   1   34.90    8.10
  -6  -5  -1   26.40    5.80
   6  -5   1   28.00    6.90
   6   5   1   26.50    6.40
  -6   5  -1   33.10    7.90
  -6   5  -1   33.70    6.90
   6   5   1   39.30    7.10
   7  -5   1   25.50    7.50
   7  -5   1   14.60   10.10
  -7  -5  -1   19.80    5.70
   7  -5   1   22.10    7.60
  -7  -5  -1   16.20    7.00
  -7   5  -1   24.00    7.40
  -7   5  -1   26.10    7.00
   7   5   1   22.30    5.70
   7   5   1   19.00    6.90
   7   5   1   23.00    6.60
  -7   5  -1   17.10    7.50
   7   5   1   35.40    6.70
   8  -5   1   20.80    7.30
  -8  -5  -1   20.60    6.40
  -8  -5  -1   24.70    6.60
   8  -5   1   29.00    7.80
   8  -5   1   27.30    8.50
   8   5   1   29.40    6.90
  -8   5  -1   20.00    8.30
  -8   5  -1   42.80    9.30
   8   5   1   23.20    7.80
   8   5   1   12.80    5.50
  -8   5  -1   29.80    7.00
  -6   6   1   79.09   13.80
   6   6  -1  106.99   15.40
  -5  -6   1   26.80    9.30
   5  -6  -1   24.40    7.70
  -5  -6   1   24.40    6.20
   5  -6  -1   27.70    8.40
  -5  -6   1   10.80    8.40
   5   6  -1   12.60    6.70
   5   6  -1   33.70    8.50
  -5   6   1   26.00    8.50
  -5   6   1   13.20    7.60
   5   6  -1   21.10    7.10
  -4  -6   1    7.40    7.60
  -4  -6   1    1.60    5.20
  -4  -6   1   -6.60    7.70
   4  -6  -1   -6.80    5.60
   4  -6  -1   -2.50    5.50
   4  -6  -1   -3.30    6.70
   4   6  -1    4.50    6.40
  -4   6   1    1.10    6.60
  -4   6   1    3.50    6.60
   4   6  -1    7.70    7.40
   4   6  -1    7.20    6.80
  -3  -6   1   14.70    5.40
   3  -6  -1    6.40    5.20
   3  -6  -1   -4.00    6.20
  -3  -6   1    5.20    7.90
  -3  -6   1   15.00    7.00
   3  -6  -1    5.60    5.50
   3   6  -1   13.00    5.70
   3   6  -1    1.30    6.30
  -3   6   1   -1.30    5.80
  -3   6   1   17.80    7.80
   3   6  -1    3.70    5.50
   2  -6  -1  241.48   19.00
   2  -6  -1  211.48   16.50
  -2  -6   1  237.68   18.50
  -2  -6   1  222.18   20.10
   2  -6  -1  189.28   16.10
   2   6  -1  209.18   17.30
  -2   6   1  198.88   18.10
   2   6  -1  200.98   18.80
  -2   6   1  188.08   14.60
   2   6  -1  211.68   16.30
  -1  -6   1   -2.20    6.50
   1  -6  -1    2.90    7.30
   1  -6  -1    4.20    6.50
  -1  -6   1   -0.30    7.40
   1  -6  -1    3.10    5.40
  -1  -6   1   13.20    6.80
   1  -6  -1    3.70    4.30
   1   6  -1    4.80    6.20
   1   6  -1   -0.50    5.80
   1   6  -1    9.30    6.90
  -1   6   1    8.80    5.80
   1   6  -1   -2.40    4.60
  -1   6   1   -1.00    3.90
  -1   6   1    3.10    6.00
  -1   6   1    6.10    6.30
   0  -6   1  252.37   19.80
   0  -6   1  277.57   21.60
   0  -6  -1  250.77   21.40
   0  -6   1  277.47   22.10
   0  -6   1  266.77   20.80
   0  -6  -1  263.57   21.00
   0  -6  -1  291.07   20.20
   0  -6  -1  234.48   19.00
   0   6   1  223.68   20.00
   0   6   1  258.87   21.10
   0   6   1  260.07   20.80
   0   6  -1  277.07   21.60
   0   6  -1  291.57   21.20
   0   6  -1  277.17   18.70
   0   6   1  270.97   20.60
   0   6  -1  281.67   20.80
   1  -6   1   37.60    8.30
  -1  -6  -1   41.90    7.40
  -1  -6  -1   35.50    8.10
  -1  -6  -1   28.60    8.30
   1  -6   1   38.10    6.30
  -1  -6  -1   32.50    6.00
   1  -6   1   35.10    7.70
   1  -6   1   36.10    9.50
   1   6   1   32.20    6.00
  -1   6  -1   27.30    5.30
   1   6   1   30.20    7.00
   1   6   1   48.40    8.30
   1   6   1   40.50    8.30
  -1   6  -1   30.60    7.10
  -1   6  -1   41.60    8.70
  -1   6  -1   43.30    8.30
  -2  -6  -1   -6.40    6.40
  -2  -6  -1    1.40    4.40
   2  -6   1   16.20    7.10
  -2  -6  -1    7.90    8.30
   2  -6   1    5.50    7.00
   2  -6   1    6.40    5.00
  -2   6  -1    1.10    6.20
  -2   6  -1   11.00   10.30
   2   6   1    2.50    4.60
  -2   6  -1    7.40    6.90
   2   6   1    7.80    6.30
  -2   6  -1    4.30    3.80
   2   6   1    1.30    7.30
   3  -6   1    3.10    7.10
  -3  -6  -1  -10.10    6.90
  -3  -6  -1   -6.20    4.40
   3  -6   1   -3.90    4.60
   3  -6   1   -5.80    6.70
  -3  -6  -1    4.80    7.90
   3   6   1   -4.80    5.50
  -3   6  -1    4.60    7.30
   3   6   1   -3.60    5.50
   3   6   1    6.00    6.40
  -3   6  -1    3.60    6.30
  -4  -6  -1   42.90    9.50
   4  -6   1   40.10    8.60
  -4  -6  -1   36.50    8.20
  -4  -6  -1   39.50    7.50
   4  -6   1   45.30    9.20
   4  -6   1   60.09    8.60
  -4   6  -1   30.10    9.00
   4   6   1   31.80    7.20
  -4   6  -1   38.10    7.90
   4   6   1   32.90    7.60
   4   6   1   40.20    8.80
   5  -6   1   13.00    7.60
  -5  -6  -1    7.70    5.90
  -5  -6  -1   15.50    8.50
   5  -6   1   33.00    8.50
  -5  -6  -1    8.60    7.80
   5   6   1   11.00    5.90
  -5   6  -1   16.20    7.10
   5   6   1   20.30    7.30
  -5   6  -1   18.60    8.70
   5   6   1   24.00    7.60
 -12   0   2 1173.58   69.59
  12   0  -2 1161.98   72.69
  12   0  -2 1200.18   72.19
 -12   0   2 1198.78   69.69
 -11   0   2   22.20    5.40
  11   0  -2   35.10    5.80
 -11   0   2   34.30    4.00
  11   0  -2   30.70    6.60
 -11   0   2   34.60    4.20
 -10   0   2   10.50    2.10
  10   0  -2   13.80    4.80
 -10   0   2   10.40    2.10
  10   0  -2   16.10    4.20
  10   0  -2   13.20    4.50
  10   0  -2   10.90    4.00
 -10   0   2   10.90    4.40
  -9   0   2  111.49    7.50
   9   0  -2  115.09    7.00
  -9   0   2  105.79    9.60
   9   0  -2  106.99    9.40
   9   0  -2  121.79    9.70
   9   0  -2  106.89   10.90
   9   0  -2  114.79    7.20
   9   0  -2  115.29   10.40
  -9   0   2  108.49    7.40
   9   0  -2  106.79    9.20
   8   0  -2  136.89   16.50
   8   0  -2  136.59    9.80
   8   0  -2  128.29    8.20
   8   0  -2  136.79   10.10
   8   0  -2  126.39    8.10
  -8   0   2  130.59    8.40
   8   0  -2  130.89   10.20
   8   0  -2  146.89   10.60
  -8   0   2  132.39   10.30
   8   0  -2  131.09   10.20
  -8   0   2  130.39    8.40
   7   0  -2  312.77   20.10
   7   0  -2  316.97   18.50
  -7   0   2  295.37   20.10
   7   0  -2  322.07   19.90
   7   0  -2  313.67   19.70
   7   0  -2  306.47   20.60
  -7   0   2  302.57   18.60
   7   0  -2  317.27   20.10
   7   0  -2  315.47   20.00
  -7   0   2  313.27   18.60
   7   0  -2  303.47   18.40
   6   0  -2  366.26   21.50
   6   0  -2  366.46   22.90
  -6   0   2  363.66   21.60
   6   0  -2  368.26   22.60
   6   0  -2  376.86   22.90
   6   0  -2  361.46   23.20
   6   0  -2  355.06   22.60
  -6   0   2  348.47   21.60
   6   0  -2  371.46   23.00
   6   0  -2  367.46   21.50
  -6   0   2  369.06   22.90
   5   0  -2  311.07   18.90
   5   0  -2  300.77   17.60
   5   0  -2  301.17   18.60
  -5   0   2  298.47   17.70
  -5   0   2  288.47   17.60
  -5   0   2  297.27   18.70
   5   0  -2  300.47   17.60
   5   0  -2  295.27   19.00
   5   0  -2  309.27   19.00
  -5   0   2  298.57   19.40
   5   0  -2  292.07   18.90
   5   0  -2  301.77   18.60
   4   0  -2 2697.63  153.38
  -4   0   2 2602.14  153.38
   4   0  -2 2664.53  153.48
   4   0  -2 2642.14  153.68
   4   0  -2 2400.16  154.18
   4   0  -2 2670.43  153.28
  -4   0   2 2633.94  153.98
  -3   0   2   89.99    6.50
  -3   0   2   84.29    6.00
   3   0  -2   92.69    6.30
   3   0  -2   90.09    6.10
   3   0  -2   88.59    6.40
  -3   0   2   90.49    6.30
  -3   0   2   83.59    6.70
   2   0  -2  485.45   27.80
  -2   0   2  453.95   27.30
   2   0  -2  460.75   27.30
   2   0  -2  454.75   27.80
  -2   0   2  467.05   27.30
   2   0  -2  462.15   28.10
  -2   0   2  462.15   27.90
  -2   0   2  468.35   28.20
   2   0  -2  467.25   27.30
  -2   0   2  488.25   27.80
   1   0  -2   15.90    1.70
  -1   0   2   15.40    1.70
   1   0  -2   16.10    1.30
   1   0  -2   15.90    1.80
  -1   0   2   14.80    2.00
  -1   0   2   17.00    1.30
   1   0  -2   16.90    1.30
  -1   0   2   18.40    1.70
   1   0  -2   15.10    1.50
   1   0  -2   16.70    1.30
  -1   0   2   15.60    1.40
  -1   0   2   15.70    1.30
   1   0  -2   17.10    2.10
   0   0  -2  104.59    7.00
   0   0   2  113.29    7.00
   0   0  -2  110.99    7.00
   0   0   2  120.99    7.20
   0   0  -2  117.39    7.00
   0   0  -2  119.49    7.20
   0   0   2  121.09    7.10
   0   0  -2  119.99    7.10
   0   0   2  118.59    7.00
   0   0   2  100.09    7.00
   1   0   2    4.50    1.00
   1   0   2    3.90    0.80
  -1   0  -2    4.60    0.90
  -1   0  -2    4.80    0.90
  -1   0  -2    3.70    0.80
  -1   0  -2    4.50    1.10
   1   0   2    5.30    0.80
   1   0   2    4.40    0.90
   1   0   2    4.90    0.90
   1   0   2    3.50    0.90
  -1   0  -2    3.50    0.80
   1   0   2    4.10    0.80
   2   0   2    4.20    1.10
   2   0   2    4.90    1.00
   2   0   2    5.50    0.80
  -2   0  -2    6.80    1.60
  -2   0  -2    5.20    1.30
  -2   0  -2    6.40    1.30
   2   0   2    6.50    1.20
  -2   0  -2    4.70    1.20
   2   0   2    5.50    1.20
  -2   0  -2    5.00    1.00
   3   0   2   37.50    2.90
   3   0   2   36.90    3.20
   3   0   2   38.40    3.00
  -3   0  -2   36.60    3.60
  -3   0  -2   33.10    2.90
   3   0   2   33.20    3.10
  -3   0  -2   35.40    3.50
   3   0   2   38.20    3.00
  -3   0  -2   33.00    2.80
  -3   0  -2   31.10    2.90
  -3   0  -2   34.20    3.00
   3   0   2   33.90    2.80
  -3   0  -2   38.00    3.30
  -4   0  -2 2682.13  163.28
   4   0   2 2761.42  162.98
   4   0   2 2847.62  163.28
  -4   0  -2 2873.41  163.58
  -4   0  -2 2738.63  163.48
  -4   0  -2 2854.61  163.28
   4   0   2 2770.52  163.58
   4   0   2 2860.81  163.48
   4   0   2 2884.61  163.28
  -4   0  -2 2767.82  163.18
   4   0   2 2656.03  163.18
  -4   0  -2 2871.51  163.28
   4   0   2 2696.33  163.28
   5   0   2  417.96   25.10
   5   0   2  419.06   25.80
   5   0   2  432.26   25.60
  -5   0  -2  406.76   25.70
  -5   0  -2  421.86   25.30
   5   0   2  431.36   25.40
   5   0   2  423.96   25.40
   5   0   2  432.16   25.40
   5   0   2  412.76   25.30
  -5   0  -2  423.16   26.00
  -5   0  -2  432.76   25.30
  -5   0  -2  402.16   25.10
  -5   0  -2  406.46   25.40
  -6   0  -2  325.07   19.00
   6   0   2  298.87   18.70
  -6   0  -2  268.87   20.60
   6   0   2  308.77   18.50
  -6   0  -2  291.67   18.80
  -6   0  -2  318.57   19.40
   6   0   2  299.67   19.40
  -6   0  -2  299.77   19.60
   6   0   2  297.67   18.80
   6   0   2  304.47   18.90
   6   0   2  299.77   18.90
  -6   0  -2  307.57   18.60
   6   0   2  307.97   18.70
  -6   0  -2  316.77   18.70
   7   0   2  132.19    9.00
   7   0   2  114.49   10.70
  -7   0  -2  127.69    9.10
   7   0   2  114.19    8.80
   7   0   2  115.19    8.60
   7   0   2  124.59    8.40
  -7   0  -2  118.09    8.70
  -7   0  -2  127.49    9.80
   7   0   2  128.59    8.90
   7   0   2  129.49    8.90
  -7   0  -2  137.19    8.70
  -7   0  -2  123.59    8.60
   7   0   2  136.39    8.40
  -7   0  -2  127.59   10.10
   7   0   2  131.99    9.70
   8   0   2   15.70    2.80
  -8   0  -2   14.90    3.40
   8   0   2   16.20    2.70
  -8   0  -2   13.10    3.30
   8   0   2   19.00    4.20
  -8   0  -2   12.30    4.10
   8   0   2   24.40    3.20
  -8   0  -2   19.00    2.80
   8   0   2   18.50    3.10
  -8   0  -2   16.20    2.80
   8   0   2   25.70    3.10
   8   0   2   18.00    3.10
  -9   0  -2   47.00    7.30
   9   0   2   53.49    5.80
  -9   0  -2   50.89    6.50
   9   0   2   54.69    6.00
   9   0   2   51.99    5.50
   9   0   2   65.39    7.90
   9   0   2   48.40    6.70
  -9   0  -2   48.60    5.20
   9   0   2   46.90    5.90
  -9   0  -2   49.99    5.50
   9   0   2   64.79    5.60
   9   0   2   66.19    4.90
  10   0   2  344.27   21.20
  10   0   2  305.77   22.90
  10   0   2  342.17   23.00
 -10   0  -2  325.27   21.80
 -10   0  -2  340.37   21.40
  10   0   2  345.97   21.80
  10   0   2  331.67   21.40
 -10   0  -2  321.57   22.90
  11   0   2  231.48   18.10
  11   0   2  231.58   16.30
  11   0   2  228.68   16.50
 -11   0  -2  224.28   15.50
  11   0   2  215.18   15.70
  12   0   2  343.57   24.90
  12   0   2  328.77   22.40
  11  -1  -2   -0.30    1.50
 -11  -1   2   -0.10    4.70
 -11  -1   2   -0.40    2.00
  11  -1  -2    3.30    4.80
  11  -1  -2   -3.10    4.30
  11  -1  -2    3.70    1.60
  11  -1  -2   -9.10    5.10
 -11  -1   2    1.40    2.70
 -11   1   2    4.30    4.00
 -11   1   2    0.30    4.10
 -11   1   2   -0.40    2.40
  11   1  -2   -1.50    5.20
  11   1  -2    7.40    5.70
  10  -1  -2  113.89    7.10
 -10  -1   2  102.09   10.00
  10  -1  -2   99.59    7.40
 -10  -1   2  108.59    7.50
 -10  -1   2  110.49    7.90
  10  -1  -2  121.19    9.00
  10  -1  -2  110.29   10.80
  10  -1  -2  111.39   10.30
  10   1  -2   95.29   10.10
 -10   1   2  101.69    8.00
  10   1  -2  102.29    7.30
  10   1  -2  105.79    9.80
  10   1  -2  105.59    7.10
 -10   1   2   96.49   10.30
  10   1  -2  115.59   10.90
 -10   1   2  103.49    7.80
   9  -1  -2  627.94   37.00
  -9  -1   2  595.74   36.20
  -9  -1   2  574.24   37.90
   9  -1  -2  604.24   37.00
   9  -1  -2  602.04   36.20
   9  -1  -2  598.24   38.20
  -9  -1   2  615.44   36.30
   9  -1  -2  593.44   37.60
   9  -1  -2  612.54   36.00
   9   1  -2  593.94   36.00
   9   1  -2  636.14   37.90
  -9   1   2  619.54   36.50
  -9   1   2  567.74   38.90
   9   1  -2  622.14   37.70
   9   1  -2  595.84   37.90
  -9   1   2  624.74   36.40
   9   1  -2  589.24   36.10
   9   1  -2  610.14   37.80
  -9   1   2  644.24   38.90
  -8  -1   2   39.90    3.60
  -8  -1   2   35.60    5.20
   8  -1  -2   33.10    3.80
   8  -1  -2   37.50    3.30
   8  -1  -2   38.00    4.50
   8  -1  -2   40.90    5.60
  -8  -1   2   46.00    3.90
   8  -1  -2   34.80    4.70
   8  -1  -2   39.20    5.90
   8  -1  -2   47.60    5.00
   8   1  -2   38.40    3.30
  -8   1   2   46.60    4.30
   8   1  -2   41.80    3.50
   8   1  -2   46.10    5.50
   8   1  -2   34.40    7.00
  -8   1   2   37.60    5.50
  -8   1   2   42.40    4.00
   8   1  -2   39.30    5.60
  -8   1   2   38.90    5.80
   8   1  -2   40.30    5.50
   8   1  -2   36.70    5.20
   7  -1  -2    4.90    1.50
   7  -1  -2    3.50    1.10
   7  -1  -2    8.00    2.20
   7  -1  -2    5.10    2.50
  -7  -1   2    3.50    1.30
  -7  -1   2    4.60    1.40
   7  -1  -2    2.50    2.20
   7  -1  -2    6.60    2.80
  -7  -1   2    6.90    2.80
   7  -1  -2    2.60    2.20
   7   1  -2    3.70    4.00
  -7   1   2    4.80    1.50
   7   1  -2    4.20    1.10
  -7   1   2    3.00    3.00
  -7   1   2    4.30    2.70
   7   1  -2    0.50    2.40
  -7   1   2    3.80    1.80
   7   1  -2    4.00    1.40
   7   1  -2   -2.60    3.80
   7   1  -2    4.20    2.40
   7   1  -2    7.20    2.50
   7   1  -2    6.50    2.50
   6  -1  -2  106.79    7.20
  -6  -1   2   97.39    6.50
  -6  -1   2  101.39    7.80
   6  -1  -2   95.09    6.90
   6  -1  -2  100.59    6.40
   6  -1  -2   92.39    7.60
   6  -1  -2  101.79    6.60
  -6  -1   2   93.39    6.50
   6  -1  -2   90.49    7.80
   6  -1  -2   97.49    6.90
  -6   1   2   93.09    7.80
   6   1  -2   94.89    6.20
  -6   1   2  106.89    6.60
   6   1  -2   98.29    8.50
   6   1  -2  103.39    8.80
  -6   1   2   95.99    6.90
   6   1  -2   90.79    6.40
   6   1  -2   83.49    7.60
  -6   1   2  103.09    8.40
   6   1  -2   99.59    7.70
   6   1  -2   97.39    7.60
   6   1  -2   95.59    7.50
   5  -1  -2    1.20    0.90
   5  -1  -2    0.00    1.70
  -5  -1   2    1.40    1.10
   5  -1  -2   -0.30    1.70
   5  -1  -2    2.60    1.40
   5  -1  -2   -0.40    1.10
  -5  -1   2    0.00    2.00
   5  -1  -2    1.20    1.30
   5  -1  -2   -1.60    1.30
  -5  -1   2    4.00    2.40
  -5  -1   2    0.60    1.00
   5   1  -2    0.00    2.70
   5   1  -2    0.20    1.00
   5   1  -2    2.10    1.90
  -5   1   2    1.20    1.60
  -5   1   2    0.60    1.90
   5   1  -2    0.70    2.80
   5   1  -2    0.90    0.80
   5   1  -2    0.20    1.70
  -5   1   2   -0.90    1.00
   5   1  -2   -1.70    1.70
  -5   1   2    1.10    0.60
  -5   1   2    1.70    2.00
  -5   1   2    0.40    0.60
   4  -1  -2   99.59    6.10
  -4  -1   2   99.59    6.20
  -4  -1   2   99.19    6.70
   4  -1  -2  105.79    7.50
   4  -1  -2  102.29    6.60
   4  -1  -2   97.79    6.70
  -4  -1   2   99.69    6.20
   4  -1  -2   95.89    6.50
   4  -1  -2   99.59    6.50
  -4  -1   2   93.59    7.50
   4  -1  -2  101.09    6.10
  -4  -1   2  100.89    7.30
  -4  -1   2  106.49    7.20
   4   1  -2   97.69    7.80
   4   1  -2  104.69    7.90
  -4   1   2   97.39    7.20
   4   1  -2   95.59    7.20
  -4   1   2  100.79    6.70
  -4   1   2   96.69    7.60
  -4   1   2   95.99    6.30
   4   1  -2   98.19    7.30
  -4   1   2  103.59    6.90
   4   1  -2  102.19    6.40
  -4   1   2  100.79    6.30
  -4   1   2  102.49    6.50
   3  -1  -2   45.70    3.30
  -3  -1   2   47.60    3.20
   3  -1  -2   45.90    3.20
  -3  -1   2   42.10    3.70
  -3  -1   2   47.80    3.70
   3  -1  -2   44.30    3.20
  -3  -1   2   43.70    3.20
   3  -1  -2   42.20    3.40
  -3  -1   2   46.70    4.10
  -3  -1   2   48.20    3.30
  -3  -1   2   41.90    4.50
   3  -1  -2   47.40    3.30
   3  -1  -2   42.90    3.30
   3   1  -2   42.40    3.10
   3   1  -2   43.00    3.90
   3   1  -2   45.60    3.30
   3   1  -2   49.50    4.20
  -3   1   2   41.30    3.90
  -3   1   2   42.80    3.60
   3   1  -2   42.60    3.30
  -3   1   2   45.80    3.60
  -3   1   2   43.40    3.40
  -3   1   2   47.00    3.30
  -3   1   2   43.70    3.10
  -3   1   2   43.20    4.20
   3   1  -2   39.80    4.30
  -3   1   2   44.70    3.40
   3   1  -2   44.90    3.40
   3   1  -2   49.90    4.70
   2  -1  -2   37.40    2.90
   2  -1  -2   39.30    3.50
  -2  -1   2   47.50    4.10
   2  -1  -2   37.80    2.90
   2  -1  -2   39.30    2.90
  -2  -1   2   39.60    3.60
   2  -1  -2   34.90    2.60
   2  -1  -2   38.20    2.70
   2  -1  -2   37.60    3.10
  -2  -1   2   40.40    2.90
  -2  -1   2   37.70    2.90
  -2  -1   2   33.30    3.20
  -2   1   2   36.30    3.10
  -2   1   2   35.90    3.70
  -2   1   2   37.00    3.00
   2   1  -2   37.40    2.80
  -2   1   2   37.10    3.00
   2   1  -2   35.90    3.30
   2   1  -2   40.80    3.10
   2   1  -2   43.90    3.80
  -2   1   2   38.80    2.80
   2   1  -2   38.10    3.90
  -2   1   2   40.50    3.40
   2   1  -2   43.40    3.80
  -2   1   2   36.40    2.60
   2   1  -2   37.70    3.00
   2   1  -2   37.40    3.00
  -1  -1   2    6.80    1.70
  -1  -1   2    7.70    1.50
   1  -1  -2    9.90    1.40
   1  -1  -2    7.70    1.40
   1  -1  -2    7.40    1.70
  -1  -1   2    8.10    1.30
   1  -1  -2   11.80    1.60
   1  -1  -2    9.80    1.30
   1  -1  -2    9.60    1.30
   1  -1  -2    8.00    0.80
   1  -1  -2    9.10    1.60
  -1  -1   2    8.80    1.80
   1   1  -2    8.30    1.90
   1   1  -2    8.70    1.80
  -1   1   2    8.60    1.30
  -1   1   2    7.10    1.80
   1   1  -2    6.90    1.20
  -1   1   2    6.20    1.30
  -1   1   2    9.60    0.90
   1   1  -2    4.30    1.30
   1   1  -2    7.10    1.30
   1   1  -2    9.80    1.60
  -1   1   2    9.70    1.40
   1   1  -2    9.00    1.80
   1   1  -2    4.70    1.10
   0  -1   2   -0.10    0.80
   0  -1  -2    2.90    1.20
   0  -1  -2    1.00    1.10
   0  -1   2    1.40    1.30
   0  -1  -2    1.80    0.90
   0  -1   2    3.50    1.30
   0  -1   2    2.20    0.90
   0  -1  -2    3.00    0.60
   0  -1  -2    2.20    1.00
   0  -1  -2    1.60    1.10
   0  -1   2    3.80    1.20
   0  -1  -2    1.70    1.00
   0  -1   2    1.40    0.90
   0  -1  -2    1.60    1.40
   0  -1   2    3.10    1.10
   0   1  -2    1.20    0.90
   0   1   2    2.00    1.00
   0   1  -2    1.40    0.90
   0   1  -2    2.50    1.00
   0   1   2    0.30    0.90
   0   1   2    1.90    1.00
   0   1   2    2.00    1.30
   0   1  -2    1.60    1.20
   0   1  -2    2.50    1.10
   0   1  -2    3.10    1.30
   0   1  -2    2.80    1.40
   0   1   2    2.40    1.20
   1  -1   2  130.39    8.20
   1  -1   2  119.79    7.70
  -1  -1  -2  110.59    7.70
  -1  -1  -2  119.99    7.90
   1  -1   2  133.39    7.40
  -1  -1  -2  110.99    7.90
  -1  -1  -2  108.59    7.90
  -1  -1  -2  112.19    7.70
   1  -1   2  122.29    7.70
   1  -1   2  131.39    7.90
  -1  -1  -2  104.49    7.60
  -1  -1  -2   99.59    7.70
   1   1   2  111.79    7.50
  -1   1  -2  137.49    7.40
   1   1   2  121.79    7.70
  -1   1  -2  120.99    7.70
  -1   1  -2  134.39    7.90
   1   1   2  111.99    7.70
   1   1   2  120.19    7.80
   1   1   2  107.49    7.90
  -1   1  -2  129.19    7.80
  -1   1  -2  128.59    8.10
   1   1   2  133.59    7.90
  -1   1  -2  132.49    7.90
   1   1   2  106.09    7.60
   2  -1   2   82.19    5.20
   2  -1   2   82.59    6.00
  -2  -1  -2   91.69    6.30
   2  -1   2   83.49    5.80
   2  -1   2   79.09    5.70
  -2  -1  -2   81.09    5.70
  -2  -1  -2   92.59    6.10
  -2  -1  -2   92.39    6.00
   2  -1   2   78.69    6.00
  -2  -1  -2   89.49    6.00
   2  -1   2   85.39    6.20
  -2  -1  -2   87.29    5.70
   2   1   2   81.39    5.80
   2   1   2   80.79    5.90
  -2   1  -2   84.19    5.80
   2   1   2   84.59    5.90
  -2   1  -2   83.29    5.90
  -2   1  -2   88.69    6.10
   2   1   2   91.99    6.10
   2   1   2   85.89    5.40
  -2   1  -2   84.89    5.90
   2   1   2   76.09    5.90
  -2   1  -2   81.49    5.20
  -2   1  -2   88.09    5.90
  -2   1  -2   89.19    6.20
  -2   1  -2   93.89    5.90
   2   1   2   85.79    5.80
   2   1   2   88.29    5.90
  -3  -1  -2  504.15   29.90
   3  -1   2  495.95   29.90
  -3  -1  -2  516.35   29.50
  -3  -1  -2  502.15   30.20
   3  -1   2  513.55   30.20
   3  -1   2  491.75   29.40
   3  -1   2  495.35   30.10
   3  -1   2  476.75   30.10
  -3  -1  -2  535.75   30.40
   3  -1   2  505.15   30.00
   3  -1   2  514.65   30.40
  -3  -1  -2  489.65   30.10
   3   1   2  509.75   30.30
  -3   1  -2  445.76   30.50
   3   1   2  501.85   29.50
  -3   1  -2  487.25   30.00
  -3   1  -2  505.15   29.40
   3   1   2  517.45   31.40
  -3   1  -2  507.15   30.00
   3   1   2  505.25   30.00
  -3   1  -2  489.25   30.10
   3   1   2  495.15   30.00
   3   1   2  489.95   30.10
   3   1   2  512.35   30.00
  -3   1  -2  487.55   30.00
   3   1   2  508.75   30.20
   4  -1   2   91.39    6.10
  -4  -1  -2   87.89    5.90
   4  -1   2   89.49    6.40
  -4  -1  -2   94.99    6.90
  -4  -1  -2   83.99    6.20
   4  -1   2   86.79    6.00
   4  -1   2   84.99    5.50
   4  -1   2   76.59    6.70
  -4  -1  -2   91.19    6.10
  -4  -1  -2   95.59    6.60
   4  -1   2   82.19    6.50
   4  -1   2   92.19    6.70
  -4  -1  -2   90.59    6.30
   4   1   2   76.79    5.50
   4   1   2   79.89    6.00
   4   1   2   88.19    6.40
  -4   1  -2   92.69    5.60
  -4   1  -2   87.09    6.60
  -4   1  -2   82.89    6.10
   4   1   2   85.69    5.50
  -4   1  -2   92.29    6.50
  -4   1  -2   88.99    6.40
   4   1   2   87.39    6.40
   4   1   2   88.39    6.40
  -4   1  -2   89.89    6.20
   4   1   2   88.49    6.20
  -4   1  -2   89.79    6.50
   4   1   2   87.09    6.10
   4   1   2   89.69    6.90
  -4   1  -2   84.79    6.10
   5  -1   2   36.00    3.40
  -5  -1  -2   34.50    3.60
   5  -1   2   40.10    3.10
  -5  -1  -2   38.40    4.70
   5  -1   2   30.10    4.00
   5  -1   2   44.60    3.80
   5  -1   2   38.20    4.00
  -5  -1  -2   38.10    4.50
  -5  -1  -2   36.70    3.40
  -5  -1  -2   38.30    3.30
   5  -1   2   36.70    3.90
   5  -1   2   39.70    3.60
  -5   1  -2   35.60    4.20
   5   1   2   37.20    2.60
  -5   1  -2   35.20    3.60
   5   1   2   32.90    4.00
   5   1   2   34.00    3.40
   5   1   2   41.10    4.20
  -5   1  -2   40.30    3.60
   5   1   2   35.00    3.50
  -5   1  -2   38.50    3.00
  -5   1  -2   35.40    4.50
  -5   1  -2   36.40    3.90
   5   1   2   38.90    3.70
   5   1   2   49.60    5.10
   5   1   2   34.10    3.80
  -5   1  -2   38.40    3.50
  -5   1  -2   36.50    4.00
   6  -1   2   38.60    4.50
   6  -1   2   37.70    4.10
   6  -1   2   37.80    3.50
   6  -1   2   38.00    3.80
   6  -1   2   39.40    3.80
   6  -1   2   33.70    4.40
  -6  -1  -2   36.80    4.10
  -6  -1  -2   32.70    3.90
   6  -1   2   41.00    4.60
  -6  -1  -2   39.20    3.60
  -6  -1  -2   36.30    4.40
  -6  -1  -2   39.70    3.80
  -6  -1  -2   41.90    5.20
   6   1   2   36.00    4.10
  -6   1  -2   42.70    3.90
   6   1   2   42.20    4.80
  -6   1  -2   35.60    3.90
   6   1   2   44.40    4.60
   6   1   2   38.10    2.80
   6   1   2   38.50    4.50
   6   1   2   40.10    3.80
  -6   1  -2   37.50    3.80
  -6   1  -2   34.00    4.60
   6   1   2   44.80    4.10
  -6   1  -2   45.50    4.90
  -6   1  -2   39.00    4.30
  -6   1  -2   40.10    3.40
   6   1   2   42.10    5.40
  -7  -1  -2  146.29   11.00
   7  -1   2  147.49   10.20
   7  -1   2  128.79    9.30
   7  -1   2  151.08   10.20
   7  -1   2  151.58   10.00
   7  -1   2  143.39   10.40
   7  -1   2  134.89   10.50
   7  -1   2  147.39   10.30
  -7  -1  -2  142.49   10.00
  -7  -1  -2  156.18   10.80
  -7  -1  -2  149.59   10.30
   7   1   2  138.59    9.80
   7   1   2  151.18   10.50
   7   1   2  150.58    8.90
  -7   1  -2  149.59   10.30
   7   1   2  145.19   10.00
  -7   1  -2  141.69   10.50
   7   1   2  121.29   10.80
   7   1   2  140.79   10.60
  -7   1  -2  145.69   10.90
  -7   1  -2  143.69   10.00
   7   1   2  142.79   10.80
  -7   1  -2  147.59   10.30
  -7   1  -2  136.99   10.90
  -8  -1  -2  238.98   14.80
   8  -1   2  204.88   16.00
   8  -1   2  248.98   15.40
   8  -1   2  235.98   15.30
  -8  -1  -2  230.68   16.30
   8  -1   2  229.38   14.60
   8  -1   2  231.28   15.10
  -8  -1  -2  219.08   16.10
  -8  -1  -2  231.88   15.60
   8  -1   2  231.68   15.10
   8   1   2  237.28   14.90
  -8   1  -2  230.68   15.60
   8   1   2  224.38   15.20
   8   1   2  231.38   15.70
  -8   1  -2  237.68   16.40
  -8   1  -2  229.28   16.00
  -8   1  -2  244.28   15.20
   9  -1   2   60.99    7.10
   9  -1   2   61.29    7.30
   9  -1   2   58.39    5.60
  -9  -1  -2   59.69    7.10
   9  -1   2   57.29    5.60
  -9  -1  -2   51.49    5.70
   9  -1   2   50.99    5.80
  -9  -1  -2   57.39    7.00
   9  -1   2   61.79    5.40
  -9  -1  -2   55.19    5.50
  -9   1  -2   62.89    5.90
   9   1   2   56.29    6.30
  -9   1  -2   61.89    6.00
   9   1   2   65.79    7.80
   9   1   2   60.79    5.90
  -9   1  -2   45.10    6.40
   9   1   2   48.30    5.90
  -9   1  -2   53.19    6.40
  -9   1  -2   55.29    7.10
  10  -1   2   70.69    6.30
 -10  -1  -2   62.09    6.60
 -10  -1  -2   52.39    7.20
  10  -1   2   68.79    8.10
 -10  -1  -2   56.69    6.70
  10  -1   2   64.59    7.20
  10  -1   2   57.29    6.50
 -10   1  -2   48.30    7.10
 -10   1  -2   57.29    6.70
  10   1   2   67.89    7.10
 -10   1  -2   61.69    7.10
  10   1   2   61.59    6.40
  10   1   2   60.99    7.70
  10   1   2   80.69    8.80
 -10   1  -2   62.99    8.60
 -11  -1  -2   37.90   12.90
  11  -1   2   34.60    5.40
  11  -1   2   31.20    7.40
 -11  -1  -2   27.40    4.30
  11   1   2   30.80    6.90
 -11   1  -2   28.50    6.90
  11   1   2   28.60    4.70
 -11   1  -2   34.60    4.70
  11   1   2   33.40    6.90
  11  -2  -2    6.30    3.10
  11  -2  -2   -1.10    5.70
 -11  -2   2    4.70    4.50
  11  -2  -2    0.10    2.70
 -11  -2   2    1.70    2.70
 -11  -2   2    7.90    4.30
  11   2  -2    3.40    2.50
  11   2  -2    4.80    6.00
  11   2  -2    0.20    3.00
 -11   2   2    5.10    3.30
 -11   2   2    1.80    7.00
  11   2  -2    6.20    6.30
 -11   2   2    3.40    5.40
  10  -2  -2   52.89    7.80
 -10  -2   2   77.29    7.30
  10  -2  -2   78.29    6.80
 -10  -2   2   56.79    7.20
 -10  -2   2   67.99    6.40
  10  -2  -2   72.19    5.90
 -10   2   2   59.29    8.20
  10   2  -2   59.39    8.10
  10   2  -2   67.99    5.90
  10   2  -2   72.49    8.80
  10   2  -2   74.69    6.50
 -10   2   2   64.39    9.70
  10   2  -2   77.59    8.90
 -10   2   2   68.79    7.10
 -10   2   2   68.69    8.10
   9  -2  -2   42.20    4.70
  -9  -2   2   40.80    5.60
   9  -2  -2   47.30    6.00
   9  -2  -2   35.70    4.50
  -9  -2   2   37.60    4.80
  -9  -2   2   39.00    4.70
   9  -2  -2   41.50    4.40
  -9   2   2   49.60    5.60
  -9   2   2   42.00    4.70
   9   2  -2   41.30    5.90
   9   2  -2   40.80    5.80
   9   2  -2   58.39    7.10
  -9   2   2   42.40    6.40
   9   2  -2   36.90    6.00
  -9   2   2   43.30    7.10
   9   2  -2   39.90    5.10
   9   2  -2   37.20    4.10
   8  -2  -2   87.49    6.80
   8  -2  -2   91.59    9.40
   8  -2  -2   88.79    8.00
  -8  -2   2   94.29    8.50
   8  -2  -2  109.39    7.80
  -8  -2   2  101.09    7.70
  -8  -2   2   92.79    7.40
   8  -2  -2   95.69    7.00
  -8   2   2   93.69    9.80
  -8   2   2   96.39    7.50
   8   2  -2   90.79    8.50
  -8   2   2   85.79    8.20
   8   2  -2   99.09    9.00
   8   2  -2  102.39    7.00
   8   2  -2   91.79    8.70
  -8   2   2   86.09    8.50
   8   2  -2   83.89    7.20
  -7  -2   2   60.19    5.30
   7  -2  -2   48.00    5.20
   7  -2  -2   45.40    3.60
   7  -2  -2   35.60    4.50
   7  -2  -2   50.99    3.60
  -7  -2   2   40.30    6.10
   7  -2  -2   49.80    4.50
   7  -2  -2   45.70    7.00
   7  -2  -2   56.39    4.20
  -7  -2   2   50.79    3.90
   7  -2  -2   58.69    5.40
  -7  -2   2   42.40    5.00
  -7  -2   2   47.50    5.90
   7   2  -2   48.40    5.80
   7   2  -2   51.49    4.50
  -7   2   2   52.09    5.90
  -7   2   2   54.19    4.30
   7   2  -2   43.70    5.70
   7   2  -2   63.39    6.20
  -7   2   2   42.70    5.70
  -7   2   2   45.10    6.70
   7   2  -2   49.20    6.50
  -7   2   2   61.59    5.20
   7   2  -2   40.70    4.80
  -7   2   2   53.39    6.30
   6  -2  -2 1648.34   99.79
   6  -2  -2 1610.74   99.79
  -6  -2   2 1699.53   99.99
   6  -2  -2 1682.23  100.39
  -6  -2   2 1697.33  101.49
  -6  -2   2 1720.43  100.69
   6  -2  -2 1717.73  100.29
  -6  -2   2 1749.92  100.99
   6  -2  -2 1758.92  100.49
  -6  -2   2 1649.33   99.79
   6  -2  -2 1731.73   99.99
  -6  -2   2 1735.83  100.59
   6  -2  -2 1692.53   99.79
  -6  -2   2 1689.83  100.39
   6  -2  -2 1633.14  101.39
  -6   2   2 1711.43  100.89
  -6   2   2 1705.93  101.59
   6   2  -2 1735.13  101.19
   6   2  -2 1754.32   99.79
   6   2  -2 1696.83  100.29
  -6   2   2 1770.42  100.29
   6   2  -2 1652.43   99.89
   6   2  -2 1684.13  101.79
  -6   2   2 1778.92   99.99
   6   2  -2 1711.93  100.19
  -6   2   2 1640.64   99.99
   6   2  -2 1737.03  101.19
  -6   2   2 1647.64  101.09
  -6   2   2 1769.82  100.49
   6   2  -2 1634.14  101.69
   5  -2  -2    3.80    1.60
   5  -2  -2    4.60    1.60
  -5  -2   2    4.10    1.60
  -5  -2   2    2.10    2.20
  -5  -2   2    6.40    2.10
   5  -2  -2    3.90    2.00
  -5  -2   2    5.60    2.40
  -5  -2   2    4.80    1.80
   5  -2  -2    4.10    1.40
  -5  -2   2    1.00    2.70
   5  -2  -2    5.20    2.50
   5  -2  -2    2.60    1.70
  -5  -2   2    5.00    1.60
   5  -2  -2    5.40    1.20
  -5  -2   2    4.80    3.00
  -5   2   2    4.80    2.80
   5   2  -2    4.20    1.50
  -5   2   2    4.00    2.50
  -5   2   2    3.90    1.80
   5   2  -2    3.40    3.40
  -5   2   2    3.40    1.40
   5   2  -2    2.00    2.20
  -5   2   2    5.40    1.90
   5   2  -2    3.30    1.50
   5   2  -2    3.10    3.20
  -5   2   2   -3.10    1.90
   5   2  -2    1.90    1.80
   5   2  -2    4.00    2.00
  -5   2   2    4.90    1.70
   5   2  -2    4.00    2.50
  -5   2   2    3.80    1.90
  -4  -2   2   -0.10    2.40
  -4  -2   2    1.50    1.20
   4  -2  -2   -0.30    2.10
   4  -2  -2    0.90    1.40
  -4  -2   2    3.60    2.70
  -4  -2   2   -1.50    1.70
  -4  -2   2    0.70    1.80
   4  -2  -2    1.90    1.30
   4  -2  -2    0.40    0.90
  -4  -2   2    0.70    1.40
   4  -2  -2   -1.90    1.50
   4  -2  -2    0.50    1.30
  -4  -2   2    0.90    1.50
   4  -2  -2    4.70    1.60
  -4  -2   2   -0.40    2.00
  -4   2   2   -0.90    2.00
   4   2  -2   -1.40    1.10
   4   2  -2    0.90    1.70
  -4   2   2    1.40    1.50
  -4   2   2    0.80    1.20
   4   2  -2    2.40    3.10
  -4   2   2    1.90    2.00
   4   2  -2   -0.50    1.90
   4   2  -2    1.90    1.90
  -4   2   2    0.60    1.30
   4   2  -2   -4.40    2.70
  -4   2   2    0.50    1.50
  -4   2   2    1.90    1.30
   4   2  -2    2.00    1.20
   4   2  -2    1.60    1.60
  -4   2   2    1.10    1.50
   3  -2  -2   51.29    4.50
   3  -2  -2   48.40    3.60
  -3  -2   2   50.19    5.20
   3  -2  -2   52.39    5.00
  -3  -2   2   50.99    4.20
  -3  -2   2   45.70    4.80
  -3  -2   2   53.99    4.50
   3  -2  -2   52.09    3.90
  -3  -2   2   56.39    5.20
  -3  -2   2   47.40    4.90
   3  -2  -2   51.49    4.30
  -3  -2   2   49.70    4.20
  -3  -2   2   43.50    4.20
   3  -2  -2   47.80    4.50
   3  -2  -2   49.80    4.30
  -3   2   2   50.69    4.40
   3   2  -2   50.29    4.30
  -3   2   2   52.19    4.10
   3   2  -2   51.99    4.80
   3   2  -2   48.80    4.30
  -3   2   2   49.70    4.80
   3   2  -2   58.69    5.30
  -3   2   2   43.30    3.70
  -3   2   2   50.69    3.70
  -3   2   2   45.00    5.10
   3   2  -2   53.19    4.80
  -3   2   2   49.20    4.50
   3   2  -2   46.00    5.60
  -3   2   2   49.10    4.80
   3   2  -2   52.39    4.20
  -2  -2   2  224.28   14.30
   2  -2  -2  242.68   14.30
   2  -2  -2  242.08   14.40
  -2  -2   2  202.28   14.00
   2  -2  -2  254.97   14.30
   2  -2  -2  234.58   13.60
  -2  -2   2  202.28   14.50
  -2  -2   2  203.98   13.90
  -2  -2   2  204.88   14.60
   2  -2  -2  227.08   14.50
  -2  -2   2  219.68   14.70
   2  -2  -2  239.88   14.80
   2  -2  -2  249.78   13.70
   2   2  -2  202.18   14.10
   2   2  -2  205.18   14.00
   2   2  -2  220.28   14.30
   2   2  -2  200.98   14.40
  -2   2   2  240.98   14.30
   2   2  -2  195.68   14.10
   2   2  -2  210.08   14.50
  -2   2   2  233.28   14.70
  -2   2   2  235.38   13.50
  -2   2   2  239.78   14.80
  -2   2   2  223.98   14.20
  -2   2   2  220.58   13.90
   1  -2  -2   81.09    5.80
  -1  -2   2   72.89    6.30
   1  -2  -2   77.69    5.20
  -1  -2   2   74.19    5.70
   1  -2  -2   83.59    5.40
   1  -2  -2   75.69    5.90
   1  -2  -2   78.09    5.90
   1  -2  -2   85.29    6.30
  -1  -2   2   75.59    5.50
  -1  -2   2   70.89    6.00
  -1  -2   2   73.89    6.20
   1  -2  -2   71.69    5.90
  -1  -2   2   73.79    6.30
   1  -2  -2   73.39    5.80
  -1  -2   2   62.69    6.00
  -1   2   2   73.99    6.10
   1   2  -2   81.29    6.20
   1   2  -2   76.29    5.80
  -1   2   2   81.19    5.90
  -1   2   2   76.39    5.00
   1   2  -2   74.19    5.60
   1   2  -2   78.19    5.90
   1   2  -2   77.69    5.80
  -1   2   2   76.99    6.30
  -1   2   2   73.29    5.80
  -1   2   2   74.49    5.30
   0  -2   2   44.40    4.10
   0  -2  -2   44.20    3.70
   0  -2  -2   47.30    4.20
   0  -2  -2   50.59    4.40
   0  -2   2   44.90    4.00
   0  -2   2   46.20    4.20
   0  -2  -2   41.40    4.30
   0  -2  -2   39.60    3.90
   0  -2   2   41.00    5.00
   0  -2  -2   42.30    3.60
   0  -2  -2   39.20    4.10
   0  -2   2   42.00    4.80
   0   2  -2   42.20    4.10
   0   2  -2   38.90    4.00
   0   2  -2   44.30    4.70
   0   2   2   49.30    3.60
   0   2   2   39.50    4.10
   0   2   2   40.80    3.70
   0   2  -2   40.00    4.00
   0   2   2   39.60    4.30
   0   2   2   41.50    4.40
   0   2  -2   40.90    4.20
   0   2  -2   40.90    3.70
   0   2   2   40.70    3.80
   0   2   2   39.30    4.10
  -1  -2  -2    1.20    1.60
  -1  -2  -2    1.30    2.00
   1  -2   2    2.00    1.50
  -1  -2  -2    2.80    1.70
  -1  -2  -2   -0.20    1.40
   1  -2   2    0.70    2.10
   1  -2   2    0.50    1.30
  -1  -2  -2    4.20    1.60
   1  -2   2    2.30    2.00
  -1  -2  -2    1.10    1.30
   1  -2   2    3.00    1.60
  -1  -2  -2    1.00    1.90
   1  -2   2   -2.30    2.40
  -1   2  -2    4.00    1.30
   1   2   2    1.10    1.40
   1   2   2    3.40    1.70
   1   2   2    2.60    1.90
  -1   2  -2    2.60    1.10
  -1   2  -2    1.30    1.50
   1   2   2    4.10    2.70
  -1   2  -2    3.10    1.80
  -1   2  -2    3.40    2.10
  -1   2  -2    5.80    2.50
   1   2   2    2.30    1.60
  -1   2  -2    1.20    1.40
  -1   2  -2    2.00    2.20
   1   2   2    2.00    1.40
  -1   2  -2    3.30    1.70
   1   2   2    1.40    1.60
   2  -2   2 2092.39  109.99
   2  -2   2 2045.00  109.29
   2  -2   2 2073.19  109.39
  -2  -2  -2 1692.13  109.39
  -2  -2  -2 1703.43  109.09
  -2  -2  -2 1820.42  109.29
   2  -2   2 1888.41  109.19
   2  -2   2 2015.40  109.49
  -2  -2  -2 1602.34  109.09
  -2  -2  -2 1751.72  109.09
  -2   2  -2 1978.40  109.69
  -2   2  -2 1809.92  109.99
  -2   2  -2 2120.79  109.89
  -2   2  -2 1914.41  109.09
   2   2   2 1702.73  109.09
  -2   2  -2 2029.90  108.49
  -2   2  -2 2119.99  109.19
   2   2   2 1659.63  109.09
   2   2   2 1675.23  109.59
   2   2   2 1647.14  108.99
  -2   2  -2 2013.10  109.39
   2   2   2 1686.93  109.49
   2   2   2 1686.23  109.09
  -2   2  -2 1939.71  109.29
   2   2   2 1709.23  109.19
   3  -2   2    8.00    3.10
  -3  -2  -2   10.90    2.20
  -3  -2  -2    6.20    2.10
   3  -2   2   13.10    2.70
  -3  -2  -2   10.80    2.60
   3  -2   2   11.60    2.10
   3  -2   2   10.50    2.00
   3  -2   2    9.30    2.20
  -3  -2  -2   11.10    2.40
  -3  -2  -2    7.70    1.70
  -3  -2  -2    8.80    2.30
  -3  -2  -2   11.30    2.70
   3  -2   2    6.10    2.10
  -3   2  -2   11.70    2.10
   3   2   2   10.30    2.70
  -3   2  -2    7.80    2.20
   3   2   2   13.60    2.20
   3   2   2    8.40    1.90
   3   2   2    8.30    2.00
   3   2   2   10.00    2.10
   3   2   2   10.60    2.60
  -3   2  -2    9.10    2.60
   3   2   2   10.10    2.40
  -3   2  -2   10.10    2.00
  -3   2  -2    8.80    2.10
  -3   2  -2   12.30    2.70
  -3   2  -2   10.20    2.20
  -4  -2  -2   45.60    4.10
  -4  -2  -2   41.00    5.20
  -4  -2  -2   55.49    5.60
   4  -2   2   61.09    4.90
   4  -2   2   51.79    6.40
   4  -2   2   43.70    5.30
  -4  -2  -2   47.90    4.50
  -4  -2  -2   50.29    5.60
   4  -2   2   50.29    5.00
   4  -2   2   56.69    4.80
   4  -2   2   54.99    7.70
   4   2   2   44.60    5.70
  -4   2  -2   51.49    5.10
   4   2   2   51.99    5.30
   4   2   2   46.80    4.40
  -4   2  -2   50.09    4.90
  -4   2  -2   44.10    4.70
  -4   2  -2   49.70    4.70
   4   2   2   46.20    4.30
  -4   2  -2   46.90    5.10
   4   2   2   52.09    4.70
   4   2   2   45.70    5.00
   4   2   2   46.70    4.60
  -4   2  -2   57.79    4.80
   5  -2   2  148.89   10.40
   5  -2   2  160.78   10.90
  -5  -2  -2  150.48   10.10
  -5  -2  -2  151.58   11.00
  -5  -2  -2  157.08    9.90
   5  -2   2  150.28   10.70
  -5  -2  -2  134.79   11.70
  -5  -2  -2  148.19   10.70
  -5  -2  -2  153.18   10.60
   5  -2   2  147.39   10.30
  -5  -2  -2  154.78   10.40
   5  -2   2  144.99   11.00
   5  -2   2  158.08   11.10
  -5   2  -2  163.28   10.50
   5   2   2  157.28   10.00
  -5   2  -2  154.58   11.00
   5   2   2  150.28   11.60
   5   2   2  160.38   11.00
   5   2   2  162.38   10.40
   5   2   2  140.49   10.30
  -5   2  -2  149.19   10.50
   5   2   2  158.38   10.70
  -5   2  -2  152.18   10.90
   5   2   2  142.69   10.50
  -5   2  -2  149.69   10.60
  -5   2  -2  149.88   10.60
   5   2   2  157.18   10.90
   6  -2   2  207.48   14.30
  -6  -2  -2  202.18   14.40
   6  -2   2  214.28   14.80
  -6  -2  -2  229.68   14.10
  -6  -2  -2  225.88   14.70
  -6  -2  -2  211.68   15.10
  -6  -2  -2  225.58   15.20
   6  -2   2  210.38   14.80
  -6  -2  -2  231.18   14.70
   6  -2   2  235.18   15.10
   6  -2   2  207.28   15.00
   6  -2   2  223.68   14.30
  -6   2  -2  217.58   14.70
  -6   2  -2  227.18   15.10
  -6   2  -2  219.18   15.10
   6   2   2  215.48   13.70
   6   2   2  215.98   15.90
   6   2   2  230.88   14.90
  -6   2  -2  228.28   14.50
  -6   2  -2  221.68   15.00
   6   2   2  205.28   14.90
  -6   2  -2  212.78   14.40
   6   2   2  216.68   14.60
   6   2   2  219.68   15.10
  -6   2  -2  219.28   14.70
   6   2   2  228.48   14.30
   6   2   2  224.98   14.40
   7  -2   2   50.49    6.20
   7  -2   2   46.00    6.30
   7  -2   2   59.89    6.50
   7  -2   2   57.19    6.30
  -7  -2  -2   45.30    5.00
   7  -2   2   53.59    6.60
  -7  -2  -2   52.29    6.50
  -7  -2  -2   53.39    5.70
  -7   2  -2   48.10    6.00
   7   2   2   65.79    4.90
   7   2   2   47.20    4.30
  -7   2  -2   58.59    6.40
  -7   2  -2   62.79    5.90
   7   2   2   56.59    6.20
  -7   2  -2   59.49    6.70
   7   2   2   57.09    6.40
  -7   2  -2   36.50    5.40
   7   2   2   52.09    5.40
  -7   2  -2   53.79    5.90
   7   2   2   56.39    6.00
   7   2   2   46.60    5.60
  -8  -2  -2   52.09    6.00
   8  -2   2   56.69    7.00
   8  -2   2   60.19    7.50
   8  -2   2   51.89    6.60
  -8  -2  -2   50.19    6.60
  -8  -2  -2   40.40    5.60
   8  -2   2   54.29    6.40
   8  -2   2   51.49    6.60
  -8   2  -2   56.59    6.50
  -8   2  -2   65.99    7.10
   8   2   2   66.19    4.30
   8   2   2   52.99    4.20
  -8   2  -2   57.89    6.40
  -8   2  -2   55.59    7.00
  -8   2  -2   47.10    6.30
   8   2   2   53.29    6.00
   8   2   2   54.79    6.70
   8   2   2   54.09    5.70
   8   2   2   55.89    7.00
   8   2   2   51.89    6.10
  -9  -2  -2   21.10    4.20
  -9  -2  -2   13.90    3.40
  -9  -2  -2   16.00    2.90
   9  -2   2   12.00    3.70
   9  -2   2   11.70    3.80
  -9  -2  -2   13.80    4.40
   9  -2   2   18.80    3.70
   9  -2   2   10.20    5.20
   9  -2   2   23.30    4.90
  -9   2  -2   18.50    3.90
  -9   2  -2    9.40    4.60
   9   2   2   15.40    3.60
  -9   2  -2   14.10    4.30
  -9   2  -2   17.70    5.40
   9   2   2   13.20    4.50
   9   2   2   18.30    3.40
   9   2   2   13.80    5.10
   9   2   2   15.30    4.00
 -10  -2  -2  759.02   49.30
 -10  -2  -2  760.02   48.10
  10  -2   2  807.02   49.50
  10  -2   2  829.22   48.70
  10   2   2  815.92   49.50
 -10   2  -2  792.42   48.50
 -10   2  -2  805.12   49.20
  10   2   2  818.22   49.30
  10   2   2  750.32   47.80
 -10   2  -2  766.22   49.70
  11  -2   2   72.49   10.10
 -11  -2  -2   73.09    9.30
  11  -2   2   69.79    9.20
 -11  -2  -2   68.39    8.10
 -11   2  -2   57.09   10.60
 -11   2  -2   84.99    8.70
  11   2   2   92.59   11.20
  11   2   2   66.19    9.20
  11   2   2   83.79    7.90
 -10  -3   2   -1.40    4.10
 -10  -3   2    0.20    3.40
  10  -3  -2    3.30    4.10
  10  -3  -2   10.70    5.70
 -10   3   2   11.80    6.60
 -10   3   2    1.00    3.70
  10   3  -2    8.00    5.30
  10   3  -2    4.40    2.90
 -10   3   2   10.80    5.80
  10   3  -2    7.90    6.50
   9  -3  -2  453.45   27.20
  -9  -3   2  432.06   27.90
  -9  -3   2  419.06   27.60
   9  -3  -2  413.16   27.80
   9  -3  -2  408.36   27.30
  -9  -3   2  432.76   27.40
  -9   3   2  419.16   28.70
   9   3  -2  405.86   28.70
  -9   3   2  445.06   30.00
   9   3  -2  429.66   26.70
   9   3  -2  436.06   27.30
  -9   3   2  439.66   27.60
   9   3  -2  439.06   28.80
  -8  -3   2    3.50    3.50
   8  -3  -2    3.90    3.60
  -8  -3   2    1.10    2.30
  -8  -3   2   -0.20    3.80
   8  -3  -2    0.80    3.00
   8  -3  -2    0.20    3.30
  -8  -3   2    5.70    3.30
  -8  -3   2    0.70    4.80
  -8   3   2    0.60    3.20
  -8   3   2    3.30    2.90
  -8   3   2    0.00    4.90
   8   3  -2    1.00    3.90
   8   3  -2    6.60    2.50
   8   3  -2   10.00    5.10
  -8   3   2   -2.40    4.00
   8   3  -2   10.60    3.30
  -8   3   2    3.10    3.40
   8   3  -2    2.00    5.40
   8   3  -2   -7.90    4.00
  -8   3   2    6.20    5.10
   7  -3  -2   50.49    5.90
  -7  -3   2   50.09    6.10
  -7  -3   2   46.20    5.40
   7  -3  -2   55.89    6.20
  -7  -3   2   58.99    7.40
  -7  -3   2   55.29    7.30
  -7  -3   2   52.99    6.30
   7  -3  -2   66.29    6.90
   7  -3  -2   46.20    5.60
  -7  -3   2   58.59    6.80
   7   3  -2   54.39    5.10
   7   3  -2   58.49    6.40
   7   3  -2   62.69    7.60
  -7   3   2   59.39    7.90
  -7   3   2   53.39    6.50
   7   3  -2   52.99    5.60
  -7   3   2   58.69    7.00
  -7   3   2   55.79    6.20
  -7   3   2   55.89    6.40
   6  -3  -2   79.89    7.50
   6  -3  -2  107.49    9.50
  -6  -3   2   85.99    7.60
  -6  -3   2   95.19    8.60
  -6  -3   2   86.19    9.80
   6  -3  -2  103.29    8.50
   6  -3  -2   91.79    6.00
  -6  -3   2   87.39    8.00
   6  -3  -2   90.09    6.00
  -6  -3   2  102.39    8.80
  -6   3   2   98.29    7.50
   6   3  -2   93.79    7.30
   6   3  -2   97.59    9.10
   6   3  -2   94.49    7.60
   6   3  -2   97.19    8.10
  -6   3   2   94.99    7.60
  -6   3   2   88.29    8.30
  -6   3   2   82.59    8.10
  -6   3   2   87.59    9.30
  -5  -3   2    5.70    2.30
   5  -3  -2    4.40    4.20
   5  -3  -2    2.80    2.00
   5  -3  -2    4.80    2.60
  -5  -3   2    4.10    2.80
  -5  -3   2    7.60    3.30
   5  -3  -2    4.40    2.50
   5  -3  -2    6.10    2.50
  -5  -3   2    7.30    3.70
  -5  -3   2    6.50    3.20
  -5  -3   2    7.30    2.50
   5  -3  -2    6.20    1.40
   5   3  -2    5.90    2.90
  -5   3   2    4.60    2.50
   5   3  -2    2.30    3.00
  -5   3   2    5.90    2.90
  -5   3   2    4.60    3.30
  -5   3   2    5.10    2.10
   5   3  -2    6.40    2.40
   5   3  -2   -0.80    3.10
  -5   3   2    9.80    2.40
  -5   3   2    3.00    1.80
   5   3  -2    5.50    2.10
  -5   3   2    7.70    3.20
   4  -3  -2   59.39    6.00
  -4  -3   2   64.89    6.50
  -4  -3   2   64.79    5.50
   4  -3  -2   63.69    5.70
  -4  -3   2   58.29    6.00
   4  -3  -2   59.29    4.40
   4  -3  -2   59.89    5.60
  -4  -3   2   77.09    7.30
   4  -3  -2   60.79    7.10
  -4  -3   2   67.29    6.70
   4  -3  -2   54.19    5.20
   4  -3  -2   60.29    6.50
  -4  -3   2   65.19    6.00
  -4  -3   2   52.09    6.60
   4  -3  -2   54.49    5.90
  -4  -3   2   51.69    5.70
   4   3  -2   55.79    6.10
  -4   3   2   61.49    6.00
   4   3  -2   60.29    5.40
  -4   3   2   55.89    6.30
   4   3  -2   57.09    5.90
  -4   3   2   64.39    6.10
   4   3  -2   61.49    6.90
  -4   3   2   60.19    5.50
  -4   3   2   63.39    5.00
   4   3  -2   57.49    5.50
  -4   3   2   61.39    6.80
   4   3  -2   61.09    7.80
  -3  -3   2  432.76   29.30
  -3  -3   2  445.36   29.50
  -3  -3   2  443.86   30.00
   3  -3  -2  515.15   28.60
   3  -3  -2  505.15   29.90
   3  -3  -2  538.35   29.70
  -3  -3   2  439.36   30.00
   3  -3  -2  532.25   29.60
   3  -3  -2  512.35   29.00
   3  -3  -2  532.15   29.90
   3  -3  -2  484.25   29.90
  -3  -3   2  462.25   29.20
   3  -3  -2  515.55   30.50
  -3  -3   2  415.56   29.90
  -3  -3   2  415.66   29.30
  -3   3   2  539.95   30.60
  -3   3   2  516.75   29.80
  -3   3   2  553.34   30.70
   3   3  -2  417.26   29.40
   3   3  -2  426.16   29.40
  -3   3   2  478.25   28.50
   3   3  -2  397.96   30.20
   3   3  -2  440.96   29.90
  -3   3   2  538.05   28.80
   3   3  -2  424.36   29.90
  -3   3   2  549.45   29.90
   3   3  -2  419.26   29.30
   2  -3  -2    2.10    2.80
  -2  -3   2    6.20    2.30
   2  -3  -2    1.30    2.30
   2  -3  -2    4.80    2.10
  -2  -3   2    4.30    2.00
   2  -3  -2   -0.10    1.80
  -2  -3   2    6.80    2.40
   2  -3  -2    4.80    2.50
   2  -3  -2    5.00    2.20
  -2  -3   2    1.20    2.50
  -2  -3   2    3.80    2.50
  -2  -3   2    4.50    2.20
  -2  -3   2    3.20    2.50
   2  -3  -2    3.60    2.00
  -2  -3   2    6.80    2.70
  -2   3   2    2.50    1.90
   2   3  -2    1.80    2.00
  -2   3   2    2.10    2.50
  -2   3   2    9.10    3.30
   2   3  -2    5.00    3.20
   2   3  -2   -3.00    2.40
  -2   3   2    2.60    2.50
   2   3  -2    2.20    2.00
  -2   3   2    6.70    1.60
   2   3  -2   -2.40    2.70
   2   3  -2    1.00    2.10
   2   3  -2    4.30    2.20
  -2   3   2    3.30    1.50
  -2   3   2    1.60    1.50
  -1  -3   2   66.99    5.90
   1  -3  -2   73.19    5.60
  -1  -3   2   71.29    7.00
  -1  -3   2   68.99    7.10
   1  -3  -2   67.99    6.50
   1  -3  -2   71.99    6.30
  -1  -3   2   69.39    6.00
  -1  -3   2   70.09    6.40
   1  -3  -2   69.09    6.40
   1  -3  -2   76.39    5.90
   1  -3  -2   73.29    6.60
   1  -3  -2   72.29   10.20
  -1  -3   2   74.09    6.20
  -1  -3   2   72.39    6.30
  -1  -3   2   68.29    6.80
   1  -3  -2   75.09    6.40
  -1   3   2   67.39    5.40
  -1   3   2   59.29    7.00
   1   3  -2   70.49    6.80
   1   3  -2   81.49    6.60
  -1   3   2   75.39    6.30
   1   3  -2   67.49    6.20
  -1   3   2   67.99    6.40
   1   3  -2   70.59    6.20
  -1   3   2   73.39    6.70
  -1   3   2   61.29    6.00
   1   3  -2   70.89    6.70
   1   3  -2   87.79    7.40
   1   3  -2   68.89    5.80
  -1   3   2   73.89    5.50
   0  -3  -2   -0.10    1.90
   0  -3  -2    1.50    2.30
   0  -3   2    2.00    2.20
   0  -3  -2    2.20    2.50
   0  -3  -2   -5.30    2.00
   0  -3  -2   -0.50    1.70
   0  -3  -2   -0.30    1.80
   0  -3  -2    1.30    2.10
   0  -3   2    8.30    3.60
   0  -3   2   -1.40    1.80
   0  -3   2    3.30    2.60
   0  -3   2    3.70    2.50
   0  -3   2    2.70    2.70
   0  -3   2    2.70    2.10
   0  -3   2   -0.50    1.70
   0  -3  -2   -1.10    2.40
   0   3   2    2.40    2.30
   0   3  -2    1.60    2.50
   0   3  -2    8.30    3.20
   0   3   2   -2.10    1.90
   0   3   2   -1.20    2.10
   0   3  -2   -2.10    1.90
   0   3   2   -2.60    1.60
   0   3   2    0.90    1.70
   0   3  -2    1.00    2.70
   0   3  -2    0.70    2.20
   0   3  -2    4.20    2.30
   0   3  -2   -1.40    1.50
   0   3  -2   -1.70    2.40
   0   3   2    0.30    2.60
   0   3   2   -0.50    2.10
   1  -3   2  100.99    9.10
   1  -3   2   86.79    7.70
   1  -3   2   91.19    8.20
  -1  -3  -2   99.39    7.90
  -1  -3  -2   94.69    8.10
  -1  -3  -2   95.69    8.60
  -1  -3  -2  105.59    8.10
  -1  -3  -2  100.79    7.60
  -1  -3  -2  108.89    7.60
  -1  -3  -2   98.89    8.00
   1  -3   2   93.59    7.60
   1  -3   2   96.09    7.90
   1  -3   2   98.69    7.90
  -1  -3  -2  107.69    8.20
  -1   3  -2  105.49    8.20
   1   3   2  102.69    7.40
   1   3   2  103.59    8.10
  -1   3  -2  101.09    7.50
  -1   3  -2   98.59    7.00
  -1   3  -2  101.59    8.50
   1   3   2  101.19    9.00
   1   3   2  100.39    8.20
  -1   3  -2   99.59    8.00
   1   3   2  100.79    7.90
  -1   3  -2  111.59    9.50
  -1   3  -2  105.79    7.80
   1   3   2   91.39    7.50
   1   3   2  103.59    7.80
  -1   3  -2   94.29    7.90
  -2  -3  -2    4.20    2.20
   2  -3   2    1.50    2.40
   2  -3   2    3.70    2.10
  -2  -3  -2    2.70    2.10
  -2  -3  -2   -3.80    2.50
   2  -3   2    2.70    2.30
   2  -3   2    4.30    2.00
  -2  -3  -2    1.30    2.10
   2  -3   2   -0.40    3.20
  -2  -3  -2    5.20    2.60
   2  -3   2    0.10    2.20
  -2  -3  -2    0.80    2.50
   2  -3   2    0.30    3.60
  -2  -3  -2   -2.70    2.90
  -2  -3  -2    2.80    2.40
   2   3   2    1.60    2.80
  -2   3  -2    1.60    1.50
   2   3   2    3.80    3.10
  -2   3  -2    2.90    2.10
   2   3   2    0.50    2.10
   2   3   2    1.20    2.10
   2   3   2    3.60    2.00
  -2   3  -2    4.70    2.60
  -2   3  -2    3.70    1.60
   2   3   2    0.00    2.00
  -2   3  -2    5.90    2.20
   2   3   2    2.20    2.30
  -2   3  -2    3.20    2.50
  -2   3  -2    1.80    2.10
  -2   3  -2    2.90    2.00
  -2   3  -2    2.40    2.40
  -3  -3  -2   56.59    6.50
   3  -3   2   76.89    6.80
   3  -3   2   67.69    6.40
   3  -3   2   85.19    6.80
  -3  -3  -2   49.99    6.50
  -3  -3  -2   61.99    6.40
  -3  -3  -2   57.69    6.90
  -3  -3  -2   65.29    6.30
   3  -3   2   73.59    7.30
  -3  -3  -2   61.29    6.30
   3  -3   2   72.69    6.10
   3   3   2   67.49    6.10
  -3   3  -2   72.89    6.60
  -3   3  -2   74.99    6.20
  -3   3  -2   75.79    4.50
   3   3   2   60.19    6.30
  -3   3  -2   82.39    7.10
   3   3   2   69.39    7.40
   3   3   2   65.89    7.30
  -3   3  -2   85.39    7.40
   3   3   2   59.29    6.20
   3   3   2   60.29    5.80
  -3   3  -2   74.99    6.50
   3   3   2   57.29    6.00
  -3   3  -2   71.59    6.10
  -4  -3  -2   16.90    4.50
  -4  -3  -2   17.00    3.30
  -4  -3  -2   17.90    3.80
   4  -3   2   13.20    3.30
  -4  -3  -2   14.50    2.70
   4  -3   2   19.80    3.20
  -4  -3  -2   15.10    3.40
   4  -3   2   16.30    3.60
  -4  -3  -2   11.20    3.10
   4  -3   2   13.00    3.20
  -4  -3  -2   14.50    3.30
  -4  -3  -2    9.70    3.40
   4  -3   2   15.80    2.80
  -4   3  -2   19.40    3.60
  -4   3  -2    7.90    3.60
   4   3   2   11.50    2.60
   4   3   2   13.80    3.90
   4   3   2    9.40    2.80
   4   3   2   13.80    3.40
  -4   3  -2   13.50    2.80
  -4   3  -2   12.50    3.50
  -4   3  -2   13.70    3.30
   4   3   2   14.50    2.80
  -4   3  -2   13.90    3.10
   4   3   2   14.50    4.00
  -4   3  -2   13.10    3.20
  -5  -3  -2   54.39    4.90
   5  -3   2   34.00    5.00
   5  -3   2   39.80    6.40
  -5  -3  -2   41.00    5.20
   5  -3   2   35.40    4.60
  -5  -3  -2   45.30    5.70
  -5  -3  -2   44.00    5.50
   5  -3   2   47.10    5.90
   5  -3   2   39.40    5.00
  -5  -3  -2   32.50    5.10
  -5  -3  -2   38.30    5.10
   5  -3   2   31.00    4.50
   5   3   2   42.10    5.20
   5   3   2   45.90    4.90
   5   3   2   39.10    6.40
  -5   3  -2   40.20    5.20
  -5   3  -2   44.00    5.90
   5   3   2   31.20    6.00
  -5   3  -2   30.20    4.60
  -5   3  -2   46.30    5.60
  -5   3  -2   34.80    4.60
   5   3   2   43.40    4.90
   5   3   2   39.30    4.80
   5   3   2   38.10    5.30
  -5   3  -2   49.30    6.10
   5   3   2   40.70    5.00
  -6  -3  -2    9.90    3.00
  -6  -3  -2    6.30    3.40
   6  -3   2    0.30    2.70
  -6  -3  -2    1.30    2.10
   6  -3   2    1.40    3.30
  -6  -3  -2    3.80    3.40
   6  -3   2    1.60    3.40
   6  -3   2   -3.40    4.60
   6  -3   2    1.10    3.30
   6   3   2    2.80    2.30
  -6   3  -2   -3.00    2.40
   6   3   2    2.40    2.90
   6   3   2    3.70    2.50
   6   3   2    5.30    2.40
  -6   3  -2   -1.40    3.50
  -6   3  -2   -2.70    2.70
   6   3   2    0.00    3.40
   6   3   2    7.10    3.00
  -6   3  -2    3.70    3.10
  -6   3  -2    2.30    3.20
   7  -3   2  112.89    8.80
  -7  -3  -2   89.89    9.20
   7  -3   2   99.29   10.10
   7  -3   2   96.29    9.40
  -7  -3  -2  104.89    9.20
  -7  -3  -2  107.29    9.30
   7  -3   2  101.79    9.60
  -7  -3  -2   96.29    8.10
  -7  -3  -2  100.39    8.10
   7   3   2   95.19    9.60
   7   3   2  104.79    8.00
  -7   3  -2   99.69    9.30
   7   3   2  104.29    8.60
  -7   3  -2   94.89    9.10
  -7   3  -2   98.89    9.90
  -7   3  -2  106.19   10.10
   7   3   2  110.89    8.70
   7   3   2  106.39    9.60
   7   3   2  107.89    9.30
  -7   3  -2  103.49    8.90
   8  -3   2   33.80    6.20
  -8  -3  -2   35.60    5.70
  -8  -3  -2   40.80    6.00
  -8  -3  -2   39.20    5.70
   8  -3   2   42.90    6.30
  -8   3  -2   34.30    5.40
  -8   3  -2   48.50    6.80
  -8   3  -2   31.80    6.20
   8   3   2   42.30    6.20
   8   3   2   42.50    5.10
  -8   3  -2   39.50    6.80
   8   3   2   34.50    5.70
   8   3   2   41.40    5.80
   8   3   2   37.10    6.30
   8   3   2   50.09    5.20
  -9  -3  -2    6.50    3.90
   9  -3   2   15.60    5.20
   9  -3   2   20.40    5.90
  -9  -3  -2   10.30    4.60
   9   3   2   12.80    5.80
  -9   3  -2    5.00    4.30
  -9   3  -2   14.00    5.90
   9   3   2   17.30    5.60
   9   3   2   10.80    3.80
  -9   3  -2    9.20    4.60
 -10  -3  -2   21.70    7.00
  10  -3   2   17.00    5.60
 -10  -3  -2   22.30    4.90
  10  -3   2   13.30    6.70
 -10   3  -2   27.50    5.70
  10   3   2   18.90    4.30
 -10   3  -2   18.50    6.30
  10   3   2   17.10    6.60
 -10   3  -2   21.50    7.00
  10   3   2   20.60    5.90
  -9  -4   2   33.70    6.00
   9  -4  -2   31.70    5.80
   9  -4  -2   26.70    6.10
   9   4  -2   20.30    6.90
   9   4  -2   20.20    4.60
  -9   4   2   22.10    5.90
  -9   4   2   26.90    7.70
  -9   4   2   21.00    7.80
   9   4  -2   12.20    6.20
   9   4  -2   20.10    6.70
  -8  -4   2   12.90    4.70
  -8  -4   2   19.00    7.30
   8  -4  -2   18.40    5.00
  -8  -4   2   28.50    5.60
   8  -4  -2   12.30    4.90
  -8   4   2    9.70    4.60
   8   4  -2   20.70    6.50
  -8   4   2   18.60    6.80
  -8   4   2   14.70    5.50
   8   4  -2   -3.20    5.90
   8   4  -2   18.10    4.30
  -7  -4   2    6.20    4.30
  -7  -4   2    9.20    3.80
  -7  -4   2   10.00    5.90
   7  -4  -2   11.00    4.30
   7  -4  -2    6.40    4.20
   7   4  -2    3.90    5.00
  -7   4   2    4.00    4.10
   7   4  -2    2.10    3.10
   7   4  -2    3.90    4.40
  -7   4   2    6.10    5.00
  -7   4   2   10.70    4.50
   6  -4  -2  815.72   49.99
  -6  -4   2  783.02   49.10
   6  -4  -2  862.21   49.10
  -6  -4   2  730.03   49.40
  -6  -4   2  815.62   50.99
   6  -4  -2  773.92   50.19
   6  -4  -2  820.82   49.70
   6  -4  -2  868.71   49.80
  -6  -4   2  765.62   50.19
  -6  -4   2  784.02   49.30
  -6   4   2  835.62   50.09
  -6   4   2  843.22   51.29
   6   4  -2  759.12   49.99
   6   4  -2  790.72   49.30
  -6   4   2  904.21   48.80
   6   4  -2  806.72   49.20
  -6   4   2  811.52   50.69
  -6   4   2  801.12   49.99
   6   4  -2  761.12   49.60
  -6   4   2  833.52   49.30
  -5  -4   2   39.60    5.00
   5  -4  -2   38.20    3.70
   5  -4  -2   43.10    6.50
   5  -4  -2   38.20    5.20
   5  -4  -2   42.40    5.10
   5  -4  -2   44.50    6.10
  -5  -4   2   37.00    6.40
  -5  -4   2   49.10    7.70
  -5  -4   2   48.20    5.70
  -5   4   2   43.00    5.40
  -5   4   2   36.40    4.00
   5   4  -2   41.90    6.70
  -5   4   2   48.40    7.50
   5   4  -2   41.90    7.10
  -5   4   2   62.89    9.20
   5   4  -2   42.00    6.20
   5   4  -2   45.60    5.50
  -5   4   2   23.80    5.70
   5   4  -2   47.10    5.50
  -5   4   2   44.70    5.20
   4  -4  -2   73.69    7.00
   4  -4  -2   64.39    7.30
  -4  -4   2   48.60    7.10
  -4  -4   2   45.20    6.50
   4  -4  -2   59.79    6.20
  -4  -4   2   54.09    7.70
   4  -4  -2   42.20    6.00
   4  -4  -2   56.09    4.80
  -4  -4   2   43.10    5.80
   4  -4  -2   55.19    7.10
  -4   4   2   64.49    8.20
  -4   4   2   67.59    8.70
   4   4  -2   45.50    6.20
  -4   4   2   64.59    5.60
   4   4  -2   45.60    5.80
  -4   4   2   67.09    8.30
  -4   4   2   62.29    4.90
  -4   4   2   58.59    7.10
   4   4  -2   56.99    6.80
   4   4  -2   57.39    6.60
   4   4  -2   51.49    8.00
  -3  -4   2   -0.10    2.60
   3  -4  -2    4.60    2.10
  -3  -4   2   -0.20    3.60
   3  -4  -2    3.70    2.60
   3  -4  -2   -2.20    3.30
   3  -4  -2    2.40    3.30
  -3  -4   2    1.70    3.20
   3  -4  -2    2.70    2.70
  -3  -4   2    0.80    3.40
   3  -4  -2    0.40    3.20
  -3  -4   2    1.10    3.40
  -3  -4   2    3.50    3.00
  -3  -4   2    3.50    4.50
  -3  -4   2    0.30    5.20
   3  -4  -2   -0.90    3.20
  -3   4   2   -0.10    2.40
  -3   4   2    4.60    2.50
   3   4  -2    1.20    3.10
  -3   4   2   -1.90    1.80
  -3   4   2    4.10    3.10
   3   4  -2    9.60    3.90
   3   4  -2    0.80    2.70
   3   4  -2    1.10    2.90
  -3   4   2    1.50    3.50
  -3   4   2    1.60    4.50
   3   4  -2    5.20    3.40
  -3   4   2   -1.10    3.90
  -2  -4   2   -2.30    4.00
  -2  -4   2   -4.70    3.30
   2  -4  -2   -0.40    2.30
  -2  -4   2    4.60    3.20
   2  -4  -2    0.80    2.20
   2  -4  -2    3.00    3.40
   2  -4  -2    0.30    3.50
   2  -4  -2   -0.90    2.90
   2  -4  -2    4.40    3.00
  -2  -4   2    0.50    3.50
  -2  -4   2    0.50    2.80
   2  -4  -2    2.80    2.90
  -2  -4   2    0.90    3.00
  -2  -4   2   -0.30    3.20
   2   4  -2   -3.20    3.30
   2   4  -2   -2.20    2.50
   2   4  -2    7.30    4.60
  -2   4   2   -0.10    4.20
  -2   4   2    5.00    3.00
  -2   4   2    0.50    2.30
  -2   4   2    2.50    3.20
   2   4  -2    9.50    4.00
  -2   4   2    0.40    3.50
  -2   4   2    1.40    1.90
   2   4  -2   -1.80    4.20
   2   4  -2   -2.10    2.70
   2   4  -2    0.40    2.70
  -2   4   2   -0.60    2.90
   1  -4  -2   11.10    3.10
   1  -4  -2   13.90    3.80
  -1  -4   2   11.60    3.60
   1  -4  -2   13.30    3.70
   1  -4  -2   19.00    4.10
   1  -4  -2   22.90    3.40
   1  -4  -2   13.60    4.60
  -1  -4   2   18.60    3.90
  -1  -4   2   17.10    3.40
  -1  -4   2   11.10    4.50
  -1  -4   2   16.30    4.50
  -1  -4   2   10.90    4.30
   1  -4  -2    2.50    3.70
  -1  -4   2   20.10    3.70
  -1  -4   2   18.50    5.30
   1  -4  -2   22.50    4.10
   1   4  -2   16.90    5.10
   1   4  -2   13.60    3.90
   1   4  -2    9.20    4.00
  -1   4   2   18.10    3.30
   1   4  -2   21.20    4.30
  -1   4   2   20.50    3.00
   1   4  -2   16.90    3.40
  -1   4   2   15.00    3.80
  -1   4   2   11.90    3.50
   1   4  -2   25.90    4.80
  -1   4   2   19.00    4.60
  -1   4   2   22.00    4.00
   1   4  -2   17.00    3.60
  -1   4   2   18.50    5.30
   0  -4   2  642.14   36.90
   0  -4  -2  563.84   37.40
   0  -4  -2  603.14   37.70
   0  -4  -2  612.04   37.80
   0  -4   2  623.54   39.40
   0  -4  -2  603.54   37.00
   0  -4   2  626.24   37.90
   0  -4   2  612.24   37.60
   0  -4  -2  608.64   37.80
   0  -4  -2  575.44   38.60
   0  -4   2  560.24   36.90
   0  -4  -2  605.24   36.90
   0  -4  -2  614.94   38.20
   0  -4   2  583.24   38.50
   0  -4   2  605.44   37.90
   0  -4   2  628.64   37.80
   0   4   2  595.84   37.40
   0   4   2  617.14   38.20
   0   4  -2  571.54   37.50
   0   4  -2  625.54   38.00
   0   4   2  597.74   36.90
   0   4   2  613.34   37.90
   0   4  -2  618.94   38.40
   0   4  -2  577.44   37.40
   0   4   2  610.94   37.80
   0   4  -2  626.84   38.80
   0   4  -2  626.64   36.90
   0   4   2  593.54   36.90
   0   4  -2  617.44   37.50
   0   4   2  614.34   38.90
   0   4  -2  627.94   37.90
  -1  -4  -2   52.99    6.60
  -1  -4  -2   42.70    5.70
  -1  -4  -2   48.70    6.00
   1  -4   2   49.70    6.70
  -1  -4  -2   42.60    5.20
  -1  -4  -2   40.10    5.40
   1  -4   2   49.30    5.70
   1  -4   2   46.40    6.10
   1  -4   2   50.29    6.00
  -1  -4  -2   53.69    5.80
   1  -4   2   40.50    5.30
   1  -4   2   51.49    6.30
  -1  -4  -2   43.80    5.70
  -1   4  -2   54.99    6.50
   1   4   2   45.70    5.30
  -1   4  -2   40.80    5.80
   1   4   2   38.80    6.10
   1   4   2   43.80    5.70
  -1   4  -2   36.20    5.00
  -1   4  -2   46.60    4.60
   1   4   2   48.10    6.30
  -1   4  -2   36.90    6.50
  -1   4  -2   58.79    6.20
   1   4   2   52.09    5.90
  -1   4  -2   43.10    6.40
  -1   4  -2   50.09    6.10
   1   4   2   50.99    7.50
   1   4   2   45.70    6.10
   2  -4   2   22.10    4.80
  -2  -4  -2   38.80    5.40
  -2  -4  -2   17.80    4.30
   2  -4   2   20.90    5.10
   2  -4   2   35.10    5.00
  -2  -4  -2   11.70    7.40
  -2  -4  -2   26.90    4.40
  -2  -4  -2   23.40    4.90
  -2  -4  -2   20.80    4.30
   2  -4   2   27.40    4.90
   2  -4   2   19.00    4.20
  -2  -4  -2   30.50    5.10
   2  -4   2   41.40    5.30
  -2  -4  -2   24.80    4.40
   2   4   2   24.20    4.60
   2   4   2   24.30    4.80
  -2   4  -2   25.20    3.00
  -2   4  -2   18.40    4.00
  -2   4  -2   23.40    4.30
   2   4   2   24.20    3.90
  -2   4  -2   29.80    3.70
   2   4   2   20.30    5.50
   2   4   2   28.90    4.50
  -2   4  -2   23.20    4.40
  -2   4  -2   12.60    4.90
  -2   4  -2   33.60    4.70
   2   4   2   30.30    4.70
   2   4   2   26.80    5.00
  -2   4  -2   33.60    6.10
  -3  -4  -2   -0.80    3.40
  -3  -4  -2    2.50    4.70
   3  -4   2    3.30    3.10
   3  -4   2   -0.30    3.00
   3  -4   2    2.70    3.30
   3  -4   2    0.40    3.30
  -3  -4  -2    2.20    3.20
  -3  -4  -2    2.10    3.80
  -3  -4  -2   -1.10    2.80
  -3  -4  -2    4.80    3.50
  -3  -4  -2    9.20    3.80
   3  -4   2    4.30    4.90
   3  -4   2   -1.60    3.40
   3   4   2    6.80    3.20
   3   4   2    2.50    3.20
  -3   4  -2    6.30    3.60
  -3   4  -2    1.70    3.50
   3   4   2   -1.50    4.40
   3   4   2    1.30    4.70
  -3   4  -2    1.40    3.80
   3   4   2    5.60    3.50
  -3   4  -2    5.20    1.90
   3   4   2    1.00    2.60
  -3   4  -2    2.80    3.30
  -3   4  -2    8.20    3.80
   3   4   2   -5.60    3.10
  -4  -4  -2  431.16   30.30
  -4  -4  -2  433.76   29.90
   4  -4   2  506.15   30.00
  -4  -4  -2  437.46   30.10
   4  -4   2  512.25   30.10
   4  -4   2  542.25   30.80
   4  -4   2  498.45   30.00
  -4  -4  -2  442.46   29.70
  -4  -4  -2  451.15   30.20
   4  -4   2  506.45   31.20
  -4  -4  -2  434.76   30.10
  -4   4  -2  503.75   29.70
  -4   4  -2  520.25   31.10
  -4   4  -2  518.55   29.70
   4   4   2  422.86   30.00
   4   4   2  410.56   29.50
   4   4   2  451.35   29.90
   4   4   2  391.36   29.60
   4   4   2  439.16   29.90
  -4   4  -2  516.25   30.40
  -4   4  -2  534.05   31.60
   5  -4   2   11.60    3.70
   5  -4   2   15.00    4.60
  -5  -4  -2    4.90    4.10
  -5  -4  -2   10.70    4.60
  -5  -4  -2    8.90    3.20
  -5  -4  -2    8.20    4.00
  -5  -4  -2    7.40    4.10
  -5  -4  -2    7.40    4.60
   5  -4   2    3.30    4.10
   5  -4   2    3.50    4.00
  -5   4  -2    3.70    3.90
   5   4   2    4.40    3.80
   5   4   2    9.10    3.60
   5   4   2   10.70    3.50
   5   4   2    4.10    3.70
  -5   4  -2    7.20    3.50
   5   4   2   10.80    3.80
  -5   4  -2    3.60    4.50
  -5   4  -2    4.80    4.70
  -5   4  -2    6.10    3.40
  -6  -4  -2   15.70    4.30
   6  -4   2   18.00    5.00
  -6  -4  -2   10.70    4.50
  -6  -4  -2   14.20    3.60
  -6  -4  -2   15.80    4.60
   6  -4   2   11.80    4.40
   6   4   2   14.00    3.90
   6   4   2   16.70    4.80
   6   4   2   19.10    4.20
   6   4   2   11.90    4.30
   6   4   2   21.10    5.50
   6   4   2   12.30    3.90
  -7  -4  -2   11.50    4.50
   7  -4   2   20.70    5.70
   7  -4   2   13.40    5.70
  -7  -4  -2   11.60    4.70
   7   4   2   14.30    4.30
   7   4   2    8.20    4.10
  -7   4  -2   18.00    5.70
  -7   4  -2   13.80    5.00
   7   4   2    2.90    4.90
  -7   4  -2    7.10    4.40
   7   4   2   15.00    3.90
   8  -4   2   14.80    6.30
   8  -4   2    8.40    5.00
  -8  -4  -2    5.70    4.70
  -8  -4  -2   14.10    4.80
   8   4   2   12.60    4.20
  -8   4  -2    6.50    5.30
   8   4   2   13.30    5.50
  -8   4  -2    8.20    5.20
  -8   4  -2    9.00    6.00
   8   4   2   20.00    6.70
  -9  -4  -2    1.00    5.10
  -9  -4  -2    2.00    5.20
   9  -4   2   13.40    5.90
   9  -4   2    6.80    6.90
   9   4   2   13.90    4.40
   9   4   2   23.00    6.00
   9   4   2    9.00    6.60
  -9   4  -2   16.60    6.60
  -9   4  -2   -3.00    5.20
  -9   4  -2   11.70    5.70
   8  -5  -2  102.69   11.80
  -8  -5   2   94.99   10.50
   8  -5  -2   71.69   11.50
  -8  -5   2   73.29   11.60
  -8  -5   2  101.09   12.70
  -8   5   2  103.09   14.90
  -8   5   2  106.59   12.60
   8   5  -2   84.69   11.10
  -7  -5   2    9.90    8.00
   7  -5  -2    1.10    6.20
   7  -5  -2    4.90    6.10
  -7  -5   2    3.80    6.60
  -7   5   2   10.00    6.00
   7   5  -2    4.90    4.70
  -7   5   2   13.50    7.30
   7   5  -2   20.40    6.30
   7   5  -2   -1.90    6.40
  -6  -5   2    4.30    4.70
   6  -5  -2    2.80    4.90
   6  -5  -2    3.70    5.80
  -6  -5   2   12.90    7.00
  -6  -5   2    6.60    6.00
   6  -5  -2   15.90    6.30
  -6   5   2    2.00    6.00
  -6   5   2    9.60    5.60
   6   5  -2   12.90    5.90
   6   5  -2   -1.70    4.40
   6   5  -2   15.70    5.70
   5  -5  -2    8.40    4.30
  -5  -5   2    8.60    6.30
   5  -5  -2    6.50    5.20
   5  -5  -2    8.30    5.30
  -5  -5   2    7.40    4.40
  -5  -5   2   -3.20    6.00
   5   5  -2    6.60    4.90
  -5   5   2   18.40    6.40
   5   5  -2    7.20    5.50
   5   5  -2   15.00    4.40
  -5   5   2   10.70    5.50
  -4  -5   2   26.00    7.00
   4  -5  -2   29.10    5.10
  -4  -5   2   26.30    5.00
   4  -5  -2   13.40    5.00
  -4  -5   2   20.60    6.40
   4  -5  -2   23.90    5.60
   4  -5  -2   24.90    6.00
   4   5  -2   22.40    5.40
  -4   5   2   15.40    5.80
  -4   5   2   32.40    5.80
   4   5  -2   14.60    5.00
  -4   5   2   26.80    6.60
  -4   5   2   22.40    3.60
   4   5  -2   35.20    6.30
  -4   5   2   21.50    3.70
   4   5  -2   19.70    5.40
  -3  -5   2  515.55   36.80
   3  -5  -2  644.14   35.70
   3  -5  -2  568.14   37.30
  -3  -5   2  548.15   37.70
   3  -5  -2  593.64   34.90
   3  -5  -2  556.74   37.60
   3  -5  -2  554.14   36.70
  -3  -5   2  553.34   35.70
  -3   5   2  608.44   34.70
  -3   5   2  608.04   37.00
   3   5  -2  540.95   36.40
   3   5  -2  572.94   36.30
   3   5  -2  534.65   37.30
   3   5  -2  530.25   36.50
  -3   5   2  522.05   37.60
  -3   5   2  622.54   37.90
  -3   5   2  600.84   35.10
  -3   5   2  613.94   38.90
   3   5  -2  544.55   36.90
  -2  -5   2   13.90    5.80
   2  -5  -2   12.50    4.90
   2  -5  -2   11.10    4.60
   2  -5  -2    8.70    3.40
   2  -5  -2    8.80    3.80
  -2  -5   2   11.40    4.90
   2  -5  -2   19.00    6.50
  -2  -5   2   12.90    4.20
  -2  -5   2   10.30    5.80
   2  -5  -2    9.70    4.30
   2   5  -2   10.10    5.00
  -2   5   2   12.30    4.80
  -2   5   2    8.40    7.90
  -2   5   2   10.70    5.10
   2   5  -2   15.10    4.70
   2   5  -2   10.20    6.30
   2   5  -2   12.80    5.60
  -2   5   2   11.60    3.10
   2   5  -2   11.00    4.70
  -2   5   2    9.90    3.90
  -2   5   2   18.60    5.10
   1  -5  -2   30.60    5.00
  -1  -5   2   27.60    5.70
  -1  -5   2   30.60    6.40
  -1  -5   2   25.30    6.30
  -1  -5   2   30.30    6.40
   1  -5  -2   21.60    4.40
   1  -5  -2   25.70    4.50
  -1  -5   2   31.60    4.80
   1  -5  -2   32.60    5.80
   1  -5  -2   36.20    6.40
   1  -5  -2   34.80    6.10
  -1  -5   2   32.70    6.30
  -1   5   2   27.90    4.00
  -1   5   2   21.80    4.70
   1   5  -2   41.90    7.30
  -1   5   2   32.30    7.40
   1   5  -2   23.70    6.40
   1   5  -2   27.10    5.30
   1   5  -2   30.40    5.70
  -1   5   2   35.10    8.30
  -1   5   2   35.40    6.50
  -1   5   2   32.90    5.70
  -1   5   2   30.70    5.40
   1   5  -2   27.40    4.90
   0  -5   2   14.40    5.00
   0  -5   2    0.80    3.40
   0  -5  -2    8.90    5.00
   0  -5   2    6.00    5.00
   0  -5   2    2.10    4.70
   0  -5  -2    3.40    4.50
   0  -5  -2    0.40    3.60
   0  -5  -2    4.70    4.50
   0  -5  -2    7.70    3.70
   0  -5   2    1.00    4.30
   0  -5   2    6.90    4.50
   0  -5  -2    9.10    4.70
   0  -5  -2   11.60    4.60
   0   5   2   11.10    4.60
   0   5  -2   12.50    4.90
   0   5   2   10.00    4.80
   0   5  -2    2.00    4.30
   0   5   2   -2.40    4.40
   0   5  -2    6.50    3.10
   0   5   2    5.50    3.90
   0   5  -2    3.60    5.20
   0   5   2   -5.30    5.40
   0   5  -2    7.70    4.50
   0   5   2   -1.60    7.10
   0   5  -2   18.20    5.80
   0   5   2    1.10    2.90
   0   5  -2   -4.40    6.80
   1  -5   2  103.49   10.60
   1  -5   2   82.99   10.30
   1  -5   2   84.99   10.50
   1  -5   2  101.09   11.00
  -1  -5  -2   81.59   10.60
  -1  -5  -2   88.49    9.20
  -1  -5  -2  106.89   10.70
   1  -5   2   92.39    9.10
  -1  -5  -2  102.09   11.10
  -1  -5  -2   75.99   10.10
  -1  -5  -2   97.29    9.60
   1  -5   2   91.09   11.10
   1   5   2   93.69   10.00
  -1   5  -2   88.89    9.70
   1   5   2   97.19   12.40
  -1   5  -2  101.79   11.20
   1   5   2  103.19    8.80
   1   5   2   99.79   11.00
   1   5   2   96.39    9.60
  -1   5  -2   98.99    7.90
  -1   5  -2   99.49   11.00
  -1   5  -2   82.19    9.90
   1   5   2  104.39   10.20
  -1   5  -2  118.59   13.20
  -1   5  -2  100.39    9.80
   2  -5   2   -7.30    4.10
  -2  -5  -2   -4.40    4.00
   2  -5   2    3.90    4.70
   2  -5   2    5.50    4.50
   2  -5   2   -3.50    5.50
  -2  -5  -2    5.70    4.60
  -2  -5  -2    3.50    5.30
   2  -5   2    5.90    3.80
  -2  -5  -2   -7.90    3.40
  -2  -5  -2    3.50    4.80
   2   5   2    4.20    4.80
  -2   5  -2    3.00    4.60
   2   5   2    4.80    4.30
  -2   5  -2   -8.90    5.90
  -2   5  -2    2.80    4.00
  -2   5  -2    3.40    2.50
  -2   5  -2   -0.40    4.50
  -2   5  -2   -5.10    6.10
   2   5   2   -2.10    7.00
   2   5   2    2.60    4.00
  -2   5  -2   -2.50    4.00
   2   5   2    2.90    5.10
  -3  -5  -2  252.07   19.20
   3  -5   2  264.07   19.10
  -3  -5  -2  258.87   18.60
  -3  -5  -2  262.77   19.50
  -3  -5  -2  259.17   18.80
  -3  -5  -2  272.17   20.00
   3  -5   2  263.17   19.10
   3  -5   2  263.77   19.70
   3  -5   2  263.97   20.70
   3  -5   2  248.08   18.30
   3   5   2  280.37   18.70
  -3   5  -2  260.67   21.50
  -3   5  -2  246.38   19.10
  -3   5  -2  261.27   19.50
   3   5   2  258.87   19.90
  -3   5  -2  256.07   16.80
   3   5   2  276.57   19.60
   3   5   2  257.47   18.70
  -3   5  -2  249.97   16.30
   3   5   2  262.57   19.30
  -3   5  -2  259.57   19.80
  -4  -5  -2   -6.50    4.90
  -4  -5  -2    3.10    7.90
  -4  -5  -2   -2.90    5.00
   4  -5   2    8.10    4.50
   4  -5   2   -2.50    5.30
  -4   5  -2   -3.10    5.10
   4   5   2   -3.10    4.60
   4   5   2    0.60    4.30
   4   5   2   -0.30    4.10
   4   5   2    7.60    4.60
  -4   5  -2    1.90    5.60
  -4   5  -2   -3.00    4.00
   5  -5   2  149.29   13.80
   5  -5   2  116.49   11.40
   5  -5   2  145.29   13.60
  -5  -5  -2  130.39   11.70
  -5  -5  -2  111.89   13.20
  -5  -5  -2  134.89   12.70
  -5   5  -2  141.19   13.40
  -5   5  -2  114.59   12.90
   5   5   2  117.49   12.10
   5   5   2  111.49   12.00
  -6  -5  -2    0.20    4.50
   6  -5   2    6.80    6.70
  -6  -5  -2    2.70    6.40
   6  -5   2    9.50    6.60
   6  -5   2    3.70    4.90
   6   5   2   -4.40    5.70
  -6   5  -2    5.20    4.70
   6   5   2   -0.10    4.90
  -6   5  -2    3.00    6.10
  -6   5  -2    4.50    5.20
   6   5   2    4.00    4.80
   6   5   2    0.80    4.90
   7  -5   2  208.08   19.80
   7  -5   2  252.77   20.10
  -7  -5  -2  217.88   18.10
  -7  -5  -2  216.88   19.30
   7  -5   2  263.67   20.10
   7   5   2  218.98   18.10
   7   5   2  237.78   18.90
  -7   5  -2  227.98   18.10
   7   5   2  231.68   17.80
   7   5   2  223.58   17.80
  -7   5  -2  268.07   20.30
  -7   5  -2  268.77   20.00
  -8  -5  -2    7.80    6.10
   8  -5   2    8.20    7.20
  -8  -5  -2    7.20    6.30
   8  -5   2    6.60    8.20
   8   5   2    7.70    7.40
   8   5   2   -0.70    5.00
  -8   5  -2   24.50    8.30
  -8   5  -2   10.70    7.70
  -8   5  -2   11.00    6.90
   8   5   2    5.40    6.10
  -5  -6   2   58.49   10.70
   5  -6  -2   71.09   15.10
  -5  -6   2   64.49    8.30
   5  -6  -2   71.89   10.20
  -5  -6   2   61.69   10.80
  -5   6   2   55.29   10.20
  -5   6   2   64.69   11.30
   5   6  -2   81.59    9.90
   5   6  -2  101.79   14.80
   5   6  -2   61.59    8.80
   4  -6  -2   25.50    8.40
  -4  -6   2   38.00    8.90
  -4  -6   2   33.00    9.60
  -4  -6   2   38.50    7.80
   4   6  -2   31.70    7.20
   4   6  -2   35.10    8.60
  -4   6   2   37.40    8.30
  -4   6   2   35.60    8.60
   4   6  -2   44.30    7.90
   3  -6  -2    6.20    6.40
  -3  -6   2   18.70    7.20
  -3  -6   2    7.00    8.50
   3  -6  -2   -8.50    4.90
   3  -6  -2    5.90    5.40
  -3  -6   2    2.30    4.90
  -3   6   2   -0.10    7.30
   3   6  -2    6.10    5.80
   3   6  -2   10.50    7.10
  -3   6   2    9.70    7.40
   3   6  -2   10.70    6.30
   2  -6  -2   92.99   11.20
  -2  -6   2   69.29   11.20
  -2  -6   2   74.99   10.70
   2  -6  -2   96.39   10.40
   2  -6  -2   88.89    9.90
  -2  -6   2   86.99    9.80
  -2   6   2   89.99   12.60
   2   6  -2   82.89   10.30
   2   6  -2   84.09   12.80
  -2   6   2   70.29   10.40
  -2   6   2   87.99    9.00
   2   6  -2   91.99   10.50
  -1  -6   2   -0.50    4.20
   1  -6  -2    6.80    5.00
   1  -6  -2   -3.10    7.10
  -1  -6   2   -8.60    5.90
   1  -6  -2    6.00    7.00
   1  -6  -2   -4.10    4.80
  -1  -6   2  -10.20    7.20
   1   6  -2    3.70    4.60
  -1   6   2   -4.10    6.80
   1   6  -2   -0.50    7.30
   1   6  -2   -1.20    5.80
  -1   6   2   -7.70    5.80
  -1   6   2    9.00    6.00
  -1   6   2   -2.00    4.10
   0  -6  -2  505.75   34.20
   0  -6   2  540.35   35.50
   0  -6   2  518.75   36.70
   0  -6   2  486.05   33.60
   0  -6  -2  579.54   34.30
   0  -6   2  525.05   36.10
   0  -6  -2  524.25   35.40
   0  -6  -2  534.75   36.20
   0   6   2  509.45   34.90
   0   6  -2  550.14   33.50
   0   6   2  551.44   35.50
   0   6  -2  528.05   35.20
   0   6  -2  524.65   36.00
   0   6  -2  517.45   35.30
   0   6   2  519.15   33.40
   0   6   2  520.35   35.80
   1  -6   2   14.50    7.60
  -1  -6  -2    3.10    6.70
   1  -6   2   -1.90    6.50
   1  -6   2    2.40    6.90
  -1  -6  -2    7.60    4.70
  -1  -6  -2    1.90    6.50
  -1  -6  -2   10.30    6.10
  -1   6  -2   13.10    4.00
   1   6   2   11.40    5.90
  -1   6  -2   -3.30    6.10
  -1   6  -2   10.00    7.00
   1   6   2    5.40    6.30
   1   6   2    8.70    4.90
  -1   6  -2   16.30    6.70
   1   6   2   19.20    6.90
   2  -6   2  141.39   21.50
   2  -6   2  144.59   15.70
  -2  -6  -2  146.79   17.00
   2  -6   2  158.08   16.50
  -2  -6  -2  129.29   12.80
   2  -6   2  117.39   12.30
  -2  -6  -2  156.18   14.60
  -2   6  -2  141.89   11.20
   2   6   2  144.49   14.70
  -2   6  -2  142.09   15.30
  -2   6  -2  160.28   15.60
   2   6   2  144.49   13.10
  -2   6  -2  160.58   16.10
  -3  -6  -2   14.30    8.70
   3  -6   2   14.70    5.30
   3  -6   2    7.90    7.10
  -3  -6  -2    9.60    6.60
   3  -6   2    2.50    7.60
  -3  -6  -2    6.80    4.70
  -3   6  -2    9.50    6.60
   3   6   2   17.60    5.90
   3   6   2   17.80    6.70
   3   6   2   26.30    6.80
  -3   6  -2   20.60    7.50
   4  -6   2  276.97   20.20
   4  -6   2  261.37   22.10
  -4  -6  -2  236.58   21.10
  -4  -6  -2  251.97   20.00
   4  -6   2  266.97   22.30
  -4  -6  -2  268.77   22.90
  -4   6  -2  290.97   22.70
   4   6   2  241.98   20.00
  -4   6  -2  279.67   21.70
   4   6   2  291.47   20.50
   4   6   2  257.37   21.10
  -5  -6  -2   -0.80    7.40
   5  -6   2    3.70    7.60
  -5  -6  -2   -3.00    5.40
   5  -6   2   -1.70    8.00
  -5  -6  -2   -1.20    7.40
   5  -6   2    9.70   10.20
   5   6   2   -3.20    6.20
   5   6   2   -3.40    5.60
  -5   6  -2   -8.10    8.20
  -5   6  -2   -1.60    6.20
  12   0  -3    1.10    6.70
  12   0  -3   15.30    6.00
  11   0  -3   -0.50    4.90
 -11   0   3   -5.20    4.30
  11   0  -3   -1.30    5.00
  11   0  -3    2.50    5.40
  10   0  -3    4.60    5.40
  10   0  -3   -1.50    4.10
  10   0  -3    1.30    3.80
 -10   0   3    1.00    3.50
  10   0  -3   -4.40    4.00
  -9   0   3   -7.00    3.00
   9   0  -3    1.70    3.20
   9   0  -3    7.90    4.00
   9   0  -3    1.40    3.50
   9   0  -3    3.60    3.40
   9   0  -3   -5.60    4.40
  -8   0   3    3.20    3.20
   8   0  -3   -3.20    2.70
   8   0  -3    2.30    2.70
   8   0  -3   -0.40    4.80
   8   0  -3   -0.30    2.80
   8   0  -3    2.30    2.90
   8   0  -3    1.00    3.50
   7   0  -3    0.90    2.50
   7   0  -3    0.00    3.40
   7   0  -3    1.00    1.90
   7   0  -3   -4.50    1.90
   7   0  -3   -0.70    2.90
  -7   0   3   -1.00    2.50
   7   0  -3    0.20    2.20
   6   0  -3    0.80    2.20
  -6   0   3    3.00    2.20
   6   0  -3   -1.50    1.90
   6   0  -3    1.20    1.70
   6   0  -3   -0.10    2.60
   6   0  -3   -2.20    1.60
   6   0  -3    1.30    2.30
   5   0  -3   -0.60    1.80
   5   0  -3    4.20    2.30
   5   0  -3   -0.20    1.40
  -5   0   3   -1.50    1.80
   5   0  -3   -1.20    1.30
   5   0  -3    1.70    2.00
   5   0  -3   -0.30    1.50
   4   0  -3   -1.60    1.40
  -4   0   3   -1.20    1.50
  -4   0   3    3.00    2.00
  -4   0   3    0.70    1.40
  -4   0   3    0.70    2.10
   4   0  -3    0.50    1.60
   4   0  -3   -0.20    1.40
  -3   0   3    0.20    0.50
   3   0  -3    0.00    0.40
  -3   0   3    0.30    1.60
  -3   0   3    0.70    1.30
   3   0  -3    2.00    1.40
   3   0  -3    0.50    1.40
  -3   0   3    0.20    1.30
   3   0  -3   -0.60    1.30
   3   0  -3   -1.30    1.10
  -3   0   3    0.30    1.50
   2   0  -3    0.00    0.50
   2   0  -3    1.80    1.00
   2   0  -3   -0.10    1.20
  -2   0   3   -1.00    0.40
  -2   0   3    0.00    1.40
   2   0  -3    0.50    0.40
  -2   0   3   -0.30    0.50
   2   0  -3    1.10    1.20
  -1   0   3    0.70    1.10
   1   0  -3    2.50    1.40
   1   0  -3    1.00    1.20
  -1   0   3    0.50    0.90
   1   0  -3    1.00    0.50
   1   0  -3   -0.70    0.90
   1   0  -3    0.10    0.60
  -1   0   3    0.20    0.60
  -1   0   3   -0.20    0.60
   1   0  -3   -0.80    0.80
  -1   0   3   -0.30    0.40
   1   0  -3   -0.10    0.60
  -1   0   3   -0.20    1.00
   1   0  -3   -0.30    0.70
   0   0   3    1.20    1.00
   0   0  -3   -0.80    0.60
   0   0  -3    1.00    0.70
   0   0  -3    0.50    0.70
   0   0   3    0.90    0.70
   0   0   3    0.10    0.90
   0   0  -3    0.70    1.00
   0   0  -3   -0.40    0.80
   0   0   3    0.80    0.80
   0   0  -3   -0.90    0.70
   0   0   3   -0.20    0.50
   0   0   3    0.10    0.90
   0   0  -3    0.10    0.90
   0   0   3   -0.10    0.70
   0   0  -3   -0.30    1.20
   1   0   3    0.20    0.70
   1   0   3   -1.00    0.60
  -1   0  -3    0.00    0.70
  -1   0  -3    0.20    0.80
  -1   0  -3   -0.60    0.90
   1   0   3    0.20    1.00
   1   0   3    0.40    0.80
   1   0   3   -1.50    0.90
  -1   0  -3   -0.70    0.80
  -1   0  -3   -0.30    0.80
  -1   0  -3   -0.30    0.70
   1   0   3   -0.40    1.00
  -1   0  -3   -0.70    0.80
   1   0   3   -1.00    0.80
   2   0   3   -0.50    1.10
   2   0   3    0.10    0.70
   2   0   3   -0.80    0.90
   2   0   3   -0.40    1.00
  -2   0  -3    0.00    0.50
  -2   0  -3    0.10    0.90
  -2   0  -3    0.10    0.50
  -2   0  -3    0.00    0.90
  -2   0  -3   -1.00    1.30
  -2   0  -3    0.80    1.10
   2   0   3   -1.10    1.00
   2   0   3    0.70    0.60
  -2   0  -3    0.30    1.20
  -3   0  -3    0.90    0.40
   3   0   3    1.10    1.20
  -3   0  -3   -0.70    0.90
   3   0   3    1.70    1.40
   3   0   3    0.20    1.50
  -3   0  -3    0.10    1.40
  -3   0  -3   -0.50    1.30
   3   0   3   -0.40    1.10
  -3   0  -3    1.90    1.20
   3   0   3   -0.60    1.00
  -3   0  -3    0.80    1.20
   3   0   3   -0.70    1.10
   3   0   3   -0.10    0.50
  -4   0  -3    2.00    1.30
   4   0   3    1.20    0.60
  -4   0  -3    2.40    1.80
  -4   0  -3   -0.10    0.50
   4   0   3    0.20    1.40
   4   0   3   -0.10    1.20
   4   0   3    0.30    1.20
  -4   0  -3    1.60    1.00
  -4   0  -3   -0.10    1.70
   4   0   3    3.30    1.50
  -4   0  -3   -0.20    1.00
   4   0   3    0.60    0.90
   4   0   3    3.30    1.60
  -4   0  -3    1.70    1.20
   5   0   3   -3.30    1.40
  -5   0  -3   -0.70    2.00
  -5   0  -3   -0.50    1.90
  -5   0  -3    2.00    1.40
  -5   0  -3    0.00    1.40
   5   0   3    2.80    1.20
   5   0   3    2.10    1.90
  -5   0  -3   -1.00    1.40
   5   0   3    0.50    1.60
  -5   0  -3   -0.70    1.10
  -5   0  -3   -0.40    0.70
   5   0   3    0.40    1.30
   5   0   3   -2.20    1.20
  -5   0  -3    1.70    1.80
  -6   0  -3    1.00    2.00
   6   0   3   -2.30    1.80
   6   0   3    0.60    1.50
  -6   0  -3    1.10    1.40
   6   0   3    0.50    0.90
   6   0   3   -1.10    2.30
  -6   0  -3   -3.40    2.30
  -6   0  -3    3.70    2.60
  -6   0  -3   -2.50    1.60
   6   0   3   -0.50    1.50
   6   0   3    1.30    1.90
  -6   0  -3   -1.50    1.30
  -6   0  -3   -2.40    1.50
   6   0   3   -0.90    1.60
   7   0   3    3.80    2.40
   7   0   3    0.00    2.00
  -7   0  -3   -0.90    2.30
  -7   0  -3    0.10    2.50
  -7   0  -3    1.00    1.90
   7   0   3    1.00    2.80
  -7   0  -3    2.20    2.10
   7   0   3    1.10    1.80
   7   0   3    5.30    1.60
   7   0   3   -2.10    1.70
  -7   0  -3   -1.90    1.70
   7   0   3    0.10    1.10
   8   0   3    0.20    2.30
  -8   0  -3    4.90    2.50
   8   0   3    0.60    1.40
   8   0   3    0.20    2.40
  -8   0  -3    1.80    3.00
  -8   0  -3   -1.10    2.80
   8   0   3    0.00    3.70
   8   0   3    0.50    2.50
   9   0   3   -0.50    2.90
  -9   0  -3    3.90    3.60
   9   0   3   -2.20    2.50
  -9   0  -3   -4.30    2.60
  -9   0  -3   -2.40    2.40
  -9   0  -3   -1.70    3.50
   9   0   3    5.30    4.30
  -9   0  -3   -5.10    3.10
   9   0   3   -0.90    2.60
   9   0   3   -0.20    2.80
 -10   0  -3   -3.10    2.80
 -10   0  -3   -1.60    4.00
  10   0   3    1.60    4.70
  10   0   3    3.70    3.00
  10   0   3    1.30    3.30
 -10   0  -3    3.40    3.80
  10   0   3    3.00    3.00
  11   0   3    5.20    6.30
  11   0   3   -1.60    3.70
 -11   0  -3   -0.90    4.90
 -11   0  -3    4.30    3.40
  11   0   3   -4.70    4.20
  11  -1  -3   25.70    6.20
  11  -1  -3   27.60    5.10
  11  -1  -3   21.60    6.30
 -11  -1   3   21.90    5.20
 -11  -1   3   20.30    2.80
 -11   1   3   22.60    3.00
  11   1  -3   26.30    6.70
 -11   1   3   29.40    3.00
  11   1  -3   24.50    6.30
  11   1  -3   23.80    5.70
 -11   1   3   19.30    5.80
  10  -1  -3   14.00    4.10
 -10  -1   3   11.20    4.20
 -10  -1   3   16.00    2.40
  10  -1  -3   11.80    5.10
  10  -1  -3   12.60    4.80
 -10  -1   3   16.30    2.00
  10   1  -3   14.20    5.30
 -10   1   3   13.60    2.50
  10   1  -3   12.40    4.70
 -10   1   3   15.00    2.60
  10   1  -3    7.90    5.00
 -10   1   3   12.90    4.30
  -9  -1   3    9.40    2.00
   9  -1  -3   11.00    1.40
  -9  -1   3    8.00    1.70
  -9  -1   3    8.50    3.50
   9  -1  -3    9.90    1.60
   9  -1  -3    6.40    3.60
   9  -1  -3   12.50    3.20
   9  -1  -3   16.20    4.00
  -9   1   3   10.40    2.20
   9   1  -3    3.80    3.70
   9   1  -3   10.10    3.90
  -9   1   3   11.70    2.10
  -9   1   3   11.30    4.70
  -9   1   3    4.30    3.70
   9   1  -3    0.50    4.10
   9   1  -3    4.40    3.50
  -8  -1   3   36.10    3.30
  -8  -1   3   32.80    3.00
  -8  -1   3   37.90    5.00
   8  -1  -3   37.20    4.30
   8  -1  -3   28.50    2.60
   8  -1  -3   36.20    4.50
   8  -1  -3   30.50    5.30
   8  -1  -3   33.10    4.20
   8  -1  -3   36.70    5.30
   8  -1  -3   31.70    3.00
   8   1  -3   31.10    4.60
  -8   1   3   34.10    3.70
   8   1  -3   28.90    4.80
   8   1  -3   26.10    4.60
   8   1  -3   32.70    4.70
   8   1  -3   26.30    2.50
  -8   1   3   27.60    4.50
   8   1  -3   32.70    2.80
  -8   1   3   34.70    3.50
  -8   1   3   29.10    5.40
   7  -1  -3   38.30    5.30
   7  -1  -3   31.80    4.60
  -7  -1   3   32.50    3.10
   7  -1  -3   36.00    2.80
   7  -1  -3   34.90    4.10
   7  -1  -3   30.80    3.00
  -7  -1   3   31.30    3.20
   7  -1  -3   38.60    4.30
  -7  -1   3   35.80    4.70
   7  -1  -3   32.80    3.90
   7   1  -3   36.20    4.60
  -7   1   3   31.60    5.20
   7   1  -3   37.20    5.10
   7   1  -3   37.00    6.00
   7   1  -3   29.20    5.70
  -7   1   3   32.10    3.20
   7   1  -3   38.40    3.00
   7   1  -3   31.20    4.60
  -7   1   3   36.00    3.70
  -7   1   3   38.30    4.80
   7   1  -3   35.90    4.60
   7   1  -3   35.30    2.60
   6  -1  -3  125.79    9.10
  -6  -1   3  129.69    9.60
  -6  -1   3  137.69    8.60
  -6  -1   3  141.19   10.40
   6  -1  -3  127.19    8.40
   6  -1  -3  125.59   10.20
  -6  -1   3  131.49    8.50
   6  -1  -3  140.49    9.10
   6  -1  -3  136.89    9.20
   6  -1  -3  128.39    9.60
   6  -1  -3  135.29    8.40
   6   1  -3  130.09    9.80
   6   1  -3  129.49   10.10
   6   1  -3  134.59   10.80
   6   1  -3  123.49   10.50
  -6   1   3  140.49    9.90
  -6   1   3  131.19    8.90
  -6   1   3  138.39    8.60
   6   1  -3  137.19    9.90
   6   1  -3  134.89    8.20
  -6   1   3  132.49   10.40
   6   1  -3  136.99    8.40
  -5  -1   3    0.50    1.20
  -5  -1   3    1.60    2.10
   5  -1  -3    3.30    2.30
  -5  -1   3    1.30    1.00
   5  -1  -3   -0.20    0.90
   5  -1  -3    0.80    1.70
   5  -1  -3   -0.20    0.90
  -5  -1   3    0.30    1.90
   5  -1  -3    1.10    1.50
   5  -1  -3    0.20    1.30
  -5   1   3    0.80    1.40
  -5   1   3   -1.00    1.00
   5   1  -3   -2.10    2.70
   5   1  -3    1.10    1.00
   5   1  -3    1.50    2.30
  -5   1   3    0.40    2.00
   5   1  -3    1.90    0.80
   5   1  -3    1.30    1.70
  -5   1   3    1.70    2.10
  -5   1   3    0.60    2.20
   5   1  -3    4.70    2.10
   5   1  -3    2.30    2.70
  -4  -1   3   13.60    1.50
  -4  -1   3   16.50    2.10
   4  -1  -3   14.60    2.80
   4  -1  -3   16.50    1.90
  -4  -1   3   18.70    2.40
   4  -1  -3   18.50    2.10
   4  -1  -3   16.70    1.30
   4  -1  -3   14.80    2.10
  -4  -1   3   16.90    1.50
   4  -1  -3   15.80    2.00
  -4  -1   3   17.10    2.10
  -4  -1   3   13.50    2.70
   4  -1  -3   18.00    1.40
   4  -1  -3   19.50    2.40
  -4  -1   3   19.70    3.20
  -4   1   3   13.90    2.50
   4   1  -3   13.00    1.80
   4   1  -3   23.80    3.50
  -4   1   3   16.70    2.00
  -4   1   3   17.30    1.60
   4   1  -3   14.20    1.90
   4   1  -3   14.70    2.50
   4   1  -3   15.50    2.70
  -4   1   3   13.90    2.70
  -4   1   3   15.50    1.80
  -4   1   3   23.30    2.90
   4   1  -3   19.60    3.50
  -3  -1   3  359.46   22.50
  -3  -1   3  356.16   21.90
  -3  -1   3  339.87   21.70
   3  -1  -3  339.27   21.50
   3  -1  -3  362.36   21.50
   3  -1  -3  360.66   21.70
   3  -1  -3  366.16   22.50
   3  -1  -3  368.86   21.70
   3  -1  -3  366.56   21.50
   3  -1  -3  361.56   21.60
  -3  -1   3  364.16   21.50
  -3  -1   3  360.26   21.70
  -3  -1   3  372.16   21.60
   3  -1  -3  364.56   21.70
  -3  -1   3  362.76   22.40
  -3   1   3  367.26   21.50
   3   1  -3  379.66   22.60
  -3   1   3  363.96   22.10
  -3   1   3  350.16   21.90
  -3   1   3  358.46   21.80
   3   1  -3  339.87   22.00
   3   1  -3  375.16   22.60
   3   1  -3  374.66   21.50
  -3   1   3  345.57   22.60
   3   1  -3  358.66   21.60
   3   1  -3  370.26   21.50
   3   1  -3  355.26   22.10
   3   1  -3  359.46   22.50
  -3   1   3  374.66   21.60
  -3   1   3  361.36   21.70
   2  -1  -3   16.80    1.30
   2  -1  -3   20.30    2.80
  -2  -1   3   15.60    1.80
  -2  -1   3   21.00    2.90
   2  -1  -3   13.70    2.10
   2  -1  -3   16.30    1.80
   2  -1  -3   16.20    1.90
  -2  -1   3   16.30    2.00
   2  -1  -3   17.30    1.80
   2  -1  -3   16.60    2.00
  -2  -1   3   15.80    2.40
   2  -1  -3   16.90    2.00
  -2  -1   3   19.20    2.90
  -2  -1   3   17.70    2.20
   2  -1  -3   19.20    1.50
   2   1  -3   18.10    2.10
  -2   1   3   16.50    1.70
   2   1  -3   17.30    2.00
  -2   1   3   12.80    2.20
   2   1  -3   18.30    2.60
   2   1  -3   17.20    1.80
  -2   1   3   18.70    2.10
  -2   1   3   17.10    2.10
   2   1  -3   15.50    1.80
  -2   1   3   16.70    2.20
   2   1  -3   19.00    2.90
  -2   1   3   11.60    2.20
   2   1  -3   15.30    2.40
   1  -1  -3   32.40    2.80
   1  -1  -3   28.40    2.90
  -1  -1   3   22.40    3.10
  -1  -1   3   30.10    3.20
   1  -1  -3   33.80    3.10
  -1  -1   3   27.70    3.30
   1  -1  -3   28.60    2.40
   1  -1  -3   30.40    2.50
   1  -1  -3   31.40    2.60
   1  -1  -3   29.70    2.70
  -1  -1   3   23.80    2.40
   1   1  -3   22.50    2.80
   1   1  -3   30.70    3.50
  -1   1   3   31.00    2.70
  -1   1   3   28.70    3.20
   1   1  -3   24.90    2.80
   1   1  -3   22.60    2.50
   1   1  -3   24.60    2.60
   1   1  -3   25.20    2.50
  -1   1   3   33.00    2.80
   1   1  -3   25.00    3.00
   0  -1  -3   -0.20    1.10
   0  -1   3    0.40    0.90
   0  -1   3   -0.10    1.30
   0  -1  -3    0.30    1.60
   0  -1  -3    0.80    1.10
   0  -1   3   -0.50    0.70
   0  -1  -3    1.30    1.00
   0  -1   3   -0.70    0.80
   0  -1   3   -0.90    1.20
   0  -1   3   -0.90    1.20
   0  -1  -3    0.40    0.90
   0  -1   3    0.50    1.20
   0  -1  -3   -0.40    0.90
   0   1   3    0.40    0.60
   0   1  -3   -1.00    1.00
   0   1   3   -0.60    1.10
   0   1  -3   -0.50    0.90
   0   1   3    0.60    0.70
   0   1   3    0.40    1.20
   0   1  -3    2.10    1.40
   0   1  -3    1.20    1.50
   0   1   3    0.80    1.10
   0   1  -3   -0.50    0.90
   0   1  -3   -0.20    0.90
   0   1   3    0.30    0.40
   0   1  -3    0.60    1.00
   0   1   3    0.30    1.20
   0   1   3   -2.10    0.90
   1  -1   3  537.75   29.40
  -1  -1  -3  453.35   29.30
   1  -1   3  523.55   29.50
  -1  -1  -3  475.05   29.40
   1  -1   3  551.94   29.90
  -1  -1  -3  455.35   29.40
   1  -1   3  558.04   29.50
  -1  -1  -3  458.75   29.30
  -1  -1  -3  464.15   29.40
  -1  -1  -3  445.36   29.20
   1  -1   3  488.35   29.40
   1  -1   3  568.54   29.30
  -1  -1  -3  459.55   29.10
  -1  -1  -3  448.46   29.80
   1   1   3  434.36   29.40
  -1   1  -3  509.75   29.40
  -1   1  -3  521.15   29.50
   1   1   3  431.66   29.30
  -1   1  -3  526.45   29.50
  -1   1  -3  537.95   29.80
  -1   1  -3  551.24   29.10
   1   1   3  457.05   29.30
   1   1   3  440.76   29.60
   1   1   3  468.25   29.40
  -1   1  -3  541.05   29.50
   1   1   3  470.85   29.30
  -2  -1  -3   -0.90    1.20
  -2  -1  -3    0.90    0.70
   2  -1   3   -0.20    1.30
  -2  -1  -3   -0.10    1.10
  -2  -1  -3    1.30    1.30
   2  -1   3    0.10    1.00
   2  -1   3    1.10    1.60
   2  -1   3    0.60    1.00
  -2  -1  -3    0.70    0.80
  -2  -1  -3    1.90    1.40
  -2  -1  -3    1.60    1.80
   2  -1   3    0.50    0.70
  -2  -1  -3    1.40    1.10
   2  -1   3    0.60    1.40
   2  -1   3    0.90    1.40
  -2   1  -3   -1.00    1.20
  -2   1  -3    1.30    1.50
   2   1   3    0.50    0.70
  -2   1  -3    1.40    1.50
   2   1   3   -1.60    1.00
   2   1   3   -0.10    1.20
   2   1   3    0.50    1.10
  -2   1  -3   -1.50    1.10
  -2   1  -3   -0.70    0.60
   2   1   3   -0.10    1.10
   2   1   3   -1.70    1.10
  -2   1  -3    0.10    0.90
  -2   1  -3   -0.40    1.30
   3  -1   3   91.99    6.80
  -3  -1  -3   91.39    6.40
  -3  -1  -3  102.09    6.90
   3  -1   3   95.29    6.00
  -3  -1  -3   90.49    7.10
   3  -1   3   90.09    6.50
  -3  -1  -3   97.39    6.80
   3  -1   3   92.59    6.90
  -3  -1  -3   84.69    6.70
   3  -1   3   90.99    7.10
   3  -1   3   96.09    6.70
  -3  -1  -3   97.19    6.60
  -3  -1  -3   98.89    6.70
  -3  -1  -3  100.49    5.80
  -3   1  -3   90.09    6.70
  -3   1  -3   90.39    6.70
   3   1   3   90.89    6.70
  -3   1  -3   99.59    6.00
  -3   1  -3   89.89    6.80
   3   1   3   97.89    6.90
   3   1   3   92.89    6.70
   3   1   3   91.39    6.60
   3   1   3   92.89    5.80
  -3   1  -3   96.89    6.50
   3   1   3  100.89    6.70
   3   1   3   97.19    6.60
  -3   1  -3   92.39    6.70
  -3   1  -3   98.69    6.80
  -3   1  -3   95.59    7.00
   4  -1   3   14.00    2.30
  -4  -1  -3   16.20    2.30
   4  -1   3   12.80    1.90
  -4  -1  -3   11.90    2.20
   4  -1   3   16.70    2.70
  -4  -1  -3   20.70    3.10
  -4  -1  -3   11.50    2.50
   4  -1   3   14.40    2.10
  -4  -1  -3   12.50    2.20
   4  -1   3    8.40    2.50
  -4   1  -3   14.60    2.40
   4   1   3   12.40    2.70
   4   1   3   17.50    2.60
  -4   1  -3   10.80    2.40
   4   1   3   20.60    2.60
   4   1   3   12.00    2.10
   4   1   3   19.40    2.40
  -4   1  -3   15.40    1.70
  -4   1  -3   12.30    2.10
  -4   1  -3   15.80    2.40
   4   1   3   13.50    2.40
  -4   1  -3   15.70    2.70
   4   1   3   11.40    2.00
   5  -1   3  205.68   13.70
  -5  -1  -3  207.78   13.40
   5  -1   3  211.38   13.80
  -5  -1  -3  196.88   13.40
   5  -1   3  205.28   13.20
   5  -1   3  201.58   12.60
  -5  -1  -3  197.48   13.90
   5  -1   3  213.78   13.30
   5  -1   3  210.08   13.50
  -5  -1  -3  216.58   13.10
  -5  -1  -3  226.68   13.70
  -5   1  -3  207.68   13.60
  -5   1  -3  195.18   13.80
   5   1   3  193.78   13.40
   5   1   3  210.18   13.30
  -5   1  -3  209.58   13.30
  -5   1  -3  211.98   13.30
  -5   1  -3  212.58   12.70
   5   1   3  204.08   13.50
   5   1   3  199.98   13.90
   5   1   3  194.68   13.30
  -5   1  -3  202.18   13.70
   5   1   3  215.28   13.70
  -5   1  -3  208.08   13.20
   5   1   3  206.88   13.20
  -5   1  -3  193.28   13.30
  -6  -1  -3   44.60    5.30
   6  -1   3   44.00    5.20
  -6  -1  -3   44.50    4.10
  -6  -1  -3   42.00    4.30
  -6  -1  -3   44.30    4.60
   6  -1   3   51.49    4.70
   6  -1   3   45.80    3.80
   6  -1   3   47.10    4.70
   6  -1   3   41.20    4.90
  -6  -1  -3   48.90    4.60
  -6  -1  -3   43.50    5.30
   6  -1   3   46.90    4.30
  -6   1  -3   47.90    3.80
   6   1   3   49.20    4.80
  -6   1  -3   40.40    4.50
   6   1   3   40.20    4.80
   6   1   3   35.80    5.00
  -6   1  -3   50.19    4.60
  -6   1  -3   44.30    4.50
   6   1   3   47.30    5.00
   6   1   3   43.00    4.30
   6   1   3   38.10    4.60
  -6   1  -3   45.90    4.90
  -6   1  -3   52.79    5.70
  -6   1  -3   51.09    5.30
  -6   1  -3   38.70    4.30
   6   1   3   45.90    4.60
   7  -1   3   99.19    7.70
  -7  -1  -3  102.49    7.90
   7  -1   3  100.29    8.20
  -7  -1  -3   90.89    8.70
  -7  -1  -3  107.49    8.90
   7  -1   3  109.89    8.60
   7  -1   3  110.19    8.50
  -7  -1  -3  102.79    7.40
   7  -1   3   93.39    6.90
   7   1   3   97.09    8.50
  -7   1  -3  102.19    8.60
  -7   1  -3   94.19    7.90
   7   1   3   97.79    7.60
  -7   1  -3   98.89    7.30
   7   1   3  106.99    8.20
  -7   1  -3  113.79    7.80
   7   1   3  102.89    8.20
  -7   1  -3  104.59    7.90
   8  -1   3   45.80    4.20
   8  -1   3   52.89    5.80
  -8  -1  -3   42.80    5.90
   8  -1   3   48.20    5.80
  -8  -1  -3   44.90    5.00
  -8  -1  -3   34.00    4.80
  -8  -1  -3   41.90    5.10
   8  -1   3   39.00    6.10
  -8  -1  -3   36.50    5.20
   8  -1   3   47.10    5.30
   8  -1   3   48.00    5.60
   8   1   3   44.00    5.10
   8   1   3   36.20    4.90
   8   1   3   51.19    5.90
  -8   1  -3   40.10    5.50
   8   1   3   42.40    5.60
  -8   1  -3   38.90    5.80
   8   1   3   22.20    5.10
  -8   1  -3   48.60    6.10
  -8   1  -3   47.80    5.30
  -8   1  -3   39.50    4.70
  -9  -1  -3   15.70    3.40
  -9  -1  -3   13.70    4.30
  -9  -1  -3   11.90    4.00
   9  -1   3   17.20    3.50
   9  -1   3   18.20    2.80
   9  -1   3   14.10    3.50
   9  -1   3   24.50    3.80
   9  -1   3   19.90    4.00
  -9  -1  -3   24.50    3.70
   9  -1   3   28.50    5.30
   9   1   3   19.80    3.50
  -9   1  -3   20.00    4.70
   9   1   3   15.10    4.70
   9   1   3   13.90    3.60
  -9   1  -3   17.60    4.80
   9   1   3   14.30    3.30
  -9   1  -3   16.50    3.40
  -9   1  -3   14.60    3.80
  -9   1  -3   14.20    3.30
   9   1   3    9.70    4.00
  10  -1   3   33.20    6.30
  10  -1   3   30.00    4.50
 -10  -1  -3   16.30    4.00
  10  -1   3   24.90    4.80
  10  -1   3   25.90    3.80
 -10  -1  -3   22.50    5.90
  10   1   3   23.40    4.50
  10   1   3   33.60    6.00
 -10   1  -3   26.70    4.70
  10   1   3   26.50    4.20
 -10   1  -3   22.70    5.60
  10   1   3   32.30    6.60
  11  -1   3    8.80    4.60
 -11  -1  -3    9.40    3.40
  11  -1   3    8.10    6.60
 -11  -1  -3   10.80    5.50
  11   1   3    9.60    6.20
 -11   1  -3    7.10    3.90
  11   1   3    0.50    3.50
 -11   1  -3    5.50    5.20
  11   1   3   -1.20    5.80
  11  -2  -3    1.90    2.40
 -11  -2   3    7.00    2.70
  11  -2  -3    2.20    2.20
  11  -2  -3    2.00    6.00
 -11  -2   3   -4.30    4.80
 -11  -2   3   -0.60    3.40
  11   2  -3    9.50    6.40
  11   2  -3    4.50    2.30
  11   2  -3   10.20    5.90
 -11   2   3    8.00    3.40
 -11   2   3    5.10    7.60
  11   2  -3    4.60    2.00
 -11   2   3    3.60    4.90
 -11   2   3    1.70    6.40
 -10  -2   3    1.10    2.30
  10  -2  -3   -0.20    2.10
 -10  -2   3    1.40    4.20
  10  -2  -3   -1.80    2.40
 -10  -2   3    2.00    2.90
  10  -2  -3    1.40    5.00
  10   2  -3    0.40    4.60
 -10   2   3   -0.20    5.70
 -10   2   3   -0.10    3.50
  10   2  -3   -4.20    2.60
  10   2  -3    4.40    4.70
  10   2  -3    6.20    2.00
 -10   2   3    3.80    2.90
  10   2  -3    8.80    5.40
 -10   2   3    1.00    4.10
   9  -2  -3   97.49    7.60
   9  -2  -3   96.99    7.40
  -9  -2   3  102.59    9.00
  -9  -2   3   89.99    7.60
   9  -2  -3   98.59    8.80
   9  -2  -3   93.09    6.90
  -9  -2   3   81.59    7.20
  -9   2   3   80.29   14.90
  -9   2   3   89.29    8.50
  -9   2   3   98.19    9.30
   9   2  -3   91.79    6.70
   9   2  -3   88.69   10.10
   9   2  -3   96.59    9.70
   9   2  -3  102.19    7.30
   9   2  -3  100.89    9.50
  -9   2   3   90.99    7.70
   9   2  -3   91.39   10.10
  -8  -2   3   76.39    6.70
  -8  -2   3   72.99    6.60
  -8  -2   3   76.89    7.60
   8  -2  -3   76.39    6.40
   8  -2  -3   83.69    7.20
   8  -2  -3   78.39    6.40
   8  -2  -3   77.99    8.50
   8  -2  -3   85.79    6.30
   8  -2  -3   78.99    6.40
  -8   2   3   78.29    6.80
  -8   2   3   85.69    8.20
   8   2  -3   78.29    8.50
   8   2  -3   76.89    6.40
   8   2  -3   73.09    8.00
   8   2  -3   89.09    8.30
  -8   2   3   81.69    9.80
   8   2  -3   71.89    8.50
  -8   2   3   79.99    7.70
   8   2  -3   77.79    5.90
   7  -2  -3   10.00    2.10
  -7  -2   3    8.60    1.30
  -7  -2   3    6.80    4.10
   7  -2  -3   13.10    2.20
  -7  -2   3    9.50    3.50
   7  -2  -3    8.30    2.90
   7  -2  -3    7.00    4.30
  -7  -2   3    8.00    2.40
  -7  -2   3    8.70    2.40
   7  -2  -3    9.40    2.40
   7  -2  -3   12.70    2.60
   7  -2  -3   10.60    2.20
   7   2  -3    8.30    2.30
   7   2  -3    7.60    3.80
  -7   2   3   12.70    4.10
  -7   2   3   11.20    1.80
  -7   2   3   10.20    3.40
   7   2  -3    8.50    3.10
  -7   2   3    7.50    2.50
   7   2  -3   19.00    4.30
  -7   2   3   11.50    3.20
   6  -2  -3  385.86   21.80
   6  -2  -3  363.96   22.80
  -6  -2   3  347.57   22.50
   6  -2  -3  352.56   23.90
  -6  -2   3  387.96   24.10
  -6  -2   3  375.56   21.90
  -6  -2   3  360.66   22.80
   6  -2  -3  347.57   21.70
   6  -2  -3  371.96   22.50
  -6  -2   3  381.86   23.60
   6  -2  -3  366.66   22.40
  -6  -2   3  342.37   21.90
   6  -2  -3  374.26   22.50
  -6  -2   3  372.16   22.90
  -6   2   3  359.26   22.60
   6   2  -3  342.37   24.30
   6   2  -3  370.86   21.60
   6   2  -3  364.66   22.30
  -6   2   3  366.66   22.00
   6   2  -3  360.96   24.40
   6   2  -3  389.76   23.70
  -6   2   3  349.17   23.30
   6   2  -3  364.46   22.50
  -6   2   3  368.26   22.60
  -6   2   3  371.86   24.10
  -6   2   3  340.77   22.10
   6   2  -3  358.96   21.60
   6   2  -3  374.66   23.50
  -6   2   3  352.26   23.20
  -5  -2   3    7.50    2.60
   5  -2  -3    8.40    1.60
  -5  -2   3    8.10    1.60
   5  -2  -3    5.60    1.70
   5  -2  -3   10.50    3.20
   5  -2  -3    8.70    2.10
   5  -2  -3    6.00    2.20
   5  -2  -3    9.10    1.80
  -5  -2   3   11.70    3.60
  -5  -2   3   10.90    2.30
  -5  -2   3   11.10    2.50
  -5  -2   3    7.50    2.30
  -5   2   3    9.10    2.80
   5   2  -3    7.10    2.70
   5   2  -3    8.80    2.80
   5   2  -3    8.50    1.90
   5   2  -3    6.60    2.30
   5   2  -3    5.70    1.40
   5   2  -3    2.30    3.60
   5   2  -3    7.40    1.80
  -5   2   3    9.50    2.00
  -5   2   3    8.50    2.70
  -5   2   3   10.00    1.70
  -5   2   3    7.10    3.00
  -5   2   3    9.10    2.30
   5   2  -3   12.60    4.50
  -5   2   3   11.80    2.40
   4  -2  -3  155.38   11.70
   4  -2  -3  162.38   10.60
  -4  -2   3  164.48   10.60
   4  -2  -3  165.08   10.80
  -4  -2   3  153.88   11.50
   4  -2  -3  154.28   10.70
  -4  -2   3  153.28   11.10
  -4  -2   3  167.18   11.90
  -4  -2   3  155.38   10.50
   4  -2  -3  160.18   10.50
  -4  -2   3  161.18   10.40
  -4  -2   3  168.78   10.60
   4  -2  -3  164.78   10.30
   4  -2  -3  185.98   10.30
   4   2  -3  156.68   12.10
   4   2  -3  153.18   10.60
  -4   2   3  180.78   10.10
   4   2  -3  155.08   10.70
  -4   2   3  163.88   10.40
   4   2  -3  153.48   10.50
   4   2  -3  160.28   11.30
   4   2  -3  161.68   10.40
  -4   2   3  145.79   11.00
  -4   2   3  163.48   10.60
   4   2  -3  165.98   11.60
   4   2  -3  153.28   12.10
  -4   2   3  153.58   10.70
  -4   2   3  189.88   12.10
  -3  -2   3  126.89    8.40
  -3  -2   3  123.49    8.30
   3  -2  -3  123.89    8.00
   3  -2  -3  121.09    9.20
  -3  -2   3  122.79    8.30
   3  -2  -3  113.19    7.70
  -3  -2   3  122.29    8.90
  -3  -2   3  124.59    9.20
  -3  -2   3  120.49    8.20
   3  -2  -3  123.99    8.40
   3  -2  -3  115.29    8.40
   3  -2  -3  115.29    9.00
  -3  -2   3  130.09    9.50
   3  -2  -3  122.59    8.30
   3  -2  -3  121.49    8.40
   3   2  -3  114.89    9.30
   3   2  -3  128.69    8.80
  -3   2   3  129.99    9.00
  -3   2   3  118.99    8.40
   3   2  -3  120.69    8.40
  -3   2   3  118.19    8.10
   3   2  -3  128.39    8.60
  -3   2   3  127.29    8.20
  -3   2   3  121.49    8.80
   3   2  -3  134.79    9.50
  -3   2   3  121.29    7.60
   3   2  -3  125.89    9.40
  -3   2   3  125.89    8.50
   3   2  -3  123.39    8.30
  -3   2   3  119.09    9.00
   3   2  -3  119.29    8.40
   2  -2  -3 2223.98  120.19
  -2  -2   3 1888.61  119.79
   2  -2  -3 2144.59  119.69
   2  -2  -3 2275.07  120.09
  -2  -2   3 1911.61  120.49
   2  -2  -3 2219.48  120.69
   2  -2  -3 2148.39  119.29
   2  -2  -3 2255.17  120.19
  -2  -2   3 1868.21  120.29
   2  -2  -3 2126.39  120.29
   2  -2  -3 2253.97  120.09
  -2  -2   3 1816.22  120.39
   2   2  -3 1901.71  120.39
  -2   2   3 2194.58  120.19
   2   2  -3 1779.52  119.89
   2   2  -3 1973.00  120.29
   2   2  -3 1923.61  120.19
  -2   2   3 2126.79  119.69
   2   2  -3 1881.11  120.59
   2   2  -3 1888.41  120.29
  -2   2   3 2226.98  120.19
   2   2  -3 1794.92  119.89
  -2   2   3 2104.79  119.19
  -2   2   3 2219.28  120.69
   2   2  -3 1862.11  119.89
   1  -2  -3    2.40    1.70
   1  -2  -3    0.80    1.40
   1  -2  -3    0.40    1.30
   1  -2  -3    1.40    1.20
   1  -2  -3    0.80    1.90
  -1  -2   3    1.80    1.20
  -1  -2   3    1.70    1.60
  -1  -2   3    2.90    2.10
  -1  -2   3    1.50    1.40
  -1  -2   3   -0.50    1.90
   1  -2  -3    1.60    1.70
   1  -2  -3    0.80    1.40
  -1  -2   3    1.50    1.90
   1  -2  -3    1.20    0.80
   1   2  -3   -2.70    2.20
   1   2  -3    0.10    2.10
   1   2  -3    2.30    2.00
   1   2  -3    2.70    1.50
  -1   2   3    1.90    1.60
  -1   2   3    2.10    1.40
   1   2  -3    0.50    2.00
  -1   2   3    1.90    1.00
  -1   2   3    3.00    1.80
  -1   2   3    2.30    0.80
  -1   2   3    3.10    1.60
  -1   2   3    0.90    1.70
   1   2  -3   -1.00    1.50
   1   2  -3    2.30    1.40
   1   2  -3    2.50    1.60
   0  -2   3    9.70    1.90
   0  -2  -3    7.40    2.00
   0  -2  -3    7.20    1.30
   0  -2   3   11.90    2.00
   0  -2  -3    6.60    1.90
   0  -2   3    6.90    2.20
   0  -2  -3   11.90    2.10
   0  -2   3    9.90    2.00
   0  -2   3   15.50    2.70
   0  -2  -3    7.90    2.10
   0  -2   3    7.50    2.30
   0  -2   3   10.30    2.80
   0  -2  -3    9.60    2.20
   0   2   3   14.20    2.60
   0   2  -3   10.00    1.80
   0   2  -3    7.60    1.90
   0   2   3    8.30    2.10
   0   2   3    6.20    1.50
   0   2  -3    6.10    1.90
   0   2  -3    5.80    2.30
   0   2   3   10.90    2.30
   0   2  -3   10.70    2.20
   0   2   3    7.20    1.80
   0   2  -3    7.90    1.90
   1  -2   3    2.60    1.50
  -1  -2  -3    2.10    1.70
  -1  -2  -3    1.60    1.60
   1  -2   3   -2.50    2.30
   1  -2   3    0.50    2.10
   1  -2   3    1.60    1.40
  -1  -2  -3    2.90    1.40
  -1  -2  -3    2.40    1.50
  -1  -2  -3   -1.30    1.90
  -1  -2  -3    2.40    1.90
   1  -2   3    0.40    1.60
  -1  -2  -3    3.90    1.50
  -1  -2  -3    0.00    1.70
   1   2   3    1.10    1.50
  -1   2  -3    1.20    1.20
   1   2   3    5.10    1.80
  -1   2  -3    4.90    1.50
  -1   2  -3   -0.30    1.80
   1   2   3    0.30    1.40
  -1   2  -3   -1.40    1.90
   1   2   3    1.70    1.90
  -1   2  -3    2.70    1.90
   1   2   3    0.00    1.50
  -1   2  -3    2.90    2.80
  -1   2  -3    1.60    1.30
   1   2   3    0.80    1.50
  -1   2  -3    5.20    2.00
  -2  -2  -3 1565.34  100.39
   2  -2   3 1872.31  101.29
  -2  -2  -3 1630.74  100.59
   2  -2   3 1915.51  100.69
  -2  -2  -3 1553.44  100.59
   2  -2   3 1840.82  100.49
  -2  -2  -3 1555.44  100.39
  -2  -2  -3 1548.45  100.39
   2  -2   3 1721.13  100.59
   2  -2   3 1857.91  100.79
  -2  -2  -3 1550.74  100.29
   2   2   3 1589.44  100.39
  -2   2  -3 1902.81  100.29
  -2   2  -3 1820.92  100.69
  -2   2  -3 1763.72  100.49
  -2   2  -3 1814.22   99.79
  -2   2  -3 1908.81   99.79
  -2   2  -3 1860.61  100.89
   2   2   3 1520.15  100.29
   2   2   3 1581.44  100.49
   2   2   3 1513.25  100.49
  -2   2  -3 1819.92  101.09
   2   2   3 1535.35  100.39
  -2   2  -3 1929.91  101.19
  -2   2  -3 1765.92  100.69
   2   2   3 1575.04  100.79
   2   2   3 1507.75   99.99
  -3  -2  -3    2.30    1.40
   3  -2   3    3.80    1.80
  -3  -2  -3    4.40    1.80
  -3  -2  -3    2.30    2.00
   3  -2   3    6.40    2.20
  -3  -2  -3    9.70    2.90
  -3  -2  -3    3.70    2.30
   3  -2   3    5.50    1.80
   3  -2   3    2.90    2.90
  -3  -2  -3    6.40    2.20
   3  -2   3    5.90    2.10
  -3  -2  -3    8.70    2.00
   3  -2   3    5.70    2.40
   3   2   3    4.40    2.50
  -3   2  -3    5.90    0.80
   3   2   3    5.00    1.80
  -3   2  -3    4.20    2.00
  -3   2  -3    4.90    2.00
  -3   2  -3    3.70    2.10
  -3   2  -3    2.00    1.30
   3   2   3    7.40    2.00
  -3   2  -3    4.70    2.00
  -3   2  -3    0.20    1.90
   3   2   3    2.00    1.80
   3   2   3    4.60    1.80
   3   2   3    5.70    2.40
   3   2   3    6.50    1.80
   3   2   3    3.50    2.30
  -3   2  -3    5.30    2.00
  -4  -2  -3  546.45   35.20
  -4  -2  -3  571.14   35.70
  -4  -2  -3  593.44   35.90
   4  -2   3  560.94   35.30
   4  -2   3  631.34   35.40
   4  -2   3  567.14   36.00
  -4  -2  -3  572.44   35.60
  -4  -2  -3  586.74   35.60
  -4  -2  -3  583.74   35.60
  -4  -2  -3  575.34   34.80
   4  -2   3  665.93   35.80
   4  -2   3  553.34   35.50
  -4   2  -3  560.74   35.90
  -4   2  -3  623.14   35.40
   4   2   3  580.74   35.50
  -4   2  -3  626.44   35.50
   4   2   3  561.74   34.80
   4   2   3  606.14   35.90
   4   2   3  584.34   35.30
  -4   2  -3  581.84   35.50
   4   2   3  572.94   35.50
  -4   2  -3  588.44   35.50
   4   2   3  567.54   35.30
  -4   2  -3  553.54   35.70
   4   2   3  582.34   35.50
  -4   2  -3  566.94   35.50
  -5  -2  -3   38.30    4.60
   5  -2   3   34.20    4.40
  -5  -2  -3   23.80    3.20
   5  -2   3   28.00    3.60
   5  -2   3   25.00    4.00
  -5  -2  -3   26.90    3.40
  -5  -2  -3   26.90    4.20
  -5  -2  -3   32.90    2.80
  -5  -2  -3   27.00    3.80
   5  -2   3   31.30    4.10
   5  -2   3   24.00    3.80
   5   2   3   27.60    4.10
   5   2   3   33.60    4.00
  -5   2  -3   33.20    3.90
  -5   2  -3   32.90    4.60
  -5   2  -3   25.50    3.90
   5   2   3   29.90    3.80
   5   2   3   29.90    4.10
   5   2   3   25.10    2.90
   5   2   3   30.10    3.80
  -5   2  -3   33.60    3.90
  -5   2  -3   24.30    3.90
  -5   2  -3   31.00    3.80
  -5   2  -3   36.40    4.40
   5   2   3   35.80    4.20
   5   2   3   23.20    4.40
  -6  -2  -3  164.28   11.60
  -6  -2  -3  147.09   11.30
  -6  -2  -3  175.38   11.10
   6  -2   3  169.48   12.30
   6  -2   3  164.08   12.00
  -6  -2  -3  152.08   12.50
   6  -2   3  176.88   12.10
  -6  -2  -3  158.28   12.20
   6  -2   3  158.08   12.10
  -6  -2  -3  161.88   11.70
   6  -2   3  165.98   11.20
   6   2   3  164.78   11.40
  -6   2  -3  157.78   11.70
   6   2   3  162.58   10.10
  -6   2  -3  161.88   11.80
   6   2   3  161.98   11.70
   6   2   3  151.08   13.20
  -6   2  -3  172.78   11.70
  -6   2  -3  159.68   11.50
  -6   2  -3  181.48   13.70
   6   2   3  166.28   11.40
   6   2   3  182.18   14.50
  -6   2  -3  159.58   11.90
  -6   2  -3  168.28   11.90
   6   2   3  162.88   10.20
   6   2   3  162.08   11.80
   6   2   3  172.98   11.60
   7  -2   3   27.40    3.90
   7  -2   3   32.20    4.80
  -7  -2  -3   35.60    4.50
   7  -2   3   32.70    4.80
  -7  -2  -3   29.50    4.70
   7  -2   3   25.40    4.50
  -7  -2  -3   34.10    4.30
  -7  -2  -3   20.30    3.40
  -7   2  -3   22.40    4.60
   7   2   3   32.90    5.10
  -7   2  -3   32.30    4.60
  -7   2  -3   30.90    5.00
   7   2   3   27.30    3.70
   7   2   3   27.60    4.00
   7   2   3   29.30    4.80
  -7   2  -3   40.20    4.90
  -7   2  -3   31.80    4.40
   7   2   3   31.90    4.40
   8  -2   3   -3.10    4.10
  -8  -2  -3    7.80    3.00
   8  -2   3   11.20    4.60
  -8  -2  -3    9.60    4.60
  -8  -2  -3    4.40    3.20
  -8  -2  -3    7.20    5.60
   8  -2   3   13.70    3.20
   8  -2   3    6.30    3.60
   8  -2   3    7.90    4.00
   8   2   3   14.10    3.50
  -8   2  -3    7.10    3.30
  -8   2  -3    8.70    3.60
   8   2   3    7.50    2.90
   8   2   3   10.40    4.00
  -8   2  -3   12.80    4.40
  -8   2  -3    6.30    3.90
   8   2   3   12.00    3.70
  -9  -2  -3   70.19    7.50
   9  -2   3   71.89    9.20
   9  -2   3   70.29    8.10
  -9  -2  -3   71.99    8.90
   9  -2   3   77.59    8.00
  -9  -2  -3   67.49    8.30
  -9   2  -3   80.99    8.00
   9   2   3   83.59    9.30
   9   2   3   67.59    7.10
  -9   2  -3   81.39    8.70
  -9   2  -3   67.19    8.40
   9   2   3   86.19    8.90
   9   2   3   77.69    8.70
  10  -2   3    6.50    4.40
 -10  -2  -3    1.60    4.50
 -10  -2  -3   -1.80    3.50
  10  -2   3    0.40    5.90
 -10   2  -3    8.90    4.80
 -10   2  -3   -2.10    4.60
 -10   2  -3   -0.50    3.90
  10   2   3   -5.00    5.00
  10   2   3    3.80    3.40
  10   2   3   -3.00    4.70
  11  -2   3   49.50    7.20
 -11  -2  -3   31.80    5.50
  11  -2   3   48.80    9.10
 -11   2  -3   41.70    6.40
  11   2   3   50.39    6.10
  11   2   3   55.19    8.50
 -11   2  -3   41.20    8.20
  11   2   3   44.80    7.90
 -10  -3   3    9.30    5.00
 -10  -3   3   10.70    3.60
  10  -3  -3   10.20    4.00
  10  -3  -3   12.40    5.60
  10   3  -3    6.10    5.80
 -10   3   3   13.30    4.10
  10   3  -3   20.30    4.30
 -10   3   3    7.60    7.00
  10   3  -3   -2.50    6.20
 -10   3   3    8.50    5.50
  10   3  -3   15.80    6.70
  10   3  -3   10.70    3.20
   9  -3  -3  197.08   14.90
   9  -3  -3  216.88   14.10
   9  -3  -3  208.48   14.40
  -9  -3   3  197.18   14.70
  -9  -3   3  205.78   15.00
  -9   3   3  199.18   18.70
  -9   3   3  199.18   15.90
   9   3  -3  210.98   16.60
   9   3  -3  196.98   13.60
   9   3  -3  212.08   14.40
  -9   3   3  184.68   14.60
  -9   3   3  197.88   17.80
   9   3  -3  193.58   16.30
   8  -3  -3   27.50    4.00
  -8  -3   3   24.90    4.50
   8  -3  -3   16.20    4.80
   8  -3  -3   13.50    3.90
   8  -3  -3   21.00    3.90
  -8  -3   3   18.10    6.10
  -8  -3   3   17.80    4.40
  -8  -3   3   15.20    3.70
  -8  -3   3   10.30    2.50
  -8   3   3   14.20    6.10
   8   3  -3   19.70    7.20
   8   3  -3   17.40    4.00
  -8   3   3   13.30    4.30
  -8   3   3   16.80    5.40
   8   3  -3   25.10    5.90
  -8   3   3   23.30    4.20
   8   3  -3   12.50    5.40
  -7  -3   3  149.59   11.30
   7  -3  -3  136.99   10.80
  -7  -3   3  145.69   11.10
  -7  -3   3  141.59   10.00
  -7  -3   3  147.89   12.30
   7  -3  -3  134.29   10.50
  -7  -3   3  155.08   13.30
   7  -3  -3  148.39    9.30
  -7  -3   3  146.69   11.30
   7  -3  -3  146.49   10.90
   7  -3  -3  139.29    9.60
   7   3  -3  149.88   12.30
   7   3  -3  150.18    9.80
  -7   3   3  154.08   13.40
   7   3  -3  142.09   10.40
   7   3  -3  139.29   12.50
  -7   3   3  156.48   10.40
   7   3  -3  140.09   10.90
  -7   3   3  142.79   10.70
  -7   3   3  145.29   11.10
  -7   3   3  130.39   11.60
   6  -3  -3  190.28   13.50
  -6  -3   3  201.48   13.00
   6  -3  -3  196.98   13.20
   6  -3  -3  197.58   12.20
  -6  -3   3  195.78   13.60
   6  -3  -3  195.28   13.60
  -6  -3   3  197.48   14.60
   6  -3  -3  175.98   12.80
  -6  -3   3  193.78   14.80
  -6  -3   3  196.18   14.10
  -6  -3   3  200.98   13.70
  -6   3   3  190.78   14.80
  -6   3   3  194.98   12.90
   6   3  -3  202.88   12.80
  -6   3   3  181.88   13.80
   6   3  -3  180.28   13.80
  -6   3   3  205.58   15.30
   6   3  -3  170.78   14.80
  -6   3   3  201.08   13.80
  -6   3   3  204.88   12.70
   6   3  -3  200.88   14.50
   6   3  -3  190.68   13.20
  -5  -3   3  499.05   31.90
  -5  -3   3  514.65   33.00
  -5  -3   3  479.05   32.00
  -5  -3   3  512.45   31.80
   5  -3  -3  579.74   32.30
   5  -3  -3  489.35   32.10
   5  -3  -3  569.14   31.50
  -5  -3   3  498.65   32.60
  -5  -3   3  489.45   33.20
   5  -3  -3  500.45   31.10
   5  -3  -3  496.65   32.00
  -5   3   3  580.54   31.40
   5   3  -3  480.05   32.50
  -5   3   3  534.95   31.80
  -5   3   3  615.84   33.30
   5   3  -3  486.45   31.90
  -5   3   3  482.65   32.40
   5   3  -3  478.75   32.10
  -5   3   3  592.84   31.30
  -5   3   3  514.75   33.30
   5   3  -3  515.85   31.70
  -5   3   3  521.65   32.30
   4  -3  -3   37.70    4.60
   4  -3  -3   44.60    4.30
  -4  -3   3   38.80    5.00
   4  -3  -3   33.70    3.60
  -4  -3   3   39.10    4.50
   4  -3  -3   40.40    4.90
  -4  -3   3   45.50    5.00
   4  -3  -3   39.10    5.00
  -4  -3   3   33.30    4.90
  -4  -3   3   45.00    6.00
  -4  -3   3   38.50    4.50
   4  -3  -3   30.70    4.60
  -4  -3   3   39.30    5.20
   4  -3  -3   26.60    4.80
   4  -3  -3   39.10    4.70
   4   3  -3   33.30    4.80
   4   3  -3   34.00    4.40
   4   3  -3   43.30    4.50
  -4   3   3   42.30    3.90
  -4   3   3   46.50    3.70
   4   3  -3   39.40    6.30
   4   3  -3   35.80    5.80
  -4   3   3   41.50    4.40
   4   3  -3   29.10    4.40
  -4   3   3   35.40    4.70
  -4   3   3   46.20    5.90
   4   3  -3   39.90    4.50
  -4   3   3   41.10    5.00
   3  -3  -3   14.20    2.90
  -3  -3   3   15.10    3.50
   3  -3  -3   15.00    2.20
  -3  -3   3   15.10    3.90
  -3  -3   3   14.70    2.80
  -3  -3   3   11.70    3.70
   3  -3  -3   14.00    3.40
   3  -3  -3   13.10    2.80
   3  -3  -3   11.60    3.30
   3  -3  -3   11.00    3.10
  -3  -3   3    7.30    2.20
  -3  -3   3   12.60    3.10
   3  -3  -3   16.30    2.90
  -3  -3   3    6.20    2.50
   3   3  -3    9.40    2.20
  -3   3   3   14.90    2.20
   3   3  -3    4.90    3.80
   3   3  -3   11.80    2.40
  -3   3   3   14.10    1.70
   3   3  -3    8.90    4.20
  -3   3   3   13.80    3.50
  -3   3   3   17.50    3.20
   3   3  -3   10.00    3.30
  -3   3   3   12.70    2.70
   3   3  -3   10.60    2.90
   3   3  -3    9.60    2.90
  -3   3   3    9.80    3.40
   2  -3  -3   23.40    3.00
  -2  -3   3   20.90    3.20
  -2  -3   3   27.20    3.30
  -2  -3   3   39.10    5.20
   2  -3  -3   28.20    4.30
   2  -3  -3   22.60    3.30
   2  -3  -3   27.10    3.90
  -2  -3   3   19.40    4.00
   2  -3  -3   26.10    2.80
  -2  -3   3   24.50    3.60
   2  -3  -3   17.50    3.00
  -2  -3   3   25.80    3.70
  -2  -3   3   30.10    4.70
   2  -3  -3   19.40    3.20
  -2   3   3   21.60    3.30
  -2   3   3   18.00    4.10
   2   3  -3   24.10    3.40
   2   3  -3   21.90    3.60
  -2   3   3   18.80    3.90
   2   3  -3   21.50    3.50
   2   3  -3   18.30    4.10
  -2   3   3   24.40    2.80
  -2   3   3   21.50    3.50
   2   3  -3   27.40    4.60
   2   3  -3   25.80    3.50
  -2   3   3   26.20    3.30
   2   3  -3   30.00    4.50
  -2   3   3   19.20    2.50
  -1  -3   3  501.65   32.40
  -1  -3   3  527.35   32.50
  -1  -3   3  522.35   33.20
  -1  -3   3  553.44   32.90
   1  -3  -3  552.54   32.60
   1  -3  -3  548.15   32.50
  -1  -3   3  518.35   31.70
   1  -3  -3  540.35   32.50
   1  -3  -3  527.85   31.90
   1  -3  -3  508.45   32.90
   1  -3  -3  511.65   32.70
   1  -3  -3  518.05   32.50
  -1  -3   3  549.15   32.40
   1  -3  -3  469.65   32.70
  -1  -3   3  533.45   33.20
  -1   3   3  526.95   31.80
   1   3  -3  545.35   32.60
   1   3  -3  511.15   32.40
   1   3  -3  522.05   32.50
  -1   3   3  535.15   33.00
   1   3  -3  524.65   32.10
  -1   3   3  558.64   33.30
  -1   3   3  532.65   32.60
   1   3  -3  527.55   32.40
  -1   3   3  507.85   32.90
  -1   3   3  530.15   32.50
   1   3  -3  521.05   33.00
  -1   3   3  529.45   31.50
   1   3  -3  533.85   32.70
   0  -3   3   11.40    2.60
   0  -3   3    4.80    3.50
   0  -3  -3    8.90    2.20
   0  -3  -3   14.20    3.10
   0  -3   3   10.90    3.10
   0  -3   3   10.60    2.60
   0  -3  -3   13.90    2.90
   0  -3  -3   10.40    2.90
   0  -3  -3    7.80    2.70
   0  -3   3   11.80    3.60
   0  -3   3   10.00    2.30
   0  -3   3    7.70    3.00
   0  -3  -3   10.80    2.80
   0  -3  -3    9.90    2.50
   0  -3  -3    9.70    3.00
   0   3   3    9.30    3.00
   0   3  -3   15.20    3.90
   0   3   3    6.50    2.00
   0   3  -3    8.60    2.60
   0   3  -3   12.40    2.80
   0   3  -3   10.00    3.10
   0   3  -3    8.50    2.60
   0   3   3    4.90    3.00
   0   3  -3   14.40    3.30
   0   3   3   13.10    2.40
   0   3  -3   13.50    2.40
   0   3   3    7.50    2.60
   0   3   3    7.50    2.50
   0   3   3   12.70    2.90
   1  -3   3  727.03   44.30
  -1  -3  -3  704.43   43.80
   1  -3   3  716.43   43.40
   1  -3   3  758.92   42.90
   1  -3   3  711.13   43.50
  -1  -3  -3  729.83   43.20
  -1  -3  -3  735.13   43.00
   1  -3   3  748.93   43.60
  -1  -3  -3  689.23   43.40
  -1  -3  -3  689.53   43.40
  -1  -3  -3  705.03   43.70
   1  -3   3  757.22   44.60
  -1  -3  -3  732.73   43.50
   1  -3   3  728.93   43.70
  -1  -3  -3  712.93   43.60
  -1   3  -3  716.43   43.60
   1   3   3  702.43   43.30
  -1   3  -3  756.62   43.40
   1   3   3  691.93   42.90
  -1   3  -3  685.33   43.40
  -1   3  -3  655.33   43.30
  -1   3  -3  705.93   44.20
   1   3   3  725.43   44.10
   1   3   3  711.93   43.10
  -1   3  -3  672.53   43.50
   1   3   3  727.83   43.60
  -1   3  -3  708.13   42.60
   1   3   3  717.83   43.60
  -1   3  -3  724.63   44.10
  -2  -3  -3   78.39    8.70
  -2  -3  -3   83.79    7.60
  -2  -3  -3   95.59    7.50
  -2  -3  -3   95.59    8.00
   2  -3   3   83.89    7.60
   2  -3   3   93.19    9.10
   2  -3   3  100.79    7.60
   2  -3   3   98.59    7.60
   2  -3   3   99.59    8.00
  -2  -3  -3   92.39    7.80
  -2  -3  -3   91.59    7.20
  -2   3  -3  111.69    8.90
  -2   3  -3   97.49    6.50
  -2   3  -3   89.39    7.80
  -2   3  -3   87.99    7.90
   2   3   3   63.69    8.80
   2   3   3  100.99    8.60
  -2   3  -3   91.59    7.70
   2   3   3  103.79    7.40
   2   3   3   91.59    7.90
  -2   3  -3   86.79    7.00
   2   3   3   89.69    7.40
  -2   3  -3   90.69    8.20
   2   3   3   96.89    7.40
   2   3   3   82.99    7.60
  -2   3  -3   88.59    6.40
  -2   3  -3   91.89    7.60
  -3  -3  -3   47.00    5.90
   3  -3   3   46.50    9.40
  -3  -3  -3   49.99    5.90
   3  -3   3   56.59    5.40
  -3  -3  -3   57.19    6.40
  -3  -3  -3   55.79    6.30
  -3  -3  -3   45.20    5.40
  -3  -3  -3   47.50    5.30
   3  -3   3   52.89    6.10
  -3  -3  -3   43.10    5.30
   3  -3   3   59.99    6.20
   3  -3   3   50.59    5.70
  -3   3  -3   58.39    5.80
  -3   3  -3   58.69    3.70
   3   3   3   39.50    5.10
   3   3   3   43.80    5.60
  -3   3  -3   57.49    6.20
  -3   3  -3   55.29    5.50
  -3   3  -3   63.59    5.90
   3   3   3   44.00    5.40
   3   3   3   53.19    5.30
   3   3   3   54.29    6.70
   3   3   3   46.60    5.10
  -3   3  -3   59.09    7.10
  -3   3  -3   65.89    5.60
  -3   3  -3   61.49    6.10
   3   3   3   44.10    5.40
  -4  -3  -3   61.09    6.60
  -4  -3  -3   93.69    7.80
   4  -3   3   73.99    6.60
   4  -3   3   81.49    7.40
   4  -3   3   58.99    7.70
  -4  -3  -3   69.99    6.30
   4  -3   3   73.89    6.90
  -4  -3  -3   80.59    6.80
  -4  -3  -3   74.39    7.20
  -4  -3  -3   68.89    7.90
   4  -3   3   65.29    6.90
  -4   3  -3   74.29    7.10
   4   3   3   76.29    8.10
   4   3   3   73.09    6.50
   4   3   3   81.39    8.10
   4   3   3   74.79    6.40
  -4   3  -3   73.29    7.30
  -4   3  -3   67.49    6.90
  -4   3  -3   78.99    6.90
   4   3   3   70.49    6.90
   4   3   3   75.19    6.90
  -4   3  -3   79.19    6.90
   4   3   3   74.59    6.80
   4   3   3   76.29    6.40
  -4   3  -3   65.79    7.50
  -4   3  -3   76.89    7.30
  -5  -3  -3   37.30    5.60
   5  -3   3   30.70    5.10
  -5  -3  -3   33.20    4.70
   5  -3   3   30.70    4.20
   5  -3   3   34.70    6.70
  -5  -3  -3   45.10    5.80
  -5  -3  -3   35.60    4.80
  -5  -3  -3   46.20    5.80
   5  -3   3   35.00    4.80
  -5   3  -3   35.70    5.00
   5   3   3   36.50    4.40
   5   3   3   43.80    5.00
  -5   3  -3   36.90    5.80
  -5   3  -3   30.00    4.20
  -5   3  -3   52.29    6.10
   5   3   3   36.00    4.70
   5   3   3   35.40    4.70
   5   3   3   26.70    4.00
  -5   3  -3   37.60    5.40
   5   3   3   34.80    5.90
  -5   3  -3   32.80    4.90
   5   3   3   37.00    5.00
   6  -3   3   86.29    7.70
  -6  -3  -3   83.39    8.50
  -6  -3  -3   84.39    8.30
   6  -3   3   83.69    8.70
  -6  -3  -3   95.49    7.50
   6  -3   3   89.29    8.60
  -6  -3  -3   82.39    8.10
   6  -3   3   80.69    9.00
  -6  -3  -3   93.49    8.90
   6   3   3   85.89    7.90
  -6   3  -3   91.69    8.60
   6   3   3   84.49    9.00
  -6   3  -3   82.89    8.10
  -6   3  -3   92.59    9.20
   6   3   3   91.49    7.00
   6   3   3   97.49    8.20
   6   3   3   88.99    7.90
  -6   3  -3   84.19    7.90
   6   3   3  100.39    8.50
  -6   3  -3   95.39    8.80
   7  -3   3  283.47   18.60
  -7  -3  -3  264.17   16.40
  -7  -3  -3  260.17   18.20
   7  -3   3  252.37   18.50
  -7  -3  -3  264.77   18.20
  -7  -3  -3  278.17   18.50
  -7  -3  -3  253.47   17.10
   7  -3   3  257.97   17.60
   7  -3   3  272.07   19.00
   7   3   3  253.77   16.50
  -7   3  -3  244.68   18.20
   7   3   3  244.48   17.90
  -7   3  -3  264.77   18.40
   7   3   3  253.37   17.60
   7   3   3  286.47   18.70
   7   3   3  272.57   17.70
  -7   3  -3  256.87   17.70
   7   3   3  256.97   18.00
  -7   3  -3  254.57   18.40
   8  -3   3   80.79    9.20
   8  -3   3   64.39    8.00
  -8  -3  -3   65.39    8.40
  -8  -3  -3   58.99    8.10
   8  -3   3   83.39    9.00
  -8   3  -3   77.09    8.60
  -8   3  -3   75.69    9.10
   8   3   3   73.39    7.70
  -8   3  -3   67.19    8.30
   8   3   3   54.29    7.40
   8   3   3   66.49    7.90
   8   3   3   61.29    7.30
   9  -3   3   -3.00    4.40
   9  -3   3   -1.90    5.40
  -9  -3  -3    5.30    3.90
  -9  -3  -3    0.20    4.30
  -9   3  -3    8.50    4.80
  -9   3  -3    6.10    4.50
   9   3   3    2.10    3.30
   9   3   3    2.30    5.20
  -9   3  -3    3.00    5.00
   9   3   3   -2.60    4.70
 -10  -3  -3   28.00    5.40
  10  -3   3   10.80    5.30
 -10  -3  -3   26.00    6.80
  10  -3   3   16.60    7.50
 -10   3  -3   20.20    5.60
  10   3   3   21.90    6.00
 -10   3  -3   25.30    8.00
  10   3   3   11.80    4.60
  10   3   3   32.50    7.10
 -10   3  -3   20.20    7.10
  -9  -4   3  159.38   13.70
   9  -4  -3  142.09   13.00
  -9  -4   3  162.18   13.00
  -9  -4   3  146.59   16.60
   9   4  -3  164.38   12.30
   9   4  -3  154.08   15.00
   9   4  -3  151.28   15.20
  -9   4   3  157.08   13.80
  -9   4   3  183.98   17.90
   8  -4  -3  442.86   32.50
  -8  -4   3  510.95   33.90
  -8  -4   3  507.55   32.30
   8  -4  -3  504.45   31.80
  -8  -4   3  480.55   31.40
   8  -4  -3  480.35   31.10
   8   4  -3  499.05   33.00
  -8   4   3  450.85   32.20
  -8   4   3  524.55   34.40
   8   4  -3  525.45   31.20
  -8   4   3  496.35   32.10
   7  -4  -3   10.60    5.20
  -7  -4   3   14.60    6.50
  -7  -4   3   14.60    4.50
   7  -4  -3   25.90    5.10
  -7  -4   3   23.80    5.30
   7  -4  -3   26.40    4.60
  -7   4   3   19.70    6.30
  -7   4   3   17.20    5.20
   7   4  -3   14.90    5.70
   7   4  -3   24.50    5.50
   7   4  -3   24.80    4.50
  -7   4   3   17.90    5.00
   6  -4  -3  108.19    9.60
   6  -4  -3   91.09    8.30
   6  -4  -3   97.79    9.90
   6  -4  -3   99.89    6.60
   6  -4  -3   99.29    9.20
  -6  -4   3   83.69    8.40
  -6  -4   3   70.39    9.80
  -6  -4   3   83.89    8.60
  -6  -4   3  101.19    9.10
   6  -4  -3  112.09    9.50
  -6  -4   3   94.49   10.50
   6   4  -3   94.99    8.60
   6   4  -3  101.49    8.70
  -6   4   3   83.49    9.90
  -6   4   3   93.79    9.70
  -6   4   3   94.79    7.70
   6   4  -3   86.09    9.40
   6   4  -3   90.09    9.80
  -6   4   3  101.19    8.40
  -6   4   3   87.99   10.90
   5  -4  -3   47.80    6.10
  -5  -4   3   56.49    8.20
   5  -4  -3   45.50    7.30
   5  -4  -3   61.49    6.20
   5  -4  -3   50.79    6.20
   5  -4  -3   67.09    7.90
  -5  -4   3   59.29    9.10
  -5  -4   3   61.09    7.80
  -5  -4   3   58.39    6.70
  -5   4   3   55.29    6.90
   5   4  -3   55.99    6.30
   5   4  -3   55.19    6.80
  -5   4   3   63.09    6.40
  -5   4   3   59.09    5.50
  -5   4   3   54.89    5.80
  -5   4   3   57.19    8.70
   5   4  -3   55.09    7.10
   5   4  -3   64.29    7.40
  -4  -4   3  214.78   18.70
  -4  -4   3  246.28   17.60
  -4  -4   3  229.28   17.80
   4  -4  -3  293.87   16.70
  -4  -4   3  237.08   17.60
   4  -4  -3  295.27   18.40
   4  -4  -3  301.47   18.40
   4  -4  -3  274.97   17.10
  -4  -4   3  255.97   19.40
   4  -4  -3  279.77   18.40
   4  -4  -3  255.97   18.60
   4   4  -3  237.38   18.10
  -4   4   3  267.37   16.60
  -4   4   3  289.97   18.50
  -4   4   3  277.97   23.90
   4   4  -3  245.08   17.90
  -4   4   3  308.17   19.80
   4   4  -3  230.08   18.00
   4   4  -3  239.38   17.70
  -4   4   3  300.17   16.70
  -3  -4   3  111.39    8.50
   3  -4  -3   89.59    7.00
  -3  -4   3   85.19    9.30
   3  -4  -3   89.29    7.30
   3  -4  -3   82.99    8.40
  -3  -4   3   90.99    9.90
   3  -4  -3   94.59    8.80
   3  -4  -3   91.79    8.60
  -3  -4   3   85.49    8.20
   3  -4  -3   82.49    8.30
  -3  -4   3   90.79    8.00
   3   4  -3   83.69    8.00
   3   4  -3   81.09   10.30
   3   4  -3   78.49    8.10
  -3   4   3   82.89    7.80
  -3   4   3   92.79    9.60
  -3   4   3   90.99   10.50
   3   4  -3   86.39    8.70
  -3   4   3   92.19    6.80
  -3   4   3   88.29    6.80
  -3   4   3   85.99    8.20
   3   4  -3   89.59    8.20
   2  -4  -3  949.01   59.49
   2  -4  -3  987.30   58.49
  -2  -4   3  947.01   60.29
  -2  -4   3  941.71   59.39
  -2  -4   3  982.20   59.99
  -2  -4   3 1017.20   58.79
   2  -4  -3  964.90   58.49
   2  -4  -3  964.70   59.49
  -2  -4   3  946.81   59.49
   2  -4  -3  904.61   59.89
  -2  -4   3 1011.40   61.89
   2  -4  -3 1000.30   59.59
   2  -4  -3 1060.09   59.79
   2   4  -3 1011.50   60.99
  -2   4   3 1029.50   60.39
  -2   4   3  994.80   58.49
   2   4  -3  902.11   59.99
  -2   4   3  997.70   58.19
   2   4  -3  936.51   59.39
  -2   4   3 1015.60   59.49
  -2   4   3  998.80   59.79
   2   4  -3  984.00   59.19
   2   4  -3  956.00   59.79
   2   4  -3  993.70   60.49
  -2   4   3  962.50   59.59
   2   4  -3  973.00   59.49
  -2   4   3 1057.59   60.89
   2   4  -3  990.70   59.69
   1  -4  -3   13.50    4.00
  -1  -4   3   17.80    3.50
  -1  -4   3   15.10    5.90
   1  -4  -3   10.50    4.20
   1  -4  -3   17.90    3.80
   1  -4  -3   13.40    2.60
   1  -4  -3    2.80    4.10
  -1  -4   3   16.10    4.80
  -1  -4   3   18.70    4.20
  -1  -4   3   11.60    4.30
  -1  -4   3   11.40    3.50
  -1  -4   3   12.20    4.70
   1  -4  -3   12.40    3.00
   1  -4  -3   13.20    3.60
   1   4  -3    7.20    3.90
  -1   4   3   11.10    2.90
  -1   4   3   16.30    5.30
  -1   4   3   20.00    3.00
   1   4  -3   22.50    5.50
   1   4  -3   17.40    4.80
   1   4  -3    8.70    3.20
  -1   4   3   17.80    3.90
   1   4  -3   15.40    4.20
  -1   4   3   13.40    3.60
  -1   4   3   19.30    4.20
  -1   4   3   16.50    4.30
   1   4  -3    8.10    3.30
   1   4  -3   14.20    4.50
   0  -4   3  692.63   44.20
   0  -4   3  702.53   43.40
   0  -4   3  725.63   44.40
   0  -4  -3  735.03   43.60
   0  -4   3  723.93   45.20
   0  -4  -3  740.83   44.50
   0  -4   3  744.03   44.20
   0  -4  -3  704.23   44.60
   0  -4   3  714.73   44.50
   0  -4  -3  709.33   44.20
   0  -4  -3  618.74   44.70
   0  -4  -3  744.33   43.40
   0  -4  -3  693.33   44.00
   0  -4  -3  749.23   44.40
   0   4  -3  718.23   43.80
   0   4   3  708.53   44.70
   0   4  -3  707.63   44.30
   0   4   3  729.93   43.40
   0   4   3  714.43   44.40
   0   4   3  709.73   43.40
   0   4   3  741.83   44.40
   0   4  -3  727.03   43.40
   0   4  -3  731.93   44.30
   0   4  -3  715.13   44.40
   0   4  -3  771.42   45.30
   0   4   3  723.23   44.10
   0   4  -3  680.83   44.10
   0   4  -3  712.83   45.00
   0   4   3  747.63   45.40
   1  -4   3   -1.30    2.70
  -1  -4  -3    2.40    3.20
   1  -4   3   -1.70    3.00
  -1  -4  -3   -8.60    3.10
   1  -4   3    1.70    3.30
  -1  -4  -3    0.40    3.10
   1  -4   3    0.70    3.40
   1  -4   3   -3.60    3.10
  -1  -4  -3   -2.30    3.30
  -1  -4  -3   -2.00    3.00
   1  -4   3    8.60    4.70
  -1  -4  -3   -4.00    2.70
  -1  -4  -3   -3.10    2.30
  -1   4  -3   -0.50    3.00
   1   4   3   -2.80    2.90
   1   4   3    2.10    2.80
  -1   4  -3    1.40    3.40
  -1   4  -3   -0.20    4.30
   1   4   3   -1.40    2.50
   1   4   3   -1.60    4.80
  -1   4  -3   -6.00    2.80
  -1   4  -3    1.20    3.10
  -1   4  -3   -0.50    3.60
  -1   4  -3    0.60    2.00
   1   4   3    4.40    3.60
   1   4   3   -2.10    3.20
   1   4   3    2.70    2.70
  -2  -4  -3  122.79   11.30
  -2  -4  -3  156.38   12.10
   2  -4   3  142.79   11.50
  -2  -4  -3  138.79   11.10
  -2  -4  -3  145.69   10.50
   2  -4   3  135.99   11.20
  -2  -4  -3  134.29   11.00
   2  -4   3  143.59   11.00
  -2  -4  -3  147.79   11.10
   2  -4   3  138.49   12.20
   2  -4   3  136.69   11.30
  -2  -4  -3  133.39   11.20
   2  -4   3  140.39   10.90
  -2   4  -3  150.48   11.50
   2   4   3  127.29   11.20
   2   4   3  138.29   11.10
   2   4   3  143.39   11.30
  -2   4  -3  137.69   11.10
   2   4   3  145.49   10.70
  -2   4  -3  141.59   13.10
   2   4   3  146.79   10.60
   2   4   3  132.99   11.10
  -2   4  -3  161.48   11.50
  -2   4  -3  138.79   11.30
  -2   4  -3  121.49   11.80
  -2   4  -3  135.99    9.90
  -2   4  -3  130.69    9.30
   2   4   3  116.09   12.70
   3  -4   3   29.00    5.10
  -3  -4  -3   30.50    5.20
  -3  -4  -3   22.90    4.10
   3  -4   3   28.40    5.20
  -3  -4  -3   35.80    5.80
  -3  -4  -3   24.60    5.20
   3  -4   3   33.10    6.80
  -3  -4  -3   33.80    5.50
  -3  -4  -3   30.40    5.10
   3  -4   3   28.50    5.10
   3  -4   3   30.80    5.00
   3  -4   3   34.30    5.00
  -3   4  -3   17.50    4.30
  -3   4  -3   24.90    4.90
   3   4   3   27.50    4.40
  -3   4  -3   25.20    5.30
   3   4   3   17.30    5.70
   3   4   3   28.30    4.70
   3   4   3   33.40    6.20
   3   4   3   27.50    4.30
  -3   4  -3   35.80    5.10
   3   4   3   21.30    4.70
  -3   4  -3   24.60    6.30
  -3   4  -3   32.50    3.10
  -3   4  -3   18.20    4.50
  -4  -4  -3  537.45   35.00
   4  -4   3  602.44   34.80
   4  -4   3  635.14   35.60
  -4  -4  -3  492.25   34.60
  -4  -4  -3  497.55   35.00
  -4  -4  -3  507.45   35.10
  -4  -4  -3  498.75   34.70
   4  -4   3  595.54   35.10
  -4   4  -3  592.44   34.50
   4   4   3  493.25   34.30
   4   4   3  527.25   34.10
   4   4   3  512.95   35.40
   4   4   3  527.35   34.40
  -4   4  -3  653.43   36.90
   4   4   3  490.05   34.60
  -4   4  -3  630.94   35.40
   4   4   3  506.55   34.90
  -4   4  -3  612.54   35.90
  -4   4  -3  612.14   35.10
   5  -4   3  172.88   14.80
  -5  -4  -3  174.18   13.90
   5  -4   3  159.08   13.90
  -5  -4  -3  179.88   13.60
  -5  -4  -3  180.18   13.00
  -5  -4  -3  194.48   14.30
   5  -4   3  181.48   14.50
   5  -4   3  170.28   13.20
   5   4   3  176.08   13.40
   5   4   3  186.58   13.30
  -5   4  -3  168.18   15.10
  -5   4  -3  182.08   13.70
   5   4   3  177.58   13.00
  -5   4  -3  169.78   13.90
   5   4   3  170.28   13.90
   5   4   3  190.08   13.50
  -5   4  -3  164.48   12.90
   5   4   3  178.58   13.80
  -5   4  -3  170.98   15.80
   6  -4   3   -0.30    3.50
  -6  -4  -3   11.60    5.20
  -6  -4  -3    6.80    4.00
   6  -4   3    2.00    4.70
  -6  -4  -3   16.30    6.70
   6  -4   3    6.80    5.30
   6   4   3    9.40    4.40
   6   4   3    8.40    3.90
  -6   4  -3    8.40    3.90
  -6   4  -3    7.40    4.60
  -6   4  -3    3.50    3.50
   6   4   3    7.50    4.10
  -6   4  -3    1.10    4.30
   6   4   3   12.70    3.40
   6   4   3    6.10    3.50
   6   4   3    5.10    4.40
   7  -4   3   28.20    6.90
  -7  -4  -3   32.40    6.00
  -7  -4  -3   39.10    6.50
   7  -4   3   30.90    6.40
  -7   4  -3   39.40    6.60
   7   4   3   42.10    7.10
   7   4   3   46.10    5.90
   7   4   3   39.70    6.40
  -7   4  -3   40.30    6.00
  -7   4  -3   45.50    7.40
   7   4   3   39.00    5.10
  -8  -4  -3  249.38   18.80
   8  -4   3  222.28   19.20
   8  -4   3  243.18   19.10
  -8  -4  -3  241.48   18.50
   8   4   3  260.47   19.60
  -8   4  -3  241.38   18.60
  -8   4  -3  257.37   19.90
   8   4   3  258.27   17.80
  -8   4  -3  240.08   18.90
   8   4   3  248.88   18.60
   9  -4   3   66.39   10.30
  -9  -4  -3   84.49   10.20
  -9  -4  -3   65.59    9.50
   9  -4   3   72.79   10.00
  -9   4  -3   52.79    9.90
   9   4   3   71.19    8.90
   9   4   3   85.19   10.30
  -9   4  -3   86.79   10.90
   9   4   3   74.59    8.90
  -9   4  -3   60.19    9.10
  -8  -5   3    6.20    6.70
   8  -5  -3    1.50    6.30
  -8  -5   3   -3.80    7.40
   8  -5  -3    0.20    7.30
  -8  -5   3   13.00    5.40
   8   5  -3   12.90    5.20
   8   5  -3    7.90    7.70
  -8   5   3    8.20    6.20
  -8   5   3   -7.60    7.70
   8   5  -3   18.40    7.30
   7  -5  -3   20.20    6.80
  -7  -5   3   30.90    8.30
  -7  -5   3   20.90    6.90
   7  -5  -3   19.80    6.20
  -7  -5   3   36.10    5.70
   7   5  -3   26.70    7.50
   7   5  -3   27.60    7.30
  -7   5   3   32.10    8.10
   7   5  -3   28.90    5.90
  -7   5   3   26.10    6.80
   6  -5  -3   38.00    7.80
  -6  -5   3   51.99    8.30
  -6  -5   3   56.59    6.60
  -6  -5   3   51.89    9.50
   6  -5  -3   44.10    7.40
  -6   5   3   47.50    9.00
   6   5  -3   55.09    8.10
   6   5  -3   48.60    8.70
  -6   5   3   59.09    7.90
   6   5  -3   48.70    6.90
  -5  -5   3  274.47   22.80
  -5  -5   3  283.87   20.50
   5  -5  -3  314.37   21.90
   5  -5  -3  343.57   22.40
   5  -5  -3  328.27   20.40
  -5  -5   3  297.67   22.80
   5   5  -3  282.87   22.70
   5   5  -3  297.27   21.50
  -5   5   3  338.77   23.40
   5   5  -3  258.37   20.90
  -5   5   3  328.67   22.10
  -4  -5   3   -2.00    5.70
  -4  -5   3    0.80    4.10
   4  -5  -3    6.70    4.60
   4  -5  -3    1.00    3.30
  -4  -5   3   -2.70    5.50
   4  -5  -3   -3.90    4.40
  -4   5   3    2.80    5.10
  -4   5   3    5.90    3.20
   4   5  -3   12.00    5.20
  -4   5   3    2.70    5.10
   4   5  -3   -0.40    4.20
   4   5  -3    7.30    4.80
   3  -5  -3   92.49    9.00
  -3  -5   3   68.39    9.30
  -3  -5   3   68.19    8.50
   3  -5  -3   77.79    7.30
  -3  -5   3   64.39    8.20
   3  -5  -3   93.49    9.50
   3  -5  -3   70.59    7.90
   3  -5  -3   92.59    9.80
  -3  -5   3   61.59    9.00
   3  -5  -3   54.39   11.00
  -3   5   3   86.29    7.20
   3   5  -3   59.89    8.30
  -3   5   3   83.49   11.00
  -3   5   3   68.19    6.80
   3   5  -3   66.09    8.00
  -3   5   3   78.79   10.20
   3   5  -3   74.99    8.90
   3   5  -3   62.19    8.00
  -3   5   3   79.89   10.30
   3   5  -3   94.69   10.30
  -2  -5   3   11.50    4.20
  -2  -5   3   30.60    6.40
   2  -5  -3    7.50    5.50
   2  -5  -3   22.30    4.10
   2  -5  -3   20.50    4.00
  -2  -5   3   21.00    6.90
  -2  -5   3   24.00    6.80
  -2  -5   3   23.30    6.20
   2  -5  -3   26.70    6.90
   2  -5  -3   13.90    4.80
  -2   5   3   16.40    5.70
  -2   5   3   20.30    3.90
   2   5  -3   17.20    5.20
  -2   5   3   21.60    5.60
  -2   5   3   17.50    8.20
   2   5  -3   25.10    6.10
  -2   5   3   22.40    5.90
  -2   5   3   14.70    3.50
   2   5  -3   22.30    5.50
   2   5  -3   19.50    5.70
   1  -5  -3  163.68   12.70
  -1  -5   3  164.38   14.20
   1  -5  -3  166.58   13.00
   1  -5  -3  188.38   14.70
  -1  -5   3  148.89   14.00
  -1  -5   3  149.79   12.30
   1  -5  -3  168.08   12.10
   1  -5  -3  155.38   13.80
  -1  -5   3  163.38   16.70
  -1  -5   3  183.08   15.10
   1  -5  -3  158.38   13.50
   1   5  -3  166.58   14.10
   1   5  -3  167.08   13.30
  -1   5   3  162.88   11.80
  -1   5   3  177.08   14.10
   1   5  -3  160.58   12.40
  -1   5   3  170.18   13.60
   1   5  -3  170.58   14.70
  -1   5   3  180.48   14.60
  -1   5   3  153.58   12.10
   1   5  -3  143.99   14.50
   0  -5  -3   29.20    4.60
   0  -5  -3   14.30    5.20
   0  -5   3   24.10    4.50
   0  -5  -3   12.70    4.50
   0  -5   3   16.10    5.60
   0  -5  -3   23.00    5.20
   0  -5   3   24.80    6.80
   0  -5   3    9.60    5.10
   0  -5  -3    6.90    5.40
   0  -5   3   14.70    6.10
   0  -5   3   22.60    6.20
   0  -5  -3   14.00    5.00
   0   5  -3   13.90    5.70
   0   5  -3   16.80    5.90
   0   5   3   20.80    4.30
   0   5   3   24.20    5.60
   0   5  -3    7.10    4.60
   0   5  -3   15.00    3.70
   0   5   3   19.00    6.60
   0   5   3   15.80    4.90
   0   5   3   18.60    4.70
   0   5  -3   18.90    5.50
   0   5   3   13.80    4.50
   0   5   3   28.80    8.80
   0   5  -3    4.60    7.00
   0   5  -3   25.00    5.90
   1  -5   3  657.73   42.50
   1  -5   3  705.33   44.00
  -1  -5  -3  709.23   44.10
  -1  -5  -3  647.44   43.20
  -1  -5  -3  738.53   43.80
  -1  -5  -3  711.93   44.40
   1  -5   3  690.13   43.90
   1  -5   3  691.43   43.80
   1  -5   3  709.43   44.90
   1  -5   3  705.43   43.50
  -1  -5  -3  695.23   43.60
  -1  -5  -3  695.13   42.70
   1   5   3  704.83   42.80
  -1   5  -3  696.93   42.00
   1   5   3  641.34   42.60
  -1   5  -3  679.43   45.10
  -1   5  -3  675.93   44.40
  -1   5  -3  677.73   43.40
   1   5   3  699.43   43.90
   1   5   3  714.83   43.80
   1   5   3  739.73   43.50
  -1   5  -3  689.73   43.70
  -1   5  -3  690.83   42.80
   1   5   3  652.13   45.50
  -1   5  -3  700.53   44.00
   2  -5   3   31.90    5.60
   2  -5   3   35.10    6.90
  -2  -5  -3   38.90    6.80
   2  -5   3   41.80    7.30
   2  -5   3   39.20    6.80
  -2  -5  -3   36.30    6.00
  -2  -5  -3   23.80    5.80
   2  -5   3   31.10    5.60
  -2  -5  -3   31.30    7.50
  -2  -5  -3   37.70    5.40
  -2   5  -3   30.60    6.10
  -2   5  -3   37.60    6.10
   2   5   3   44.80    6.60
  -2   5  -3   18.80    7.60
  -2   5  -3   41.40    4.90
  -2   5  -3   43.20    5.50
  -2   5  -3   20.10    6.20
   2   5   3   49.60    6.60
  -2   5  -3   30.30    6.90
   2   5   3   30.20    6.50
   2   5   3   38.70    5.80
   2   5   3   35.00    6.40
   2   5   3   35.40    7.10
  -3  -5  -3  -17.20    5.70
   3  -5   3   -1.90    5.40
  -3  -5  -3   -2.20    4.90
  -3  -5  -3    1.60    4.20
  -3  -5  -3   -0.20    5.70
   3  -5   3   -6.20    4.90
   3  -5   3  -15.40    4.80
   3  -5   3   -1.10    4.10
   3   5   3   -0.80    4.10
  -3   5  -3    0.30    4.70
   3   5   3   -6.60    3.50
  -3   5  -3    7.20    7.10
  -3   5  -3    0.80    4.80
  -3   5  -3    1.70    2.50
   3   5   3    1.20    4.20
  -3   5  -3    7.30    5.40
   3   5   3   -1.10    4.40
   4  -5   3    0.40    5.80
   4  -5   3   -2.00    4.10
   4  -5   3   -4.60    7.20
  -4  -5  -3    1.60    5.00
  -4  -5  -3    5.20    4.70
   4  -5   3    3.80    8.70
  -4  -5  -3    3.60    5.60
   4   5   3    3.00    4.10
  -4   5  -3   -2.10    5.00
  -4   5  -3    3.10    5.70
   4   5   3    2.50    4.20
  -4   5  -3   -4.80    4.30
   5  -5   3   39.30    6.10
   5  -5   3   29.90    7.30
   5  -5   3   24.80    7.20
  -5  -5  -3   11.90    5.20
  -5  -5  -3   20.40    6.90
   5   5   3   28.30    5.50
  -5   5  -3   13.20    5.90
   5   5   3   14.90    4.90
   5   5   3   20.50    5.40
  -5   5  -3   22.20    6.50
   5   5   3   25.40    6.20
   6  -5   3   33.20    6.30
   6  -5   3   41.50    8.10
  -6  -5  -3   34.50    6.80
   6  -5   3   41.40    9.10
  -6  -5  -3   17.10    6.70
  -6   5  -3   37.00    7.60
   6   5   3   30.90    6.00
   6   5   3   33.80    6.70
  -6   5  -3   27.70    7.70
  -6   5  -3   26.00    6.00
   6   5   3   47.20    7.70
   6   5   3   43.00    6.10
  -7  -5  -3  129.69   14.00
   7  -5   3  133.39   13.90
   7  -5   3  183.48   17.00
  -7  -5  -3  169.28   15.80
   7  -5   3  188.38   17.10
   7   5   3  156.78   14.00
  -7   5  -3  186.58   16.20
   7   5   3  137.09   14.00
  -7   5  -3  151.18   14.00
  -7   5  -3  166.08   16.50
   7   5   3  139.89   14.20
   8  -5   3  126.39   14.20
   8  -5   3  137.89   14.80
  -8   5  -3  131.39   16.40
   8   5   3  122.89   13.10
   8   5   3  138.29   13.50
   5  -6  -3    6.60    8.20
   5  -6  -3   32.20    8.70
  -5  -6   3   11.80    7.90
  -5  -6   3   24.20    5.90
  -5  -6   3   21.00    9.80
   5   6  -3   40.00    9.00
   5   6  -3   28.60    7.40
  -5   6   3   24.80    9.40
  -5   6   3   22.30    8.30
   5   6  -3   26.40    7.00
  -4  -6   3    5.80    8.30
  -4  -6   3   -9.20    8.10
   4  -6  -3   -1.90    6.10
   4  -6  -3    1.60    7.10
  -4  -6   3   -6.90    4.90
   4   6  -3   -5.60    6.20
  -4   6   3    0.40    7.00
  -4   6   3    2.40    7.50
   4   6  -3   12.40    6.70
   4   6  -3    3.40    7.30
   3  -6  -3   19.10    6.70
  -3  -6   3   32.10    6.30
  -3  -6   3   38.90    8.30
  -3  -6   3   25.80    9.20
   3  -6  -3   37.10    8.00
   3   6  -3   30.10    6.60
   3   6  -3   35.30    7.10
   3   6  -3   45.80    8.90
  -3   6   3   32.30    8.60
  -3   6   3   31.40    7.80
  -2  -6   3  580.34   40.40
  -2  -6   3  607.34   42.10
   2  -6  -3  642.84   40.50
  -2  -6   3  603.54   38.50
   2  -6  -3  632.34   38.20
   2  -6  -3  567.74   39.40
  -2   6   3  637.84   41.00
   2   6  -3  624.44   38.90
   2   6  -3  636.24   40.20
  -2   6   3  587.44   37.90
  -2   6   3  589.94   41.10
   2   6  -3  638.54   41.50
   1  -6  -3   14.90    5.30
   1  -6  -3   17.70    5.10
   1  -6  -3   12.50    9.10
  -1  -6   3    8.20    7.00
  -1  -6   3   14.00    5.10
  -1   6   3   22.10    7.60
   1   6  -3   20.40    6.90
   1   6  -3   18.30    7.00
   1   6  -3   20.20    5.60
  -1   6   3   17.10    6.80
   0  -6   3  109.49   12.50
   0  -6   3  102.79   12.60
   0  -6  -3   83.59   10.40
   0  -6   3   75.79   10.60
   0  -6   3   96.19   10.20
   0  -6  -3   99.39   12.80
   0  -6  -3   81.99   11.30
   0  -6  -3  111.39   10.60
   0   6   3   95.19   13.00
   0   6   3   86.19   10.50
   0   6  -3   99.39   11.30
   0   6  -3   96.69   12.50
   0   6   3   97.29   12.70
   0   6  -3  106.79   13.10
   0   6  -3  107.39   10.30
   0   6   3   96.99   10.20
   1  -6   3   -6.30    6.90
  -1  -6  -3    8.60    6.40
  -1  -6  -3    2.30    5.30
   1  -6   3    6.40    6.80
   1  -6   3    6.00    8.30
  -1  -6  -3    7.90    6.60
  -1  -6  -3   -4.40    4.50
   1  -6   3   -3.00    4.10
   1   6   3   -4.80    4.60
  -1   6  -3   10.00    6.50
  -1   6  -3    7.60    4.30
   1   6   3   -1.10    5.90
   1   6   3    4.10    6.10
  -1   6  -3    6.80    7.00
  -1   6  -3    3.00    6.10
   1   6   3   -3.60    5.30
   2  -6   3  179.68   17.80
  -2  -6  -3  180.78   16.20
   2  -6   3  207.18   25.80
   2  -6   3  194.68   18.60
  -2  -6  -3  186.48   15.70
   2  -6   3  175.88   15.10
  -2  -6  -3  197.28   18.80
  -2   6  -3  176.28   17.50
   2   6   3  199.08   16.80
  -2   6  -3  166.08   17.60
  -2   6  -3  168.18   17.20
   2   6   3  202.98   15.40
   2   6   3  193.38   16.90
  -3  -6  -3   12.70    5.50
   3  -6   3   -1.30    7.70
   3  -6   3    0.50    7.10
   3  -6   3   12.80    5.50
  -3  -6  -3   16.70    6.80
  -3  -6  -3    2.70    7.80
   3   6   3   20.10    6.80
   3   6   3   14.30    6.50
  -3   6  -3   22.00    8.00
   3   6   3    8.80    5.80
  -3   6  -3   13.10    7.20
  -4  -6  -3  279.77   21.20
  -4  -6  -3  278.17   22.00
   4  -6   3  273.87   23.20
   4  -6   3  296.77   23.50
  -4  -6  -3  263.47   23.50
   4  -6   3  276.97   20.60
   4   6   3  272.57   21.00
  -4   6  -3  282.97   23.10
   4   6   3  284.77   22.20
  -4   6  -3  271.37   22.30
   4   6   3  268.87   20.80
   5  -6   3  122.39   14.00
  -5  -6  -3   99.69   12.90
   5  -6   3   82.79   10.70
   5  -6   3  122.19   14.20
   5   6   3  117.89   12.60
   5   6   3  108.99   12.50
   5   6   3  113.39   12.10
   5   6   3   95.39   13.30
  -5   6  -3   99.89   13.70
  -5   6  -3   99.09   13.70
 -11   0   4   63.29    8.20
  11   0  -4   59.69    8.10
  11   0  -4   68.69    8.50
  11   0  -4   70.39   10.70
  10   0  -4   15.00    5.10
  10   0  -4   13.10    4.90
  10   0  -4    4.00    4.40
 -10   0   4   12.30    4.20
   9   0  -4  155.58   11.30
   9   0  -4  137.29   13.50
   9   0  -4  150.68   11.40
   9   0  -4  130.89   11.60
  -9   0   4  129.59   11.20
   8   0  -4 1455.95   86.59
   8   0  -4 1495.55   86.39
   8   0  -4 1430.46   86.19
  -8   0   4 1460.25   86.49
   8   0  -4 1402.66   86.99
   8   0  -4 1451.95   86.99
   8   0  -4 1441.26   86.99
   7   0  -4  112.79    8.80
   7   0  -4  119.69    9.70
   7   0  -4  111.79   10.10
  -7   0   4  112.49    9.30
   7   0  -4  125.19    9.80
   7   0  -4  124.39    9.50
   7   0  -4  126.29    9.00
   6   0  -4   13.30    2.60
   6   0  -4   12.20    3.00
  -6   0   4   11.10    2.70
   6   0  -4   13.40    3.00
   6   0  -4   12.50    2.30
   6   0  -4   13.50    3.30
   6   0  -4    8.90    3.00
   5   0  -4   14.30    2.90
   5   0  -4    6.90    2.30
   5   0  -4   14.10    2.90
  -5   0   4    7.20    0.90
  -5   0   4    9.40    2.60
  -5   0   4    9.60    3.10
  -5   0   4    7.70    2.20
   5   0  -4    4.70    2.60
   5   0  -4   10.90    2.00
  -4   0   4   96.89    7.60
   4   0  -4  102.59    8.10
  -4   0   4   96.19    7.40
  -4   0   4  108.49    7.20
  -4   0   4  101.69    6.30
   4   0  -4  104.19    6.20
   4   0  -4  100.49    6.20
   4   0  -4  104.19    7.70
  -4   0   4  100.39    6.30
   4   0  -4  104.99    7.50
   4   0  -4   98.29    7.80
  -3   0   4   72.09    4.60
   3   0  -4   71.79    5.30
   3   0  -4   66.29    4.50
   3   0  -4   67.99    5.90
  -3   0   4   65.99    4.50
  -3   0   4   66.39    5.60
   3   0  -4   74.69    5.30
  -3   0   4   69.39    4.40
  -3   0   4   66.99    5.50
   3   0  -4   73.19    5.80
  -3   0   4   67.29    4.30
   3   0  -4   67.69    4.40
  -3   0   4   70.59    5.00
   2   0  -4 4981.70  297.17
  -2   0   4 4757.42  296.87
  -2   0   4 5133.69  297.47
   2   0  -4 4720.33  297.87
   2   0  -4 4854.01  296.87
  -2   0   4 5665.53  297.27
   2   0  -4 4895.81  297.27
  -2   0   4 5417.56  297.07
   2   0  -4 5365.26  297.77
   1   0  -4   79.19    5.90
   1   0  -4   73.89    5.00
   1   0  -4   74.39    4.90
   1   0  -4   73.69    5.20
  -1   0   4   73.99    4.90
  -1   0   4   73.99    5.30
  -1   0   4   76.79    4.90
   1   0  -4   69.19    4.90
   1   0  -4   70.19    4.90
  -1   0   4   71.59    5.30
  -1   0   4   70.99    5.20
   1   0  -4   73.69    5.60
   1   0  -4   68.89    4.90
   0   0  -4 1288.27   73.79
   0   0  -4 1322.67   73.79
   0   0   4 1292.47   73.79
   0   0   4 1222.28   73.79
   0   0  -4 1233.18   73.79
   0   0   4 1251.57   73.79
   0   0  -4 1320.77   73.99
   0   0   4 1256.97   74.09
   0   0  -4 1228.88   73.69
   0   0  -4 1321.47   74.29
   0   0  -4 1175.28   74.39
   0   0   4 1128.09   73.69
   0   0  -4 1280.17   73.89
  -1   0  -4   76.59    5.20
   1   0   4   71.79    5.00
   1   0   4   74.19    5.20
   1   0   4   66.39    5.70
  -1   0  -4   70.39    5.10
  -1   0  -4   69.79    5.00
  -1   0  -4   73.19    5.10
   1   0   4   68.39    5.10
  -1   0  -4   72.69    5.00
  -1   0  -4   78.49    5.40
  -1   0  -4   77.29    5.20
   1   0   4   67.09    5.10
   1   0   4   72.69    5.00
   1   0   4   68.39    4.90
  -1   0  -4   61.79    5.20
  -2   0  -4   36.40    3.30
  -2   0  -4   30.30    2.60
  -2   0  -4   34.10    3.40
  -2   0  -4   27.00    2.70
   2   0   4   29.10    2.90
   2   0   4   31.40    3.40
   2   0   4   27.60    2.50
   3   0   4   17.00    2.50
   3   0   4   11.50    2.20
   3   0   4   16.70    1.60
  -3   0  -4   16.50    2.30
  -3   0  -4   17.70    2.10
   3   0   4   17.00    2.30
  -3   0  -4   15.60    2.50
   3   0   4   14.60    2.00
  -3   0  -4   15.30    2.30
   3   0   4   11.90    1.90
  -3   0  -4   14.20    2.00
   3   0   4   16.60    2.40
  -3   0  -4   14.20    2.30
  -3   0  -4   12.00    2.20
   4   0   4 9399.46  555.04
   4   0   4 9421.46  554.84
   4   0   4 9267.67  554.74
  -4   0  -4 9664.63  554.64
  -4   0  -4 9642.34  555.14
  -4   0  -4 9999.00  555.04
  -4   0  -4 9393.66  554.94
   4   0   4 9463.35  554.94
  -4   0  -4 9327.17  554.74
  -4   0  -4 9763.42  555.14
   4   0   4 9164.68  554.64
   4   0   4 9538.95  555.14
  -5   0  -4   69.29    5.30
  -5   0  -4   69.29    5.40
   5   0   4   61.59    5.00
  -5   0  -4   69.29    5.10
   5   0   4   64.39    5.30
  -5   0  -4   62.49    5.50
   5   0   4   64.09    5.40
   5   0   4   62.79    5.70
  -5   0  -4   59.19    6.00
   5   0   4   58.19    5.00
  -5   0  -4   62.29    5.40
   5   0   4   60.69    5.50
  -6   0  -4   26.60    3.30
  -6   0  -4   16.70    2.90
   6   0   4   21.50    3.50
  -6   0  -4   21.60    3.80
   6   0   4   26.20    3.30
   6   0   4   24.10    3.70
  -6   0  -4   23.70    3.00
   6   0   4   29.70    3.70
  -6   0  -4   23.40    4.00
   6   0   4   26.60    3.20
  -6   0  -4   20.00    3.20
   6   0   4   22.90    2.90
  -6   0  -4   29.00    3.40
   7   0   4  127.99   10.10
   7   0   4  148.99   10.60
  -7   0  -4  147.09   10.40
   7   0   4  137.89    9.90
  -7   0  -4  148.19   11.10
  -7   0  -4  134.39   10.20
  -7   0  -4  152.78   10.50
  -7   0  -4  150.68   10.00
   7   0   4  138.69   10.00
   7   0   4  134.99   10.60
   8   0   4  119.89    9.90
  -8   0  -4  120.49   10.90
   8   0   4  141.89   11.10
   8   0   4  130.79    9.60
  -8   0  -4  129.39   10.00
  -8   0  -4  138.29    9.90
  -8   0  -4  132.89   10.10
   8   0   4  133.29   10.40
   8   0   4  135.99   10.00
  -9   0  -4    5.20    3.70
  -9   0  -4   -0.60    2.90
   9   0   4    2.20    2.70
   9   0   4    1.80    3.30
   9   0   4    0.30    2.60
   9   0   4   -3.50    4.40
  -9   0  -4    2.00    3.40
  -9   0  -4   -1.10    2.40
   9   0   4   -1.90    3.40
  10   0   4 1095.99   64.99
  10   0   4 1080.89   64.59
 -10   0  -4 1047.20   66.19
 -10   0  -4 1064.59   64.89
  10   0   4 1091.99   66.09
  11   0   4   62.69    7.10
 -11   0  -4   48.80    8.50
  11   0   4   64.19    8.20
 -11   0  -4   80.29    8.10
  11   0   4   60.19    8.70
  11  -1  -4  234.18   16.00
  11  -1  -4  220.38   16.80
  11  -1  -4  240.28   18.20
 -11  -1   4  212.48   16.30
  11   1  -4  176.38   18.50
 -11   1   4  194.78   17.00
  11   1  -4  220.88   17.20
  11   1  -4  230.98   17.80
  10  -1  -4   30.70    5.50
  10  -1  -4   22.40    4.70
  10  -1  -4   30.00    6.40
 -10  -1   4   18.90    6.30
  10   1  -4   33.90    6.40
  10   1  -4   30.40    6.00
 -10   1   4   25.50    5.50
  10   1  -4   23.90    5.40
   9  -1  -4  159.88   12.90
  -9  -1   4  173.38   10.80
  -9  -1   4  193.68   11.00
  -9  -1   4  183.78   13.30
   9  -1  -4  177.38   12.80
   9  -1  -4  188.48   14.40
   9  -1  -4  179.78   13.20
   9   1  -4  175.98   13.80
  -9   1   4  191.28   15.90
   9   1  -4  188.98   13.80
   9   1  -4  159.98   15.10
   9   1  -4  160.48   14.20
  -9   1   4  179.28   11.20
  -9   1   4  179.18   13.80
  -9   1   4  179.88   11.20
   8  -1  -4   16.50    4.70
  -8  -1   4   18.10    3.90
   8  -1  -4   17.60    4.40
   8  -1  -4   17.80    1.60
   8  -1  -4   16.20    3.30
   8  -1  -4   18.10    3.40
  -8  -1   4   19.40    2.30
  -8  -1   4   16.00    1.80
   8  -1  -4   15.10    3.30
  -8   1   4   15.10    5.10
   8   1  -4   15.90    4.00
  -8   1   4   17.70    2.10
   8   1  -4   13.80    3.60
   8   1  -4   22.00    4.30
   8   1  -4   19.80    4.20
  -8   1   4   19.60    3.90
  -8   1   4   17.50    2.30
   7  -1  -4  263.27   16.20
   7  -1  -4  238.98   16.10
   7  -1  -4  229.08   14.90
  -7  -1   4  255.57   15.10
  -7  -1   4  271.07   17.50
   7  -1  -4  245.78   16.00
   7  -1  -4  239.78   17.40
   7  -1  -4  266.57   16.90
  -7  -1   4  256.17   15.10
   7  -1  -4  254.67   14.90
   7   1  -4  242.48   16.70
  -7   1   4  244.18   16.80
   7   1  -4  241.78   16.50
  -7   1   4  255.27   17.90
   7   1  -4  261.77   18.10
   7   1  -4  251.17   17.10
   7   1  -4  236.78   17.10
  -7   1   4  248.78   15.20
   7   1  -4  236.28   17.60
   7   1  -4  255.27   14.80
   7   1  -4  232.58   14.70
  -7   1   4  252.27   15.40
   6  -1  -4  127.49   10.60
   6  -1  -4  133.69    8.60
   6  -1  -4  128.39    8.50
   6  -1  -4  137.59    9.30
  -6  -1   4  137.69    8.70
  -6  -1   4  139.49   10.50
  -6  -1   4  141.19    8.90
  -6  -1   4  143.89    9.90
   6  -1  -4  136.09    9.50
   6  -1  -4  141.19   10.10
   6   1  -4  141.19   10.70
  -6   1   4  138.59    8.70
   6   1  -4  139.09   10.10
   6   1  -4  131.99   10.20
  -6   1   4  129.49    9.90
   6   1  -4  144.59   10.90
  -6   1   4  137.49   11.10
   6   1  -4  144.79   11.10
   6   1  -4  139.09    8.50
  -6   1   4  139.69    9.10
   6   1  -4  139.49    8.50
  -6   1   4  138.79   10.40
  -5  -1   4 2757.92  157.38
   5  -1  -4 2692.93  156.38
   5  -1  -4 2640.84  156.08
   5  -1  -4 2720.43  156.68
  -5  -1   4 2763.72  156.58
   5  -1  -4 2669.03  157.48
   5  -1  -4 2618.74  156.58
   5  -1  -4 2579.74  156.08
  -5  -1   4 2637.34  156.08
  -5  -1   4 2588.64  156.28
  -5   1   4 2712.43  156.98
   5   1  -4 2574.84  157.68
  -5   1   4 2671.83  156.98
  -5   1   4 2577.84  156.08
  -5   1   4 2652.83  157.78
   5   1  -4 2848.01  157.58
   5   1  -4 2716.93  156.08
   5   1  -4 2665.13  157.08
   5   1  -4 2745.83  157.38
   5   1  -4 2662.73  157.48
   5   1  -4 2563.44  155.98
  -5   1   4 2673.13  156.38
   4  -1  -4  358.26   21.50
  -4  -1   4  361.56   21.10
   4  -1  -4  361.86   21.00
  -4  -1   4  353.96   21.70
  -4  -1   4  356.56   22.60
   4  -1  -4  358.36   21.50
  -4  -1   4  365.56   21.70
   4  -1  -4  340.37   21.40
   4  -1  -4  381.76   21.80
   4  -1  -4  344.37   21.80
   4  -1  -4  360.66   21.10
   4  -1  -4  359.86   22.70
  -4  -1   4  346.87   21.50
  -4  -1   4  353.06   22.60
   4   1  -4  357.66   23.10
   4   1  -4  365.36   22.60
   4   1  -4  369.86   22.70
  -4   1   4  340.87   22.80
  -4   1   4  358.46   21.30
   4   1  -4  364.26   22.30
  -4   1   4  358.26   21.50
  -4   1   4  354.16   22.10
  -4   1   4  360.76   22.10
   4   1  -4  363.26   22.70
   4   1  -4  352.06   21.40
  -4   1   4  343.77   21.70
   4   1  -4  356.36   21.50
  -4   1   4  360.16   21.20
   3  -1  -4   23.70    2.10
   3  -1  -4   16.70    3.00
  -3  -1   4   26.40    3.60
   3  -1  -4   22.10    2.30
   3  -1  -4   21.30    1.90
   3  -1  -4   21.60    2.20
  -3  -1   4   20.90    2.70
  -3  -1   4   20.00    2.20
  -3  -1   4   17.70    2.40
  -3  -1   4   22.20    2.10
  -3  -1   4   22.60    3.60
   3  -1  -4   19.80    2.30
   3  -1  -4   20.60    2.00
  -3  -1   4   21.60    3.40
   3   1  -4   20.60    2.20
  -3   1   4   25.10    3.00
   3   1  -4   21.70    3.20
  -3   1   4   19.00    2.50
  -3   1   4   19.70    2.60
  -3   1   4   21.00    3.50
   3   1  -4   21.60    3.20
  -3   1   4   20.80    2.00
   3   1  -4   19.30    2.10
   3   1  -4   20.10    3.10
   3   1  -4   21.30    2.00
  -3   1   4   19.30    2.30
  -3   1   4   23.50    2.30
   2  -1  -4    3.80    0.60
   2  -1  -4    4.60    1.10
  -2  -1   4    2.90    2.00
   2  -1  -4    4.10    1.20
  -2  -1   4    4.80    1.10
   2  -1  -4    5.30    0.70
  -2  -1   4    4.90    1.90
   2  -1  -4    2.50    0.90
  -2  -1   4    6.20    2.00
   2  -1  -4    6.00    1.90
   2  -1  -4    4.20    1.20
  -2  -1   4    3.40    1.40
   2  -1  -4    4.80    1.20
   2  -1  -4    3.90    1.90
  -2  -1   4    5.50    1.30
  -2   1   4    3.60    1.30
  -2   1   4    3.20    0.90
   2   1  -4    5.50    1.90
   2   1  -4    4.80    1.30
   2   1  -4    4.90    1.10
  -2   1   4    4.00    1.40
   2   1  -4    2.80    1.10
   2   1  -4    3.00    1.20
   2   1  -4    6.00    2.00
  -2   1   4    5.40    1.90
   2   1  -4    3.10    2.40
  -2   1   4    4.80    1.30
  -1  -1   4  808.12   53.09
   1  -1  -4  946.61   52.29
   1  -1  -4  949.60   52.99
  -1  -1   4  778.92   52.69
   1  -1  -4  988.90   52.99
  -1  -1   4  776.52   53.09
   1  -1  -4  968.20   53.39
   1  -1  -4  960.10   52.89
  -1  -1   4  807.02   53.09
   1  -1  -4  964.70   52.99
   1  -1  -4  981.70   52.99
   1  -1  -4  961.20   52.99
  -1   1   4  986.10   52.99
   1   1  -4  808.22   52.89
   1   1  -4  809.92   52.89
   1   1  -4  791.42   52.79
   1   1  -4  829.52   53.49
  -1   1   4  979.40   53.49
   1   1  -4  790.92   53.09
  -1   1   4  950.90   52.99
  -1   1   4  978.30   52.29
   1   1  -4  821.42   52.99
  -1   1   4 1014.30   53.09
   1   1  -4  820.52   52.99
   0  -1  -4  158.78   10.00
   0  -1   4  145.59   10.20
   0  -1  -4  154.58   10.10
   0  -1   4  153.68   10.20
   0  -1   4  145.89   10.40
   0  -1   4  165.98   10.00
   0  -1   4  163.88   10.60
   0  -1   4  154.68   10.10
   0  -1  -4  156.38    9.50
   0  -1  -4  162.68   10.30
   0  -1  -4  162.28   10.20
   0  -1  -4  156.58   10.10
   0  -1  -4  158.88   10.20
   0  -1  -4  148.99   10.00
   0   1   4  165.88   10.20
   0   1  -4  160.88   10.60
   0   1  -4  149.99   10.10
   0   1  -4  163.38   10.10
   0   1  -4  160.48   10.10
   0   1  -4  154.98   10.10
   0   1   4  155.68   10.40
   0   1   4  161.68   10.40
   0   1  -4  154.18   10.20
   0   1   4  155.78    9.50
   0   1   4  154.78   10.10
   0   1   4  167.08   10.30
   0   1  -4  155.58   10.40
  -1  -1  -4 4589.44  275.47
  -1  -1  -4 4757.82  274.97
  -1  -1  -4 4596.04  275.37
   1  -1   4 4910.01  275.37
   1  -1   4 4681.33  275.37
  -1  -1  -4 4633.84  275.87
   1  -1   4 5110.99  275.67
   1  -1   4 4834.92  275.37
  -1  -1  -4 4506.45  275.27
  -1  -1  -4 4814.52  275.37
  -1  -1  -4 4389.46  275.17
   1  -1   4 4940.41  275.77
   1   1   4 4552.44  275.47
  -1   1  -4 4855.01  275.07
   1   1   4 4739.73  275.47
  -1   1  -4 5088.99  275.67
   1   1   4 3985.30  274.87
   1   1   4 4340.57  275.27
   1   1   4 4849.92  275.77
  -1   1  -4 4794.42  275.37
  -1   1  -4 5130.09  275.77
   1   1   4 4143.39  275.17
  -1   1  -4 5008.10  275.37
   1   1   4 4803.02  275.37
  -2  -1  -4    3.50    1.30
   2  -1   4    0.40    1.70
   2  -1   4    4.50    1.70
   2  -1   4    6.00    1.80
   2  -1   4    2.20    1.40
  -2  -1  -4    2.80    0.90
  -2  -1  -4    4.60    1.60
  -2  -1  -4    5.00    1.60
   2  -1   4    4.90    1.30
  -2  -1  -4    4.00    2.10
   2  -1   4    5.50    1.70
   2  -1   4    4.30    1.20
  -2  -1  -4    5.10    1.60
  -2  -1  -4    2.20    1.40
  -2  -1  -4    6.30    1.40
  -2   1  -4    3.40    1.60
   2   1   4    7.60    1.80
   2   1   4    4.10    1.70
  -2   1  -4    4.30    1.50
  -2   1  -4    4.40    1.80
  -2   1  -4    3.80    1.70
  -2   1  -4    3.90    1.00
   2   1   4    3.60    1.60
  -2   1  -4    3.50    1.40
   2   1   4    4.20    1.20
   2   1   4    3.20    1.60
  -2   1  -4    5.80    1.70
   2   1   4    5.20    1.70
   2   1   4    3.70    1.30
   3  -1   4    9.30    2.20
  -3  -1  -4    8.10    1.80
  -3  -1  -4    9.70    1.30
   3  -1   4   12.00    2.30
   3  -1   4    8.70    1.70
  -3  -1  -4   10.80    2.20
   3  -1   4   15.10    2.30
  -3  -1  -4   13.20    2.40
  -3  -1  -4    8.00    1.90
   3  -1   4   10.50    1.60
   3  -1   4   12.10    2.40
   3  -1   4   11.10    2.30
  -3  -1  -4   12.00    2.70
  -3  -1  -4    9.90    2.00
   3   1   4   14.90    2.60
  -3   1  -4   12.50    2.40
  -3   1  -4   12.50    1.50
   3   1   4   11.70    2.00
  -3   1  -4    6.50    1.90
  -3   1  -4   11.60    2.30
   3   1   4   13.10    2.10
  -3   1  -4    9.70    2.10
   3   1   4   12.10    2.00
   3   1   4    6.70    1.80
  -3   1  -4    8.70    2.40
   3   1   4   11.70    2.10
  -4  -1  -4  204.38   12.60
  -4  -1  -4  197.48   12.40
   4  -1   4  190.68   12.30
   4  -1   4  199.38   12.50
  -4  -1  -4  193.78   13.00
  -4  -1  -4  193.28   12.60
  -4  -1  -4  193.68   12.20
   4  -1   4  182.58   12.80
   4  -1   4  188.98   12.60
   4  -1   4  182.68   12.70
   4  -1   4  202.08   12.50
  -4  -1  -4  191.08   12.50
  -4  -1  -4  195.08   12.50
   4   1   4  191.68   12.60
  -4   1  -4  179.68   12.40
  -4   1  -4  187.98   12.60
   4   1   4  190.18   12.40
  -4   1  -4  184.68   12.40
  -4   1  -4  191.08   11.80
  -4   1  -4  174.78   12.30
  -4   1  -4  191.08   12.50
  -4   1  -4  184.48   12.70
   4   1   4  195.58   12.50
  -4   1  -4  187.58   12.30
   4   1   4  184.48   12.30
   4   1   4  181.78   12.30
  -5  -1  -4   27.70    3.70
  -5  -1  -4   24.70    3.90
   5  -1   4   26.50    3.60
   5  -1   4   25.20    3.50
  -5  -1  -4   18.80    2.60
   5  -1   4   26.10    3.20
   5  -1   4   19.60    3.30
  -5  -1  -4   19.70    3.30
   5  -1   4   14.10    3.00
  -5  -1  -4   21.80    3.50
   5  -1   4   23.20    3.20
   5  -1   4   22.50    2.50
  -5  -1  -4   22.90    3.20
  -5  -1  -4   25.50    3.30
  -5   1  -4   20.50    2.90
   5   1   4   22.50    3.00
  -5   1  -4   26.30    3.30
   5   1   4   25.40    3.40
   5   1   4   21.50    3.30
   5   1   4   23.20    3.30
   5   1   4   17.90    3.00
  -5   1  -4   26.20    3.80
  -5   1  -4   20.50    2.90
  -5   1  -4   16.80    5.00
  -5   1  -4   24.20    3.80
   5   1   4   26.90    3.40
  -5   1  -4   28.30    3.70
  -5   1  -4   25.00    2.70
  -6  -1  -4   -1.60    2.20
   6  -1   4   -3.30    2.20
  -6  -1  -4    3.30    1.70
   6  -1   4    2.50    2.60
  -6  -1  -4    2.50    2.80
   6  -1   4    2.80    1.50
   6  -1   4    1.10    2.30
   6  -1   4    2.30    1.70
  -6  -1  -4    2.10    2.10
  -6  -1  -4    0.50    1.80
   6  -1   4    6.50    2.30
   6  -1   4   -1.00    2.20
  -6  -1  -4    3.80    2.90
  -6   1  -4    4.60    2.70
   6   1   4   -0.20    2.00
  -6   1  -4    0.60    1.70
  -6   1  -4    3.70    2.30
   6   1   4   -0.60    2.40
   6   1   4   -1.90    3.40
  -6   1  -4    2.90    1.70
   6   1   4    1.20    2.40
   6   1   4    2.80    1.90
  -6   1  -4    0.90    2.20
   6   1   4    4.90    1.80
  -6   1  -4    1.50    2.60
  -6   1  -4    0.10    1.70
   6   1   4    1.80    1.90
  -6   1  -4   -0.50    1.90
  -7  -1  -4 2234.08  130.99
   7  -1   4 2281.27  131.79
   7  -1   4 2093.69  131.09
  -7  -1  -4 2292.07  131.59
   7  -1   4 2049.20  130.49
  -7  -1  -4 2224.88  131.39
  -7  -1  -4 2359.46  131.69
   7  -1   4 2282.67  131.59
   7  -1   4 2206.08  131.89
  -7  -1  -4 2211.28  131.99
   7   1   4 2185.88  131.69
  -7   1  -4 2284.87  130.59
   7   1   4 2147.89  131.19
   7   1   4 2258.97  131.39
  -7   1  -4 2268.17  131.99
  -7   1  -4 2216.08  131.69
  -7   1  -4 2261.97  131.19
   7   1   4 2249.87  131.49
   7   1   4 2270.27  131.29
  -7   1  -4 2190.38  131.39
  -7   1  -4 2171.68  130.79
   8  -1   4   73.39    7.70
  -8  -1  -4   75.49    7.60
   8  -1   4   52.29    7.10
  -8  -1  -4   65.29    6.30
  -8  -1  -4   62.39    6.90
   8  -1   4   63.49    7.20
   8  -1   4   62.59    5.40
  -8  -1  -4   66.69    7.90
  -8  -1  -4   68.39    6.80
   8   1   4   68.19    6.60
   8   1   4   82.69    7.20
  -8   1  -4   70.19    6.40
  -8   1  -4   73.39    7.60
   8   1   4   71.59    7.00
  -8   1  -4   63.09    7.20
  -8   1  -4   75.29    6.20
  -8   1  -4   54.69    6.80
   8   1   4   69.09    6.90
   8   1   4   64.39    7.50
  -8   1  -4   71.99    7.00
   9  -1   4   42.90    5.30
   9  -1   4   26.10    5.10
  -9  -1  -4   32.60    4.60
   9  -1   4   29.70    5.10
   9  -1   4   41.00    5.30
   9  -1   4   46.30    7.00
   9  -1   4   41.00    4.50
  -9  -1  -4   27.20    5.20
  -9   1  -4   33.70    5.70
   9   1   4   32.70    5.50
  -9   1  -4   39.10    5.10
   9   1   4   32.80    5.40
  -9   1  -4   40.20    4.90
   9   1   4   31.60    4.70
   9   1   4   42.90    6.60
   9   1   4   39.70    5.10
  10  -1   4   58.39    6.50
  10  -1   4   83.29    8.50
  10  -1   4   69.59    9.30
 -10  -1  -4   62.99    7.40
 -10  -1  -4   64.09    8.20
  10   1   4   70.09    8.00
 -10   1  -4   50.89    8.00
 -10   1  -4   56.49    7.70
  10   1   4   73.49    7.50
  10   1   4   63.49    8.80
 -11  -1  -4   22.10    4.70
  11  -1   4   50.19    8.10
  11  -1   4   30.80    5.60
 -11   1  -4   27.60    5.50
  11   1   4   19.10    7.10
  11   1   4   32.80    5.40
  11   1   4   35.70    6.80
 -11  -2   4   -0.80    2.90
 -11  -2   4    7.10    2.40
  11  -2  -4   -6.50    5.30
 -11  -2   4    2.50    4.70
 -11   2   4   -5.20    7.50
 -11   2   4   -4.30    8.90
 -11   2   4   -5.40    3.40
  11   2  -4   -0.20    6.00
  11   2  -4    0.10    6.50
 -11   2   4    3.70    2.80
 -10  -2   4    7.90    2.90
  10  -2  -4    5.40    6.20
  10  -2  -4    7.80    2.20
 -10  -2   4   10.50    2.50
 -10   2   4   18.00    7.10
 -10   2   4   13.10    3.70
  10   2  -4    7.70    5.80
  10   2  -4   -2.30    5.20
 -10   2   4    7.70    3.00
 -10   2   4    4.10    4.60
  10   2  -4    6.60    1.70
  10   2  -4    5.80    5.30
  10   2  -4   11.20    2.30
   9  -2  -4   42.30    7.00
  -9  -2   4   49.00    5.40
   9  -2  -4   48.10    5.80
   9  -2  -4   50.59    4.50
   9  -2  -4   50.49    4.80
  -9  -2   4   47.10    6.20
   9  -2  -4   53.79    6.70
  -9  -2   4   46.60    4.90
   9   2  -4   50.59    4.70
  -9   2   4   50.39    5.50
   9   2  -4   45.10    6.90
   9   2  -4   48.00    4.20
  -9   2   4   34.70    7.80
   9   2  -4   51.99    7.80
  -9   2   4   49.60    5.40
  -9   2   4   43.70    6.50
   9   2  -4   38.00    6.20
  -8  -2   4  421.96   25.50
  -8  -2   4  428.26   26.30
   8  -2  -4  408.06   26.30
   8  -2  -4  419.06   25.40
   8  -2  -4  397.46   25.60
   8  -2  -4  408.86   25.20
  -8  -2   4  416.06   27.50
  -8  -2   4  417.36   25.30
   8  -2  -4  403.16   25.20
   8  -2  -4  410.86   25.00
   8   2  -4  395.56   26.90
  -8   2   4  397.66   25.80
   8   2  -4  420.56   24.90
   8   2  -4  392.36   26.90
   8   2  -4  412.16   27.50
  -8   2   4  411.46   26.80
  -8   2   4  406.36   28.10
   8   2  -4  416.66   25.10
  -8   2   4  410.36   25.40
   8   2  -4  419.16   26.80
  -7  -2   4   83.39    6.60
   7  -2  -4   76.09    6.90
  -7  -2   4   68.89    8.60
   7  -2  -4   71.69    6.00
   7  -2  -4   65.69    6.20
   7  -2  -4   78.19    6.10
  -7  -2   4   75.89    6.20
   7  -2  -4   72.49    5.90
   7   2  -4   73.49    8.00
   7   2  -4   69.09    5.70
  -7   2   4   79.09    8.90
   7   2  -4   66.79    8.60
  -7   2   4   71.69    4.90
  -7   2   4   77.29    7.50
   7   2  -4   78.59    8.00
   7   2  -4   75.79    5.90
  -7   2   4   78.69    7.70
  -7   2   4   71.49    7.20
  -7   2   4   75.19    6.30
  -6  -2   4  174.48   10.60
  -6  -2   4  171.68   12.90
   6  -2  -4  173.08   11.40
  -6  -2   4  175.58   11.80
   6  -2  -4  161.98   13.10
  -6  -2   4  159.68   10.60
  -6  -2   4  181.88   11.80
   6  -2  -4  167.78   11.20
   6  -2  -4  168.98   11.40
   6  -2  -4  174.18   11.20
   6  -2  -4  168.28   10.40
  -6  -2   4  189.68   13.30
   6  -2  -4  177.98   10.40
  -6  -2   4  173.48   11.40
   6  -2  -4  172.08   11.60
   6   2  -4  178.48   11.20
  -6   2   4  175.88   10.80
  -6   2   4  153.18   12.30
   6   2  -4  165.78   11.30
  -6   2   4  161.48   11.00
   6   2  -4  170.58   14.50
  -6   2   4  172.58   12.20
  -6   2   4  164.48   11.90
   6   2  -4  179.88   12.80
   6   2  -4  212.58   17.50
  -6   2   4  167.48   13.30
  -6   2   4  165.38   11.40
   6   2  -4  181.28   12.60
  -5  -2   4   15.20    3.50
  -5  -2   4    8.70    3.70
  -5  -2   4   12.70    2.00
   5  -2  -4   15.60    3.50
   5  -2  -4   16.70    2.50
   5  -2  -4   11.70    2.30
   5  -2  -4   15.00    2.10
  -5  -2   4   14.40    2.00
   5  -2  -4   12.10    1.90
  -5  -2   4   15.40    2.80
  -5  -2   4   17.90    2.90
   5  -2  -4   13.20    2.30
   5  -2  -4   11.40    2.00
  -5  -2   4   12.50    2.60
   5  -2  -4   14.90    2.60
  -5   2   4   10.30    3.00
   5   2  -4   12.50    4.20
  -5   2   4   12.90    2.30
   5   2  -4   11.20    2.90
   5   2  -4   15.30    3.50
   5   2  -4   14.40    2.10
  -5   2   4   17.70    2.50
  -5   2   4   13.70    3.80
   5   2  -4   13.70    2.70
   5   2  -4    9.40    3.90
   5   2  -4   12.60    1.80
  -5   2   4    8.60    2.60
   5   2  -4   10.80    2.10
  -4  -2   4   39.50    5.30
  -4  -2   4   42.30    4.30
   4  -2  -4   40.00    3.60
   4  -2  -4   51.89    4.40
   4  -2  -4   51.89    5.60
   4  -2  -4   54.09    4.00
  -4  -2   4   41.50    3.80
   4  -2  -4   52.39    3.60
  -4  -2   4   39.30    4.00
  -4  -2   4   41.00    3.90
   4  -2  -4   48.10    4.00
  -4  -2   4   40.20    4.80
   4  -2  -4   40.00    4.10
  -4  -2   4   40.00    5.10
  -4   2   4   51.99    5.20
   4   2  -4   44.90    4.10
  -4   2   4   43.10    4.20
   4   2  -4   47.30    5.50
   4   2  -4   46.00    5.00
   4   2  -4   40.80    4.30
   4   2  -4   46.60    5.30
   4   2  -4   34.90    5.00
   4   2  -4   44.90    3.90
  -4   2   4   30.20    4.30
  -4   2   4   48.60    3.90
  -4   2   4   46.10    4.20
   4   2  -4   45.30    5.70
   3  -2  -4  217.58   15.60
   3  -2  -4  238.68   14.90
   3  -2  -4  232.58   14.80
   3  -2  -4  240.08   14.80
  -3  -2   4  254.17   16.00
   3  -2  -4  242.78   14.60
  -3  -2   4  234.28   14.80
  -3  -2   4  233.08   14.80
   3  -2  -4  235.38   14.70
  -3  -2   4  234.78   15.30
   3  -2  -4  224.28   13.90
   3  -2  -4  240.28   14.00
   3  -2  -4  220.58   15.30
  -3  -2   4  233.58   15.70
  -3  -2   4  244.08   14.50
  -3  -2   4  234.78   14.60
  -3   2   4  238.08   15.00
  -3   2   4  218.18   14.60
  -3   2   4  232.58   14.90
   3   2  -4  218.18   15.70
   3   2  -4  238.08   15.90
  -3   2   4  243.38   15.30
   3   2  -4  249.88   15.30
  -3   2   4  214.78   15.60
   3   2  -4  224.58   14.90
   3   2  -4  240.08   14.70
   3   2  -4  226.18   14.90
  -3   2   4  238.08   14.60
   3   2  -4  234.38   14.90
   3   2  -4  234.28   15.70
  -2  -2   4 8173.28  488.95
  -2  -2   4 7364.46  488.55
  -2  -2   4 7478.75  488.15
   2  -2  -4 9554.34  488.35
  -2  -2   4 7473.15  487.95
   2  -2  -4 9159.08  488.55
   2  -2  -4 9264.97  488.35
  -2  -2   4 8201.98  488.75
   2  -2  -4 8991.50  487.95
   2  -2  -4 9629.64  489.05
   2  -2  -4 9347.46  488.35
  -2   2   4 9243.08  488.45
   2   2  -4 7742.23  488.25
  -2   2   4 9579.54  488.45
   2   2  -4 7393.66  488.05
   2   2  -4 7924.51  488.55
   2   2  -4 8058.59  489.05
   2   2  -4 7788.82  488.25
   2   2  -4 7627.24  488.05
   2   2  -4 7763.22  488.45
   2   2  -4 7779.12  488.35
   1  -2  -4  111.29    7.80
   1  -2  -4  113.39    8.00
  -1  -2   4  111.99    8.00
   1  -2  -4  112.59    8.40
  -1  -2   4  118.59    7.90
   1  -2  -4  112.89    8.00
  -1  -2   4  122.29    8.80
   1  -2  -4  106.89    8.00
  -1  -2   4  111.59    7.90
  -1  -2   4  114.19    8.60
   1  -2  -4  118.09    7.70
   1  -2  -4  110.19    8.20
  -1  -2   4  118.79    8.60
   1   2  -4  112.69    7.90
   1   2  -4  109.79    7.80
  -1   2   4  108.39    6.70
   1   2  -4  113.99    8.10
   1   2  -4  108.19    8.00
  -1   2   4  115.79    8.40
  -1   2   4  106.99    8.00
  -1   2   4  103.79    8.20
   1   2  -4  107.69    7.90
  -1   2   4  110.69    8.10
   1   2  -4  120.69    8.50
  -1   2   4  106.69    7.60
   1   2  -4  109.99    8.40
  -1   2   4  113.19    7.70
   0  -2   4   12.00    2.80
   0  -2  -4   14.30    2.30
   0  -2   4    9.30    2.50
   0  -2   4   15.70    2.50
   0  -2  -4   15.50    2.80
   0  -2   4    9.80    2.20
   0  -2  -4   13.10    2.40
   0  -2  -4   12.10    2.10
   0  -2   4   15.50    2.60
   0  -2   4   13.30    2.40
   0  -2  -4   12.80    2.50
   0  -2   4   10.90    2.50
   0  -2  -4   11.90    2.40
   0  -2  -4   11.80    2.40
   0   2   4   11.70    1.30
   0   2  -4   11.20    2.30
   0   2  -4   10.20    2.10
   0   2  -4   11.50    2.70
   0   2   4   15.50    2.30
   0   2  -4    9.50    2.10
   0   2   4   11.60    2.40
   0   2   4    8.60    2.00
   0   2   4   14.80    2.90
   0   2  -4    5.30    2.80
   0   2   4   12.20    2.10
   0   2  -4    7.90    2.60
   0   2   4   13.40    1.60
  -1  -2  -4  160.58   10.50
   1  -2   4  155.98   10.30
   1  -2   4  144.29   11.40
   1  -2   4  153.48   11.00
  -1  -2  -4  147.69   10.20
   1  -2   4  164.68   11.30
   1  -2   4  153.68   10.10
   1  -2   4  143.99   10.40
  -1  -2  -4  155.48   10.20
  -1  -2  -4  145.59   10.60
  -1  -2  -4  157.18   10.60
   1  -2   4  151.88   10.40
  -1  -2  -4  155.58   10.70
  -1   2  -4  159.48   11.00
   1   2   4  160.58   10.80
   1   2   4  149.49    9.60
   1   2   4  152.48   10.20
   1   2   4  145.39   10.20
  -1   2  -4  142.99   10.40
  -1   2  -4  151.98    9.80
  -1   2  -4  151.58   10.40
   1   2   4  160.68   10.70
   1   2   4  151.48   10.50
   1   2   4  156.68   10.30
  -1   2  -4  144.39   10.40
  -1   2  -4  149.39    9.80
   1   2   4  159.48    9.90
   2  -2   4  132.19    9.90
  -2  -2  -4  113.69    8.80
  -2  -2  -4  116.69    9.20
  -2  -2  -4  118.89    9.50
   2  -2   4  140.49    9.00
  -2  -2  -4  119.09    9.00
   2  -2   4  135.69    8.50
  -2  -2  -4  112.29    8.90
   2  -2   4  127.99    9.20
   2  -2   4  146.09    9.20
  -2  -2  -4  116.29    9.20
  -2  -2  -4  118.59    9.00
   2  -2   4  156.98    9.90
   2  -2   4  141.09    9.50
  -2   2  -4  136.79    9.20
  -2   2  -4  151.08   10.00
   2   2   4  114.09    8.70
  -2   2  -4  141.79    9.30
  -2   2  -4  145.29    9.30
   2   2   4  113.29    9.20
  -2   2  -4  144.99    8.30
   2   2   4  115.19    8.80
  -2   2  -4  137.79    9.20
  -2   2  -4  150.38   10.30
   2   2   4  127.09    9.00
   2   2   4  122.09    9.10
   2   2   4  112.59    8.40
   2   2   4  113.99    8.90
  -2   2  -4  145.49    8.80
   2   2   4  114.59    9.50
  -3  -2  -4    7.70    3.20
   3  -2   4    6.50    1.80
   3  -2   4    2.30    2.40
   3  -2   4    8.50    2.50
  -3  -2  -4    7.10    2.10
   3  -2   4    7.80    2.30
   3  -2   4    5.50    1.50
  -3  -2  -4    6.80    2.30
   3  -2   4    3.40    3.00
  -3  -2  -4    4.70    1.80
  -3  -2  -4    7.00    2.20
  -3  -2  -4   10.20    2.60
   3  -2   4    8.10    2.30
  -3  -2  -4    4.90    2.30
   3   2   4    4.00    2.20
   3   2   4    5.30    1.90
  -3   2  -4    5.90    2.10
  -3   2  -4   -0.40    2.40
   3   2   4    4.40    2.30
   3   2   4    7.00    2.40
   3   2   4    6.30    2.20
  -3   2  -4    7.00    2.20
  -3   2  -4    6.90    2.30
  -3   2  -4    5.70    2.60
  -3   2  -4    7.20    2.00
  -3   2  -4   10.10    2.60
   3   2   4    9.60    2.40
  -3   2  -4    7.20    1.10
   3   2   4    7.10    2.20
   3   2   4    6.30    2.00
   4  -2   4 4249.38  235.88
  -4  -2  -4 4001.10  235.78
  -4  -2  -4 4246.77  236.88
   4  -2   4 4028.50  236.08
  -4  -2  -4 3949.10  235.08
  -4  -2  -4 4186.78  236.08
   4  -2   4 3684.93  234.68
  -4  -2  -4 4036.00  236.08
   4  -2   4 3925.41  235.68
  -4  -2  -4 4005.10  236.08
  -4  -2  -4 3884.51  235.68
   4  -2   4 4344.27  236.18
   4  -2   4 4019.40  236.58
  -4   2  -4 3844.72  235.88
  -4   2  -4 4005.60  235.98
  -4   2  -4 4061.89  235.78
  -4   2  -4 4028.40  236.38
   4   2   4 3916.41  235.88
   4   2   4 4096.79  236.18
   4   2   4 3938.31  236.18
  -4   2  -4 3935.61  236.08
   4   2   4 3851.41  235.88
   4   2   4 3968.50  235.78
   4   2   4 3822.22  235.08
  -4   2  -4 4369.86  235.98
   4   2   4 4096.99  235.98
  -4   2  -4 3880.11  234.68
   4   2   4 3952.90  235.68
  -4   2  -4 4328.37  235.88
  -5  -2  -4    4.20    1.00
   5  -2   4   -2.30    2.80
   5  -2   4    1.10    2.00
  -5  -2  -4    5.90    2.40
  -5  -2  -4    3.40    3.20
  -5  -2  -4    3.30    3.30
   5  -2   4    4.30    2.40
   5  -2   4    5.00    3.00
  -5  -2  -4    1.50    2.00
   5  -2   4    0.00    2.60
  -5  -2  -4    3.00    2.40
   5  -2   4   -0.20    2.30
  -5   2  -4    4.20    2.20
  -5   2  -4    2.30    2.40
   5   2   4    1.70    1.90
   5   2   4    1.60    2.20
  -5   2  -4    2.50    2.30
   5   2   4    2.70    3.00
   5   2   4   -0.30    2.20
  -5   2  -4    7.80    2.90
  -5   2  -4    6.30    3.10
  -5   2  -4    2.80    2.10
   5   2   4    3.80    2.40
   5   2   4    3.00    2.90
   5   2   4    2.80    1.10
   5   2   4    2.40    2.10
   6  -2   4 1015.30   60.49
   6  -2   4 1008.90   59.59
  -6  -2  -4  984.00   60.29
   6  -2   4  973.60   59.99
   6  -2   4  968.50   60.09
  -6  -2  -4  961.80   60.09
  -6  -2  -4 1016.60   59.89
  -6  -2  -4  949.11   59.29
   6   2   4  981.70   59.79
  -6   2  -4 1059.29   59.89
   6   2   4 1018.30   59.89
  -6   2  -4  965.60   59.89
   6   2   4 1021.00   59.99
   6   2   4  989.10   59.99
  -6   2  -4  915.51   59.89
  -6   2  -4 1002.40   60.69
  -6   2  -4 1010.60   59.89
   6   2   4 1021.80   59.69
  -6   2  -4 1034.90   60.49
  -7  -2  -4   79.29    7.40
  -7  -2  -4   79.29    6.60
  -7  -2  -4   80.99    7.90
  -7  -2  -4   78.09    7.60
   7  -2   4   66.39    8.10
   7  -2   4   72.59    6.80
   7  -2   4   89.99    8.60
   7  -2   4   87.09    8.10
   7   2   4   66.49    7.40
   7   2   4   75.69    8.10
  -7   2  -4   70.59    7.60
  -7   2  -4   84.19    7.40
   7   2   4   66.19    7.60
  -7   2  -4   67.29   10.00
   7   2   4   79.89    7.10
  -7   2  -4   73.89    7.70
   7   2   4   74.79    7.30
  -7   2  -4   80.89    7.40
  -8  -2  -4   -0.80    3.40
  -8  -2  -4    4.30    3.50
   8  -2   4   -4.70    5.10
   8  -2   4    0.30    4.40
   8  -2   4   -0.20    2.90
   8  -2   4   -0.20    3.60
  -8  -2  -4    1.50    3.20
  -8  -2  -4   -1.90    2.60
  -8   2  -4    3.80    3.20
   8   2   4    1.80    3.20
   8   2   4    2.70    3.50
   8   2   4    0.20    4.00
  -8   2  -4    1.20    3.80
   8   2   4    4.70    2.80
  -8   2  -4   -2.30    3.30
   8   2   4    2.80    3.70
  -8   2  -4    8.20    3.30
  -8   2  -4   -1.70    3.90
  -9  -2  -4    7.60    3.80
   9  -2   4   -1.20    4.70
   9  -2   4    0.00    3.80
  -9  -2  -4   -2.30    3.80
   9   2   4   12.40    4.40
  -9   2  -4    0.20    4.10
  -9   2  -4   -0.30    4.00
  -9   2  -4    9.00    4.10
   9   2   4   -2.50    2.80
   9   2   4   -3.60    4.50
  10  -2   4  966.60   60.09
 -10  -2  -4  954.00   58.89
 -10  -2  -4  926.11   61.09
  10  -2   4  975.10   59.39
  10   2   4  951.10   58.69
  10   2   4  977.60   59.99
 -10   2  -4  968.50   59.29
  10   2   4 1018.50   59.69
 -11  -2  -4   21.50    5.20
  11  -2   4   11.50    5.80
  11  -2   4    2.20    7.10
 -11  -2  -4   19.80    7.10
  11   2   4   17.60    5.10
 -11   2  -4   19.70    7.00
  11   2   4   23.50    7.80
 -11   2  -4   23.40    6.00
  11   2   4   25.90    7.50
 -10  -3   4   20.20    3.90
  10  -3  -4   17.50    3.90
  10  -3  -4   15.00    5.50
 -10  -3   4   16.00    5.20
 -10   3   4   36.20    8.40
  10   3  -4   22.00    4.30
  10   3  -4   12.50    3.10
  10   3  -4   20.90    6.80
 -10   3   4   12.70    5.90
  10   3  -4   26.00    7.20
 -10   3   4   15.50    4.20
  10   3  -4    8.30    7.10
   9  -3  -4  149.29   11.10
  -9  -3   4  165.68   14.50
   9  -3  -4  152.78   12.00
  -9  -3   4  143.79   12.20
   9  -3  -4  141.19   11.40
  -9  -3   4  156.58   11.90
  -9  -3   4  154.48   12.20
   9   3  -4  154.98   13.90
  -9   3   4  156.28   15.60
  -9   3   4  165.68   12.00
   9   3  -4  139.99   14.60
  -9   3   4  142.79   13.00
   9   3  -4  156.38   10.80
   9   3  -4  124.49   13.40
   9   3  -4  152.98   11.40
  -9   3   4  151.28   17.80
  -8  -3   4    3.00    3.30
   8  -3  -4    4.00    2.50
   8  -3  -4    3.50    4.30
  -8  -3   4   -3.50    3.60
   8  -3  -4   -1.70    3.00
  -8  -3   4    8.00    3.80
  -8  -3   4    6.20    5.30
   8  -3  -4    3.20    2.90
   8  -3  -4    4.80    3.00
  -8   3   4   -1.10    3.70
  -8   3   4    0.50    2.30
   8   3  -4    4.30    3.00
   8   3  -4    0.10    4.70
   8   3  -4    2.50    4.40
  -8   3   4   -5.60    5.30
   8   3  -4    6.00    2.60
  -8   3   4    5.50    4.90
  -8   3   4    2.90    3.20
  -7  -3   4   52.29    6.10
   7  -3  -4   45.50    5.90
  -7  -3   4   62.89    6.70
  -7  -3   4   47.40    5.60
   7  -3  -4   48.60    4.70
   7  -3  -4   37.60    4.80
  -7  -3   4   41.40    4.90
   7  -3  -4   41.90    5.20
   7  -3  -4   49.00    6.00
   7  -3  -4   40.60    5.30
  -7  -3   4   34.50    6.60
   7   3  -4   49.30    7.10
   7   3  -4   40.50    6.10
  -7   3   4   41.90    7.30
  -7   3   4   59.09    6.50
   7   3  -4   47.20    5.20
  -7   3   4   42.90    6.90
  -7   3   4   45.40    5.30
  -7   3   4   46.80    5.50
   7   3  -4   42.70    5.00
   7   3  -4   41.80    4.30
  -6  -3   4   41.70    5.10
  -6  -3   4   45.90    5.10
   6  -3  -4   36.60    5.20
  -6  -3   4   48.80    5.80
   6  -3  -4   41.90    5.10
  -6  -3   4   30.40    6.00
   6  -3  -4   39.60    4.30
   6  -3  -4   34.10    4.50
   6  -3  -4   40.60    4.80
  -6   3   4   49.00    6.30
   6   3  -4   36.30    4.50
   6   3  -4   42.70    6.50
   6   3  -4   44.10    5.20
  -6   3   4   45.60    7.00
  -6   3   4   44.40    4.80
  -6   3   4   47.10    6.00
   5  -3  -4  886.51   50.79
   5  -3  -4  895.81   49.90
  -5  -3   4  796.42   50.19
  -5  -3   4  767.22   51.49
  -5  -3   4  774.92   51.19
   5  -3  -4  818.72   50.69
   5  -3  -4  854.61   51.49
  -5  -3   4  793.62   50.29
   5  -3  -4  912.71   49.90
  -5  -3   4  813.12   51.89
  -5   3   4  783.62   50.69
   5   3  -4  789.42   51.19
  -5   3   4  843.22   51.09
  -5   3   4  905.61   50.09
  -5   3   4  873.41   50.29
   5   3  -4  814.02   51.89
  -5   3   4  915.61   52.39
   5   3  -4  816.12   50.29
  -5   3   4  914.11   51.69
   5   3  -4  771.12   50.39
  -5   3   4  873.01   49.60
  -4  -3   4    7.10    2.70
   4  -3  -4    8.60    2.60
   4  -3  -4   11.50    2.30
  -4  -3   4    8.30    2.60
   4  -3  -4    6.90    3.70
   4  -3  -4   10.50    2.70
   4  -3  -4    7.40    2.60
  -4  -3   4   11.00    3.50
  -4  -3   4    8.00    2.50
  -4  -3   4    8.60    2.60
  -4  -3   4   11.90    3.70
   4  -3  -4    9.20    3.20
   4  -3  -4   11.60    2.90
   4  -3  -4    9.30    2.10
  -4  -3   4    4.20    3.70
  -4   3   4   11.40    2.40
   4   3  -4    7.70    3.90
  -4   3   4    9.60    1.50
   4   3  -4   16.10    4.80
  -4   3   4    1.80    2.30
   4   3  -4   13.00    3.40
   4   3  -4   12.50    3.20
   4   3  -4   10.60    2.70
  -4   3   4    8.90    2.10
   4   3  -4    7.00    2.30
   4   3  -4   18.10    5.00
  -4   3   4    5.90    2.90
  -4   3   4   10.70    3.60
  -4   3   4   10.70    3.30
   4   3  -4    7.70    2.30
  -3  -3   4  845.32   51.09
   3  -3  -4  921.01   52.89
   3  -3  -4  892.41   52.29
   3  -3  -4  928.71   50.69
  -3  -3   4  773.72   52.49
  -3  -3   4  782.42   51.49
  -3  -3   4  781.12   52.39
   3  -3  -4  960.10   51.29
  -3  -3   4  802.32   51.69
   3  -3  -4  936.11   51.89
  -3  -3   4  768.22   52.39
   3  -3  -4  936.61   52.09
  -3  -3   4  812.52   52.89
   3  -3  -4  952.00   52.09
   3  -3  -4  984.00   54.99
   3   3  -4  779.92   51.69
   3   3  -4  738.83   52.29
  -3   3   4  961.90   52.99
  -3   3   4  894.11   51.19
   3   3  -4  743.93   51.99
   3   3  -4  738.43   51.69
   3   3  -4  790.32   51.59
   3   3  -4  794.72   51.89
  -3   3   4  941.81   52.69
   3   3  -4  780.02   52.19
  -3   3   4  951.60   52.09
  -3   3   4  960.00   50.49
  -3   3   4  936.81   52.09
  -2  -3   4  197.88   12.20
   2  -3  -4  189.88   13.00
  -2  -3   4  183.38   12.90
   2  -3  -4  192.68   12.90
   2  -3  -4  193.38   12.40
  -2  -3   4  188.68   13.80
  -2  -3   4  197.18   12.90
   2  -3  -4  191.18   13.80
   2  -3  -4  166.78   13.10
   2  -3  -4  169.28   12.90
  -2  -3   4  179.58   12.70
   2  -3  -4  198.28   13.10
  -2  -3   4  197.18   13.90
  -2  -3   4  199.98   14.00
   2  -3  -4  176.28   11.60
   2   3  -4  201.98   13.60
  -2   3   4  189.58   13.70
   2   3  -4  203.08   12.90
  -2   3   4  181.78   12.30
  -2   3   4  191.88   11.40
  -2   3   4  203.38   13.30
   2   3  -4  190.68   13.80
   2   3  -4  172.38   12.70
   2   3  -4  179.48   12.90
  -2   3   4  180.38   12.50
  -2   3   4  187.98   13.60
   2   3  -4  199.88   13.10
  -2   3   4  182.78   13.00
   2   3  -4  200.18   13.60
  -1  -3   4  224.08   16.20
  -1  -3   4  232.68   14.70
   1  -3  -4  252.57   15.10
  -1  -3   4  237.58   15.40
   1  -3  -4  241.68   15.80
   1  -3  -4  245.58   16.20
  -1  -3   4  240.78   16.10
  -1  -3   4  236.28   16.40
   1  -3  -4  243.08   15.60
   1  -3  -4  211.28   16.50
   1  -3  -4  240.58   14.50
   1  -3  -4  224.88   15.50
   1  -3  -4  229.98   15.80
  -1  -3   4  212.78   15.30
   1   3  -4  224.48   15.90
  -1   3   4  224.38   15.90
   1   3  -4  245.68   16.40
  -1   3   4  237.88   14.30
  -1   3   4  229.08   15.00
  -1   3   4  226.38   15.20
  -1   3   4  236.28   15.60
   1   3  -4  235.28   15.20
   1   3  -4  217.78   15.40
   1   3  -4  227.88   15.50
  -1   3   4  251.47   15.80
   1   3  -4  228.08   15.50
  -1   3   4  258.97   16.50
   1   3  -4  239.68   15.80
   0  -3  -4   33.90    4.50
   0  -3   4   37.50    4.10
   0  -3   4   33.50    4.70
   0  -3  -4   32.50    3.80
   0  -3  -4   39.60    5.30
   0  -3  -4   37.50    4.50
   0  -3   4   44.70    5.60
   0  -3   4   32.90    4.20
   0  -3   4   33.50    4.30
   0  -3  -4   37.20    5.20
   0  -3  -4   32.70    3.90
   0  -3   4   40.90    5.50
   0  -3  -4   37.20    4.70
   0   3  -4   34.70    4.00
   0   3   4   36.60    4.50
   0   3  -4   33.30    4.30
   0   3  -4   43.70    4.90
   0   3  -4   30.70    4.40
   0   3   4   41.50    5.00
   0   3  -4   35.70    4.50
   0   3   4   33.50    4.90
   0   3  -4   33.10    4.80
   0   3  -4   26.30    4.00
   0   3   4   33.50    4.50
   0   3   4   39.20    4.70
   0   3   4   31.10    3.70
   0   3   4   31.10    3.80
  -1  -3  -4 3118.79  194.88
   1  -3   4 3356.26  194.98
   1  -3   4 3219.78  194.08
  -1  -3  -4 3258.37  194.08
  -1  -3  -4 3313.37  193.48
   1  -3   4 3552.64  194.38
   1  -3   4 3713.43  193.58
  -1  -3  -4 3169.88  194.08
   1  -3   4 3313.77  194.08
  -1  -3  -4 3203.28  194.38
   1  -3   4 3251.67  194.38
  -1  -3  -4 3225.38  194.28
   1  -3   4 3247.68  194.88
  -1  -3  -4 3171.88  194.18
  -1  -3  -4 3264.67  193.88
   1   3   4 3240.08  193.58
   1   3   4 3342.57  194.78
  -1   3  -4 3262.17  193.48
   1   3   4 3366.46  194.38
  -1   3  -4 3352.96  194.28
  -1   3  -4 3380.06  194.28
   1   3   4 3220.98  193.78
   1   3   4 3336.07  194.28
  -1   3  -4 3760.02  194.28
  -1   3  -4 3207.98  193.38
  -1   3  -4 3326.67  194.78
   1   3   4 3183.98  194.18
  -1   3  -4 3207.68  194.18
  -1   3  -4 3182.68  194.68
  -2  -3  -4   36.50    5.40
   2  -3   4   36.90    4.90
   2  -3   4   38.50    4.70
  -2  -3  -4   45.20    5.40
  -2  -3  -4   45.50    5.40
   2  -3   4   49.60    5.60
   2  -3   4   51.19    6.50
   2  -3   4   36.00    5.60
  -2  -3  -4   40.40    4.80
  -2  -3  -4   48.60    5.30
   2   3   4   44.40    5.60
  -2   3  -4   39.60    4.90
  -2   3  -4   50.59    6.50
  -2   3  -4   38.20    3.80
  -2   3  -4   40.40    5.00
  -2   3  -4   41.30    5.20
  -2   3  -4   39.60    6.10
   2   3   4   40.30    4.70
   2   3   4   39.60    4.60
   2   3   4   39.50    4.50
  -2   3  -4   32.40    4.20
   2   3   4   36.90    4.00
   2   3   4   34.30    5.40
  -2   3  -4   34.50    3.80
   2   3   4   36.10    4.50
   2   3   4   42.50    5.50
  -2   3  -4   42.20    4.40
   3  -3   4  151.58   11.30
   3  -3   4  165.08   10.70
  -3  -3  -4  143.29   10.70
   3  -3   4  156.48   10.80
  -3  -3  -4  143.69   11.10
  -3  -3  -4  142.69   10.90
   3  -3   4  154.18   11.10
  -3  -3  -4  120.49   10.60
  -3  -3  -4  137.39   11.10
   3  -3   4  138.89   12.00
  -3  -3  -4  129.49   11.20
   3   3   4  134.59   11.10
   3   3   4  136.29   10.80
  -3   3  -4  154.88   11.10
   3   3   4  134.79   10.50
   3   3   4  134.79   10.20
  -3   3  -4  169.38   11.20
   3   3   4  131.19    9.90
  -3   3  -4  160.38   10.50
  -3   3  -4  165.28    9.20
   3   3   4  140.09   11.70
  -3   3  -4  165.68   10.80
  -3   3  -4  152.58    9.10
  -3   3  -4  180.88   12.30
  -3   3  -4  141.19   11.40
   3   3   4  127.69   10.40
   3   3   4  126.79   10.80
  -4  -3  -4   47.10    6.10
  -4  -3  -4   59.69    6.20
  -4  -3  -4   46.80    5.60
   4  -3   4   33.30    5.60
   4  -3   4   42.30    5.40
   4  -3   4   53.19    6.20
  -4  -3  -4   48.00    6.30
  -4  -3  -4   51.59    6.40
   4  -3   4   52.19    6.00
   4  -3   4   39.90    5.50
  -4  -3  -4   50.39    5.90
   4   3   4   52.89    6.00
   4   3   4   42.50    5.00
  -4   3  -4   50.69    5.80
  -4   3  -4   59.49    7.00
   4   3   4   31.10    4.60
   4   3   4   47.70    4.80
  -4   3  -4   51.59    5.70
   4   3   4   46.10    5.40
  -4   3  -4   46.30    5.50
   4   3   4   48.20    5.80
   4   3   4   34.70    5.40
  -4   3  -4   55.59    6.00
   4   3   4   51.09    6.40
  -4   3  -4   40.20    6.10
  -5  -3  -4   52.09    6.50
  -5  -3  -4   42.40    4.90
   5  -3   4   39.90    5.00
  -5  -3  -4   47.10    5.90
   5  -3   4   33.50    5.40
   5  -3   4   41.10    5.70
  -5  -3  -4   31.60    5.10
   5  -3   4   53.19    6.40
  -5   3  -4   42.00    5.80
  -5   3  -4   44.20    8.50
   5   3   4   40.60    5.20
   5   3   4   33.70    4.40
  -5   3  -4   38.40    5.50
  -5   3  -4   41.10    5.20
   5   3   4   42.00    5.40
  -5   3  -4   38.80    5.40
   5   3   4   29.60    4.90
  -5   3  -4   41.90    5.50
   5   3   4   40.70    6.00
   5   3   4   38.10    4.90
   5   3   4   43.00    5.00
  -6  -3  -4    8.80    3.60
  -6  -3  -4    7.70    2.40
   6  -3   4   14.80    3.30
  -6  -3  -4   10.60    4.80
  -6  -3  -4    8.00    4.00
   6  -3   4   -5.00    3.70
   6  -3   4    7.10    3.80
   6  -3   4    8.30    4.50
  -6  -3  -4    4.80    3.80
  -6   3  -4    6.90    3.70
  -6   3  -4   12.50    3.40
  -6   3  -4    9.80    4.70
   6   3   4    8.00    3.20
   6   3   4    4.90    3.10
   6   3   4    6.80    3.30
   6   3   4    7.20    2.40
   6   3   4    5.70    4.20
   6   3   4    9.10    3.30
  -6   3  -4    2.10    3.20
  -7  -3  -4 1304.97   78.79
   7  -3   4 1388.66   80.29
   7  -3   4 1297.97   80.09
  -7  -3  -4 1405.66   83.99
   7  -3   4 1302.27   79.79
   7  -3   4 1255.47   79.69
  -7  -3  -4 1328.07   79.89
  -7  -3  -4 1361.96   79.69
  -7   3  -4 1289.87   79.69
   7   3   4 1375.76   79.29
  -7   3  -4 1310.37   80.09
   7   3   4 1340.47   79.49
   7   3   4 1360.66   79.79
  -7   3  -4 1265.27   79.49
   7   3   4 1329.77   79.29
  -7   3  -4 1286.37   79.59
   7   3   4 1268.87   79.39
  -7   3  -4 1315.07   79.29
   8  -3   4    5.20    5.30
  -8  -3  -4   -1.30    3.80
  -8  -3  -4    7.30    4.20
   8  -3   4   -3.50    4.20
  -8   3  -4    0.00    4.30
  -8   3  -4    0.90    3.90
   8   3   4    0.90    3.50
   8   3   4   -2.60    4.50
   8   3   4   -4.80    4.00
  -8   3  -4    3.90    4.40
  -9  -3  -4  191.58   15.20
   9  -3   4  198.98   16.20
   9  -3   4  172.88   16.10
  -9  -3  -4  197.38   16.10
   9   3   4  212.78   16.00
   9   3   4  202.28   16.40
   9   3   4  202.68   14.60
  -9   3  -4  184.58   15.70
  -9   3  -4  181.88   15.70
  -9   3  -4  193.98   15.90
  10  -3   4    0.10    7.20
  10  -3   4    0.90    6.00
 -10  -3  -4    7.00    4.60
  10   3   4   10.30    6.20
 -10   3  -4    1.90    5.00
  10   3   4    8.00    4.30
  10   3   4   -5.50    6.30
  -9  -4   4    9.50    4.70
  -9  -4   4   21.10    8.30
   9  -4  -4   -2.90    8.00
   9  -4  -4    1.30    4.10
  -9  -4   4    9.90    4.80
  -9   4   4    3.20    7.90
   9   4  -4  -12.10    6.70
  -9   4   4   12.70    7.60
  -9   4   4    3.10    4.70
   9   4  -4    5.30    3.90
   9   4  -4   -1.30    6.50
   8  -4  -4  578.94   35.30
  -8  -4   4  570.04   35.00
  -8  -4   4  558.84   35.80
  -8  -4   4  549.25   37.50
   8  -4  -4  521.65   37.60
  -8   4   4  498.95   36.70
   8   4  -4  516.65   36.30
  -8   4   4  593.94   38.40
  -8   4   4  585.64   35.70
   8   4  -4  556.84   34.80
   7  -4  -4    4.50    3.70
   7  -4  -4    9.80    5.20
   7  -4  -4   11.90    4.10
  -7  -4   4   11.20    4.90
  -7  -4   4   16.80    4.50
  -7  -4   4   20.30    7.10
  -7   4   4    8.20    4.50
   7   4  -4    5.40    3.30
   7   4  -4    9.80    5.10
  -7   4   4   13.00    6.10
   7   4  -4   -3.50    6.10
  -6  -4   4  101.99   11.50
  -6  -4   4  134.39   12.90
   6  -4  -4  134.69   10.90
   6  -4  -4  141.69   11.00
  -6  -4   4  111.99   10.20
  -6  -4   4  102.79   10.60
   6  -4  -4  116.59    8.80
   6  -4  -4  162.78   11.20
   6   4  -4  119.79   10.10
   6   4  -4  100.99   10.00
  -6   4   4  144.99   11.40
   6   4  -4  112.99   11.50
  -6   4   4  170.38   13.00
  -5  -4   4  143.49   12.40
  -5  -4   4  131.89   10.60
  -5  -4   4  134.39   10.70
   5  -4  -4  127.69    9.70
   5  -4  -4  128.89   11.10
   5  -4  -4  133.99   10.90
  -5  -4   4  139.89   13.30
   5  -4  -4  144.39   11.10
  -5  -4   4  140.19   10.40
   5  -4  -4  134.29    9.40
  -5   4   4  131.39    9.40
  -5   4   4  133.29   10.30
  -5   4   4  135.89   12.60
  -5   4   4  130.39   11.30
   5   4  -4  114.49   11.00
   5   4  -4  131.89   10.80
   5   4  -4  139.39   10.70
  -5   4   4  126.69    9.60
   5   4  -4  131.09   11.40
   4  -4  -4    9.00    3.70
  -4  -4   4   13.00    3.30
  -4  -4   4    6.80    3.10
   4  -4  -4   19.60    4.50
  -4  -4   4   19.50    4.00
  -4  -4   4    8.00    4.70
   4  -4  -4   21.60    4.80
   4  -4  -4   11.80    3.80
   4  -4  -4   10.40    3.00
   4  -4  -4   10.50    2.60
  -4  -4   4    8.30    5.40
  -4   4   4   13.30    2.20
   4   4  -4    9.80    5.10
   4   4  -4   -2.30    4.50
  -4   4   4   15.90    2.80
  -4   4   4    8.50    3.80
  -4   4   4    5.60    4.60
  -4   4   4   20.00    5.20
   4   4  -4    9.70    3.50
   4   4  -4   12.50    4.50
   4   4  -4   12.50    3.30
  -4   4   4    5.20    2.90
   3  -4  -4   12.70    3.50
   3  -4  -4    9.10    2.70
  -3  -4   4    6.30    3.20
   3  -4  -4   -0.80    3.70
   3  -4  -4   10.70    2.80
  -3  -4   4    7.40    3.50
   3  -4  -4   10.20    3.40
  -3  -4   4    6.10    4.50
  -3  -4   4    6.30    3.30
   3  -4  -4    4.90    3.30
  -3  -4   4    9.70    4.20
  -3   4   4   12.40    1.90
  -3   4   4    5.20    3.00
  -3   4   4    2.50    4.30
   3   4  -4   14.20    3.50
   3   4  -4    8.70    3.50
  -3   4   4    4.10    3.10
   3   4  -4   -3.30    5.90
  -3   4   4    7.70    2.50
   3   4  -4    8.80    3.70
   3   4  -4    6.10    3.40
  -3   4   4    9.10    4.70
   2  -4  -4 1310.27   78.49
   2  -4  -4 1375.46   79.89
  -2  -4   4 1349.56   79.89
   2  -4  -4 1422.36   80.09
   2  -4  -4 1161.38   79.59
  -2  -4   4 1401.76   78.89
  -2  -4   4 1325.57   80.69
   2  -4  -4 1406.66   79.99
  -2  -4   4 1348.17   80.49
  -2  -4   4 1232.58   79.59
   2  -4  -4 1297.37   80.09
   2  -4  -4 1363.66   78.99
  -2  -4   4 1285.47   79.79
   2   4  -4 1264.77   80.59
   2   4  -4 1294.77   79.89
   2   4  -4 1310.27   79.99
  -2   4   4 1342.57   79.99
  -2   4   4 1367.66   78.89
   2   4  -4 1301.27   79.39
  -2   4   4 1377.36   78.29
  -2   4   4 1256.87   79.89
  -2   4   4 1417.86   81.09
   2   4  -4 1273.87   79.79
   2   4  -4 1348.27   79.79
  -2   4   4 1405.36   80.79
   1  -4  -4   33.80    5.90
   1  -4  -4   24.50    4.50
  -1  -4   4   31.60    5.30
   1  -4  -4   36.30    5.40
  -1  -4   4   34.60    4.70
   1  -4  -4   30.60    4.30
   1  -4  -4   30.30    4.90
   1  -4  -4   30.30    3.70
   1  -4  -4   44.40    5.70
  -1  -4   4   38.00    5.20
  -1  -4   4   39.70    5.80
  -1  -4   4   39.60    4.50
  -1   4   4   32.20    6.50
   1   4  -4   33.80    5.00
   1   4  -4   31.30    5.10
   1   4  -4   37.50    4.60
  -1   4   4   36.00    4.50
   1   4  -4   29.10    6.10
  -1   4   4   35.80    5.70
   1   4  -4   34.30    6.10
  -1   4   4   41.00    5.30
  -1   4   4   38.70    5.50
   1   4  -4   34.50    5.10
  -1   4   4   33.50    4.20
  -1   4   4   40.00    5.80
   1   4  -4   27.60    5.00
   0  -4   4 1140.09   70.49
   0  -4  -4 1136.39   69.69
   0  -4  -4 1096.09   70.59
   0  -4  -4 1203.48   70.49
   0  -4  -4 1159.88   70.29
   0  -4   4 1099.99   69.29
   0  -4  -4 1055.29   70.59
   0  -4   4 1198.68   70.49
   0  -4   4 1174.38   70.59
   0  -4  -4 1196.58   69.19
   0  -4   4 1224.18   70.19
   0  -4  -4 1116.09   70.19
   0  -4   4 1177.28   71.39
   0  -4  -4 1146.39   70.39
   0   4   4 1235.08   70.59
   0   4  -4 1059.49   70.29
   0   4  -4 1123.39   70.29
   0   4   4 1209.08   71.39
   0   4  -4 1217.98   69.49
   0   4   4 1166.28   69.19
   0   4  -4 1229.68   70.59
   0   4   4 1185.98   70.79
   0   4  -4 1208.98   69.89
   0   4  -4 1170.78   70.39
   0   4   4 1137.09   69.99
   0   4   4 1169.98   69.59
   0   4  -4 1176.98   71.49
   0   4  -4 1214.28   71.39
   0   4   4 1181.08   70.49
  -1  -4  -4   11.40    4.60
   1  -4   4   11.60    4.50
   1  -4   4   11.80    3.70
  -1  -4  -4   17.00    4.40
  -1  -4  -4   14.60    4.00
  -1  -4  -4   14.60    4.30
   1  -4   4   16.00    4.40
   1  -4   4    9.10    4.50
  -1  -4  -4    5.50    3.80
   1  -4   4   18.10    4.00
   1  -4   4   15.80    4.90
  -1  -4  -4    9.60    4.50
  -1  -4  -4    7.20    3.60
  -1  -4  -4   10.20    2.80
  -1   4  -4   18.40    4.90
  -1   4  -4   19.20    4.20
   1   4   4   14.70    3.10
  -1   4  -4   15.50    3.80
   1   4   4    9.30    4.00
  -1   4  -4   11.00    4.10
  -1   4  -4   10.90    3.70
  -1   4  -4   17.70    4.50
  -1   4  -4   13.20    2.90
   1   4   4   10.40    3.40
   1   4   4   16.50    4.00
   1   4   4   15.40    4.90
   1   4   4   12.60    3.90
  -1   4  -4   18.50    4.00
   1   4   4    8.20    3.80
  -2  -4  -4   12.70    4.50
   2  -4   4    8.10    4.00
   2  -4   4    1.00    4.10
  -2  -4  -4    0.70    3.60
  -2  -4  -4   -1.10    3.20
  -2  -4  -4    6.00    3.80
  -2  -4  -4    7.40    2.80
   2  -4   4    8.60    3.50
   2  -4   4    6.40    3.90
  -2  -4  -4    8.10    3.80
   2  -4   4    8.40    4.20
   2  -4   4    7.70    4.00
  -2  -4  -4   -1.80    4.70
  -2   4  -4   10.40    2.90
   2   4   4    0.60    3.90
  -2   4  -4    3.70    5.00
  -2   4  -4    7.00    3.20
  -2   4  -4    9.40    4.40
  -2   4  -4    2.20    5.50
  -2   4  -4    7.50    3.30
   2   4   4    0.50    5.20
  -2   4  -4    6.10    3.60
  -2   4  -4    6.00    2.10
   2   4   4    6.00    4.00
   2   4   4    5.50    3.10
   2   4   4    6.00    3.10
   2   4   4    3.80    3.20
   3  -4   4   49.80    6.70
   3  -4   4   63.19    7.00
   3  -4   4   51.39    6.70
   3  -4   4   54.49    6.80
   3  -4   4   49.10    6.90
  -3  -4  -4   47.70    6.70
  -3  -4  -4   62.69    7.10
  -3  -4  -4   55.39    7.20
   3  -4   4   49.60    7.40
  -3  -4  -4   74.29    8.90
  -3  -4  -4   48.10    6.50
   3   4   4   58.39    5.80
  -3   4  -4   56.49    4.80
  -3   4  -4   52.99    6.70
  -3   4  -4   50.69    4.70
   3   4   4   44.40    6.30
   3   4   4   66.29    6.70
   3   4   4   57.19    8.70
  -3   4  -4   53.09    8.10
   3   4   4   65.79    6.80
   3   4   4   49.70    6.10
   3   4   4   59.39    7.20
  -3   4  -4   61.89    6.40
  -3   4  -4   58.79    7.30
  -3   4  -4   61.99    7.30
   3   4   4   47.90    6.50
  -3   4  -4   50.99    8.10
   4  -4   4 1901.81  109.69
   4  -4   4 2091.29  110.29
  -4  -4  -4 1760.82  109.79
  -4  -4  -4 1860.21  109.69
  -4  -4  -4 1641.24  109.29
  -4  -4  -4 1779.82  109.79
   4   4   4 1681.93  109.49
   4   4   4 1682.93  108.99
  -4   4  -4 2086.49  110.79
   4   4   4 1769.02  109.29
  -4   4  -4 2002.40  109.89
   4   4   4 1668.63  109.49
   4   4   4 1611.84  109.29
   4   4   4 1770.62  108.69
  -4   4  -4 1946.51  108.99
  -4   4  -4 2001.50  109.89
  -4   4  -4 2076.19  110.99
   4   4   4 1729.03  109.29
   5  -4   4   53.29    7.60
  -5  -4  -4   43.20    6.50
   5  -4   4   29.50    6.60
   5  -4   4   56.59    6.70
  -5  -4  -4   56.99    7.50
  -5  -4  -4   60.49    6.70
  -5  -4  -4   52.99    7.00
   5  -4   4   42.00    8.60
  -5  -4  -4   45.00    6.10
   5   4   4   56.09    6.80
   5   4   4   45.30    6.10
  -5   4  -4   48.70    8.30
   5   4   4   53.39    6.90
  -5   4  -4   49.30    7.20
   5   4   4   41.90    6.30
  -5   4  -4   53.29    6.40
   5   4   4   63.59    6.40
   5   4   4   57.19    7.10
   6  -4   4  540.05   33.20
  -6  -4  -4  484.85   32.70
   6  -4   4  463.35   33.70
   6  -4   4  586.24   33.20
  -6  -4  -4  435.86   33.70
  -6  -4  -4  496.95   32.70
  -6   4  -4  473.35   33.70
  -6   4  -4  523.25   32.90
  -6   4  -4  560.04   33.50
   6   4   4  488.15   31.20
   6   4   4  472.65   31.80
   6   4   4  491.65   32.10
  -6   4  -4  539.05   33.00
   6   4   4  477.15   32.40
  -7  -4  -4    0.70    4.60
   7  -4   4    2.30    5.50
   7  -4   4    3.10    5.70
  -7  -4  -4    9.40    4.80
  -7   4  -4    2.10    4.40
  -7   4  -4   -0.80    4.80
   7   4   4    4.10    3.10
   7   4   4    3.10    4.60
   7   4   4   11.20    4.80
  -7   4  -4    7.10    4.40
   7   4   4    0.70    3.90
   8  -4   4    8.60    6.80
  -8  -4  -4   -7.00    4.80
   8  -4   4   16.80    5.70
  -8  -4  -4   -2.30    5.30
   8   4   4   17.50    6.40
  -8   4  -4   13.70    5.80
  -8   4  -4    9.60    5.70
   8   4   4    3.30    5.50
  -8   4  -4   10.50    5.50
   8   4   4    7.30    4.70
   9  -4   4   -0.20    7.20
  -9  -4  -4    4.80    8.00
  -9  -4  -4   18.10    5.80
   9  -4   4   -4.10    6.00
  -9   4  -4    2.50    6.80
   9   4   4   -1.20    4.70
  -9   4  -4   14.20    6.30
  -9   4  -4    6.20    7.70
   9   4   4    0.10    5.80
   9   4   4   14.50    6.00
   8   5  -4  112.29   15.20
  -8   5   4  111.09   15.80
  -7  -5   4   45.50    8.70
  -7  -5   4   55.09   10.50
  -7  -5   4   58.39    6.90
   7  -5  -4   58.09    7.70
  -7   5   4   54.29    8.20
  -7   5   4   57.19   10.30
   7   5  -4   55.59    7.00
   7   5  -4   49.90    9.70
   7   5  -4   52.59    8.40
   6  -5  -4    4.40    6.40
  -6  -5   4   12.80    7.80
   6  -5  -4    5.40    5.30
  -6  -5   4    6.50    4.40
  -6  -5   4   -2.20    6.20
   6   5  -4   -6.40    6.00
   6   5  -4    7.60    4.30
  -6   5   4    3.60    6.10
  -6   5   4    9.90    5.60
   6   5  -4    0.40    5.30
  -5  -5   4  648.34   46.20
   5  -5  -4  827.92   45.80
  -5  -5   4  669.93   43.90
  -5  -5   4  666.93   46.10
   5  -5  -4  724.53   45.90
   5   5  -4  685.13   44.80
   5   5  -4  633.74   44.90
   5   5  -4  634.74   46.20
  -5   5   4  749.13   43.30
  -5   5   4  806.62   45.80
  -5   5   4  827.12   47.30
   4  -5  -4   -0.90    5.00
   4  -5  -4   -1.00    4.60
  -4  -5   4    1.90    5.80
  -4  -5   4   -4.00    5.20
  -4  -5   4    1.20    4.30
   4  -5  -4   -0.80    3.10
   4   5  -4    6.30    4.60
   4   5  -4    6.80    4.40
   4   5  -4    2.00    5.60
  -4   5   4    1.40    5.20
  -4   5   4    2.30    3.30
  -4   5   4   -7.80    4.70
   3  -5  -4  416.26   25.40
   3  -5  -4  400.06   25.80
   3  -5  -4  404.96   27.60
  -3  -5   4  418.96   27.20
  -3  -5   4  405.96   28.50
   3  -5  -4  373.66   27.10
  -3  -5   4  396.06   29.00
   3  -5  -4  419.46   27.80
  -3  -5   4  443.36   26.50
   3   5  -4  424.06   27.10
   3   5  -4  387.06   28.60
  -3   5   4  411.66   28.60
  -3   5   4  406.86   25.70
  -3   5   4  433.96   28.10
   3   5  -4  385.76   27.00
   3   5  -4  414.86   27.30
  -2  -5   4   47.10   12.80
   2  -5  -4   49.50    7.40
   2  -5  -4   64.69    8.20
   2  -5  -4   53.09    6.60
  -2  -5   4   60.19    9.50
  -2  -5   4   77.79    9.70
   2  -5  -4   66.69    6.50
  -2  -5   4   52.59    8.30
  -2  -5   4   67.79    8.40
   2  -5  -4   65.09    8.40
   2  -5  -4   69.09    9.10
  -2   5   4   82.09    9.00
  -2   5   4   67.09    6.40
   2   5  -4   59.29    8.70
  -2   5   4   85.49   11.40
   2   5  -4   73.29   10.90
  -2   5   4   69.99    6.90
   2   5  -4   59.59    7.60
  -2   5   4   69.09    9.80
  -2   5   4   53.49    7.60
   2   5  -4   68.59    8.40
   2   5  -4   52.59    7.50
  -1  -5   4   -2.30    3.40
  -1  -5   4   -0.90    5.30
   1  -5  -4   -8.80    4.60
  -1  -5   4    5.30    6.00
  -1  -5   4   12.50    5.60
   1  -5  -4    3.00    3.90
  -1  -5   4    0.20    4.50
   1  -5  -4    2.50    2.90
   1  -5  -4    7.30    5.20
   1  -5  -4    1.20    4.50
  -1   5   4   -0.70    3.00
   1   5  -4    3.40    3.90
  -1   5   4    6.00    4.70
   1   5  -4    2.00    5.10
  -1   5   4    4.30    7.50
  -1   5   4   -2.10    3.00
   1   5  -4    4.90    5.40
  -1   5   4    3.10    4.50
   1   5  -4   -4.00    3.30
  -1   5   4   -4.20    4.60
   1   5  -4    4.50    4.60
   0  -5   4   15.70    5.70
   0  -5   4    8.70    5.90
   0  -5  -4   -5.00    4.90
   0  -5   4    3.10    3.50
   0  -5  -4    7.30    4.80
   0  -5  -4   11.30    5.50
   0  -5   4   13.60    5.90
   0  -5  -4    7.70    3.30
   0  -5   4   16.70    6.20
   0  -5   4   13.00    6.40
   0   5   4    5.00    7.60
   0   5   4    7.90    5.40
   0   5  -4    3.30    5.00
   0   5   4    2.40    3.20
   0   5  -4    9.00    5.10
   0   5  -4   12.40    4.40
   0   5   4    1.00    5.50
   0   5  -4    4.60    3.50
   0   5  -4   11.20    5.60
   0   5  -4    9.60    5.40
   0   5   4    6.10    3.90
   0   5   4   10.30    4.70
   0   5   4   11.50    4.40
   1  -5   4  426.86   29.60
   1  -5   4  431.56   28.40
   1  -5   4  406.46   28.10
   1  -5   4  411.06   28.80
   1  -5   4  440.66   28.80
  -1  -5  -4  448.86   28.70
  -1  -5  -4  417.86   28.10
  -1  -5  -4  423.66   26.90
  -1  -5  -4  448.06   28.80
   1  -5   4  409.26   27.00
  -1  -5  -4  423.16   28.90
  -1   5  -4  416.76   28.10
   1   5   4  438.66   28.90
   1   5   4  389.36   30.60
   1   5   4  431.16   27.70
   1   5   4  430.16   28.30
  -1   5  -4  422.76   26.50
  -1   5  -4  410.66   29.20
  -1   5  -4  424.46   28.20
  -1   5  -4  417.76   27.20
   1   5   4  393.26   30.50
   1   5   4  408.96   27.00
   1   5   4  421.26   31.00
  -1   5  -4  444.06   28.30
  -1   5  -4  406.26   29.90
   2  -5   4   -4.40    6.50
  -2  -5  -4    6.00    6.20
   2  -5   4    4.10    4.00
  -2  -5  -4    5.20    4.10
   2  -5   4    6.30    5.90
  -2  -5  -4   11.20    5.30
   2  -5   4   15.30    6.20
  -2  -5  -4   12.70    3.70
   2  -5   4   12.70    5.10
  -2  -5  -4    9.60    5.20
   2   5   4    2.70    4.60
  -2   5  -4    2.60    4.90
  -2   5  -4   -0.60    3.60
  -2   5  -4   10.80    7.50
   2   5   4   16.70    5.90
   2   5   4  -13.90    5.50
  -2   5  -4    4.10    4.70
  -2   5  -4    3.60    4.50
   2   5   4    3.00    3.80
  -2   5  -4    1.30    2.80
   2   5   4   12.50    5.10
  -2   5  -4   11.20    5.90
   3  -5   4  948.81   55.99
  -3  -5  -4  845.62   55.89
   3  -5   4  857.31   55.09
   3  -5   4  950.60   56.79
   3  -5   4  945.31   56.39
  -3  -5  -4  885.21   56.49
  -3  -5  -4  896.31   55.99
  -3  -5  -4  923.61   55.49
  -3  -5  -4  873.21   56.59
   3  -5   4  889.81   57.49
   3   5   4  895.71   56.49
   3   5   4  900.01   56.09
  -3   5  -4  885.41   57.19
  -3   5  -4  928.71   57.19
   3   5   4  914.11   55.79
  -3   5  -4  918.71   56.29
   3   5   4  932.21   54.79
  -3   5  -4  876.51   53.69
   3   5   4  934.61   55.59
   3   5   4  865.01   55.99
  -3   5  -4  927.81   56.39
  -4  -5  -4    2.70    4.50
   4  -5   4   -2.60    6.50
  -4  -5  -4   -1.30    4.90
   4  -5   4    1.30    4.60
   4  -5   4    2.90    8.10
   4  -5   4   -2.00    5.70
  -4   5  -4   -3.70    5.00
   4   5   4    0.90    4.10
  -4   5  -4   -5.60    5.30
   4   5   4    6.80    4.40
  -4   5  -4    1.90    5.50
   4   5   4   -5.80    5.60
   4   5   4    1.30    4.20
   5  -5   4    5.90    6.40
  -5  -5  -4    4.90    6.10
   5  -5   4   12.30    5.00
   5  -5   4   10.60    6.70
  -5  -5  -4   19.40    5.70
  -5   5  -4   13.40    6.90
   5   5   4    8.20    4.50
   5   5   4   13.20    5.50
   5   5   4    8.30    4.60
   5   5   4   10.10    4.30
  -5   5  -4    7.50    5.80
   6  -5   4   52.99    9.20
  -6  -5  -4   43.40    8.20
   6  -5   4   50.29    7.40
  -6  -5  -4   35.50    7.10
   6  -5   4   33.30    8.50
  -6   5  -4   41.90    8.80
   6   5   4   31.80    6.20
   6   5   4   37.60    7.10
  -6   5  -4   47.90    7.20
  -6   5  -4   43.80    8.60
   6   5   4   54.99    8.00
   6   5   4   40.10    7.40
  -7  -5  -4  613.94   42.50
   7  -5   4  691.73   43.60
  -7  -5  -4  605.94   42.60
   7  -5   4  663.83   43.20
   7   5   4  658.93   41.80
   7   5   4  662.63   42.20
  -7   5  -4  660.53   42.90
   7   5   4  662.13   41.50
  -7   5  -4  623.74   41.80
  -7   5  -4  682.23   43.40
   5  -6  -4   53.79   10.20
  -5  -6   4   45.60   10.50
  -5  -6   4   62.19   10.60
   5  -6  -4   55.69    9.60
  -5   6   4   66.99   10.10
   5   6  -4   65.39    9.50
   5   6  -4   67.29    9.40
  -5   6   4   54.39   11.10
  -4  -6   4   22.70    8.20
   4  -6  -4   14.70    8.30
  -4  -6   4   11.40    5.10
  -4  -6   4   22.30    9.00
   4  -6  -4   28.60    7.20
   4   6  -4   28.10    8.10
   4   6  -4   15.40    6.30
  -4   6   4   30.70    8.10
   4   6  -4    8.10    6.50
  -4   6   4   31.40    8.70
   3  -6  -4    4.70    7.00
  -3  -6   4    3.80    5.10
   3  -6  -4    1.60    5.80
  -3  -6   4   -5.90    7.40
  -3  -6   4   -7.50    8.10
   3   6  -4    3.10    6.10
   3   6  -4   16.20    7.90
  -3   6   4   -7.20    7.20
  -3   6   4   -7.80    6.70
   3   6  -4    8.50    6.50
  -3   6   4  -10.60    4.70
  -2  -6   4  254.37   20.70
  -2  -6   4  250.87   17.60
   2  -6  -4  242.48   19.90
  -2  -6   4  242.38   22.70
   2  -6  -4  226.48   18.90
   2   6  -4  236.08   19.30
  -2   6   4  224.68   20.50
  -2   6   4  252.77   17.70
  -2   6   4  262.37   21.10
   2   6  -4  224.98   18.40
   2   6  -4  275.07   21.70
   1  -6  -4    5.90    6.10
   1  -6  -4    2.80    5.30
  -1  -6   4   15.20    7.40
   1  -6  -4    3.10    6.50
  -1  -6   4    2.40    4.80
  -1  -6   4   18.70    9.40
  -1   6   4   13.60    4.90
  -1   6   4    9.50    9.90
   1   6  -4    4.70    5.10
  -1   6   4    5.00    6.50
   1   6  -4   20.70    7.60
   1   6  -4    4.70    6.50
   0  -6   4  556.64   35.90
   0  -6   4  524.95   37.30
   0  -6   4  494.45   32.90
   0  -6  -4  526.75   35.30
   0  -6  -4  527.45   37.40
   0  -6  -4  483.35   34.10
   0  -6  -4  565.14   33.00
   0   6   4  485.25   35.30
   0   6   4  527.65   35.10
   0   6  -4  542.15   36.40
   0   6  -4  523.85   35.40
   0   6   4  513.65   33.20
   0   6  -4  539.35   33.30
   0   6   4  476.15   34.70
   1  -6   4   31.60    9.50
  -1  -6  -4   23.10    7.20
  -1  -6  -4   16.40    5.70
   1  -6   4   32.50    8.50
  -1  -6  -4   23.50    5.40
   1  -6   4   26.20    8.00
  -1  -6  -4   23.50    7.20
   1  -6   4   21.10    5.30
  -1   6  -4   15.50    7.10
  -1   6  -4   20.90    7.60
  -1   6  -4   30.10    5.50
   1   6   4   28.60    7.50
   1   6   4   26.80    5.60
   1   6   4   37.80    8.00
   1   6   4   15.40    6.70
  -1   6  -4   29.50    7.40
  -2  -6  -4   17.00    5.80
   2  -6   4   13.00    8.20
   2  -6   4   14.80    8.40
  -2  -6  -4   17.00    5.90
   2  -6   4    8.70   10.50
  -2  -6  -4    6.20    7.00
  -2   6  -4   13.50    6.80
  -2   6  -4   13.00   11.00
   2   6   4   14.20    5.80
  -2   6  -4    6.50    7.10
   2   6   4    7.10    7.00
   3  -6   4   13.90    8.70
   3  -6   4    9.50    8.30
   3  -6   4    8.20    5.10
  -3  -6  -4    9.00    5.90
  -3  -6  -4   -1.80    7.60
  -3  -6  -4   14.00    6.30
  -3   6  -4   -1.00    6.10
   3   6   4   13.90    6.20
   3   6   4   -4.30    5.60
   3   6   4    0.70    5.40
  -3   6  -4    0.50    7.90
   3   6   4    2.80    6.40
   4  -6   4  460.55   31.80
   4  -6   4  487.65   32.00
   4  -6   4  454.05   29.00
  -4  -6  -4  373.36   29.70
   4   6   4  372.56   28.00
  -4   6  -4  490.55   31.40
  -4   6  -4  459.55   31.10
   4   6   4  398.16   29.20
   4   6   4  406.06   29.90
   4   6   4  390.96   29.10
   5  -6   4   51.09   11.10
   5  -6   4   48.10    8.10
  -5  -6  -4   38.60    9.50
   5  -6   4   44.70   11.30
   5   6   4   50.69    8.30
   5   6   4   29.10    7.30
   5   6   4   44.10    7.20
   5   6   4   38.10    7.80
  -5   6  -4   25.00    8.60
  -5   6  -4   28.60   10.10
  11   0  -5   -8.30    5.30
  11   0  -5   -7.00    5.70
  11   0  -5    0.90    5.90
 -11   0   5    6.50    4.70
  10   0  -5    3.40    4.80
 -10   0   5   -5.40    3.40
  10   0  -5    6.30    4.90
  10   0  -5    0.40    4.40
   9   0  -5   -0.80    4.00
   9   0  -5    0.30    3.60
  -9   0   5    0.70    3.60
   9   0  -5   -3.30    3.60
   8   0  -5   -0.50    2.90
   8   0  -5    7.60    4.80
  -8   0   5    3.00    3.10
   8   0  -5   -1.10    4.20
   8   0  -5   -1.60    3.00
   8   0  -5    4.50    4.70
   8   0  -5    1.00    2.70
   7   0  -5    5.80    3.30
   7   0  -5   -4.50    3.50
   7   0  -5    3.00    2.80
  -7   0   5   -0.80    2.60
   7   0  -5    2.20    2.50
   7   0  -5    1.80    3.40
   7   0  -5    2.50    2.10
   6   0  -5   -1.40    1.80
   6   0  -5   -0.10    2.20
   6   0  -5   -3.90    2.80
  -6   0   5    3.20    2.30
  -6   0   5   -2.60    3.00
   6   0  -5   -1.30    1.90
   6   0  -5   -0.70    2.80
   6   0  -5   -1.00    2.50
  -5   0   5   -0.50    1.80
  -5   0   5   -0.40    0.70
  -5   0   5   -0.70    0.80
   5   0  -5    0.70    2.50
   5   0  -5    0.30    2.40
   5   0  -5    0.00    2.10
   5   0  -5   -1.00    0.60
  -5   0   5   -3.10    2.40
   5   0  -5    2.40    2.40
   5   0  -5    0.10    0.60
  -5   0   5    0.00    2.10
   4   0  -5    3.20    2.00
  -4   0   5    1.20    0.90
  -4   0   5   -2.50    1.70
   4   0  -5   -0.40    1.70
   4   0  -5   -1.00    1.80
   4   0  -5    1.30    1.90
  -4   0   5    1.20    0.90
  -4   0   5    2.10    2.30
  -4   0   5    0.20    1.40
   4   0  -5    0.60    0.70
   3   0  -5    0.20    1.70
   3   0  -5   -0.70    1.70
  -3   0   5    0.60    0.90
  -3   0   5   -1.20    1.20
   3   0  -5   -0.80    1.40
  -3   0   5   -0.40    0.80
   3   0  -5   -0.40    0.70
  -3   0   5   -0.20    1.00
   3   0  -5   -0.10    0.70
   3   0  -5    0.80    0.80
  -3   0   5    0.00    0.80
  -3   0   5   -2.80    1.60
   3   0  -5    0.30    1.70
  -3   0   5    0.60    1.50
   3   0  -5    0.40    0.80
  -2   0   5    0.20    0.70
   2   0  -5    0.90    0.90
  -2   0   5    1.90    0.90
   2   0  -5    0.40    1.70
   2   0  -5    1.20    1.60
   1   0  -5    0.30    1.50
   1   0  -5    0.10    1.00
   1   0  -5   -1.70    1.00
   1   0  -5   -0.40    0.80
  -1   0   5   -0.50    1.20
   1   0  -5    1.60    1.00
   1   0  -5    1.20    1.40
  -1   0   5   -1.30    1.30
  -1   0   5   -1.60    1.20
   1   0  -5   -0.30    1.40
   0   0   5   -0.90    1.40
   0   0  -5    1.70    1.20
   0   0   5   -1.50    0.70
   0   0  -5   -1.20    1.50
   0   0  -5    0.50    1.00
   0   0  -5   -0.90    1.00
   0   0   5   -0.30    1.10
   0   0   5    1.20    1.20
   0   0  -5    0.40    1.20
   0   0   5   -0.10    1.30
   0   0   5    0.20    1.10
   0   0  -5   -1.10    1.00
   0   0  -5    0.80    1.00
   1   0   5   -1.60    1.20
   1   0   5   -0.80    1.20
   1   0   5    1.00    1.40
  -1   0  -5   -0.60    1.40
  -1   0  -5   -0.90    1.40
  -1   0  -5   -0.90    1.50
  -1   0  -5   -0.90    1.20
   1   0   5    1.00    1.20
  -1   0  -5    0.80    1.40
  -1   0  -5   -0.60    1.20
  -1   0  -5   -0.20    1.40
   1   0   5    0.90    1.30
  -1   0  -5   -0.50    1.00
   1   0   5   -1.40    1.00
   2   0   5    1.60    1.00
  -2   0  -5    0.10    1.40
  -2   0  -5    1.70    1.30
  -2   0  -5    1.30    1.70
  -3   0  -5    1.40    1.70
  -3   0  -5    0.90    1.50
   3   0   5    0.80    0.90
   3   0   5    3.60    2.10
   3   0   5   -0.70    1.50
   3   0   5   -0.20    1.60
  -3   0  -5    0.50    1.10
  -3   0  -5    0.60    1.50
   3   0   5    0.90    1.40
  -3   0  -5    1.90    1.80
  -3   0  -5    0.10    1.40
   3   0   5   -2.00    1.20
   3   0   5   -0.60    1.60
  -3   0  -5    1.30    1.40
  -4   0  -5    3.80    2.30
   4   0   5    1.40    1.70
  -4   0  -5   -0.50    1.60
  -4   0  -5    0.50    1.60
  -4   0  -5    3.50    1.90
   4   0   5    1.70    1.60
   4   0   5   -0.80    2.00
   4   0   5   -0.60    0.80
  -4   0  -5    0.90    1.20
  -4   0  -5    0.10    1.60
   4   0   5    1.90    1.60
   4   0   5    1.60    1.80
   4   0   5   -0.70    1.50
  -4   0  -5    2.00    0.70
  -4   0  -5    1.40    1.60
  -5   0  -5   -1.00    1.90
  -5   0  -5   -1.60    2.70
   5   0   5   -0.10    2.00
   5   0   5   -2.30    1.60
   5   0   5    1.40    2.00
  -5   0  -5    1.60    2.00
  -5   0  -5    1.10    2.20
  -5   0  -5    0.80    1.90
  -5   0  -5   -0.30    1.70
   5   0   5   -1.40    1.70
   5   0   5    1.30    1.70
   5   0   5    1.30    1.60
   6   0   5   -0.70    1.70
   6   0   5   -1.00    2.60
  -6   0  -5    2.30    2.10
  -6   0  -5    2.00    2.30
   6   0   5    3.40    2.30
   6   0   5    0.70    1.70
   6   0   5    1.30    2.50
  -6   0  -5    0.50    2.30
  -6   0  -5   -2.40    2.20
  -6   0  -5   -0.10    3.10
   6   0   5    3.00    2.50
  -6   0  -5   -0.50    2.30
  -6   0  -5   -1.50    1.60
  -7   0  -5    2.20    2.60
   7   0   5   -0.90    2.10
   7   0   5   -2.70    3.10
  -7   0  -5    2.10    2.80
  -7   0  -5    1.20    2.40
   7   0   5    1.00    2.10
   7   0   5    1.00    2.80
  -7   0  -5    0.90    2.70
  -7   0  -5    0.10    2.20
   7   0   5    2.10    2.50
  -8   0  -5    0.00    3.20
  -8   0  -5   -6.00    3.50
  -8   0  -5   -1.90    2.70
   8   0   5    3.00    2.60
  -8   0  -5   -2.60    2.80
   8   0   5    0.40    2.70
   8   0   5   -3.90    2.70
  -8   0  -5    3.30    2.80
   8   0   5   -3.50    3.30
   8   0   5    1.70    3.90
  -9   0  -5   -1.40    3.60
  -9   0  -5   -1.60    3.70
   9   0   5   -8.50    4.20
   9   0   5   -2.30    3.10
  -9   0  -5    4.10    3.80
   9   0   5    4.20    3.30
   9   0   5    0.50    3.10
  -9   0  -5    4.20    3.00
  10   0   5   -3.30    3.60
  10   0   5    0.40    5.60
 -10   0  -5   -1.60    3.50
 -10   0  -5   -4.90    4.00
  11   0   5   -7.90    5.80
 -11   0  -5    5.00    4.10
 -11   0  -5    4.20    7.10
  11   0   5    9.40    4.60
 -11  -1   5    7.90    5.00
  11  -1  -5    6.10    5.70
  11  -1  -5    5.90    6.40
 -11   1   5   10.30    5.40
  11   1  -5    0.60    5.70
  11   1  -5    4.80    6.60
  11   1  -5   -6.70    5.70
  10  -1  -5   13.40    5.00
 -10  -1   5   13.00    4.60
  10  -1  -5   14.60    4.70
  10  -1  -5    8.00    5.70
 -10   1   5   18.50    5.10
  10   1  -5   15.40    5.00
  10   1  -5   16.50    5.60
   9  -1  -5   41.50    6.00
  -9  -1   5   57.39    6.50
   9  -1  -5   54.49    6.70
   9  -1  -5   60.19    6.60
   9   1  -5   66.99    7.70
   9   1  -5   54.79    6.90
   9   1  -5   58.19    8.40
  -9   1   5   59.69    7.50
   8  -1  -5   -4.60    2.60
  -8  -1   5    5.00    3.50
  -8  -1   5    0.10    0.90
   8  -1  -5    2.80    4.30
   8  -1  -5    9.20    3.40
   8  -1  -5    1.50    2.60
   8   1  -5    3.80    3.70
   8   1  -5    5.50    4.60
  -8   1   5    0.70    1.60
  -8   1   5    6.30    3.50
   8   1  -5    0.80    3.50
  -8   1   5    1.80    1.30
   8   1  -5   -2.90    3.40
  -8   1   5    1.50    4.60
  -7  -1   5   37.10    4.60
   7  -1  -5   25.90    4.10
  -7  -1   5   28.80    3.10
  -7  -1   5   32.70    2.70
   7  -1  -5   30.50    2.50
  -7  -1   5   33.20    5.30
   7  -1  -5   26.90    5.20
   7  -1  -5   31.20    3.60
   7  -1  -5   29.70    2.40
   7  -1  -5   26.00    4.50
  -7   1   5   27.00    3.10
   7   1  -5   22.50    6.00
   7   1  -5   29.30    2.20
  -7   1   5   30.40    4.50
   7   1  -5   33.30    4.90
  -7   1   5   35.60    6.10
   7   1  -5   36.10    5.40
   7   1  -5   30.20    4.80
  -7   1   5   35.30    3.00
  -7   1   5   26.50    4.80
   7   1  -5   28.90    2.20
  -6  -1   5   15.90    1.90
   6  -1  -5   14.60    1.90
  -6  -1   5   13.70    3.60
   6  -1  -5   14.90    3.10
   6  -1  -5   14.40    2.40
  -6  -1   5   18.20    2.40
   6  -1  -5   16.60    1.90
   6  -1  -5   19.00    4.20
   6  -1  -5   20.60    3.10
  -6  -1   5   15.80    3.00
   6   1  -5   14.40    3.60
  -6   1   5   18.80    4.60
   6   1  -5   18.20    4.40
   6   1  -5   15.80    1.90
   6   1  -5   17.20    4.10
   6   1  -5   19.60    3.40
   6   1  -5   17.40    2.00
  -6   1   5   18.60    2.50
  -6   1   5   13.90    3.20
  -6   1   5   17.70    3.60
  -6   1   5   18.20    2.00
   6   1  -5   15.10    4.40
  -5  -1   5    4.00    2.60
   5  -1  -5    3.50    2.50
   5  -1  -5    2.10    1.10
  -5  -1   5    2.00    1.10
   5  -1  -5    0.20    1.80
   5  -1  -5    3.20    1.40
  -5  -1   5    1.40    2.00
   5  -1  -5    0.50    1.00
  -5  -1   5    3.10    1.60
  -5   1   5    0.70    1.50
   5   1  -5    2.10    2.90
   5   1  -5    2.20    1.10
   5   1  -5    0.70    0.90
  -5   1   5    1.40    2.40
   5   1  -5   -2.90    3.00
   5   1  -5   -0.50    2.80
   5   1  -5    3.70    2.50
  -5   1   5    1.60    1.00
  -5   1   5    0.40    2.10
   5   1  -5   -0.40    2.40
  -5   1   5    4.40    2.90
  -4  -1   5    0.50    0.90
   4  -1  -5    0.80    0.80
   4  -1  -5    1.70    2.10
  -4  -1   5    1.50    1.30
   4  -1  -5   -0.20    1.60
   4  -1  -5    2.20    1.50
   4  -1  -5    3.70    1.10
  -4  -1   5    1.70    1.50
  -4  -1   5    2.30    1.80
   4  -1  -5    5.30    2.50
  -4  -1   5    0.60    1.60
   4  -1  -5    2.50    0.80
  -4  -1   5    1.50    2.40
  -4  -1   5    0.60    2.20
   4  -1  -5    1.70    1.20
  -4  -1   5   -1.80    2.80
   4   1  -5    1.10    1.10
   4   1  -5    0.20    1.10
  -4   1   5    0.70    1.10
  -4   1   5   -0.40    2.20
   4   1  -5    0.90    2.10
  -4   1   5    3.20    1.20
  -4   1   5    2.90    1.00
  -4   1   5    3.60    1.50
  -4   1   5    1.90    2.00
   4   1  -5    1.70    0.70
   4   1  -5    3.20    2.20
   4   1  -5    0.50    2.40
   4   1  -5    0.60    0.60
   4   1  -5    3.50    2.60
  -4   1   5    2.10    1.80
   3  -1  -5    6.90    1.10
   3  -1  -5    4.20    2.00
  -3  -1   5    6.00    1.40
  -3  -1   5    6.10    2.40
   3  -1  -5    3.50    1.70
  -3  -1   5    7.00    2.40
   3  -1  -5    7.40    2.40
  -3  -1   5    6.10    1.20
   3  -1  -5    7.60    1.50
  -3  -1   5    5.60    1.70
  -3  -1   5    7.30    1.60
  -3  -1   5    8.50    2.60
   3  -1  -5    7.60    1.20
   3  -1  -5    6.20    1.40
   3  -1  -5    6.00    1.40
   3  -1  -5    7.00    1.30
   3   1  -5    7.90    1.50
  -3   1   5    6.50    1.90
   3   1  -5    6.80    1.70
  -3   1   5    6.50    1.50
   3   1  -5    8.00    2.30
  -3   1   5    8.60    2.70
   3   1  -5   12.30    2.70
   3   1  -5    4.30    2.10
   3   1  -5    8.40    1.40
  -3   1   5    7.60    1.40
  -3   1   5    8.20    1.30
   3   1  -5    5.20    1.30
  -2  -1   5    0.20    2.10
  -2  -1   5   -0.40    1.30
  -2  -1   5    2.70    1.90
   2  -1  -5    3.40    1.70
   2  -1  -5   -0.70    1.60
   2  -1  -5   -0.70    1.60
   2  -1  -5    2.20    1.00
   2  -1  -5    3.00    1.20
  -2  -1   5    3.20    1.10
   2  -1  -5    0.40    1.10
  -2  -1   5    0.80    1.90
  -2  -1   5    3.50    1.30
   2  -1  -5    1.90    1.30
   2  -1  -5    1.40    0.70
  -2  -1   5    1.90    1.00
  -2   1   5    2.30    1.30
  -2   1   5    1.80    1.00
   2   1  -5    3.50    1.60
  -2   1   5    1.10    1.80
   2   1  -5    3.50    1.90
  -2   1   5    0.80    1.70
   2   1  -5    0.80    1.90
  -2   1   5    3.20    1.20
   2   1  -5    2.70    1.10
   2   1  -5    0.60    1.90
   2   1  -5    1.70    1.00
  -2   1   5   -0.30    0.50
   2   1  -5    2.10    1.10
  -2   1   5   -1.00    1.00
   1  -1  -5 1544.25   80.59
  -1  -1   5 1294.07   80.99
  -1  -1   5 1232.38   80.59
  -1  -1   5 1283.37   80.29
   1  -1  -5 1545.65   80.49
   1  -1  -5 1505.05   81.09
   1  -1  -5 1582.34   80.59
  -1  -1   5 1210.68   80.59
  -1  -1   5 1182.68   80.59
   1  -1  -5 1439.46   79.79
   1  -1  -5 1514.65   80.49
  -1   1   5 1494.95   81.19
   1   1  -5 1201.98   80.29
   1   1  -5 1264.97   80.49
   1   1  -5 1175.48   80.49
   1   1  -5 1200.28   80.29
  -1   1   5 1523.55   80.49
  -1   1   5 1574.44   80.69
   1   1  -5 1274.77   80.99
  -1   1   5 1471.05   80.49
   1   1  -5 1219.88   80.39
   1   1  -5 1291.47   80.59
   0  -1  -5   64.79    4.90
   0  -1  -5   64.69    5.20
   0  -1   5   64.29    4.90
   0  -1  -5   68.09    4.40
   0  -1   5   66.99    5.60
   0  -1   5   59.79    5.20
   0  -1  -5   61.59    5.30
   0  -1  -5   64.79    5.00
   0  -1   5   66.19    5.20
   0  -1  -5   70.29    5.30
   0  -1  -5   67.59    5.10
   0  -1  -5   68.69    5.10
   0  -1   5   69.69    4.90
   0  -1   5   68.69    5.60
   0   1  -5   64.29    5.50
   0   1   5   62.69    4.40
   0   1  -5   63.19    5.00
   0   1  -5   61.69    4.90
   0   1  -5   63.89    5.10
   0   1  -5   61.79    5.30
   0   1   5   65.39    5.00
   0   1   5   65.29    5.30
   0   1   5   64.19    5.10
   0   1   5   62.09    5.40
   0   1  -5   67.09    5.70
   0   1   5   66.69    5.10
  -1  -1  -5 1183.48   70.59
  -1  -1  -5 1057.99   70.39
  -1  -1  -5 1098.89   70.49
  -1  -1  -5 1076.29   70.59
  -1  -1  -5 1103.49   70.39
   1  -1   5 1338.27   70.69
  -1  -1  -5 1040.30   70.29
   1  -1   5 1373.66   70.59
  -1  -1  -5 1087.69   69.99
   1  -1   5 1326.17   71.09
  -1  -1  -5 1093.69   70.39
   1  -1   5 1319.17   70.49
   1  -1   5 1300.37   70.79
   1  -1   5 1252.47   70.69
   1   1   5 1103.49   70.49
  -1   1  -5 1309.47   70.69
  -1   1  -5 1288.67   70.59
  -1   1  -5 1254.97   70.29
  -1   1  -5 1281.47   70.59
   1   1   5 1064.09   70.39
   1   1   5 1086.39   70.49
  -1   1  -5 1317.17   70.99
   1   1   5 1071.99   70.59
   1   1   5 1035.10   70.09
  -1   1  -5 1272.07   70.59
  -1   1  -5 1315.37   70.99
  -1   1  -5 1349.16   70.29
   1   1   5 1087.69   70.39
   1   1   5 1118.49   70.69
  -2  -1  -5   14.60    2.50
   2  -1   5   13.90    2.70
   2  -1   5   11.50    2.20
  -2  -1  -5   13.60    2.10
  -2  -1  -5   14.10    1.90
   2  -1   5   11.30    2.00
  -2  -1  -5   12.00    2.20
  -2  -1  -5   10.80    2.20
   2  -1   5   10.90    2.40
  -2  -1  -5   12.40    2.30
   2  -1   5   12.10    2.00
  -2  -1  -5   12.30    2.60
   2  -1   5   14.30    3.00
   2  -1   5   12.50    2.30
   2   1   5   10.40    2.30
  -2   1  -5   13.00    1.90
  -2   1  -5   15.30    2.40
   2   1   5   11.30    1.80
  -2   1  -5   16.00    2.10
  -2   1  -5   15.00    2.40
   2   1   5   13.50    2.10
  -2   1  -5   11.80    2.30
   2   1   5   15.10    2.80
   2   1   5   11.60    2.20
   2   1   5   13.40    2.30
  -2   1  -5   14.90    2.90
   2   1   5   12.70    2.20
  -2   1  -5   16.30    2.50
  -3  -1  -5    3.30    1.90
   3  -1   5    3.20    1.80
   3  -1   5    4.40    2.00
  -3  -1  -5    5.40    1.00
   3  -1   5   -1.30    1.70
   3  -1   5    5.60    1.60
  -3  -1  -5    4.00    1.80
   3  -1   5    3.60    2.30
   3  -1   5    4.80    1.50
  -3  -1  -5    4.40    1.90
  -3  -1  -5    4.10    1.90
  -3  -1  -5    5.20    1.60
  -3  -1  -5    1.50    2.40
   3  -1   5    4.70    1.90
  -3  -1  -5    3.90    1.80
  -3   1  -5    2.80    1.40
  -3   1  -5    6.10    1.80
  -3   1  -5   -1.50    2.70
  -3   1  -5    0.90    1.90
   3   1   5    5.40    2.20
  -3   1  -5    8.40    2.10
   3   1   5    4.70    1.90
  -3   1  -5    2.90    1.50
  -3   1  -5    6.30    2.20
   3   1   5    4.90    1.60
   3   1   5    7.20    2.40
   3   1   5    6.60    1.70
   3   1   5    3.00    1.70
  -3   1  -5    1.40    1.80
   4  -1   5   35.10    4.30
  -4  -1  -5   34.90    4.00
  -4  -1  -5   41.40    4.90
   4  -1   5   35.50    4.10
   4  -1   5   35.60    3.80
  -4  -1  -5   34.90    3.80
   4  -1   5   36.30    4.20
   4  -1   5   30.10    3.20
  -4  -1  -5   36.30    4.10
  -4  -1  -5   29.20    3.70
   4  -1   5   29.40    3.60
  -4  -1  -5   30.90    4.10
  -4  -1  -5   33.10    3.60
   4  -1   5   36.00    4.60
  -4   1  -5   35.80    4.00
  -4   1  -5   33.80    4.30
  -4   1  -5   32.40    3.80
   4   1   5   32.30    4.10
  -4   1  -5   37.00    4.40
  -4   1  -5   29.60    3.80
   4   1   5   31.20    3.90
   4   1   5   29.40    3.80
   4   1   5   39.50    4.00
   4   1   5   33.10    4.00
  -4   1  -5   29.50    3.90
   4   1   5   34.50    3.90
  -4   1  -5   33.30    4.20
  -4   1  -5   32.20    3.20
   5  -1   5   -1.50    2.20
   5  -1   5    1.40    1.90
   5  -1   5    3.80    1.90
   5  -1   5    2.30    1.50
   5  -1   5    2.20    2.20
  -5  -1  -5    1.90    2.40
  -5  -1  -5    1.50    2.10
   5  -1   5    4.80    2.60
   5  -1   5    2.50    1.60
  -5  -1  -5    0.80    2.50
  -5  -1  -5    1.80    2.40
  -5  -1  -5    0.00    2.30
  -5  -1  -5    0.90    2.10
   5   1   5    0.00    1.70
   5   1   5   -2.10    1.80
  -5   1  -5    2.10    1.80
  -5   1  -5    3.10    1.80
  -5   1  -5    5.30    2.30
   5   1   5    4.40    2.60
   5   1   5    3.70    2.10
  -5   1  -5    2.20    2.20
  -5   1  -5    2.60    2.70
   5   1   5   -0.50    1.80
  -5   1  -5    3.00    1.60
  -5   1  -5    1.80    3.00
   5   1   5   -1.70    1.60
  -5   1  -5    1.50    2.00
  -6  -1  -5   38.10    5.10
   6  -1   5   30.70    4.10
  -6  -1  -5   34.70    4.50
   6  -1   5   33.90    4.80
   6  -1   5   29.90    3.70
  -6  -1  -5   37.40    4.70
   6  -1   5   30.50    4.40
   6  -1   5   30.50    4.70
   6  -1   5   33.40    3.50
   6  -1   5   25.40    4.20
  -6  -1  -5   27.80    4.10
  -6  -1  -5   31.70    3.90
  -6  -1  -5   34.60    4.90
  -6  -1  -5   38.90    5.10
   6   1   5   28.40    4.50
  -6   1  -5   18.60    4.00
  -6   1  -5   28.90    3.90
  -6   1  -5   32.60    3.80
  -6   1  -5   40.40    4.00
   6   1   5   26.20    3.80
   6   1   5   31.70    4.20
  -6   1  -5   27.90    3.80
  -6   1  -5   25.50    3.70
   6   1   5   32.00    4.00
  -6   1  -5   29.20    4.10
  -6   1  -5   29.50    4.00
   6   1   5   32.50    4.60
   6   1   5   30.40    4.10
  -7  -1  -5   -1.00    2.30
   7  -1   5    5.60    3.40
   7  -1   5    1.40    3.10
  -7  -1  -5    3.60    3.60
  -7  -1  -5    0.20    3.00
  -7  -1  -5    2.20    3.00
   7  -1   5    3.70    2.30
   7  -1   5    4.00    2.30
   7  -1   5    5.20    3.20
   7  -1   5    0.70    1.80
  -7  -1  -5    2.20    2.70
  -7   1  -5    2.70    2.10
   7   1   5    6.90    2.60
   7   1   5    1.40    2.90
  -7   1  -5    5.60    2.40
   7   1   5    2.60    2.60
  -7   1  -5    6.10    3.10
   7   1   5   -0.20    3.00
  -7   1  -5    0.80    2.40
   7   1   5    3.90    2.40
  -7   1  -5   -1.40    2.90
   8  -1   5   -1.70    3.90
  -8  -1  -5   -1.60    3.00
   8  -1   5    4.50    2.50
   8  -1   5   -1.00    2.80
  -8  -1  -5    4.30    2.90
   8  -1   5   -2.10    4.00
   8  -1   5    4.60    3.40
  -8  -1  -5    1.40    2.60
   8  -1   5    1.90    2.10
  -8   1  -5   -1.80    2.70
   8   1   5    4.90    3.30
  -8   1  -5    3.80    2.60
  -8   1  -5    9.30    3.60
  -8   1  -5    3.10    3.00
   8   1   5    4.10    3.30
   8   1   5    9.80    4.30
   8   1   5    3.10    3.70
  -8   1  -5    7.90    3.30
   8   1   5   -0.20    2.90
  -8   1  -5    6.90    3.20
   9  -1   5   38.70    4.70
  -9  -1  -5   40.90    6.10
   9  -1   5   42.40    6.00
  -9  -1  -5   32.80    4.80
   9  -1   5   41.80    6.60
   9  -1   5   35.70    4.90
  -9   1  -5   38.30    5.90
   9   1   5   38.40    5.20
  -9   1  -5   21.50    5.00
   9   1   5   48.80    6.20
  -9   1  -5   30.50    4.90
   9   1   5   23.90    5.80
   9   1   5   43.40    5.40
  10  -1   5    8.60    4.60
 -10  -1  -5    4.90    5.00
  10  -1   5    4.50    6.00
 -10  -1  -5    2.60    3.90
  10   1   5   11.10    4.30
 -10   1  -5    0.90    4.50
 -10   1  -5    4.10    4.10
  10   1   5    7.80    4.80
  10   1   5    6.30    5.70
  11  -1   5    3.30    6.50
 -11  -1  -5    0.20    5.80
 -11  -1  -5   -4.00    3.70
  11  -1   5    8.70    5.30
  11   1   5    5.10    5.40
  11   1   5    7.10    6.80
 -11   1  -5    3.80    6.00
 -11   1  -5   -7.80    4.10
  11   1   5   -0.10    4.20
 -11  -2   5    6.10    2.10
  11  -2  -5   14.40    5.30
 -11  -2   5   -2.30    5.00
 -11  -2   5    5.30    2.00
 -11   2   5   12.20    3.60
 -11   2   5    5.90    8.70
  11   2  -5    6.20    6.70
  11   2  -5    8.30    6.60
  11   2  -5   17.70    6.40
 -11   2   5    2.40    2.70
 -10  -2   5    2.60    2.60
  10  -2  -5    1.40    4.10
 -10  -2   5    7.00    4.50
 -10  -2   5    2.00    2.20
  10  -2  -5    6.80    4.20
  10  -2  -5    1.20    1.70
  10  -2  -5    0.60    1.70
 -10   2   5   11.80    7.00
  10   2  -5   -4.30    5.60
 -10   2   5    6.00    3.50
  10   2  -5    5.00    5.70
 -10   2   5    1.00    4.40
  10   2  -5    8.60    5.80
 -10   2   5    2.40    2.40
   9  -2  -5  118.89    9.30
   9  -2  -5  110.09    9.40
   9  -2  -5  112.89    7.90
  -9  -2   5  126.89   10.20
   9  -2  -5  122.89   14.20
   9  -2  -5  121.19    8.10
  -9  -2   5  111.09    8.50
  -9   2   5  107.99   13.60
   9   2  -5  107.29   11.30
   9   2  -5  124.79   11.90
   9   2  -5  135.49   11.30
   9   2  -5  111.39    7.60
  -9   2   5  109.39   10.20
  -9   2   5  123.09    8.70
  -9   2   5  112.29    9.60
   9   2  -5  114.89    7.90
   8  -2  -5   -0.80    1.80
  -8  -2   5   -0.80    2.20
   8  -2  -5   -1.70    2.60
   8  -2  -5   -0.80    2.70
   8  -2  -5    1.60    2.00
  -8  -2   5   -0.20    2.10
  -8  -2   5    2.20    3.50
   8  -2  -5    2.90    2.90
   8  -2  -5    1.90    3.90
  -8  -2   5   -4.20    4.50
  -8   2   5    2.50    5.40
  -8   2   5   -0.80    3.00
   8   2  -5    0.30    1.80
  -8   2   5    2.20    2.10
   8   2  -5    5.70    4.50
  -8   2   5    2.20    3.50
   8   2  -5    4.30    4.20
  -7  -2   5   85.29    9.50
  -7  -2   5   79.69    7.40
   7  -2  -5   80.09    7.40
   7  -2  -5   77.99    6.50
   7  -2  -5   75.49    6.10
   7  -2  -5   78.59    6.10
   7  -2  -5   66.59    7.90
  -7  -2   5   77.99    6.30
  -7   2   5   86.29    8.20
  -7   2   5   74.19    9.50
  -7   2   5   75.99    7.70
  -7   2   5   74.49    7.30
   7   2  -5   67.69    6.20
   7   2  -5   84.49    9.20
   7   2  -5   77.59    9.90
   7   2  -5   75.59    6.10
   7   2  -5   83.59    8.40
  -6  -2   5   26.30    5.10
   6  -2  -5   27.80    3.30
  -6  -2   5   27.90    2.80
  -6  -2   5   42.40    5.00
   6  -2  -5   34.60    4.00
   6  -2  -5   26.80    3.40
  -6  -2   5   29.40    3.40
  -6  -2   5   31.80    4.10
  -6  -2   5   28.80    2.90
  -6  -2   5   31.70    5.30
   6  -2  -5   25.50    3.10
   6  -2  -5   33.80    3.70
   6   2  -5   25.30    4.60
   6   2  -5   27.80    3.50
  -6   2   5   36.60    6.00
   6   2  -5   33.80    5.30
  -6   2   5   31.00    4.50
  -6   2   5   31.20    3.20
  -6   2   5   28.70    4.20
   6   2  -5   29.60    3.70
  -6   2   5   35.20    4.00
  -6   2   5   27.10    4.10
   5  -2  -5   55.39    4.20
  -5  -2   5   51.19    4.20
  -5  -2   5   49.60    6.40
  -5  -2   5   43.80    6.60
   5  -2  -5   48.90    4.20
   5  -2  -5   56.49    4.50
   5  -2  -5   54.59    5.10
  -5  -2   5   51.29    5.50
   5  -2  -5   48.20    4.90
   5  -2  -5   52.19    4.30
  -5  -2   5   56.09    4.50
  -5  -2   5   48.80    5.00
   5  -2  -5   42.50    6.50
   5  -2  -5   50.99    4.60
  -5  -2   5   48.60    5.00
   5   2  -5   56.09    6.40
  -5   2   5   59.49    5.90
  -5   2   5   53.39    6.70
  -5   2   5   48.10    5.90
   5   2  -5   56.89    5.10
  -5   2   5   57.29    4.90
  -5   2   5   48.00    4.80
  -5   2   5   57.79    5.50
   5   2  -5   48.40    4.10
   5   2  -5   46.70    6.10
   5   2  -5   50.39    4.60
  -5   2   5   51.79    4.40
   5   2  -5   53.99    6.90
   5   2  -5   51.79    4.40
   5   2  -5   57.79    5.90
   4  -2  -5  190.78   11.70
   4  -2  -5  176.58   12.90
  -4  -2   5  184.08   13.00
  -4  -2   5  178.58   11.40
   4  -2  -5  175.58   11.00
   4  -2  -5  185.18   10.90
  -4  -2   5  169.68   11.60
   4  -2  -5  177.78   11.70
   4  -2  -5  166.88   12.20
  -4  -2   5  180.68   12.30
   4  -2  -5  178.28   11.40
   4  -2  -5  188.38   11.60
  -4  -2   5  173.18   13.10
  -4  -2   5  175.88   11.30
   4   2  -5  173.28   12.80
   4   2  -5  174.28   13.20
   4   2  -5  182.08   11.50
   4   2  -5  187.08   12.50
  -4   2   5  165.38   11.80
  -4   2   5  183.48   11.40
   4   2  -5  172.98   11.60
   4   2  -5  184.78   13.20
  -4   2   5  188.18   13.30
  -4   2   5  190.48   12.00
  -4   2   5  179.28   11.70
   4   2  -5  177.18   11.80
   4   2  -5  163.98   11.80
  -4   2   5  180.18   12.30
   3  -2  -5  248.38   16.60
   3  -2  -5  275.27   16.00
  -3  -2   5  253.37   16.60
   3  -2  -5  255.37   15.90
  -3  -2   5  249.88   16.00
   3  -2  -5  259.77   16.00
  -3  -2   5  248.38   15.80
  -3  -2   5  261.47   17.00
   3  -2  -5  231.18   16.70
  -3  -2   5  249.58   16.00
  -3  -2   5  251.77   17.10
   3  -2  -5  250.17   16.00
   3  -2  -5  252.27   16.00
  -3   2   5  254.17   16.40
   3   2  -5  251.17   16.30
   3   2  -5  249.88   16.90
   3   2  -5  248.58   16.10
   3   2  -5  246.38   15.90
  -3   2   5  260.17   17.20
  -3   2   5  228.38   15.80
  -3   2   5  246.68   16.00
   3   2  -5  263.17   16.10
  -3   2   5  253.17   15.80
  -3   2   5  265.07   16.20
   3   2  -5  240.78   16.10
   3   2  -5  266.97   17.10
   3   2  -5  258.97   17.20
   2  -2  -5  704.73   39.10
   2  -2  -5  719.33   39.00
   2  -2  -5  655.63   39.70
   2  -2  -5  748.03   39.20
   2  -2  -5  738.13   39.20
  -2  -2   5  637.64   39.70
  -2  -2   5  593.34   39.50
  -2  -2   5  640.24   38.90
  -2  -2   5  598.64   39.00
   2  -2  -5  687.33   39.40
  -2  -2   5  596.74   39.70
  -2  -2   5  589.54   39.40
   2  -2  -5  720.33   39.10
  -2   2   5  751.12   40.90
   2   2  -5  584.34   39.40
  -2   2   5  704.53   40.00
  -2   2   5  711.83   39.20
   2   2  -5  545.65   39.70
   2   2  -5  597.04   38.90
   2   2  -5  579.94   39.20
  -2   2   5  705.63   39.30
  -2   2   5  695.53   38.90
   2   2  -5  569.24   38.90
   2   2  -5  591.14   39.10
   2   2  -5  613.44   39.10
   2   2  -5  582.74   38.90
  -1  -2   5   51.19    4.50
   1  -2  -5   44.60    4.30
   1  -2  -5   56.69    4.80
  -1  -2   5   51.49    5.40
  -1  -2   5   46.80    4.50
   1  -2  -5   45.80    5.30
  -1  -2   5   56.49    5.30
  -1  -2   5   44.10    4.50
   1  -2  -5   46.10    4.40
  -1  -2   5   46.40    5.40
   1  -2  -5   45.30    4.50
   1  -2  -5   48.30    5.00
  -1  -2   5   48.80    5.40
   1  -2  -5   44.70    4.70
   1   2  -5   47.10    4.90
   1   2  -5   48.60    5.60
  -1   2   5   51.29    5.00
   1   2  -5   50.09    4.60
  -1   2   5   45.40    4.90
   1   2  -5   44.00    5.20
   1   2  -5   55.69    4.60
  -1   2   5   49.60    4.60
  -1   2   5   46.30    4.40
  -1   2   5   48.40    4.20
   1   2  -5   51.49    5.30
   1   2  -5   45.80    4.60
  -1   2   5   41.60    4.80
   0  -2   5    2.00    1.90
   0  -2  -5    3.30    2.10
   0  -2  -5    4.00    2.20
   0  -2   5    5.70    2.50
   0  -2   5    5.70    1.80
   0  -2  -5    0.70    2.30
   0  -2  -5    1.50    1.80
   0  -2  -5    2.80    2.00
   0  -2  -5    2.40    1.90
   0  -2   5    1.90    2.20
   0  -2   5    3.50    2.00
   0  -2  -5    1.50    1.80
   0  -2   5    1.50    1.50
   0  -2   5    2.10    1.80
   0   2  -5    3.40    1.60
   0   2   5    2.80    1.10
   0   2  -5    2.20    2.00
   0   2  -5    1.20    1.60
   0   2  -5    0.50    1.70
   0   2  -5    2.60    2.50
   0   2  -5    0.10    2.10
   0   2   5    2.30    2.20
   0   2   5    1.00    1.30
   0   2   5    3.60    2.10
   0   2   5    1.50    1.50
   0   2   5    4.20    1.80
   0   2  -5    1.40    2.60
   0   2   5    2.30    0.80
   0   2   5    2.70    1.70
  -1  -2  -5   10.60    2.40
  -1  -2  -5   10.40    2.30
   1  -2   5   14.10    3.10
   1  -2   5   13.60    2.70
   1  -2   5   12.00    2.30
   1  -2   5    6.80    2.40
   1  -2   5    8.80    2.80
  -1  -2  -5   13.50    2.50
  -1  -2  -5   15.00    2.50
  -1  -2  -5   15.70    3.20
   1  -2   5    9.00    2.80
  -1  -2  -5   13.90    3.10
   1  -2   5   10.10    2.70
  -1  -2  -5    8.70    2.70
   1   2   5   10.20    2.10
   1   2   5    8.90    2.60
  -1   2  -5   12.50    2.50
  -1   2  -5    9.50    2.90
   1   2   5   13.20    2.40
   1   2   5   13.60    2.10
  -1   2  -5    9.30    2.70
  -1   2  -5   11.50    2.00
   1   2   5   12.90    1.80
  -1   2  -5   14.70    2.60
  -1   2  -5   12.80    3.60
   1   2   5   11.00    2.40
   1   2   5   11.90    3.00
   2  -2   5    5.20    1.80
   2  -2   5    4.20    2.50
   2  -2   5    3.60    2.80
   2  -2   5    5.10    1.70
   2  -2   5    5.10    2.50
   2  -2   5    2.80    2.30
  -2  -2  -5    4.80    2.80
  -2  -2  -5    3.70    2.10
  -2  -2  -5    5.20    2.50
  -2  -2  -5    3.90    2.20
  -2  -2  -5    7.30    2.50
   2  -2   5    4.60    2.20
  -2  -2  -5    3.70    1.90
  -2  -2  -5    6.50    2.20
   2   2   5    2.60    2.00
   2   2   5    5.80    1.60
   2   2   5    2.10    1.50
   2   2   5    8.50    2.90
  -2   2  -5    4.30    2.00
   2   2   5    7.20    2.50
  -2   2  -5    6.80    3.00
  -2   2  -5    2.80    2.20
   2   2   5    4.40    2.10
  -2   2  -5    7.90    2.50
   2   2   5    6.40    2.60
  -2   2  -5    3.60    1.40
   2   2   5   -0.40    1.90
  -2   2  -5    4.40    2.20
  -2   2  -5    2.50    1.90
   3  -2   5    4.50    3.30
   3  -2   5    3.40    2.00
   3  -2   5    2.90    2.00
  -3  -2  -5    1.30    3.00
   3  -2   5    4.90    2.20
   3  -2   5    0.90    2.40
  -3  -2  -5    4.90    2.30
  -3  -2  -5    2.10    2.20
  -3  -2  -5    4.80    2.30
  -3  -2  -5    3.60    2.00
  -3  -2  -5    5.40    1.90
   3  -2   5    4.20    2.60
  -3  -2  -5    2.70    1.50
   3  -2   5    5.30    2.50
   3   2   5    4.70    2.30
  -3   2  -5    4.80    2.70
  -3   2  -5    4.70    2.10
   3   2   5    4.60    2.00
   3   2   5    2.20    1.70
  -3   2  -5    6.60    2.50
  -3   2  -5    5.10    2.20
  -3   2  -5    1.80    1.90
   3   2   5    2.10    2.70
   3   2   5    6.20    1.80
   3   2   5    5.90    2.50
   3   2   5    5.50    2.30
   3   2   5    3.30    3.00
  -3   2  -5    3.20    1.20
  -3   2  -5    4.30    2.80
  -3   2  -5    6.90    2.50
   4  -2   5  379.16   22.20
  -4  -2  -5  335.37   21.90
   4  -2   5  353.86   22.20
  -4  -2  -5  342.47   21.90
   4  -2   5  332.77   22.60
  -4  -2  -5  338.07   22.30
   4  -2   5  379.46   21.90
  -4  -2  -5  336.07   21.90
   4  -2   5  324.87   21.50
  -4  -2  -5  330.67   21.60
   4  -2   5  395.26   22.40
   4  -2   5  337.07   20.70
   4   2   5  332.37   21.70
  -4   2  -5  328.97   22.30
   4   2   5  332.17   21.70
   4   2   5  320.37   22.10
  -4   2  -5  324.87   21.90
   4   2   5  330.87   20.80
  -4   2  -5  336.57   21.50
   4   2   5  330.57   21.90
  -4   2  -5  342.97   20.50
   4   2   5  339.67   21.70
   4   2   5  330.87   21.40
   4   2   5  328.27   21.90
  -4   2  -5  372.56   21.90
  -4   2  -5  374.56   21.90
  -4   2  -5  351.96   21.90
   5  -2   5   16.80    3.50
  -5  -2  -5   13.60    3.00
   5  -2   5   17.10    3.80
  -5  -2  -5   14.50    3.50
  -5  -2  -5   11.90    4.00
   5  -2   5   19.20    3.10
  -5  -2  -5   18.70    4.20
   5  -2   5   18.70    3.90
   5  -2   5   17.40    3.30
  -5  -2  -5   20.80    3.90
  -5  -2  -5   18.30    3.30
   5  -2   5   20.80    4.10
   5   2   5   17.20    3.20
   5   2   5   11.00    2.80
   5   2   5    9.60    3.60
   5   2   5   23.50    3.70
  -5   2  -5   15.70    3.20
  -5   2  -5   18.30    2.10
   5   2   5   20.00    3.50
   5   2   5   11.70    3.70
  -5   2  -5   22.00    3.80
  -5   2  -5   15.50    3.30
   5   2   5   21.40    3.40
  -5   2  -5   20.30    3.70
  -5   2  -5   15.40    3.70
  -5   2  -5   17.00    3.20
  -5   2  -5   19.80    3.40
   6  -2   5   38.50    3.20
   6  -2   5   42.50    5.50
  -6  -2  -5   51.49    5.90
  -6  -2  -5   45.20    5.40
   6  -2   5   39.30    5.40
  -6  -2  -5   40.60    5.70
   6  -2   5   46.80    5.90
   6  -2   5   38.60    5.50
   6  -2   5   32.50    4.30
   6   2   5   49.10    5.60
   6   2   5   50.09    5.40
  -6   2  -5   40.50    3.10
   6   2   5   29.50    4.50
   6   2   5   40.40    5.10
  -6   2  -5   44.30    5.40
  -6   2  -5   36.20    4.70
   6   2   5   32.10    4.70
  -6   2  -5   34.80    4.80
  -6   2  -5   40.20    5.50
   7  -2   5   95.09    8.20
   7  -2   5  109.19   10.00
   7  -2   5   97.09    9.20
  -7  -2  -5  103.89    8.10
   7  -2   5   94.59    6.30
  -7  -2  -5   88.49    9.30
   7  -2   5   96.69    9.70
  -7   2  -5  112.89   10.80
   7   2   5   96.79   10.10
   7   2   5   94.29    8.90
  -7   2  -5  103.29    8.40
   7   2   5  109.19    9.30
  -7   2  -5  101.99    8.70
   7   2   5  104.59    8.90
  -7   2  -5   85.49    8.70
  -7   2  -5  103.29    9.80
  -8  -2  -5   11.40    3.60
  -8  -2  -5   12.30    4.60
   8  -2   5    8.30    4.90
   8  -2   5   17.90    4.50
   8  -2   5   17.40    4.50
  -8  -2  -5   19.20    4.20
   8  -2   5   16.10    3.60
   8  -2   5    6.00    4.60
  -8  -2  -5   16.50    4.00
   8   2   5   16.20    4.60
  -8   2  -5    9.50    3.60
   8   2   5   13.60    4.00
  -8   2  -5   17.50    4.80
  -8   2  -5   14.10    4.50
  -8   2  -5   15.00    4.40
   8   2   5   11.40    3.50
   8   2   5   16.30    4.40
   8   2   5   13.30    4.50
   9  -2   5   66.69    8.80
  -9  -2  -5   63.49    8.00
   9  -2   5   74.29    9.00
  -9  -2  -5   64.39    8.40
   9   2   5   65.09    7.60
  -9   2  -5   58.99    8.00
  -9   2  -5   66.19    7.80
   9   2   5   73.29    8.30
   9   2   5   70.99    8.90
  -9   2  -5   54.19    7.50
 -10  -2  -5  184.18   16.00
  10  -2   5  184.18   16.70
 -10  -2  -5  179.88   14.80
  10  -2   5  203.88   15.70
 -10   2  -5  182.48   15.30
  10   2   5  188.28   15.80
  10   2   5  219.28   16.40
  10   2   5  190.38   14.50
 -10   2  -5  189.48   16.30
  10  -3  -5   18.20    3.70
  10   3  -5   27.10    3.60
 -10   3   5   26.60    4.60
  10   3  -5   23.30    4.20
  10   3  -5   13.10    6.90
  10   3  -5   27.20    7.70
 -10   3   5   26.70    9.10
  10   3  -5   20.40    7.20
  -9  -3   5    4.80    4.60
  -9  -3   5   -3.80    3.30
  -9  -3   5    1.60    4.10
  -9  -3   5    0.80    6.20
   9  -3  -5    1.50    3.90
   9  -3  -5    1.80    2.90
   9  -3  -5    5.00    3.10
   9   3  -5   -3.70    5.50
   9   3  -5   -4.00    3.20
  -9   3   5    2.20    3.30
   9   3  -5   -0.70    5.80
  -9   3   5   -3.40    6.30
  -9   3   5   -4.70    4.00
   9   3  -5   -0.30    2.70
   8  -3  -5   69.79    6.90
   8  -3  -5   71.59    7.10
  -8  -3   5   65.59    8.00
  -8  -3   5   63.49    7.80
   8  -3  -5   70.69    6.90
  -8  -3   5   75.29    9.90
   8  -3  -5   73.79    6.60
  -8  -3   5   60.59    7.60
  -8   3   5   64.29    8.60
   8   3  -5   75.59    6.70
  -8   3   5   62.99    7.30
  -8   3   5   78.59   12.00
   8   3  -5   73.49    7.10
  -8   3   5   59.29    7.50
   8   3  -5   79.49    9.10
  -7  -3   5   64.39    6.50
   7  -3  -5   48.50    5.80
   7  -3  -5   45.20    5.40
   7  -3  -5   57.59    6.40
   7  -3  -5   51.69    7.10
  -7  -3   5   48.60    7.80
   7  -3  -5   51.79    6.30
  -7  -3   5   52.09    6.10
   7  -3  -5   48.90    5.50
  -7  -3   5   50.79    5.10
  -7  -3   5   53.49    6.90
   7  -3  -5   51.89    4.80
  -7   3   5   52.59    5.40
   7   3  -5   51.09    6.30
  -7   3   5   57.89    6.30
   7   3  -5   42.30    6.40
  -7   3   5   51.39    6.40
   7   3  -5   57.09    5.90
  -7   3   5   54.29    8.10
  -7   3   5   53.79    7.70
  -7   3   5   46.50    6.30
   7   3  -5   56.09    7.70
   6  -3  -5  226.28   13.90
   6  -3  -5  196.58   13.70
  -6  -3   5  221.48   16.90
   6  -3  -5  216.68   14.00
  -6  -3   5  214.28   15.50
   6  -3  -5  222.98   14.70
  -6  -3   5  217.68   14.20
   6  -3  -5  206.68   15.80
  -6  -3   5  216.58   15.30
   6  -3  -5  217.98   14.10
  -6  -3   5  214.78   14.40
   6  -3  -5  208.38   15.10
  -6   3   5  199.98   17.50
  -6   3   5  213.28   14.70
   6   3  -5  216.58   14.60
  -6   3   5  222.68   14.90
   6   3  -5  233.38   16.20
  -6   3   5  231.78   14.30
   6   3  -5  210.68   14.90
   6   3  -5  212.38   16.60
   6   3  -5  219.68   13.90
  -6   3   5  216.38   15.40
  -5  -3   5  214.88   16.50
   5  -3  -5  215.68   15.60
   5  -3  -5  219.68   14.90
   5  -3  -5  214.28   13.50
  -5  -3   5  205.08   15.60
  -5  -3   5  205.08   14.50
   5  -3  -5  226.38   14.40
   5  -3  -5  219.58   13.60
   5  -3  -5  229.98   15.10
   5  -3  -5  241.48   14.20
  -5  -3   5  211.18   16.40
  -5  -3   5  223.38   14.30
   5   3  -5  195.78   15.50
   5   3  -5  224.88   14.50
  -5   3   5  218.08   16.40
  -5   3   5  229.18   14.40
  -5   3   5  214.88   15.00
   5   3  -5  195.08   14.90
   5   3  -5  206.28   16.20
  -5   3   5  226.78   14.40
   5   3  -5  227.38   14.80
  -5   3   5  239.98   16.00
  -4  -3   5   67.49    7.40
  -4  -3   5   46.30    7.30
   4  -3  -5   49.99    5.40
   4  -3  -5   55.79    5.20
  -4  -3   5   46.50    5.50
  -4  -3   5   58.99    5.10
  -4  -3   5   57.99    6.90
   4  -3  -5   56.09    5.80
   4  -3  -5   59.59    5.90
   4  -3  -5   46.10    6.00
  -4  -3   5   56.49    5.50
  -4   3   5   56.89    7.20
   4   3  -5   54.29    5.80
   4   3  -5   54.99    5.50
  -4   3   5   65.69    5.40
  -4   3   5   47.80    6.50
   4   3  -5   53.79    6.70
  -4   3   5   56.09    6.00
   4   3  -5   63.09    7.90
   4   3  -5   44.90    5.80
  -4   3   5   55.09    5.20
   3  -3  -5   59.89    5.60
   3  -3  -5   70.09    5.50
  -3  -3   5   56.69    6.70
  -3  -3   5   52.09    5.70
   3  -3  -5   53.09    5.70
   3  -3  -5   58.99    6.50
  -3  -3   5   58.79    7.40
  -3  -3   5   51.19    5.00
  -3  -3   5   52.09    7.30
   3  -3  -5   71.69    7.50
   3  -3  -5   59.19    6.10
  -3  -3   5   51.99    5.80
   3  -3  -5   58.29    5.80
   3   3  -5   45.80    5.40
   3   3  -5   61.09    7.80
  -3   3   5   68.39    6.20
  -3   3   5   69.79    5.40
   3   3  -5   54.79    6.90
   3   3  -5   56.39    5.80
  -3   3   5   51.49    6.80
   3   3  -5   43.70    6.80
   3   3  -5   56.49    5.80
  -3   3   5   63.09    5.40
   3   3  -5   47.10    5.60
  -3   3   5   69.79    7.20
  -3   3   5   67.19    6.40
   3   3  -5   51.99    6.70
  -2  -3   5   11.50    3.90
   2  -3  -5    4.70    3.40
   2  -3  -5    4.90    2.20
   2  -3  -5    3.60    2.50
  -2  -3   5   10.00    2.60
  -2  -3   5    5.90    3.20
   2  -3  -5    2.20    2.20
   2  -3  -5    2.80    2.30
   2  -3  -5    4.90    2.30
  -2  -3   5    2.30    2.30
   2  -3  -5    5.00    2.90
  -2  -3   5    5.90    2.30
  -2  -3   5    6.30    3.00
  -2  -3   5    8.90    2.20
   2   3  -5    4.30    2.40
  -2   3   5    6.10    2.10
   2   3  -5    3.20    3.30
   2   3  -5    4.50    2.40
  -2   3   5    7.70    3.30
   2   3  -5   11.20    2.70
   2   3  -5    6.80    3.40
   2   3  -5    5.30    3.50
   2   3  -5    4.10    2.30
  -2   3   5    6.50    2.80
   2   3  -5   -0.60    3.40
  -2   3   5   11.30    2.90
  -2   3   5    1.50    2.40
  -2   3   5    4.10    2.20
   1  -3  -5  187.48   13.50
  -1  -3   5  188.98   13.30
   1  -3  -5  208.58   13.20
   1  -3  -5  206.18   13.60
   1  -3  -5  203.58   14.10
   1  -3  -5  212.28   14.00
  -1  -3   5  184.08   14.40
  -1  -3   5  187.88   12.40
  -1  -3   5  190.88   14.10
   1  -3  -5  221.48   13.70
   1  -3  -5  202.58   13.80
  -1  -3   5  198.38   14.40
  -1  -3   5  193.58   13.30
   1   3  -5  204.58   14.20
  -1   3   5  202.38   13.00
  -1   3   5  211.68   11.90
   1   3  -5  194.28   13.10
   1   3  -5  192.48   13.40
  -1   3   5  191.18   13.90
   1   3  -5  189.58   13.60
  -1   3   5  179.58   13.00
   1   3  -5  181.08   13.40
   1   3  -5  185.88   13.50
  -1   3   5  198.58   14.30
   1   3  -5  188.48   14.10
  -1   3   5  191.28   13.70
  -1   3   5  206.58   13.70
   0  -3   5   22.70    4.60
   0  -3  -5   22.60    3.60
   0  -3  -5   23.50    4.10
   0  -3  -5   30.10    4.20
   0  -3  -5   23.60    4.10
   0  -3   5   22.40    3.00
   0  -3   5   23.50    4.20
   0  -3   5   18.40    3.40
   0  -3  -5   24.30    3.90
   0  -3   5   17.30    4.40
   0  -3  -5   20.70    3.70
   0  -3   5   28.40    3.80
   0  -3   5   21.50    4.40
   0   3  -5   26.80    4.00
   0   3  -5   21.70    4.30
   0   3   5   28.20    4.70
   0   3  -5   19.30    3.20
   0   3  -5   26.10    3.30
   0   3  -5   18.00    3.50
   0   3  -5   27.10    4.80
   0   3   5   24.70    2.80
   0   3   5   17.90    3.40
   0   3   5   20.00    3.20
   0   3   5   32.40    4.20
   0   3  -5   19.90    3.60
   0   3   5   19.90    3.60
   0   3   5   19.80    3.50
   1  -3   5  339.67   22.30
  -1  -3  -5  348.37   22.30
   1  -3   5  370.76   21.80
   1  -3   5  362.36   23.50
   1  -3   5  352.26   23.60
   1  -3   5  345.67   22.90
  -1  -3  -5  343.37   22.80
  -1  -3  -5  354.56   22.60
  -1  -3  -5  350.16   22.60
  -1  -3  -5  337.47   22.70
   1  -3   5  395.66   22.80
   1  -3   5  332.97   22.60
  -1  -3  -5  335.97   22.60
  -1  -3  -5  347.97   22.70
  -1   3  -5  375.56   22.70
  -1   3  -5  361.16   21.90
  -1   3  -5  344.07   21.70
   1   3   5  363.46   22.40
   1   3   5  377.96   23.60
   1   3   5  329.07   22.50
   1   3   5  341.07   22.10
   1   3   5  357.76   22.70
  -1   3  -5  354.46   22.70
  -1   3  -5  371.36   23.60
   1   3   5  351.06   22.80
   1   3   5  337.67   21.40
  -1   3  -5  347.17   22.60
  -1   3  -5  346.07   22.60
  -2  -3  -5    2.50    2.50
   2  -3   5    4.50    3.70
   2  -3   5    4.10    2.60
  -2  -3  -5    0.00    3.00
  -2  -3  -5    2.10    2.70
   2  -3   5    2.40    2.70
  -2  -3  -5    3.50    2.50
  -2  -3  -5    2.50    2.60
   2  -3   5    1.70    3.70
   2  -3   5    0.20    2.80
   2  -3   5    0.30    2.50
  -2  -3  -5    3.70    3.30
  -2  -3  -5    2.70    3.00
  -2   3  -5    2.50    2.50
   2   3   5    1.00    2.70
  -2   3  -5    0.80    2.80
   2   3   5    0.60    2.00
   2   3   5    1.90    2.40
  -2   3  -5    2.20    2.10
   2   3   5    2.40    2.70
  -2   3  -5   -6.10    3.50
  -2   3  -5    3.60    2.20
  -2   3  -5    2.20    2.70
   2   3   5    5.10    2.50
   2   3   5    0.20    1.70
   2   3   5    0.90    2.70
   2   3   5    1.10    3.50
  -2   3  -5    4.40    1.70
  -2   3  -5    2.80    4.30
   3  -3   5    5.90    3.00
   3  -3   5   13.20    4.10
   3  -3   5    8.10    4.40
  -3  -3  -5    6.70    3.30
  -3  -3  -5    1.30    3.00
   3  -3   5    5.60    3.40
  -3  -3  -5   14.10    3.40
  -3  -3  -5    7.80    3.00
   3  -3   5    3.30    3.00
  -3  -3  -5    2.80    3.00
  -3  -3  -5    4.40    3.20
   3  -3   5    5.30    2.80
   3   3   5   -1.00    2.90
   3   3   5    1.40    2.70
   3   3   5    3.50    2.50
  -3   3  -5    2.30    3.40
   3   3   5    6.70    2.80
  -3   3  -5    7.80    4.20
   3   3   5    2.40    3.20
  -3   3  -5    5.00    3.00
  -3   3  -5    0.60    2.90
  -3   3  -5    5.70    1.40
   3   3   5   -0.90    3.80
  -3   3  -5    5.90    1.80
  -3   3  -5    0.20    2.50
   3   3   5    3.20    2.10
  -3   3  -5    3.30    2.70
   3   3   5    3.40    1.90
  -3   3  -5    2.20    3.20
   4  -3   5   11.80    4.10
  -4  -3  -5   14.90    3.40
  -4  -3  -5   15.20    3.20
  -4  -3  -5   14.30    3.60
   4  -3   5   21.70    5.80
   4  -3   5   19.20    4.00
   4  -3   5    8.70    3.50
   4  -3   5   15.60    3.50
   4  -3   5   18.00    5.10
  -4  -3  -5    8.20    3.70
  -4  -3  -5   14.20    4.10
  -4   3  -5    9.70    4.30
  -4   3  -5   17.10    3.50
  -4   3  -5   20.20    4.50
   4   3   5   11.40    2.80
  -4   3  -5   14.70    4.40
  -4   3  -5   21.40    5.20
  -4   3  -5   18.90    3.60
   4   3   5   18.10    4.40
   4   3   5   20.80    5.30
   4   3   5   17.50    3.00
   4   3   5   14.50    3.40
  -4   3  -5   17.90    3.70
  -4   3  -5   16.30    1.80
   4   3   5   19.10    4.40
   4   3   5   21.40    4.80
   4   3   5   22.90    4.20
   5  -3   5  326.87   21.40
   5  -3   5  334.67   22.20
  -5  -3  -5  329.57   20.70
   5  -3   5  332.17   23.10
  -5  -3  -5  331.17   22.00
  -5  -3  -5  342.27   22.30
   5  -3   5  317.27   22.80
   5  -3   5  315.67   21.90
  -5  -3  -5  324.87   22.10
  -5  -3  -5  319.27   21.20
  -5   3  -5  323.67   22.10
  -5   3  -5  323.27   22.80
   5   3   5  334.17   21.20
   5   3   5  340.97   22.00
   5   3   5  352.56   21.70
   5   3   5  323.07   21.80
   5   3   5  310.47   22.30
   5   3   5  345.07   21.90
  -5   3  -5  343.47   21.60
   5   3   5  309.87   20.40
  -5   3  -5  319.97   21.80
  -5   3  -5  340.47   21.80
  -6  -3  -5   27.60    5.10
   6  -3   5   17.50    8.20
  -6  -3  -5   18.80    3.70
   6  -3   5   20.00    6.50
   6  -3   5   26.40    4.70
   6  -3   5   20.70    5.00
  -6  -3  -5   25.60    5.20
  -6  -3  -5   30.10    5.10
   6  -3   5   14.10    5.00
  -6  -3  -5   26.30    3.40
  -6   3  -5   28.50    4.90
  -6   3  -5   20.60    5.20
  -6   3  -5   22.30    4.40
   6   3   5   28.60    4.50
  -6   3  -5   24.50    5.00
   6   3   5   26.00    4.70
   6   3   5   15.90    4.40
  -6   3  -5   24.00    4.90
   6   3   5   27.60    4.30
   6   3   5   24.10    4.50
   6   3   5   31.60    5.40
  -7  -3  -5  325.17   22.60
  -7  -3  -5  328.27   23.40
  -7  -3  -5  315.77   21.60
   7  -3   5  323.57   22.90
   7  -3   5  342.97   21.90
   7  -3   5  356.56   23.40
   7  -3   5  295.57   22.70
  -7  -3  -5  341.47   22.50
   7  -3   5  303.97   25.20
  -7   3  -5  340.37   22.50
  -7   3  -5  337.57   22.60
  -7   3  -5  302.07   22.80
  -7   3  -5  387.06   27.30
   7   3   5  342.67   22.10
   7   3   5  339.27   22.30
   7   3   5  335.47   22.60
   7   3   5  325.97   22.10
   7   3   5  330.47   22.40
  -7   3  -5  320.07   22.00
  -8  -3  -5   26.00    5.80
   8  -3   5   14.50    5.90
   8  -3   5   20.30    5.60
  -8  -3  -5   14.60    4.60
  -8   3  -5   21.50    5.00
  -8   3  -5   26.00    5.40
   8   3   5   20.30    4.90
  -8   3  -5   20.30    5.70
   8   3   5   21.20    5.70
   8   3   5   15.50    4.40
   9  -3   5    6.90    6.70
   9  -3   5   -3.00    5.40
  -9  -3  -5    0.70    8.20
  -9  -3  -5    3.90    5.00
   9   3   5   18.50    6.50
  -9   3  -5    0.10    5.60
   9   3   5   -1.90    4.10
  -9   3  -5   -2.00    4.20
   9   3   5    7.30    5.40
  -9   3  -5    7.10    5.30
  10  -3   5   63.29    9.80
  10  -3   5   71.19    8.90
 -10  -3  -5   78.29   10.10
 -10  -3  -5   50.59   10.40
  10   3   5   65.49    9.50
 -10   3  -5   66.99   10.10
 -10   3  -5   65.49    8.90
  10   3   5   88.19   10.10
  10   3   5   57.19    7.40
  -9  -4   5   76.29    9.00
   9  -4  -5   62.59    7.70
  -9  -4   5   72.79    8.70
   9  -4  -5   58.99   10.30
  -9  -4   5   89.79   11.80
   9   4  -5   70.39   10.10
  -9   4   5   81.49   12.50
  -9   4   5  101.19   10.40
   8  -4  -5    4.70    3.80
  -8  -4   5    3.40    6.70
   8  -4  -5    6.40   11.70
  -8  -4   5   -3.90    4.00
  -8  -4   5   -5.20    4.80
   8   4  -5    0.00    3.70
   8   4  -5   -2.00    5.20
  -8   4   5    2.40    6.90
  -8   4   5    2.90    4.20
   8   4  -5   -4.40    7.40
  -7  -4   5   24.10    7.40
   7  -4  -5   22.00    5.70
  -7  -4   5   23.60    5.00
  -7  -4   5   22.90    5.80
   7  -4  -5   21.00    5.00
  -7   4   5   22.00    5.30
   7   4  -5   29.00    4.70
   7   4  -5   22.20    5.90
  -7   4   5   38.40    7.20
   6  -4  -5    5.20    3.10
  -6  -4   5    4.70    5.90
   6  -4  -5    7.20    3.60
   6  -4  -5    7.50    4.70
  -6  -4   5    9.70    4.10
  -6  -4   5    6.90    4.20
  -6  -4   5   17.50    5.10
   6  -4  -5    9.00    3.60
   6   4  -5   -8.50    5.30
   6   4  -5   -0.60    4.10
  -6   4   5    6.80    5.40
   6   4  -5    5.80    3.70
  -6   4   5    2.60    3.80
   6   4  -5   -0.70    4.00
  -6   4   5    9.20    3.90
   5  -4  -5   30.20    6.20
   5  -4  -5   29.60    5.10
  -5  -4   5   30.90    4.80
  -5  -4   5   31.90    4.80
   5  -4  -5   39.70    4.50
  -5  -4   5   33.90    6.50
   5  -4  -5   29.90    4.90
  -5  -4   5   30.80    6.70
   5  -4  -5   42.40    3.70
  -5  -4   5   43.30    4.70
   5  -4  -5   28.00    4.80
  -5   4   5   32.20    5.40
  -5   4   5   38.10    4.50
   5   4  -5   28.40    4.70
  -5   4   5   38.80    6.80
   5   4  -5   44.70    6.50
   5   4  -5   29.30    5.20
   5   4  -5   43.10    5.40
   4  -4  -5   11.30    3.10
  -4  -4   5    7.30    3.40
   4  -4  -5   10.00    4.00
  -4  -4   5    3.10    3.30
   4  -4  -5   10.20    3.80
  -4  -4   5    5.10    5.10
  -4  -4   5    6.30    3.20
  -4   4   5   11.00    4.80
  -4   4   5    7.70    4.70
  -4   4   5    7.50    4.80
   4   4  -5    3.80    6.10
  -4   4   5    8.30    3.00
   4   4  -5   12.80    4.00
   4   4  -5    6.40    4.30
   4   4  -5    7.60    3.40
   4   4  -5    7.70    4.70
   3  -4  -5  122.49   11.30
  -3  -4   5  153.88   18.60
  -3  -4   5  148.89   10.10
  -3  -4   5  130.09   12.40
   3  -4  -5  138.09    8.60
   3  -4  -5  122.69   11.00
   3  -4  -5  125.49   10.00
   3  -4  -5  141.69   11.40
  -3  -4   5  144.19   11.10
   3  -4  -5  151.78   11.30
   3   4  -5  134.79   11.30
  -3   4   5  145.89   13.10
  -3   4   5  138.39    9.90
  -3   4   5  134.39    8.30
   3   4  -5  132.19   10.90
  -3   4   5  141.79   11.30
   3   4  -5  138.59   11.20
  -3   4   5  138.59   10.40
   3   4  -5  127.69   11.00
  -2  -4   5  199.48   15.40
   2  -4  -5  207.78   14.60
   2  -4  -5  201.28   14.70
  -2  -4   5  185.08   14.60
   2  -4  -5  200.08   14.40
  -2  -4   5  188.08   15.60
  -2  -4   5  203.48   13.40
   2  -4  -5  214.08   13.70
   2  -4  -5  205.38   14.80
  -2  -4   5  181.88   14.30
   2   4  -5  185.28   14.30
   2   4  -5  152.48   15.20
  -2   4   5  207.38   15.50
   2   4  -5  179.78   14.20
   2   4  -5  183.48   14.20
  -2   4   5  220.28   14.70
   2   4  -5  183.58   14.50
  -2   4   5  201.88   12.10
  -2   4   5  226.38   13.70
  -2   4   5  234.68   16.50
   1  -4  -5   26.80    5.00
   1  -4  -5   20.30    4.30
   1  -4  -5   21.30    2.90
  -1  -4   5    9.50    4.90
  -1  -4   5   21.50    4.70
   1  -4  -5   25.20    5.00
  -1  -4   5   22.60    5.40
  -1  -4   5   20.00    4.50
   1  -4  -5   16.80    4.50
  -1  -4   5   22.40    3.70
  -1  -4   5   23.00    5.00
   1  -4  -5   21.90    4.20
   1   4  -5   16.80    6.40
   1   4  -5   16.10    4.30
  -1   4   5   20.20    6.70
   1   4  -5   15.70    4.20
   1   4  -5   24.00    5.30
  -1   4   5   20.50    2.70
   1   4  -5   17.50    5.90
  -1   4   5   22.90    3.70
   1   4  -5   22.50    3.90
  -1   4   5   20.10    5.00
   1   4  -5   22.70    4.50
  -1   4   5   24.90    4.50
  -1   4   5   22.30    4.80
   0  -4  -5   40.70    5.90
   0  -4   5   47.90    6.80
   0  -4   5   52.79    7.00
   0  -4  -5   37.70    4.40
   0  -4  -5   42.90    5.90
   0  -4  -5   37.10    5.70
   0  -4   5   35.20    5.40
   0  -4  -5   42.60    6.20
   0  -4  -5   31.50    5.20
   0  -4   5   34.60    5.50
   0  -4   5   41.20    6.50
   0  -4  -5   54.89    7.70
   0  -4   5   43.80    4.80
   0  -4  -5   33.70    5.20
   0   4  -5   52.99    7.30
   0   4  -5   35.70    5.70
   0   4   5   38.60    5.70
   0   4  -5   33.10    5.40
   0   4   5   52.49    5.40
   0   4   5   39.00    4.40
   0   4   5   48.10    7.60
   0   4  -5   40.90    5.90
   0   4  -5   40.60    6.80
   0   4  -5   45.70    5.70
   0   4   5   39.40    5.70
   0   4  -5   38.30    4.70
   0   4   5   21.80    5.10
  -1  -4  -5   -2.20    3.20
   1  -4   5   -0.60    3.70
   1  -4   5   -0.30    3.20
  -1  -4  -5    1.80    4.00
   1  -4   5    5.50    3.20
  -1  -4  -5    2.40    3.50
   1  -4   5   -2.30    4.00
  -1  -4  -5    8.00    4.20
   1  -4   5   -2.10    3.70
   1  -4   5   -0.70    4.30
  -1  -4  -5   -3.70    4.00
   1   4   5   -0.60    3.50
   1   4   5   -3.10    2.50
   1   4   5   -1.80    3.30
  -1   4  -5    1.30    3.40
  -1   4  -5   -1.90    2.30
   1   4   5   -2.10    3.00
  -1   4  -5    1.50    3.20
   1   4   5    0.40    1.90
   1   4   5   -5.70    4.80
  -1   4  -5   -0.90    4.60
   1   4   5    0.20    2.90
  -1   4  -5   -3.00    3.40
   1   4   5   -1.30    2.90
  -1   4  -5    6.50    4.90
  -1   4  -5    0.70    3.20
   2  -4   5  137.89   12.30
  -2  -4  -5  162.78   12.30
   2  -4   5  156.08   11.90
  -2  -4  -5  150.68   12.80
  -2  -4  -5  116.99   14.00
  -2  -4  -5  152.08   11.90
  -2  -4  -5  144.29   12.10
   2  -4   5  151.38   13.40
  -2  -4  -5  150.38   12.20
   2  -4   5  195.48   13.10
  -2   4  -5  145.89   13.60
   2   4   5  142.59   11.60
   2   4   5  144.39   13.70
   2   4   5  137.39   11.70
  -2   4  -5  162.18   12.30
  -2   4  -5  172.28   12.50
   2   4   5  149.88   12.00
  -2   4  -5  150.28   10.30
   2   4   5  153.38   10.50
   2   4   5  147.09   12.10
  -2   4  -5  144.49   11.90
   2   4   5  139.39   11.40
  -2   4  -5  178.78   10.90
  -2   4  -5  143.99   13.90
   2   4   5  134.09   11.40
   3  -4   5    2.00    3.80
   3  -4   5    8.80    4.30
   3  -4   5    3.60    4.80
  -3  -4  -5   -0.40    3.60
  -3  -4  -5   -1.10    4.50
   3  -4   5    4.30    4.30
   3  -4   5   -0.60    4.00
  -3  -4  -5  -11.00    5.00
  -3  -4  -5    1.40    3.70
   3  -4   5    3.50    3.70
  -3  -4  -5  -11.80    4.60
  -3  -4  -5   -3.50    3.60
   3   4   5    3.90    3.00
   3   4   5    4.10    5.80
  -3   4  -5    1.90    4.20
  -3   4  -5    2.50    2.20
   3   4   5    2.10    3.70
  -3   4  -5   -0.50    3.60
  -3   4  -5    3.90    3.00
   3   4   5    6.30    4.10
   3   4   5   -0.10    2.30
  -3   4  -5  -11.50    5.00
   3   4   5   -5.00    4.60
   3   4   5    1.00    2.80
   3   4   5    1.40    4.60
  -3   4  -5    4.20    4.20
  -3   4  -5    2.50    3.60
  -3   4  -5    0.90    2.10
  -4  -4  -5 1264.57   77.89
  -4  -4  -5 1177.08   77.59
  -4  -4  -5 1164.58   77.09
   4  -4   5 1385.86   79.19
   4  -4   5 1474.05   78.29
   4  -4   5 1445.16   77.69
  -4  -4  -5 1195.48   77.69
   4   4   5 1242.48   76.49
   4   4   5 1169.48   77.39
  -4   4  -5 1382.76   76.79
   4   4   5 1210.28   77.59
  -4   4  -5 1461.45   79.19
  -4   4  -5 1389.66   77.89
   4   4   5 1137.49   76.59
   4   4   5 1205.58   77.09
  -4   4  -5 1321.07   79.69
  -4   4  -5 1409.76   77.89
   4   4   5 1223.98   77.19
   4   4   5 1148.19   77.59
  -5  -4  -5   15.50    4.20
   5  -4   5    5.50    5.70
   5  -4   5   17.00    5.50
   5  -4   5   19.10    5.20
  -5  -4  -5   13.90    5.30
   5  -4   5   11.50    5.50
  -5  -4  -5    9.30    4.50
   5   4   5   17.40    4.90
   5   4   5    9.80    4.30
   5   4   5   16.40    5.20
  -5   4  -5   13.30    4.90
  -5   4  -5    4.80    4.70
   5   4   5   18.80    5.00
   5   4   5   10.70    4.00
  -5   4  -5   14.00    4.10
   5   4   5   16.70    3.60
  -5   4  -5    9.70    5.30
  -5   4  -5   20.70    6.50
  -6  -4  -5    5.20    5.00
   6  -4   5    3.00    5.50
  -6  -4  -5    7.40    3.90
   6  -4   5    0.60    5.10
   6   4   5    2.60    4.00
   6   4   5    1.50    4.30
  -6   4  -5    5.80    4.30
  -6   4  -5    3.60    4.50
   6   4   5    3.20    2.80
  -6   4  -5   -0.80    5.00
   6   4   5    3.10    3.90
   7  -4   5   55.89    8.30
  -7  -4  -5   48.50    7.60
  -7  -4  -5   47.70    7.60
   7  -4   5   37.70    7.00
  -7   4  -5   47.10    7.60
   7   4   5   37.40    7.40
  -7   4  -5   49.80    7.50
   7   4   5   31.50    6.50
  -7   4  -5   44.40    6.80
   7   4   5   26.30    5.80
  -8  -4  -5   17.20    6.30
   8  -4   5   10.40    7.10
  -8  -4  -5   -9.10    8.60
   8  -4   5    1.50    6.20
  -8   4  -5    7.90    5.20
   8   4   5   18.50    6.50
   8   4   5    6.60    5.70
   8   4   5   -4.90    4.70
  -8   4  -5    7.30    6.20
  -8   4  -5    6.10    6.30
  -9  -4  -5   17.90    6.60
   9  -4   5   40.00    9.40
  -9  -4  -5   27.30    8.00
   9  -4   5   37.20    8.60
   9   4   5   25.20    6.00
   9   4   5   29.30    7.50
  -9   4  -5   39.40    8.70
   9   4   5   31.00    7.50
  -9   4  -5   35.50    7.70
   7  -5  -5   -0.30    4.90
  -7  -5   5    9.80    6.50
   7  -5  -5    0.50    7.10
  -7  -5   5   -6.20    8.20
  -7   5   5    1.80    5.70
  -7   5   5   15.90    8.20
   7   5  -5  -15.60    7.70
   7   5  -5    8.30    4.70
  -6  -5   5  133.99   14.90
   6  -5  -5   92.19   11.90
   6  -5  -5  134.59   12.10
  -6  -5   5  121.29   14.20
   6   5  -5   94.19   11.20
   6   5  -5  106.89   12.50
  -6   5   5  108.99   14.60
  -6   5   5   98.99   12.40
   5  -5  -5  116.89   13.20
  -5  -5   5  111.99   14.90
   5  -5  -5  164.18   13.30
  -5  -5   5  124.99   14.10
  -5   5   5  158.48   14.80
   5   5  -5  115.39   12.40
   5   5  -5  114.29   12.90
   5   5  -5   97.79   14.10
  -5   5   5  154.08   10.90
  -5   5   5  179.98   14.10
   4  -5  -5   40.50    7.20
   4  -5  -5   64.79    7.90
  -4  -5   5   66.69    9.70
  -4  -5   5   62.19    7.10
  -4  -5   5   61.29    9.50
  -4   5   5   68.39   10.30
  -4   5   5   48.60    7.80
  -4   5   5   62.69    7.30
   4   5  -5   52.39    8.80
   4   5  -5   56.29    7.60
   4   5  -5   60.99    7.80
  -3  -5   5    7.50    4.30
   3  -5  -5   -1.30    4.40
   3  -5  -5    1.60    4.20
  -3  -5   5   -0.50    5.80
   3  -5  -5    0.40    4.10
  -3  -5   5   10.00    6.30
   3  -5  -5    0.80    4.00
  -3   5   5    3.80    3.50
  -3   5   5    1.40    5.20
   3   5  -5    0.40    4.80
  -3   5   5   -0.20    5.40
   3   5  -5    0.30    5.70
   3   5  -5    6.90    4.70
  -2  -5   5   75.29    8.10
   2  -5  -5   69.79    9.50
  -2  -5   5   98.89   13.90
   2  -5  -5   76.19    9.00
   2  -5  -5   77.69    9.00
  -2  -5   5   57.29    9.20
   2  -5  -5   70.49   11.60
   2  -5  -5   63.89    6.40
  -2   5   5   67.79    8.40
  -2   5   5   76.99    8.90
   2   5  -5   65.99   12.00
  -2   5   5   75.19    7.60
   2   5  -5   61.89    8.40
  -2   5   5   68.09   10.10
   2   5  -5   78.29   11.20
  -1  -5   5  103.69   12.20
  -1  -5   5  113.29    9.60
   1  -5  -5   97.39    8.10
   1  -5  -5   89.99   10.60
   1  -5  -5  105.19   11.70
   1  -5  -5  110.89   12.00
  -1  -5   5   91.69   10.20
  -1  -5   5  119.59   12.60
  -1  -5   5   99.99   11.90
   1  -5  -5  111.19   10.20
   1   5  -5  120.19   11.50
   1   5  -5  110.09   12.00
  -1   5   5   99.29   11.10
   1   5  -5  101.79   10.60
   1   5  -5   97.59    9.70
  -1   5   5  101.29   11.60
  -1   5   5  107.29   12.40
  -1   5   5   93.89    8.90
  -1   5   5   99.29    8.20
   1   5  -5   89.99   11.80
  -1   5   5   92.89   11.00
   0  -5  -5   27.70    5.90
   0  -5  -5   22.40    3.90
   0  -5   5   36.80    6.80
   0  -5  -5   26.20    6.00
   0  -5  -5   24.20    5.60
   0  -5   5   18.70    5.80
   0  -5  -5   29.70    6.10
   0  -5   5   22.20    6.40
   0  -5   5   11.30    6.40
   0  -5   5   18.80    5.50
   0   5  -5   26.10    6.60
   0   5   5   12.30    8.20
   0   5   5   23.90    4.30
   0   5  -5   26.50    6.00
   0   5  -5   34.10    6.40
   0   5  -5   36.10    6.30
   0   5  -5   27.20    4.70
   0   5   5   17.20    4.70
   0   5   5   24.80    5.90
   0   5   5   21.70    5.60
   0   5  -5   26.60    5.90
   1  -5   5  249.08   21.60
   1  -5   5  280.67   20.80
   1  -5   5  255.77   20.60
   1  -5   5  286.07   21.00
  -1  -5  -5  265.47   19.60
   1  -5   5  273.97   18.80
  -1  -5  -5  292.37   20.90
  -1  -5  -5  241.48   20.70
  -1  -5  -5  266.77   20.10
  -1  -5  -5  296.87   18.50
   1  -5   5  280.17   20.10
  -1  -5  -5  288.07   20.00
  -1   5  -5  281.77   20.30
   1   5   5  277.17   19.70
  -1   5  -5  294.87   20.70
  -1   5  -5  266.07   18.90
   1   5   5  267.57   18.60
   1   5   5  264.17   20.20
   1   5   5  261.17   23.40
   1   5   5  265.17   19.90
   1   5   5  264.37   20.80
  -1   5  -5  287.37   18.40
   1   5   5  295.77   18.00
  -1   5  -5  276.07   20.80
  -1   5  -5  296.07   20.20
   1   5   5  274.07   19.00
   2  -5   5    9.60    4.70
   2  -5   5    4.20    5.60
   2  -5   5    5.30    6.30
  -2  -5  -5    8.90    4.80
   2  -5   5   11.10    5.80
   2  -5   5   14.40    6.50
  -2  -5  -5    7.60    6.20
  -2  -5  -5    6.30    5.20
  -2   5  -5    7.30    5.00
   2   5   5   16.50    5.80
   2   5   5    6.30    4.90
  -2   5  -5    8.20    5.50
   2   5   5    4.30    4.30
  -2   5  -5    9.30    6.40
   2   5   5    5.90    4.40
  -2   5  -5    1.60    3.90
   2   5   5    4.20    5.60
   2   5   5    8.90    4.70
  -2   5  -5   10.60    3.30
  -2   5  -5    0.70    7.30
  -2   5  -5    5.90    5.20
   2   5   5    7.40    3.20
  -3  -5  -5   13.00    6.50
   3  -5   5   20.10    7.20
   3  -5   5   20.00    6.60
   3  -5   5   22.50    7.80
   3  -5   5   22.50    6.60
   3  -5   5   20.50    5.10
  -3  -5  -5   14.70    5.60
  -3  -5  -5   26.80    5.70
   3   5   5   15.40    4.70
  -3   5  -5   22.20    6.10
   3   5   5   18.30    4.90
  -3   5  -5   16.90    6.00
  -3   5  -5   11.80   10.70
   3   5   5   18.20    4.00
   3   5   5   12.00    5.90
  -3   5  -5   16.60    6.20
  -3   5  -5   20.20    3.30
   3   5   5   21.10    5.70
   4  -5   5   20.10    8.40
  -4  -5  -5   42.50    7.40
   4  -5   5   23.80    7.10
   4  -5   5   46.90    6.70
  -4   5  -5   44.60    7.30
   4   5   5   27.60    6.00
   4   5   5   26.70    5.70
   4   5   5   22.90    5.50
  -4   5  -5   29.70    7.00
  -4   5  -5   34.20    7.80
   4   5   5   24.80    5.80
   5  -5   5   11.80    7.00
   5  -5   5   19.20    5.50
  -5  -5  -5   18.10    6.40
  -5  -5  -5   19.00    6.60
   5  -5   5   16.80    7.70
   5   5   5   26.50    6.50
  -5   5  -5   21.00    6.90
   5   5   5   26.20    5.10
  -5   5  -5   16.30    7.00
   5   5   5   17.10    4.90
   5   5   5   25.40    6.10
   6  -5   5   41.90    9.30
  -6  -5  -5   26.20   10.80
  -6  -5  -5   19.90    7.10
   6  -5   5   38.50    8.80
   6  -5   5   39.30    6.60
  -6   5  -5   31.20    8.40
   6   5   5   22.00    5.80
  -6   5  -5   44.10    8.90
  -6   5  -5   23.10    5.70
   6   5   5   27.50    6.80
   6   5   5   22.50    6.10
  -7  -5  -5   96.79   12.20
   7  -5   5  113.59   13.40
   7  -5   5  148.89   16.10
  -7   5  -5  148.99   16.00
   7   5   5  119.69   12.40
   7   5   5  119.29   13.40
  -7   5  -5   99.39   14.00
  -7   5  -5  116.89   12.60
   7   5   5   96.19   12.90
   5   6  -5   30.60    8.20
   4  -6  -5    3.50    6.70
  -4  -6   5  -17.30    8.70
   4  -6  -5    0.40    7.30
  -4  -6   5   -6.40    7.60
   4   6  -5    2.90    7.20
  -4   6   5    0.40    7.10
  -4   6   5    2.40    7.10
   4   6  -5    4.80    6.70
   4   6  -5   23.70    8.00
  -3  -6   5   20.50    8.30
  -3  -6   5   14.00    9.50
   3  -6  -5   13.60    7.40
   3  -6  -5   18.10    7.10
  -3   6   5   15.00    7.90
  -3   6   5   13.30    7.20
   3   6  -5    8.20    6.40
  -3   6   5   20.30    5.90
   3   6  -5   37.00    8.20
   3   6  -5   22.10    7.20
  -2  -6   5  216.58   22.70
  -2  -6   5  234.78   20.90
   2  -6  -5  219.38   18.90
   2  -6  -5  292.87   20.10
  -2   6   5  220.68   17.40
   2   6  -5  219.88   19.00
   2   6  -5  261.87   21.60
   2   6  -5  261.07   18.40
  -2   6   5  201.88   20.00
  -2   6   5  225.18   20.30
  -1  -6   5    2.70    7.30
   1  -6  -5   -0.30    6.40
  -1  -6   5    6.20    9.30
  -1  -6   5   -3.60    4.40
   1   6  -5   -1.70    6.30
   1   6  -5    1.50    7.40
   1   6  -5    2.50    5.30
  -1   6   5    5.40    6.90
  -1   6   5   -2.10    4.60
  -1   6   5  -13.80    6.30
   0  -6   5    6.60    4.40
   0  -6  -5    1.00    5.90
   0  -6   5    5.40    7.80
   0  -6  -5    5.70   10.50
   0   6   5   12.00    7.00
   0   6  -5   13.50    7.30
   0   6  -5    4.70    6.40
   0   6  -5    8.40    7.10
   0   6   5   13.10    7.00
   0   6   5    9.50    5.20
  -1  -6  -5  -18.10    6.90
   1  -6   5   -0.70    7.70
   1  -6   5   -1.00    4.70
  -1  -6  -5    3.60    7.00
  -1  -6  -5    2.20    6.00
   1  -6   5   -1.80    7.80
   1   6   5   -3.10    5.00
   1   6   5   -0.20    6.40
  -1   6  -5   -2.60    6.20
   1   6   5    7.90    6.30
   1   6   5    0.20    6.00
  -1   6  -5   -4.40    6.50
  -1   6  -5   -1.50    4.50
   2  -6   5   34.60   10.30
   2  -6   5   29.80    8.70
   2  -6   5   36.80    7.00
   2   6   5   49.80    6.40
  -2   6  -5   22.20    7.60
   2   6   5   35.30    7.90
   2   6   5   38.70    7.90
   2   6   5   28.10    6.90
  -2   6  -5   53.39    9.90
   3  -6   5    4.80    9.20
  -3  -6  -5    1.20    7.00
   3  -6   5   33.40    9.60
   3  -6   5    5.90    5.30
  -3  -6  -5   10.00    6.10
   3   6   5    4.70    6.60
  -3   6  -5   -0.80    7.20
   3   6   5    7.70    6.60
  -3   6  -5    7.60    8.00
   3   6   5   14.30    6.60
   3   6   5   13.30    5.10
  -4  -6  -5  162.08   17.90
   4  -6   5  175.38   15.50
   4  -6   5  196.08   20.00
   4  -6   5  193.18   19.60
   4   6   5  172.68   15.30
   4   6   5  159.18   14.30
   4   6   5  145.49   15.80
  -4   6  -5  171.18   18.40
  -4   6  -5  163.28   17.40
   4   6   5  172.98   16.00
  11   0  -6  196.78   15.90
  11   0  -6  190.58   16.50
  11   0  -6  195.38   17.60
 -11   0   6  182.48   15.10
  10   0  -6   10.50    4.80
 -10   0   6   14.00    4.40
  10   0  -6    7.40    5.20
  10   0  -6    6.60    5.10
   9   0  -6   65.99    7.00
  -9   0   6   44.80    6.40
   9   0  -6   55.59    8.00
   9   0  -6   51.09    8.00
   8   0  -6 1863.71  114.09
   8   0  -6 1912.21  113.09
   8   0  -6 1883.01  114.39
  -8   0   6 1930.01  113.39
   8   0  -6 1962.00  113.59
  -7   0   6   63.99    6.20
   7   0  -6   44.90    6.90
   7   0  -6   58.79    7.10
   7   0  -6   47.40    6.40
   7   0  -6   54.59    6.00
   7   0  -6   55.29    5.30
   7   0  -6   47.90    6.20
   6   0  -6  550.54   34.00
  -6   0   6  549.54   33.80
   6   0  -6  493.65   34.50
  -6   0   6  542.95   33.40
   6   0  -6  537.25   34.60
  -6   0   6  599.24   34.70
   6   0  -6  537.75   32.20
  -6   0   6  540.55   32.40
   6   0  -6  585.14   34.10
  -6   0   6  537.05   32.50
   6   0  -6  566.54   32.20
   5   0  -6  505.75   30.20
   5   0  -6  479.55   29.00
   5   0  -6  487.45   31.10
  -5   0   6  483.25   29.20
   5   0  -6  491.85   30.30
  -5   0   6  488.45   30.10
  -5   0   6  492.75   30.70
   5   0  -6  466.55   30.90
   5   0  -6  499.15   29.00
  -5   0   6  487.35   29.10
  -5   0   6  501.75   29.80
   4   0  -6   12.50    2.70
  -4   0   6   14.40    1.70
  -4   0   6   15.10    2.80
  -4   0   6   15.40    1.90
   4   0  -6   15.70    3.30
   4   0  -6   15.20    2.00
  -4   0   6   18.70    3.60
   4   0  -6   14.80    1.90
  -4   0   6   17.20    2.50
   4   0  -6   15.70    2.90
   4   0  -6   12.00    3.10
  -4   0   6   16.40    2.00
  -4   0   6   19.70    2.20
   3   0  -6    0.30    1.70
   3   0  -6    0.50    0.90
  -3   0   6   -0.20    1.20
   3   0  -6   -1.20    1.00
   3   0  -6    0.50    1.80
   3   0  -6    0.90    2.30
   3   0  -6    1.60    1.90
  -3   0   6    0.70    1.30
  -3   0   6    0.00    2.00
   3   0  -6   -0.50    1.00
  -3   0   6    0.50    1.90
   3   0  -6    2.30    1.60
   3   0  -6   -0.30    0.80
  -3   0   6    0.60    1.00
  -3   0   6   -0.20    1.00
   2   0  -6 2033.20  119.39
   2   0  -6 2012.10  118.59
   2   0  -6 1929.51  118.29
   2   0  -6 2060.39  119.69
  -2   0   6 2022.30  118.99
   2   0  -6 2051.59  118.89
  -2   0   6 2125.49  118.69
  -2   0   6 2036.40  118.69
   2   0  -6 1962.10  118.49
  -2   0   6 1969.80  118.49
  -2   0   6 2046.30  118.39
   2   0  -6 1985.60  118.39
   2   0  -6 2025.20  118.39
   2   0  -6 2016.50  118.49
  -1   0   6  329.37   19.20
   1   0  -6  307.77   19.80
  -1   0   6  313.37   19.20
  -1   0   6  286.57   18.80
   1   0  -6  296.17   18.70
   1   0  -6  294.47   18.70
   1   0  -6  311.67   19.50
   1   0  -6  314.97   19.00
  -1   0   6  315.57   18.80
   1   0  -6  301.37   18.60
   1   0  -6  313.97   19.10
   1   0  -6  291.47   19.10
   1   0  -6  307.07   18.80
   0   0  -6 6219.48  371.36
   0   0  -6 6405.96  371.06
   0   0  -6 6427.96  371.16
   0   0   6 6365.16  371.06
   0   0  -6 6504.85  371.56
   0   0  -6 6261.67  370.96
   0   0  -6 6282.77  371.06
   0   0   6 5985.60  370.86
   0   0  -6 6228.88  370.76
   0   0  -6 6299.67  370.96
   0   0   6 6570.54  371.36
   0   0   6 6243.18  371.06
   0   0  -6 6704.03  370.76
   0   0   6 6403.76  370.96
  -1   0  -6   63.79    5.60
   1   0   6   53.89    4.70
  -1   0  -6   58.49    4.80
  -1   0  -6   55.29    4.60
  -1   0  -6   52.19    5.00
  -1   0  -6   55.19    4.60
  -1   0  -6   56.29    4.70
  -1   0  -6   53.99    4.90
   1   0   6   57.09    4.90
  -1   0  -6   56.29    4.90
  -1   0  -6   58.79    4.80
   1   0   6   57.49    4.90
   1   0   6   47.10    4.50
   1   0   6   56.79    4.70
   1   0   6   53.59    5.20
   2   0   6   37.40    3.80
  -2   0  -6   38.00    4.10
   2   0   6   42.00    4.10
  -2   0  -6   40.60    4.60
  -2   0  -6   34.20    3.90
   2   0   6   37.40    3.70
  -2   0  -6   44.40    4.30
  -2   0  -6   42.50    3.90
  -2   0  -6   40.20    4.20
  -2   0  -6   43.30    4.50
   2   0   6   39.60    4.30
  -2   0  -6   37.40    4.00
   2   0   6   37.80    4.30
  -2   0  -6   43.40    4.00
   3   0   6  187.48   12.90
   3   0   6  189.48   12.70
   3   0   6  207.98   13.10
  -3   0  -6  204.48   13.30
  -3   0  -6  206.38   12.50
   3   0   6  210.58   15.60
   3   0   6  192.58   12.60
  -3   0  -6  200.28   12.90
  -3   0  -6  205.18   12.90
  -3   0  -6  180.48   12.60
  -3   0  -6  196.88   13.00
  -3   0  -6  182.78   12.90
   3   0   6  202.18   13.10
  -3   0  -6  185.38   12.50
  -3   0  -6  200.68   12.90
   4   0   6    5.30    2.30
  -4   0  -6    2.60    1.70
   4   0   6    7.30    2.20
  -4   0  -6   12.40    2.50
  -4   0  -6    7.30    2.20
   4   0   6    5.40    2.10
   4   0   6    9.40    2.30
  -4   0  -6    8.90    2.40
  -4   0  -6   10.10    2.30
   4   0   6    6.60    1.90
  -4   0  -6    7.10    1.60
  -4   0  -6    5.00    2.50
   4   0   6    6.50    2.60
  -4   0  -6    7.30    2.10
  -5   0  -6   18.40    3.10
  -5   0  -6   11.40    2.60
   5   0   6   11.40    2.80
  -5   0  -6   13.40    2.50
   5   0   6   14.80    3.10
  -5   0  -6   10.90    2.90
   5   0   6    9.30    2.70
  -5   0  -6   10.90    3.00
   5   0   6   10.60    2.40
  -5   0  -6   16.80    3.70
   5   0   6   13.10    2.60
  -5   0  -6   12.50    3.00
   5   0   6   10.00    2.90
  -5   0  -6   10.70    1.40
   6   0   6  264.47   17.40
  -6   0  -6  250.07   17.20
   6   0   6  247.88   20.40
  -6   0  -6  259.07   17.00
   6   0   6  266.07   16.50
  -6   0  -6  273.17   16.80
   6   0   6  252.17   17.00
   6   0   6  253.97   16.70
  -6   0  -6  244.38   16.90
  -6   0  -6  262.27   17.30
   6   0   6  244.18   17.20
   7   0   6  140.79   12.00
   7   0   6  143.19   11.30
  -7   0  -6  147.99   10.50
   7   0   6  140.39   10.20
  -7   0  -6  131.99   10.40
  -7   0  -6  131.99   10.70
  -7   0  -6  141.99   10.80
   7   0   6  126.99   10.50
  -7   0  -6  143.99   10.10
   7   0   6  127.19    9.80
  -8   0  -6  401.96   26.00
  -8   0  -6  390.16   25.60
  -8   0  -6  354.66   27.10
  -8   0  -6  412.56   27.40
   8   0   6  435.96   26.60
  -8   0  -6  423.46   25.70
   8   0   6  391.76   25.70
   8   0   6  396.16   25.20
   8   0   6  411.06   26.70
   8   0   6  415.46   26.10
  -9   0  -6  179.98   14.50
  -9   0  -6  189.78   14.00
   9   0   6  196.28   15.20
   9   0   6  188.08   14.00
   9   0   6  191.18   13.20
  -9   0  -6  165.38   13.30
  10   0   6   -3.00    4.20
  10   0   6    6.40    6.10
 -10   0  -6    0.80    4.40
  10   0   6   11.50    4.00
 -10   0  -6   14.90    7.30
 -11   0  -6   29.80    7.80
  11   0   6   28.00    8.00
  11   0   6   26.10    5.90
 -11   0  -6   23.20    5.40
  11  -1  -6  808.22   47.70
 -11  -1   6  744.63   47.70
  11  -1  -6  748.83   47.40
  11  -1  -6  725.63   49.40
  11   1  -6  763.92   48.10
 -11   1   6  734.43   49.00
  11   1  -6  807.42   48.80
  11   1  -6  789.72   49.40
 -10  -1   6   32.50    5.10
  10  -1  -6   20.30    5.60
  10  -1  -6   23.60    6.40
  10   1  -6   48.30    7.00
  10   1  -6   18.50    6.80
 -10   1   6   20.20    5.10
  10   1  -6   29.60    5.80
   9  -1  -6  412.76   26.10
   9  -1  -6  401.96   27.70
  -9  -1   6  413.46   26.20
   9  -1  -6  399.96   25.60
   9   1  -6  390.86   26.30
   9   1  -6  399.76   26.90
   8  -1  -6  472.45   30.10
   8  -1  -6  461.45   29.10
   8  -1  -6  460.65   29.60
  -8  -1   6  490.85   29.60
  -8  -1   6  491.65   27.80
  -8  -1   6  479.45   28.00
   8  -1  -6  463.35   31.40
   8  -1  -6  474.45   29.50
   8   1  -6  482.15   31.00
  -8   1   6  480.45   28.20
  -8   1   6  401.86   28.20
  -8   1   6  479.25   32.50
  -8   1   6  482.95   30.00
   8   1  -6  469.75   29.90
   7  -1  -6   27.60    2.40
  -7  -1   6   26.40    5.00
   7  -1  -6   23.10    2.60
  -7  -1   6   32.00    4.30
   7  -1  -6   31.90    3.70
   7  -1  -6   31.40    4.70
  -7  -1   6   30.80    2.70
  -7  -1   6   30.80    3.40
   7  -1  -6   27.70    4.20
  -7   1   6   28.80    3.20
   7   1  -6   27.60    4.90
   7   1  -6   25.60    7.00
  -7   1   6   32.00    3.10
  -7   1   6   19.40    3.90
   7   1  -6   23.30    6.40
  -7   1   6   34.00    6.20
   7   1  -6   25.20    4.50
  -7   1   6   30.90    5.20
   7   1  -6   25.80    2.30
   7   1  -6   26.40    2.30
  -6  -1   6    1.60    1.20
  -6  -1   6    2.10    3.00
   6  -1  -6    0.40    2.40
   6  -1  -6   -0.60    1.50
  -6  -1   6    4.30    1.90
   6  -1  -6    3.70    3.40
   6  -1  -6    0.10    1.00
  -6  -1   6    4.70    2.60
   6  -1  -6   -0.10    1.20
   6  -1  -6   -1.40    2.70
   6   1  -6    1.20    2.50
  -6   1   6   -4.10    3.00
   6   1  -6    0.80    2.80
   6   1  -6    0.20    3.70
  -6   1   6   -0.30    2.40
   6   1  -6    1.50    3.90
   6   1  -6    1.90    1.20
  -6   1   6    1.00    3.40
   6   1  -6    0.50    1.10
   6   1  -6   -0.60    3.80
  -6   1   6   -1.50    1.60
  -6   1   6   -0.30    1.20
   5  -1  -6  947.81   58.59
   5  -1  -6  964.40   59.69
  -5  -1   6  994.70   58.29
  -5  -1   6 1015.40   59.39
   5  -1  -6  947.41   57.89
  -5  -1   6  943.21   57.99
   5  -1  -6  991.90   58.09
   5  -1  -6 1005.40   57.99
  -5  -1   6 1030.40   59.89
   5  -1  -6 1000.20   59.49
  -5  -1   6  983.20   58.19
   5   1  -6  980.00   59.29
  -5   1   6  962.50   58.19
   5   1  -6 1005.90   57.99
   5   1  -6  972.10   57.89
   5   1  -6  927.51   59.19
   5   1  -6  998.50   59.79
  -5   1   6  975.50   58.09
  -5   1   6 1033.00   57.59
   5   1  -6  978.10   60.09
  -5   1   6 1002.70   59.09
  -5   1   6 1006.70   57.59
  -5   1   6  949.40   58.69
  -5   1   6  963.80   60.19
   4  -1  -6  141.19    9.00
  -4  -1   6  143.09    8.80
  -4  -1   6  131.29    9.60
   4  -1  -6  139.29   10.00
   4  -1  -6  142.39    8.80
  -4  -1   6  131.49    9.10
  -4  -1   6  152.78   11.00
   4  -1  -6  144.79    9.20
   4  -1  -6  140.49   10.80
  -4  -1   6  140.59    9.40
   4  -1  -6  140.39    9.70
   4  -1  -6  137.79    9.20
  -4  -1   6  139.79   10.40
  -4  -1   6  140.59    9.10
   4  -1  -6  128.09    9.90
   4  -1  -6  142.19    8.80
  -4   1   6  132.69    9.70
   4   1  -6  138.29    8.70
   4   1  -6  138.79   11.20
  -4   1   6  135.99   10.00
   4   1  -6  141.29    9.20
   4   1  -6  142.39    9.10
  -4   1   6  145.69    9.30
  -4   1   6  142.69    9.00
   4   1  -6  145.59    8.80
  -4   1   6  134.09    9.90
   4   1  -6  144.09   10.60
  -4   1   6  132.29    9.00
  -4   1   6  139.19   11.10
   4   1  -6  149.29   10.70
   4   1  -6  149.39   10.80
  -3  -1   6  558.44   35.40
   3  -1  -6  632.04   35.40
   3  -1  -6  586.74   36.50
  -3  -1   6  583.94   35.40
   3  -1  -6  623.74   35.20
  -3  -1   6  575.04   36.60
   3  -1  -6  646.34   35.40
  -3  -1   6  545.05   35.60
   3  -1  -6  622.94   35.40
   3  -1  -6  589.64   35.00
  -3  -1   6  581.54   35.20
  -3  -1   6  555.34   36.30
  -3  -1   6  574.04   36.20
   3  -1  -6  577.14   35.70
   3  -1  -6  596.14   35.80
   3   1  -6  568.44   36.00
  -3   1   6  636.64   35.60
   3   1  -6  530.65   35.90
   3   1  -6  547.75   36.50
  -3   1   6  643.04   35.60
   3   1  -6  581.74   35.30
  -3   1   6  643.64   37.10
  -3   1   6  675.03   35.10
   3   1  -6  563.64   35.20
   3   1  -6  555.44   35.40
   3   1  -6  528.75   35.30
  -3   1   6  622.74   35.30
  -3   1   6  592.44   35.90
  -3   1   6  608.44   35.40
  -2  -1   6  209.48   13.90
   2  -1  -6  213.38   13.40
   2  -1  -6  217.88   13.40
   2  -1  -6  211.68   13.40
  -2  -1   6  206.78   13.50
  -2  -1   6  201.68   13.40
  -2  -1   6  228.38   13.40
   2  -1  -6  212.98   12.80
  -2  -1   6  210.28   14.20
  -2  -1   6  212.48   14.20
  -2  -1   6  229.58   14.60
   2  -1  -6  214.38   13.70
   2  -1  -6  199.28   13.60
   2  -1  -6  218.28   13.50
   2  -1  -6  221.38   14.50
   2   1  -6  216.98   13.50
   2   1  -6  213.28   14.00
   2   1  -6  205.38   13.40
  -2   1   6  207.78   14.60
   2   1  -6  215.28   13.50
   2   1  -6  225.28   14.10
  -2   1   6  196.48   13.70
  -2   1   6  206.88   13.60
   2   1  -6  212.58   13.60
  -2   1   6  215.38   13.40
  -2   1   6  218.18   13.50
   2   1  -6  214.48   14.50
  -2   1   6  216.78   13.70
  -1  -1   6   23.70    3.40
   1  -1  -6   35.10    3.60
  -1  -1   6   24.30    2.90
   1  -1  -6   32.30    3.10
   1  -1  -6   28.10    2.90
   1  -1  -6   25.80    3.00
  -1  -1   6   25.70    3.60
   1  -1  -6   28.20    3.30
   1  -1  -6   29.10    2.20
  -1  -1   6   25.60    3.60
   1  -1  -6   36.40    3.70
  -1  -1   6   22.40    3.50
  -1  -1   6   23.10    2.90
   1  -1  -6   31.60    4.10
  -1   1   6   31.00    3.40
  -1   1   6   31.00    3.20
   1   1  -6   29.10    4.10
   1   1  -6   19.70    2.70
  -1   1   6   27.30    3.30
   1   1  -6   30.70    3.40
   1   1  -6   26.70    3.40
   1   1  -6   19.10    3.90
  -1   1   6   27.80    3.50
  -1   1   6   28.90    4.10
   1   1  -6   24.60    3.40
   1   1  -6   22.30    2.90
  -1   1   6   27.10    2.40
   0  -1  -6  188.88   12.30
   0  -1  -6  197.38   12.70
   0  -1   6  185.58   12.40
   0  -1  -6  194.08   12.70
   0  -1  -6  192.18   12.50
   0  -1   6  187.38   12.90
   0  -1   6  177.08   12.50
   0  -1  -6  207.98   12.50
   0  -1   6  192.38   13.00
   0  -1  -6  193.48   11.70
   0  -1   6  188.48   12.30
   0  -1  -6  183.98   12.40
   0  -1   6  180.38   12.50
   0  -1  -6  189.88   12.30
   0   1   6  185.18   12.40
   0   1   6  201.98   12.80
   0   1   6  194.88   12.60
   0   1  -6  181.08   12.50
   0   1  -6  195.68   12.40
   0   1  -6  206.28   13.10
   0   1  -6  187.58   12.40
   0   1   6  197.78   13.00
   0   1  -6  201.08   12.80
   0   1   6  190.68   11.80
   0   1  -6  184.88   12.40
   0   1  -6  188.78   12.40
   0   1   6  200.68   12.50
   1  -1   6  223.48   14.90
   1  -1   6  249.97   15.50
   1  -1   6  239.58   16.00
   1  -1   6  213.68   15.10
   1  -1   6  248.98   15.30
   1  -1   6  234.28   15.60
   1  -1   6  247.68   15.10
  -1   1  -6  224.88   15.00
  -1   1  -6  229.38   14.80
  -1   1  -6  244.58   16.30
  -1   1  -6  252.97   15.20
  -1   1  -6  234.98   14.50
  -1   1  -6  232.48   15.10
  -1   1  -6  238.18   15.50
  -1   1  -6  230.48   15.10
   2  -1   6    0.80    1.90
   2  -1   6    1.80    3.10
  -2  -1  -6    2.50    1.90
  -2  -1  -6    2.50    1.60
   2  -1   6    2.40    2.80
  -2  -1  -6    1.20    1.50
  -2  -1  -6    2.00    1.70
  -2  -1  -6   -1.50    2.20
   2  -1   6    2.80    1.70
   2  -1   6    2.20    2.20
   2  -1   6    2.30    1.90
  -2  -1  -6    3.60    1.90
  -2  -1  -6    0.80    1.20
  -2  -1  -6    3.40    1.70
   2  -1   6    1.40    1.40
  -2  -1  -6   -0.40    1.80
  -2   1  -6    2.10    1.70
   2   1   6    0.80    1.70
   2   1   6    4.20    1.60
   2   1   6   -0.30    2.20
   2   1   6   -0.60    1.60
  -2   1  -6    7.20    1.90
  -2   1  -6    0.70    1.80
   2   1   6    2.50    1.80
  -2   1  -6    2.70    1.90
  -2   1  -6    2.20    1.80
  -2   1  -6    2.40    2.00
  -2   1  -6    3.50    2.20
  -2   1  -6    3.10    1.50
   3  -1   6  437.86   24.90
   3  -1   6  417.86   26.10
   3  -1   6  461.95   25.60
  -3  -1  -6  392.06   25.40
   3  -1   6  480.45   25.70
  -3  -1  -6  400.36   25.60
   3  -1   6  401.96   25.20
  -3  -1  -6  390.26   25.10
  -3  -1  -6  400.86   25.30
  -3  -1  -6  402.76   24.70
  -3  -1  -6  403.66   25.00
  -3  -1  -6  396.86   25.20
   3  -1   6  427.06   25.60
  -3  -1  -6  393.56   25.40
   3  -1   6  378.46   25.90
  -3  -1  -6  383.26   24.50
  -3   1  -6  447.76   25.50
  -3   1  -6  433.76   25.10
  -3   1  -6  455.65   25.50
  -3   1  -6  399.26   25.30
   3   1   6  390.36   25.10
   3   1   6  392.36   25.30
   3   1   6  408.26   25.60
   3   1   6  371.26   25.00
  -3   1  -6  394.86   25.70
   3   1   6  403.96   25.70
   3   1   6  393.56   25.30
   4  -1   6   66.99    6.10
   4  -1   6   63.59    5.90
   4  -1   6   66.69    5.00
  -4  -1  -6   68.89    6.00
  -4  -1  -6   60.09    5.70
   4  -1   6   66.79    5.50
   4  -1   6   61.99    6.60
  -4  -1  -6   66.39    5.80
  -4  -1  -6   67.49    6.00
  -4  -1  -6   70.49    5.90
   4  -1   6   62.69    6.10
   4  -1   6   64.89    6.10
   4   1   6   65.59    5.60
  -4   1  -6   71.39    5.90
   4   1   6   58.99    5.60
   4   1   6   65.89    5.70
  -4   1  -6   64.29    5.80
  -4   1  -6   63.79    5.10
   4   1   6   56.89    5.90
  -4   1  -6   65.19    6.40
  -4   1  -6   64.99    5.90
  -4   1  -6   57.09    5.70
  -4   1  -6   55.39    5.50
  -4   1  -6   61.89    5.80
   4   1   6   63.39    5.70
   4   1   6   58.49    6.20
  -5  -1  -6   44.30    4.70
  -5  -1  -6   45.60    5.60
   5  -1   6   41.70    4.10
  -5  -1  -6   51.79    5.70
   5  -1   6   61.89    5.90
  -5  -1  -6   43.80    5.20
   5  -1   6   43.10    4.70
   5  -1   6   47.70    5.60
  -5  -1  -6   45.10    5.10
   5  -1   6   48.90    4.60
  -5  -1  -6   47.30    5.30
   5  -1   6   36.90    5.10
  -5  -1  -6   49.70    5.70
   5  -1   6   47.40    5.50
   5   1   6   40.50    5.20
  -5   1  -6   41.30    5.10
   5   1   6   45.80    4.90
  -5   1  -6   55.19    5.40
  -5   1  -6   41.00    5.20
  -5   1  -6   49.00    5.50
  -5   1  -6   49.00    5.80
   5   1   6   44.50    5.10
   5   1   6   55.49    5.30
  -5   1  -6   49.80    5.00
   5   1   6   41.50    4.90
   5   1   6   64.89    6.20
  -5   1  -6   38.80    4.60
  -5   1  -6   45.90    4.50
   6  -1   6  188.78   13.40
  -6  -1  -6  182.08   13.60
   6  -1   6  190.78   12.20
   6  -1   6  197.48   12.60
   6  -1   6  189.08   13.00
  -6  -1  -6  174.98   13.50
   6  -1   6  186.78   14.00
   6  -1   6  208.78   14.00
  -6  -1  -6  192.58   13.40
  -6  -1  -6  186.08   13.40
  -6   1  -6  183.58   13.20
  -6   1  -6  194.48   13.80
  -6   1  -6  184.48   12.40
   6   1   6  190.88   13.20
   6   1   6  199.18   16.00
   6   1   6  178.88   13.30
  -6   1  -6  198.48   16.10
  -6   1  -6  204.88   13.60
   6   1   6  186.48   13.00
  -6   1  -6  194.78   12.50
   6   1   6  181.38   13.00
  -7  -1  -6   -1.70    2.80
  -7  -1  -6   -1.30    3.20
  -7  -1  -6   -1.70    2.40
   7  -1   6    2.40    2.00
  -7  -1  -6    5.80    2.90
   7  -1   6    4.20    3.90
   7  -1   6    1.90    2.10
   7  -1   6    4.00    4.00
   7  -1   6    8.60    3.50
  -7  -1  -6   -1.00    4.30
   7   1   6    0.50    2.80
   7   1   6    1.50    2.90
   7   1   6    0.80    2.50
  -7   1  -6    2.00    2.90
  -7   1  -6   -0.90    2.60
  -7   1  -6   -0.10    2.10
  -7   1  -6   -2.50    2.60
  -7   1  -6   -1.40    3.00
   7   1   6    1.10    2.80
  -7   1  -6    2.70    3.30
   8  -1   6   23.10    3.30
  -8  -1  -6   20.10    4.30
   8  -1   6   23.70    4.90
   8  -1   6   23.60    5.30
  -8  -1  -6   18.90    4.30
  -8  -1  -6   20.50    3.70
   8  -1   6   22.60    4.90
   8  -1   6   26.70    3.90
   8  -1   6   25.80    3.10
  -8   1  -6   23.20    3.90
   8   1   6   26.10    5.20
  -8   1  -6   17.70    4.80
   8   1   6   22.80    4.40
   8   1   6   28.30    5.20
   8   1   6   23.10    4.40
   8   1   6   21.70    4.80
  -8   1  -6   20.30    3.90
  -8   1  -6   17.50    4.20
  -9  -1  -6   13.60    4.10
   9  -1   6   -0.40    5.10
   9  -1   6   12.50    3.20
   9  -1   6   -2.10    4.20
  -9  -1  -6    9.70    4.50
  -9   1  -6    7.70    4.40
  -9   1  -6   10.30    4.40
   9   1   6   11.70    4.70
   9   1   6    7.80    3.80
   9   1   6    5.00    4.40
 -10  -1  -6   99.79   10.10
  10  -1   6  117.79   11.50
  10  -1   6  104.29   12.60
 -10  -1  -6  103.59   12.40
  10   1   6   95.19    9.90
 -10   1  -6   99.99   10.60
  10   1   6  106.39   11.50
  10   1   6  100.19   11.00
  11  -1   6   58.79   10.10
  11  -1   6   57.89    8.10
 -11  -1  -6   54.19    7.20
 -11  -1  -6   56.29    8.70
 -11   1  -6   48.50    8.90
  11   1   6   64.69   11.80
  11   1   6   39.70    7.10
 -11   1  -6   50.99    7.80
  11   1   6   66.79    8.00
 -10  -2   6    1.80    2.10
 -10  -2   6    2.00    2.10
  10  -2  -6    3.80    4.00
  10  -2  -6   -0.10    4.10
 -10  -2   6   -0.90    4.40
 -10   2   6    2.20    3.40
  10   2  -6    5.30    6.80
 -10   2   6   -1.80    2.30
 -10   2   6   -0.70    7.70
  10   2  -6   -1.00    5.60
 -10   2   6    2.70    4.50
  10   2  -6    3.50    5.30
  -9  -2   6    2.90    2.20
  -9  -2   6    0.00    4.00
   9  -2  -6    3.20    3.60
   9  -2  -6    0.00    1.70
   9  -2  -6    2.20    3.10
   9  -2  -6    2.30    1.80
  -9  -2   6   -5.20    5.50
  -9  -2   6    2.40    2.60
   9   2  -6    3.40    5.00
   9   2  -6   -0.10    5.20
  -9   2   6   -2.60    3.20
  -9   2   6    0.80    3.60
  -9   2   6    1.90    2.50
  -9   2   6    3.00    6.40
   9   2  -6    0.00    5.00
   9   2  -6    1.20    1.40
  -8  -2   6 1358.46   78.69
  -8  -2   6 1325.77   79.29
   8  -2  -6 1264.37   78.39
   8  -2  -6 1371.06   78.59
   8  -2  -6 1275.27   78.89
  -8  -2   6 1337.67   78.99
   8  -2  -6 1284.07   79.09
   8  -2  -6 1359.06   79.39
  -8  -2   6 1332.27   80.89
  -8   2   6 1316.97   78.79
  -8   2   6 1339.27   81.99
  -8   2   6 1316.97   79.29
   8   2  -6 1348.67   80.59
   8   2  -6 1362.26   78.39
  -8   2   6 1374.86   80.09
   8   2  -6 1345.47   81.19
   8   2  -6 1321.47   78.39
   7  -2  -6   75.69    7.30
  -7  -2   6   85.29    7.30
   7  -2  -6   74.69    6.00
  -7  -2   6   72.29    6.10
   7  -2  -6   62.99    6.50
   7  -2  -6   63.89    5.80
  -7  -2   6   72.49    6.70
   7  -2  -6   64.99    5.70
   7   2  -6   70.79    8.40
   7   2  -6   74.09    5.80
  -7   2   6   80.59    8.10
  -7   2   6   62.99    7.30
   7   2  -6   78.29    8.30
  -7   2   6   67.99    6.10
   7   2  -6   77.39    5.90
  -7   2   6   70.99    7.60
  -6  -2   6  710.13   43.10
   6  -2  -6  718.53   43.00
  -6  -2   6  734.33   43.10
   6  -2  -6  689.03   42.70
   6  -2  -6  750.42   43.10
   6  -2  -6  688.43   43.10
  -6  -2   6  680.03   45.00
   6  -2  -6  726.73   43.30
  -6  -2   6  733.93   43.70
  -6  -2   6  752.32   44.90
  -6  -2   6  722.83   42.50
  -6   2   6  684.93   43.70
   6   2  -6  738.23   43.10
  -6   2   6  743.93   43.30
  -6   2   6  692.53   44.00
  -6   2   6  749.73   42.60
   6   2  -6  685.03   43.10
  -6   2   6  721.13   43.80
   6   2  -6  697.23   46.00
   6   2  -6  756.82   44.50
  -6   2   6  742.83   45.60
   6   2  -6  698.03   44.90
   5  -2  -6  148.79   11.00
  -5  -2   6  170.48   12.80
  -5  -2   6  164.88   10.70
   5  -2  -6  161.58   10.80
   5  -2  -6  166.18   11.20
   5  -2  -6  159.48   12.90
  -5  -2   6  170.58   11.60
  -5  -2   6  159.08   10.70
   5  -2  -6  162.28   10.30
   5  -2  -6  152.18   10.10
   5  -2  -6  149.69   11.90
  -5  -2   6  166.58   12.90
  -5  -2   6  157.08   10.40
   5  -2  -6  176.58   10.50
  -5  -2   6  160.48   11.00
   5  -2  -6  157.38   10.50
  -5   2   6  158.08   11.00
   5   2  -6  180.58   12.20
   5   2  -6  163.38   11.00
   5   2  -6  178.38   10.40
  -5   2   6  159.98   11.00
   5   2  -6  164.78   10.90
  -5   2   6  155.38   11.80
  -5   2   6  155.28   11.50
  -5   2   6  164.98   10.50
   5   2  -6  154.58   12.90
  -5   2   6  153.18   13.00
   5   2  -6  157.08   10.40
   5   2  -6  165.68   12.80
  -5   2   6  167.88   11.70
  -4  -2   6  140.09   11.00
   4  -2  -6  145.19    8.90
   4  -2  -6  132.29    9.00
   4  -2  -6  124.09    9.90
   4  -2  -6  126.79   10.70
  -4  -2   6  121.19    9.80
   4  -2  -6  138.29    9.20
   4  -2  -6  139.19    9.30
  -4  -2   6  131.99    8.80
  -4  -2   6  134.49    9.10
  -4  -2   6  135.69   10.60
   4   2  -6  128.49    9.10
   4   2  -6  119.99   10.60
   4   2  -6  119.29    9.20
  -4   2   6  128.99    9.20
   4   2  -6  129.19    9.20
   4   2  -6  127.79    9.90
   4   2  -6  133.59    9.00
   4   2  -6  120.49   10.50
   4   2  -6  141.49   11.00
  -4   2   6  138.49    9.30
  -4   2   6  140.29   11.00
  -4   2   6  137.99    8.90
  -4   2   6  120.19    9.50
   3  -2  -6   40.20    6.80
   3  -2  -6   57.59    5.10
   3  -2  -6   51.29    5.00
  -3  -2   6   58.89    5.10
   3  -2  -6   57.49    6.00
  -3  -2   6   56.49    4.70
  -3  -2   6   55.79    6.50
  -3  -2   6   56.59    5.80
   3  -2  -6   53.59    4.60
  -3  -2   6   61.09    6.30
  -3  -2   6   55.49    6.60
   3  -2  -6   62.29    5.00
   3  -2  -6   44.90    5.20
  -3  -2   6   61.79    5.10
  -3   2   6   59.29    4.70
  -3   2   6   58.49    5.30
  -3   2   6   56.09    6.40
   3   2  -6   59.69    6.60
   3   2  -6   59.99    5.80
  -3   2   6   58.59    5.30
   3   2  -6   56.89    5.20
   3   2  -6   59.39    5.10
   3   2  -6   61.89    4.90
   3   2  -6   58.29    6.20
   3   2  -6   59.59    5.40
   3   2  -6   59.19    6.40
  -3   2   6   54.79    5.40
  -3   2   6   56.39    5.10
   2  -2  -6 1777.42   92.09
  -2  -2   6 1473.95   92.59
   2  -2  -6 1705.53   92.89
   2  -2  -6 1750.42   92.09
  -2  -2   6 1409.46   92.49
  -2  -2   6 1375.06   91.69
   2  -2  -6 1751.12   92.19
  -2  -2   6 1382.46   92.39
   2  -2  -6 1781.52   92.09
   2  -2  -6 1703.23   92.09
  -2  -2   6 1545.45   92.99
   2  -2  -6 1593.94   92.29
  -2  -2   6 1431.46   91.99
   2   2  -6 1398.76   92.39
  -2   2   6 1739.33   92.19
   2   2  -6 1382.46   91.89
  -2   2   6 1732.63   92.29
  -2   2   6 1684.83   93.09
  -2   2   6 1593.04   91.99
   2   2  -6 1402.06   91.89
   2   2  -6 1396.86   92.09
   2   2  -6 1502.65   93.09
   2   2  -6 1411.66   91.99
   2   2  -6 1420.16   92.19
   1  -2  -6   12.60    2.40
   1  -2  -6   17.10    2.60
   1  -2  -6   12.80    2.50
   1  -2  -6   12.60    2.80
  -1  -2   6   18.90    3.70
  -1  -2   6   13.10    2.40
  -1  -2   6   13.90    2.60
   1  -2  -6   14.50    2.90
  -1  -2   6   13.00    3.10
   1  -2  -6   15.70    2.60
  -1  -2   6   13.70    3.40
  -1  -2   6   11.60    2.90
  -1  -2   6   14.70    2.50
   1  -2  -6   15.40    3.30
   1   2  -6   11.50    2.80
  -1   2   6   11.00    2.80
  -1   2   6   16.00    3.30
   1   2  -6   15.70    3.20
  -1   2   6   15.60    2.90
   1   2  -6   13.90    2.50
   1   2  -6   16.40    2.50
   1   2  -6   13.90    2.60
   1   2  -6   17.60    3.00
   1   2  -6   13.60    3.50
  -1   2   6   12.70    2.50
  -1   2   6   17.80    2.60
  -1   2   6   15.60    2.70
   0  -2   6  762.42   48.40
   0  -2  -6  829.12   48.20
   0  -2   6  797.42   48.40
   0  -2  -6  821.02   48.40
   0  -2   6  735.53   48.80
   0  -2  -6  816.82   48.50
   0  -2   6  761.12   48.00
   0  -2   6  798.82   48.30
   0  -2  -6  797.52   48.10
   0  -2   6  821.02   49.00
   0  -2  -6  839.92   48.30
   0  -2  -6  790.12   48.30
   0  -2  -6  931.61   48.60
   0  -2   6  752.72   48.10
   0   2   6  835.52   47.30
   0   2   6  765.82   48.50
   0   2   6  766.82   48.00
   0   2  -6  796.82   48.30
   0   2  -6  754.22   48.20
   0   2  -6  792.12   48.10
   0   2   6  786.72   48.10
   0   2   6  869.51   48.60
   0   2  -6  774.02   48.20
   0   2   6  788.52   47.20
   0   2  -6  777.22   48.60
   0   2  -6  790.92   49.00
   0   2   6  851.91   48.40
   0   2  -6  801.02   48.40
   0   2   6  865.91   48.80
  -1  -2  -6    2.00    2.30
   1  -2   6    2.30    2.50
   1  -2   6    2.30    2.30
  -1  -2  -6    1.80    2.50
  -1  -2  -6   -3.90    2.20
  -1  -2  -6    1.30    2.00
   1  -2   6    1.50    1.90
  -1  -2  -6    5.00    2.00
   1  -2   6    1.50    2.10
  -1  -2  -6    1.50    1.90
  -1  -2  -6   -1.10    2.20
   1  -2   6    2.80    2.40
   1  -2   6    0.30    1.80
   1  -2   6    1.70    2.00
   1   2   6    2.40    2.10
  -1   2  -6    2.00    1.80
   1   2   6   -0.70    1.90
  -1   2  -6    0.00    2.30
  -1   2  -6    0.30    1.90
   1   2   6    2.20    1.60
  -1   2  -6    3.00    2.70
  -1   2  -6    0.40    1.70
  -1   2  -6   -2.20    1.70
   1   2   6    4.10    2.50
   1   2   6    2.40    1.80
   1   2   6    0.90    1.90
  -1   2  -6   -0.20    2.00
  -1   2  -6   -0.10    2.80
   1   2   6   -0.80    1.20
   1   2   6    3.90    2.40
   2  -2   6  370.16   20.70
  -2  -2  -6  298.07   20.00
   2  -2   6  339.07   20.20
  -2  -2  -6  306.07   20.50
  -2  -2  -6  291.07   20.00
  -2  -2  -6  263.67   19.80
  -2  -2  -6  271.97   19.70
  -2  -2  -6  295.37   20.40
  -2  -2  -6  269.87   20.00
   2  -2   6  360.56   20.90
   2  -2   6  319.57   20.30
   2  -2   6  351.76   20.30
   2  -2   6  344.97   21.30
   2  -2   6  346.97   19.70
  -2   2  -6  375.46   21.20
   2   2   6  300.37   20.40
  -2   2  -6  328.47   20.30
  -2   2  -6  344.77   20.40
   2   2   6  298.67   19.90
  -2   2  -6  345.07   20.30
  -2   2  -6  354.46   19.50
   2   2   6  285.77   19.80
   2   2   6  293.77   20.50
   2   2   6  271.07   19.30
   2   2   6  286.47   19.70
  -2   2  -6  335.87   20.20
  -2   2  -6  343.17   19.40
   2   2   6  294.17   20.00
   3  -2   6  105.29   10.00
   3  -2   6  106.09    8.60
  -3  -2  -6  101.79    8.40
   3  -2   6  118.19    9.00
   3  -2   6   97.69    7.50
   3  -2   6  111.69    8.50
  -3  -2  -6  110.19    7.60
  -3  -2  -6  100.39    8.90
  -3  -2  -6  107.39    8.40
   3  -2   6  104.49    8.20
  -3  -2  -6  101.39    8.30
   3  -2   6  109.59    8.90
  -3  -2  -6  105.99    8.90
  -3  -2  -6  104.19    8.40
   3   2   6  114.89    8.50
  -3   2  -6  110.99    7.80
   3   2   6  103.09    7.80
  -3   2  -6  110.39    9.40
   3   2   6  106.79    8.50
   3   2   6  101.59    8.30
  -3   2  -6  107.39    8.60
  -3   2  -6  105.49    8.70
   3   2   6  109.09    7.70
   3   2   6  108.89    8.20
  -3   2  -6  103.49    8.40
  -3   2  -6  110.49    9.60
   3   2   6  122.59    9.30
  -3   2  -6  116.09    8.60
  -3   2  -6   99.69    7.20
   4  -2   6  279.67   16.90
  -4  -2  -6  233.08   16.20
  -4  -2  -6  243.08   17.10
  -4  -2  -6  255.37   16.70
   4  -2   6  258.77   16.40
   4  -2   6  232.98   16.10
  -4  -2  -6  240.28   16.50
   4  -2   6  232.78   15.30
  -4  -2  -6  242.18   16.50
   4  -2   6  233.58   19.30
   4  -2   6  285.27   17.00
  -4  -2  -6  246.58   16.90
   4  -2   6  248.28   16.70
  -4  -2  -6  235.28   15.40
   4   2   6  228.88   16.60
   4   2   6  241.98   16.90
  -4   2  -6  264.47   16.10
  -4   2  -6  272.27   16.60
   4   2   6  237.48   15.90
  -4   2  -6  240.28   17.10
  -4   2  -6  218.08   16.40
   4   2   6  248.18   16.30
   4   2   6  235.48   16.60
  -4   2  -6  262.67   16.60
   4   2   6  241.78   16.50
   4   2   6  224.38   15.30
  -4   2  -6  259.17   16.50
  -4   2  -6  243.58   16.40
   4   2   6  244.68   16.30
  -4   2  -6  258.37   15.10
   5  -2   6   -2.90    2.90
  -5  -2  -6   -0.30    3.80
  -5  -2  -6   -0.80    2.20
  -5  -2  -6   -2.60    3.00
  -5  -2  -6    4.70    3.10
   5  -2   6    2.10    3.00
   5  -2   6    5.20    3.10
   5  -2   6   -3.60    2.20
   5  -2   6    1.30    1.70
  -5  -2  -6   -1.80    3.00
   5  -2   6   -2.80    2.60
   5  -2   6   -2.40    3.30
  -5  -2  -6   -1.40    2.20
  -5   2  -6   -0.50    2.40
  -5   2  -6    1.00    3.40
   5   2   6   -5.70    2.10
   5   2   6   -1.20    2.50
  -5   2  -6    2.50    2.90
   5   2   6   -1.80    2.50
  -5   2  -6   -1.70    2.20
  -5   2  -6    0.30    3.20
   5   2   6   -4.90    2.20
  -5   2  -6   -0.30    1.40
   5   2   6    3.40    3.80
   5   2   6   -4.20    2.90
   5   2   6   -3.30    3.20
  -5   2  -6   -5.60    2.30
   6  -2   6   93.79    8.00
  -6  -2  -6   89.19    8.90
   6  -2   6  104.19    9.70
   6  -2   6   89.19    9.30
   6  -2   6   94.99    9.10
  -6  -2  -6   87.39    7.70
  -6  -2  -6  106.69    9.00
  -6  -2  -6   88.09    8.60
   6  -2   6   96.29    8.70
   6   2   6   94.69    8.30
  -6   2  -6   86.99    8.00
   6   2   6  101.89    8.40
  -6   2  -6   87.39    8.20
   6   2   6   82.89    8.40
   6   2   6  105.89    8.50
  -6   2  -6   90.49    8.40
   6   2   6  101.09    8.80
  -6   2  -6   95.79    6.50
  -6   2  -6   96.99    8.80
  -6   2  -6   83.19    9.50
   7  -2   6  103.49    8.80
   7  -2   6   78.39    8.10
  -7  -2  -6   80.59    7.50
  -7  -2  -6   94.99    9.00
   7  -2   6   81.09    9.30
  -7  -2  -6   87.79    8.70
   7  -2   6   84.19    9.30
   7  -2   6  102.89   10.20
   7   2   6   85.69   12.30
  -7   2  -6   93.89    6.20
   7   2   6   91.99    8.80
   7   2   6   75.69    8.70
   7   2   6   91.39    8.70
  -7   2  -6   88.49    8.00
  -7   2  -6   74.39    8.20
  -7   2  -6   78.89    9.20
  -7   2  -6   88.19    9.20
  -7   2  -6   95.89    8.40
   7   2   6   91.59    8.50
   8  -2   6   74.79    8.70
  -8  -2  -6   73.59    8.70
   8  -2   6   72.69    8.90
  -8  -2  -6   67.69    8.50
   8  -2   6   89.29    9.50
   8   2   6   73.39    8.60
  -8   2  -6   67.39    8.90
   8   2   6   71.39    8.80
   8   2   6   78.59    8.20
  -8   2  -6   71.09    7.90
  -8   2  -6   72.89    8.10
   9  -2   6   96.59   12.20
  -9  -2  -6  110.79   10.80
  -9  -2  -6  118.49   11.80
   9  -2   6  110.99   11.90
   9   2   6  108.09   10.50
   9   2   6  126.79   12.00
  -9   2  -6  121.29   11.30
   9   2   6  127.59   11.50
  -9   2  -6  118.59   11.40
  10  -2   6   77.99    9.70
 -10  -2  -6   80.19    9.80
  10  -2   6   95.79   11.00
 -10  -2  -6   90.09   15.50
  10   2   6   63.99    8.10
 -10   2  -6   77.59   10.50
 -10   2  -6   81.09    9.70
  10   2   6   95.39   11.50
  10   2   6   86.59   10.20
  10  -3  -6   -0.80    2.80
 -10  -3   6   -1.10    4.60
 -10  -3   6    4.10    3.70
  10   3  -6    4.30    2.60
  10   3  -6    0.90    7.30
  10   3  -6    4.60    3.20
  10   3  -6    6.50    6.00
  10   3  -6    0.80    6.00
 -10   3   6    2.20    8.50
 -10   3   6    4.20    3.40
 -10   3   6    0.70    6.90
  -9  -3   6   74.69    8.10
   9  -3  -6   71.49    6.90
   9  -3  -6   43.40    8.20
  -9  -3   6   70.79    7.80
   9  -3  -6   76.59    7.20
  -9  -3   6   52.09    9.10
   9   3  -6   57.69    6.80
   9   3  -6   70.89    9.70
   9   3  -6   70.59   10.20
  -9   3   6   70.69    7.60
  -9   3   6   59.39    8.30
  -9   3   6   65.79   10.70
  -8  -3   6   39.40    8.00
   8  -3  -6   37.60    4.60
   8  -3  -6   31.90    6.40
  -8  -3   6   45.80    5.70
   8  -3  -6   45.20    5.40
  -8  -3   6   40.00    5.60
   8  -3  -6   38.30    4.70
  -8  -3   6   41.10    5.50
  -8   3   6   40.10    7.00
   8   3  -6   40.60    7.50
  -8   3   6   53.79    6.80
  -8   3   6   30.20    5.60
   8   3  -6   37.90    4.60
  -8   3   6   32.90    8.00
  -8   3   6   38.70    5.10
   8   3  -6   41.90    8.20
   8   3  -6   36.10    4.80
   7  -3  -6   24.00    3.20
  -7  -3   6   26.10    4.70
  -7  -3   6   24.50    4.60
  -7  -3   6   22.90    4.60
   7  -3  -6   22.80    3.50
  -7  -3   6   16.90    6.30
   7  -3  -6   25.60    3.90
  -7  -3   6   26.20    3.30
   7  -3  -6   31.30    4.10
   7  -3  -6   17.80    2.90
   7  -3  -6   16.00    5.10
  -7   3   6   19.70    3.90
  -7   3   6   26.60    3.40
  -7   3   6   16.60    4.90
   7   3  -6   27.50    5.80
  -7   3   6   17.60    6.10
  -7   3   6   23.90    5.10
  -7   3   6   26.50    7.10
   7   3  -6   21.60    3.70
   7   3  -6   23.70    6.70
   7   3  -6   28.30    4.10
   6  -3  -6   59.99    6.90
  -6  -3   6   51.29    6.10
   6  -3  -6   57.19    4.80
   6  -3  -6   56.29    5.90
   6  -3  -6   46.20    6.60
   6  -3  -6   45.80    5.70
  -6  -3   6   48.40    6.40
  -6  -3   6   49.20    6.00
   6  -3  -6   54.59    4.70
  -6  -3   6   52.19    5.70
  -6  -3   6   47.20    7.50
   6  -3  -6   59.49    5.10
   6   3  -6   47.40    6.60
  -6   3   6   44.80    7.20
  -6   3   6   51.89    6.30
  -6   3   6   51.39    6.00
   6   3  -6   50.69    6.40
  -6   3   6   54.19    5.70
  -6   3   6   48.90    7.70
   6   3  -6   42.40    5.10
   6   3  -6   58.49    8.40
   6   3  -6   50.49    5.90
   5  -3  -6  724.63   40.30
  -5  -3   6  614.04   39.70
   5  -3  -6  745.43   40.70
   5  -3  -6  735.23   42.10
   5  -3  -6  709.73   41.70
  -5  -3   6  633.94   42.40
  -5  -3   6  637.24   42.20
   5  -3  -6  647.94   40.80
   5   3  -6  648.64   42.40
   5   3  -6  629.04   40.20
   5   3  -6  630.94   42.30
  -5   3   6  673.43   41.60
  -5   3   6  748.03   40.40
  -5   3   6  620.04   43.50
  -5   3   6  615.74   40.90
  -5   3   6  737.73   40.60
   5   3  -6  613.94   41.10
   5   3  -6  616.74   40.70
   4  -3  -6    7.60    2.50
   4  -3  -6    3.40    2.70
   4  -3  -6    5.50    2.40
  -4  -3   6    7.90    2.80
   4  -3  -6   10.90    3.70
   4  -3  -6    7.30    2.90
  -4  -3   6   -1.50    4.30
  -4  -3   6    6.00    2.20
  -4  -3   6    0.80    2.20
  -4  -3   6    5.00    3.50
   4   3  -6    4.40    3.20
   4   3  -6    5.60    2.70
  -4   3   6    6.20    4.10
   4   3  -6    7.20    2.90
  -4   3   6    7.30    2.50
  -4   3   6    2.10    3.50
  -4   3   6    6.90    2.20
   4   3  -6    2.90    3.90
   4   3  -6    5.90    2.50
  -4   3   6    6.60    2.60
   3  -3  -6  410.36   26.40
   3  -3  -6  364.86   23.60
  -3  -3   6  339.77   23.50
   3  -3  -6  393.06   24.20
  -3  -3   6  325.87   23.30
  -3  -3   6  350.26   24.70
   3  -3  -6  398.56   23.20
   3  -3  -6  420.56   23.80
   3  -3  -6  420.06   23.80
   3  -3  -6  410.76   23.60
  -3  -3   6  320.17   24.30
   3   3  -6  335.07   25.00
   3   3  -6  348.27   23.70
   3   3  -6  331.57   23.50
   3   3  -6  309.47   24.20
  -3   3   6  400.86   25.00
  -3   3   6  404.26   23.90
  -3   3   6  391.06   23.90
   3   3  -6  343.97   23.50
  -3   3   6  392.26   23.20
  -3   3   6  415.16   24.60
   3   3  -6  348.47   23.40
  -2  -3   6   55.19    7.00
   2  -3  -6   52.49    7.00
  -2  -3   6   46.70    5.50
   2  -3  -6   55.79    6.10
   2  -3  -6   47.60    6.10
  -2  -3   6   53.59    6.80
   2  -3  -6   55.29    5.50
   2  -3  -6   51.59    5.60
   2  -3  -6   45.30    5.40
   2  -3  -6   54.59    5.80
  -2  -3   6   50.59    7.10
  -2  -3   6   51.79    5.90
  -2  -3   6   49.30    5.70
   2   3  -6   54.29    5.50
   2   3  -6   54.29    5.40
  -2   3   6   50.29    6.50
  -2   3   6   45.50    5.80
  -2   3   6   55.59    6.20
   2   3  -6   58.59    6.60
   2   3  -6   57.89    7.70
   2   3  -6   49.40    5.50
  -2   3   6   55.39    5.20
   2   3  -6   54.29    6.40
  -2   3   6   53.39    6.50
  -2   3   6   51.39    5.20
   2   3  -6   53.99    5.70
   2   3  -6   49.40    6.70
   1  -3  -6   84.89    7.90
  -1  -3   6   72.99    7.10
  -1  -3   6   68.69    8.20
   1  -3  -6   95.39    7.90
  -1  -3   6   63.89    8.10
   1  -3  -6   93.19    7.20
   1  -3  -6   88.19    7.50
   1  -3  -6   99.39    8.00
  -1  -3   6   79.99    8.30
  -1  -3   6   73.99    7.20
   1  -3  -6   80.39    7.20
   1  -3  -6   93.59    7.20
  -1   3   6   81.19    7.70
   1   3  -6   81.59    7.50
   1   3  -6   80.49    8.30
  -1   3   6   84.79    7.40
  -1   3   6   88.59    6.90
  -1   3   6  106.19    7.90
   1   3  -6   71.69    7.10
  -1   3   6   83.89    8.40
   1   3  -6   75.29    7.20
   1   3  -6   71.99    7.10
   1   3  -6   68.19    8.50
   1   3  -6   67.89    6.80
   0  -3  -6    4.30    2.90
   0  -3   6    9.50    4.10
   0  -3  -6    6.80    2.70
   0  -3   6   13.80    3.30
   0  -3  -6   12.30    3.10
   0  -3   6    9.00    3.50
   0  -3   6    8.50    2.80
   0  -3   6    0.20    3.10
   0  -3  -6    7.50    3.10
   0  -3  -6    9.30    3.00
   0  -3   6   10.20    2.30
   0  -3   6    6.90    3.90
   0  -3  -6    3.10    3.40
   0   3   6   11.10    3.40
   0   3   6    7.90    2.90
   0   3  -6    4.10    2.70
   0   3   6    7.70    2.50
   0   3   6   10.30    3.10
   0   3  -6   14.00    3.90
   0   3  -6    6.90    2.90
   0   3   6   10.10    2.00
   0   3  -6    4.10    3.90
   0   3  -6    7.00    2.90
   0   3   6    9.20    1.50
   0   3   6    5.40    3.10
   0   3  -6    1.00    3.50
   0   3  -6    6.60    3.20
   0   3   6    8.80    3.00
   0   3  -6   11.40    2.70
  -1  -3  -6  233.38   16.10
   1  -3   6  256.97   17.40
   1  -3   6  232.38   16.30
   1  -3   6  250.77   16.20
  -1  -3  -6  236.38   16.30
   1  -3   6  267.07   15.30
  -1  -3  -6  227.88   16.00
  -1  -3  -6  222.38   16.40
  -1  -3  -6  234.18   16.20
  -1  -3  -6  242.78   16.40
  -1  -3  -6  232.48   16.10
   1  -3   6  241.68   16.10
   1  -3   6  241.98   16.50
   1  -3   6  227.98   17.00
  -1   3  -6  238.18   16.20
  -1   3  -6  247.08   16.40
   1   3   6  242.08   16.00
  -1   3  -6  256.17   15.70
  -1   3  -6  225.48   15.20
  -1   3  -6  235.68   16.50
   1   3   6  236.38   15.80
   1   3   6  237.88   17.40
  -1   3  -6  242.78   17.30
  -1   3  -6  240.58   16.40
   1   3   6  213.78   15.40
   1   3   6  228.68   14.80
   1   3   6  245.78   16.40
   1   3   6  233.58   16.10
   1   3   6  242.78   16.40
  -2  -3  -6   42.50    5.50
  -2  -3  -6   54.39    6.00
  -2  -3  -6   46.50    5.50
   2  -3   6   36.10    5.20
  -2  -3  -6   41.50    5.10
  -2  -3  -6   33.70    5.00
  -2  -3  -6   39.00    5.40
   2  -3   6   42.20    6.30
   2  -3   6   43.20    5.50
   2  -3   6   36.10    5.30
   2  -3   6   38.60    5.80
  -2  -3  -6   45.90    5.70
   2  -3   6   43.90    5.40
  -2   3  -6   40.50    4.60
  -2   3  -6   48.90    6.90
  -2   3  -6   48.10    5.80
  -2   3  -6   46.50    5.80
  -2   3  -6   43.50    5.30
   2   3   6   39.60    4.80
  -2   3  -6   34.90    4.20
   2   3   6   53.09    6.10
  -2   3  -6   44.80    4.80
   2   3   6   43.50    5.00
   2   3   6   39.20    4.70
   2   3   6   40.30    4.20
   2   3   6   41.90    5.30
   2   3   6   45.80    6.40
  -2   3  -6   37.90    5.80
  -2   3  -6   38.40    5.40
   2   3   6   40.90    5.10
  -3  -3  -6   63.89    7.30
   3  -3   6   74.49    8.30
   3  -3   6   65.89    7.90
   3  -3   6   74.19    6.50
  -3  -3  -6   51.79    7.00
   3  -3   6   64.79    7.10
  -3  -3  -6   57.09    7.60
  -3  -3  -6   61.49    6.40
   3  -3   6   61.59    7.10
   3  -3   6   62.79    7.20
  -3  -3  -6   57.59    7.00
  -3  -3  -6   58.69    6.30
   3   3   6   46.10    5.70
   3   3   6   43.70    6.40
  -3   3  -6   62.09    4.90
  -3   3  -6   62.49    4.70
   3   3   6   44.20    6.10
  -3   3  -6   69.79    6.70
  -3   3  -6   74.29    8.70
   3   3   6   57.19    5.40
  -3   3  -6   67.89    7.00
   3   3   6   52.39    6.20
  -3   3  -6   56.39    6.00
  -3   3  -6   56.09    6.90
   3   3   6   55.39    7.10
   3   3   6   43.20    6.00
   3   3   6   66.59    7.20
  -3   3  -6   41.20    8.40
  -4  -3  -6   32.80    5.10
   4  -3   6   25.30    4.80
  -4  -3  -6   33.40    5.10
   4  -3   6   32.10    5.90
   4  -3   6   29.40    6.10
   4  -3   6   24.80    5.00
  -4  -3  -6   15.30    9.30
  -4  -3  -6   34.00    5.30
  -4  -3  -6   33.50    5.10
   4  -3   6   26.00    5.00
   4  -3   6   31.10    6.70
  -4   3  -6   19.20    5.00
  -4   3  -6   22.50    5.20
   4   3   6   23.50    3.70
   4   3   6   30.80    5.30
   4   3   6   35.90    5.70
   4   3   6   29.90    4.20
  -4   3  -6   39.40    4.70
   4   3   6   29.60    6.30
  -4   3  -6   24.10    6.00
  -4   3  -6   29.40    4.90
   4   3   6   23.40    4.30
  -4   3  -6   30.30    2.90
  -4   3  -6   24.20    4.40
   4   3   6   24.30    3.50
   4   3   6   31.60    5.00
   5  -3   6   87.39   10.30
  -5  -3  -6   66.59    8.30
   5  -3   6   91.49    9.30
   5  -3   6   79.49    9.70
   5  -3   6  100.19   10.70
   5  -3   6   74.89    8.00
  -5  -3  -6   93.89    7.00
  -5  -3  -6   78.69    8.40
  -5  -3  -6   86.39    9.50
   5   3   6   94.79    9.00
   5   3   6   88.49    8.00
  -5   3  -6   74.19    8.30
  -5   3  -6   81.99    8.00
  -5   3  -6   96.59   10.80
   5   3   6   72.39    6.70
  -5   3  -6   75.89    8.50
   5   3   6   72.69    8.30
   5   3   6   92.19    7.70
   5   3   6   87.59    9.50
   6  -3   6   70.89    8.70
  -6  -3  -6   80.89    7.30
   6  -3   6   67.39    8.40
   6  -3   6   74.49   10.30
   6  -3   6   73.19    7.80
   6  -3   6   72.89    9.40
  -6  -3  -6   75.59    8.90
  -6  -3  -6   77.69    5.20
  -6  -3  -6   71.49    9.10
  -6  -3  -6   65.99    8.90
  -6   3  -6   63.89    7.50
   6   3   6   71.99   10.70
  -6   3  -6   63.79    8.20
   6   3   6   71.29    9.10
   6   3   6   69.79    8.20
  -6   3  -6   74.39    8.20
  -6   3  -6   80.99    9.30
   6   3   6   82.59    8.50
   6   3   6   72.69    8.80
  -6   3  -6   73.99    8.80
   7  -3   6   56.79    7.80
  -7  -3  -6   52.89    7.10
  -7  -3  -6   71.29    8.20
   7  -3   6   56.79    8.10
  -7   3  -6   68.49    8.20
  -7   3  -6   70.09    8.30
   7   3   6   48.00    7.00
   7   3   6   62.59    7.80
   7   3   6   49.10    6.80
   8  -3   6   -1.60    4.80
  -8  -3  -6   -4.10    4.40
   8  -3   6   -0.50    5.80
  -8  -3  -6    4.70    4.90
   8   3   6    2.30    4.60
  -8   3  -6    1.90    4.20
  -8   3  -6    7.00    5.30
   8   3   6    0.60    4.60
  -8   3  -6    5.60    4.40
   8   3   6    9.60    4.50
   9  -3   6   46.00    8.20
   9  -3   6   59.39    9.70
  -9  -3  -6   39.00    7.40
  -9  -3  -6   45.30    8.40
  -9   3  -6   50.99    8.30
   9   3   6   44.80    7.50
   9   3   6   69.99    7.60
  -9   3  -6   51.29    7.70
   9   3   6   29.10    7.50
  -9   3  -6   44.30    7.70
   9  -4  -6   33.90    6.90
   9  -4  -6   26.50    8.60
  -9  -4   6   20.30    9.40
  -9  -4   6   32.70    8.70
   9   4  -6   36.40    6.30
  -9   4   6   46.30   10.00
   9   4  -6   24.20    9.40
   8  -4  -6  659.03   45.80
  -8  -4   6  751.92   46.80
   8  -4  -6  695.03   43.80
  -8  -4   6  715.93   45.00
  -8   4   6  696.93   47.50
   8   4  -6  714.53   45.40
   8   4  -6  714.43   43.60
  -8   4   6  728.23   44.40
  -7  -4   6   14.90    5.50
   7  -4  -6    8.40    5.40
  -7  -4   6   18.70    7.20
   7  -4  -6   15.50    4.20
   7   4  -6   -8.10    6.60
  -7   4   6    7.20    4.50
  -7   4   6   -1.00    6.40
  -7   4   6   22.00    7.70
   7   4  -6   10.70    4.30
   7   4  -6   20.80    5.60
   6  -4  -6   27.40    5.60
  -6  -4   6   19.30    5.50
  -6  -4   6   25.70    7.40
   6  -4  -6   21.90    4.50
  -6   4   6   16.50    4.70
  -6   4   6   11.40    6.20
  -6   4   6   25.60    5.00
   6   4  -6   21.70    4.60
   6   4  -6   19.20    5.20
   5  -4  -6    8.60    3.80
   5  -4  -6    7.60    3.90
   5  -4  -6   18.00    3.80
  -5  -4   6    5.80    4.10
   5  -4  -6   12.80    5.20
  -5  -4   6    9.70    4.00
   5  -4  -6   14.00    3.60
  -5  -4   6    9.40    5.30
  -5  -4   6   10.90    5.60
   5   4  -6   10.30    4.10
   5   4  -6   12.30    4.30
  -5   4   6   13.10    5.60
  -5   4   6   13.90    3.80
  -5   4   6   13.40    4.40
  -5   4   6   10.50    5.30
   5   4  -6   11.30    4.80
   5   4  -6   -6.20    5.60
  -5   4   6   15.70    5.40
  -4  -4   6   27.50    6.30
   4  -4  -6   34.80    5.60
  -4  -4   6   35.00    7.30
   4  -4  -6   33.20    4.60
  -4  -4   6   22.30    4.30
   4  -4  -6   43.70    5.00
  -4   4   6   34.30    4.30
   4   4  -6   26.70    5.10
  -4   4   6   30.40    6.40
  -4   4   6   25.20    5.00
   4   4  -6   35.60    5.90
  -4   4   6   31.50    6.60
   4   4  -6   30.80    4.70
   4   4  -6   31.90    5.00
  -4   4   6   27.40    4.20
  -3  -4   6    0.00    3.20
   3  -4  -6    9.10    4.30
   3  -4  -6    2.10    3.90
  -3  -4   6   10.10    5.50
   3  -4  -6   16.90    4.10
   3  -4  -6    6.30    3.70
  -3  -4   6    8.70    5.00
   3  -4  -6   15.80    3.60
   3   4  -6    7.10    3.50
   3   4  -6    2.30    3.70
   3   4  -6    2.20    6.20
  -3   4   6   12.00    4.60
   3   4  -6    4.40    3.40
  -3   4   6    7.20    3.80
   3   4  -6   10.80    4.20
  -3   4   6   11.50    3.30
  -3   4   6    6.40    3.00
  -3   4   6   15.00    4.90
   2  -4  -6 1125.39   72.09
  -2  -4   6 1126.39   71.99
   2  -4  -6 1200.18   71.59
  -2  -4   6 1234.98   70.69
  -2  -4   6 1132.09   73.29
  -2  -4   6 1171.58   72.29
   2  -4  -6 1238.58   72.29
   2  -4  -6 1213.58   72.49
   2  -4  -6 1237.28   72.39
  -2   4   6 1198.78   72.49
  -2   4   6 1245.58   73.49
   2   4  -6 1133.99   72.09
  -2   4   6 1253.77   73.29
   2   4  -6 1178.38   71.89
   2   4  -6 1161.28   72.29
   2   4  -6 1154.78   72.29
  -2   4   6 1256.57   71.99
  -2   4   6 1268.27   71.59
   1  -4  -6   -3.50    3.30
   1  -4  -6    4.30    3.50
  -1  -4   6   -3.70    2.60
  -1  -4   6    1.10    4.60
   1  -4  -6   -5.20    3.30
  -1  -4   6    1.40    3.60
   1  -4  -6    4.30    4.40
   1  -4  -6   10.00    3.80
  -1  -4   6    1.60    4.50
  -1  -4   6    1.90    3.80
   1  -4  -6    1.40    3.50
  -1  -4   6    5.80    4.20
  -1   4   6    1.00    4.10
   1   4  -6    7.30    3.70
  -1   4   6    2.00    3.70
  -1   4   6   -8.60    4.90
   1   4  -6    5.50    3.40
   1   4  -6    1.20    3.60
   1   4  -6    6.70    3.30
   1   4  -6   -1.50    4.30
   1   4  -6   -4.60    5.30
  -1   4   6    0.20    2.90
  -1   4   6    0.70    3.30
  -1   4   6   -0.30    1.50
  -1   4   6   -2.70    3.10
   0  -4   6    8.80    5.30
   0  -4  -6    7.80    4.00
   0  -4   6    2.70    4.50
   0  -4  -6    4.20    3.50
   0  -4   6    9.60    3.10
   0  -4  -6    3.00    3.20
   0  -4   6    0.40    3.60
   0  -4  -6    7.30    3.70
   0  -4   6    1.90    4.80
   0  -4  -6   -7.60    4.40
   0  -4   6    5.60    4.50
   0   4  -6    9.90    6.70
   0   4   6    2.30    1.80
   0   4   6    3.10    4.20
   0   4   6    6.70    6.00
   0   4  -6   -0.20    3.50
   0   4   6    7.90    2.60
   0   4  -6    1.00    2.50
   0   4  -6    4.60    5.40
   0   4   6    5.00    3.00
   0   4  -6    5.90    3.50
   0   4   6    5.80    3.70
   0   4   6    0.50    3.70
   0   4   6   -5.70    3.00
   0   4  -6    7.10    4.10
   0   4  -6   10.50    3.80
   1  -4   6    5.60    3.90
   1  -4   6    4.30    4.20
   1  -4   6    7.20    3.40
   1  -4   6    0.30    4.90
   1  -4   6    4.20    4.30
   1  -4   6    7.30    4.70
  -1  -4  -6    2.70    4.00
  -1  -4  -6    1.30    3.50
  -1  -4  -6    0.70    3.60
  -1  -4  -6    7.90    4.10
  -1  -4  -6    3.00    3.80
  -1  -4  -6    9.50    5.00
   1   4   6    6.60    3.70
  -1   4  -6    5.70    2.70
  -1   4  -6    3.60    3.20
  -1   4  -6   10.90    5.70
  -1   4  -6    0.30    3.30
   1   4   6    4.20    2.90
   1   4   6    0.00    3.20
   1   4   6   10.20    5.20
  -1   4  -6    1.40    3.60
   1   4   6    1.60    3.30
  -1   4  -6   -1.70    5.20
   1   4   6    6.40    3.80
   1   4   6    5.70    4.00
  -1   4  -6    4.80    3.40
   1   4   6    5.80    2.10
   2  -4   6   24.80    5.60
  -2  -4  -6   21.20    5.40
  -2  -4  -6   22.40    4.80
  -2  -4  -6   17.60    5.30
   2  -4   6   22.50    4.80
  -2  -4  -6   18.70    5.60
   2  -4   6   28.70    4.70
  -2  -4  -6   15.00    4.40
   2  -4   6   14.70    4.10
   2  -4   6   22.70    5.10
  -2  -4  -6   12.10    4.20
   2  -4   6   30.30    6.10
  -2   4  -6   18.20    4.10
   2   4   6   22.10    5.00
  -2   4  -6   26.10    4.70
  -2   4  -6   17.30    4.90
   2   4   6   20.90    3.20
   2   4   6   23.50    4.70
   2   4   6   18.80    4.80
  -2   4  -6   21.80    5.70
   2   4   6   19.80    4.30
   2   4   6   26.00    4.80
  -2   4  -6   21.70    3.50
  -2   4  -6   20.00    6.40
   2   4   6   13.20    4.40
  -2   4  -6   25.50    3.80
   2   4   6   31.00    6.90
  -3  -4  -6   49.00    9.60
  -3  -4  -6   54.09    7.90
  -3  -4  -6   53.39    7.10
   3  -4   6   54.19    6.80
   3  -4   6   52.99    6.80
  -3  -4  -6   63.59    7.70
   3  -4   6   51.49    6.30
   3  -4   6   51.19    7.80
  -3  -4  -6   47.10    6.80
   3  -4   6   54.09    6.40
   3  -4   6   51.09    7.60
  -3  -4  -6   54.69    6.90
   3   4   6   62.29    7.40
   3   4   6   46.30    6.30
  -3   4  -6   43.10    6.70
  -3   4  -6   44.70    6.70
   3   4   6   62.89    7.30
  -3   4  -6   38.70    8.20
  -3   4  -6   51.49    5.30
   3   4   6   51.89    5.70
   3   4   6   60.89    7.20
   3   4   6   40.20    6.60
  -3   4  -6   47.30    5.60
  -3   4  -6   45.50    5.00
   3   4   6   53.29    8.90
   3   4   6   58.49    7.20
  -3   4  -6   48.30    6.40
   4  -4   6  116.29   11.40
   4  -4   6  115.79   11.50
  -4  -4  -6   95.69   12.00
  -4  -4  -6  105.29   10.30
  -4  -4  -6   88.99   11.40
   4  -4   6  126.39   10.10
  -4  -4  -6   97.09   10.60
   4  -4   6  108.19   12.90
  -4   4  -6  111.69   13.20
   4   4   6  117.59   11.10
   4   4   6   95.99   11.60
  -4   4  -6   92.69   10.90
  -4   4  -6  119.89   10.70
   4   4   6   83.99    8.50
  -4   4  -6  113.59    6.90
  -4   4  -6   95.49   11.30
   4   4   6   88.29   10.30
   4   4   6   95.99    8.80
  -4   4  -6  112.89    9.10
   4   4   6   98.39    9.60
   4   4   6  112.59    9.90
   5  -4   6   21.10    7.00
  -5  -4  -6    4.90    4.70
  -5  -4  -6   13.60    5.00
   5  -4   6   10.80    9.50
   5  -4   6    5.30    5.80
  -5  -4  -6   15.60    5.30
   5  -4   6    1.50    5.30
  -5  -4  -6    5.90    3.90
   5   4   6    9.80    4.30
  -5   4  -6   14.60    5.60
   5   4   6   14.00    4.70
   5   4   6    9.70    3.40
  -5   4  -6   17.10    6.20
  -5   4  -6   17.40    5.40
   5   4   6    8.10    5.10
  -5   4  -6   13.80    4.40
  -6  -4  -6   17.70    5.50
   6  -4   6   15.90    5.40
   6  -4   6   19.30    6.60
  -6  -4  -6   14.50    5.40
   6   4   6   11.90    5.00
  -6   4  -6   23.40    6.00
  -6   4  -6   18.50    5.90
   6   4   6   15.30    3.70
   6   4   6   20.20    5.50
   6   4   6   21.20    5.20
  -7  -4  -6    4.20    5.60
  -7  -4  -6   -2.10    5.10
   7  -4   6   18.60    7.20
   7  -4   6    7.10    5.80
  -7   4  -6    2.80    6.30
   7   4   6    1.80    5.30
  -7   4  -6    4.00    5.30
   7   4   6    1.90    5.50
  -7   4  -6    2.40    4.20
   7   4   6    0.30    5.20
   8  -4   6  107.59   12.60
  -8  -4  -6  108.09   12.30
   8  -4   6  122.79   14.50
  -8  -4  -6  102.69   12.90
   8   4   6  117.39   12.30
  -8   4  -6   96.69   11.40
  -8   4  -6  102.69   12.70
  -8   4  -6   90.99   11.20
   8   4   6   85.79   10.30
   8   4   6  112.19   12.00
  -7  -5   6   -9.90    6.50
   7  -5  -6   14.70    8.10
  -7  -5   6    8.80    7.80
   7  -5  -6   -2.00    4.90
  -7   5   6    6.40    6.10
  -7   5   6   -6.70    8.20
   7   5  -6  -10.30    6.30
   7   5  -6    7.10    4.90
   7   5  -6   -1.80    8.50
  -6  -5   6   34.60    8.80
   6  -5  -6   41.70    6.90
  -6  -5   6   51.29    9.10
   6  -5  -6   37.40    8.70
  -6   5   6   37.10    8.70
   6   5  -6   37.70    7.40
   6   5  -6   51.29    7.30
  -6   5   6   33.50    7.10
   5  -5  -6  806.12   45.50
  -5  -5   6  595.74   46.20
  -5  -5   6  643.04   46.70
   5  -5  -6  726.13   46.20
  -5   5   6  811.62   47.90
   5   5  -6  657.13   45.00
  -5   5   6  800.22   45.90
   5   5  -6  614.64   45.10
  -5   5   6  766.52   43.80
   4  -5  -6   42.80    7.60
  -4  -5   6   40.30    8.50
  -4  -5   6   34.30    8.00
   4  -5  -6   41.10    7.20
   4   5  -6   35.00    6.70
  -4   5   6   43.70    5.90
  -4   5   6   49.10    7.70
   4   5  -6   44.80    7.20
  -4   5   6   48.00    8.70
  -3  -5   6   73.99   10.80
   3  -5  -6   67.29    8.80
  -3  -5   6   64.79    9.90
   3  -5  -6   93.99   10.10
  -3   5   6   80.19   10.60
  -3   5   6   79.59   11.60
   3   5  -6   79.79    9.90
  -3   5   6   85.49    8.60
   3   5  -6   85.59   12.50
   3   5  -6   77.69    9.50
  -2  -5   6    0.70    6.80
   2  -5  -6    9.20    5.00
   2  -5  -6   12.90    5.20
  -2  -5   6    2.70    6.30
   2  -5  -6   16.60    5.50
  -2  -5   6   -3.00    6.00
  -2   5   6    6.90    5.40
   2   5  -6   13.70    5.90
   2   5  -6   16.60    6.70
  -2   5   6   11.00    4.30
   2   5  -6    8.10    4.70
   2   5  -6   22.90    5.70
  -2   5   6   12.80    5.70
  -2   5   6    8.30    5.50
  -1  -5   6  175.48   16.10
   1  -5  -6  151.88   13.70
   1  -5  -6  172.38   14.80
   1  -5  -6  174.08   15.10
  -1  -5   6  172.18   12.60
  -1  -5   6  196.78   17.30
  -1  -5   6  153.68   15.80
   1   5  -6  172.78   15.30
   1   5  -6  193.98   16.50
   1   5  -6  182.08   13.60
  -1   5   6  166.98   13.30
   1   5  -6  185.68   15.10
  -1   5   6  166.58   15.10
  -1   5   6  174.78   11.20
  -1   5   6  177.28   15.10
  -1   5   6  164.58   14.60
   0  -5   6   57.19    6.40
   0  -5  -6   56.89    8.00
   0  -5   6   56.89    9.20
   0  -5  -6   63.69    7.90
   0  -5   6   41.10    8.90
   0  -5  -6   51.89    7.70
   0  -5   6   51.39    9.30
   0  -5   6   59.09    7.30
   0  -5  -6   67.19    8.30
   0   5   6   56.59   10.30
   0   5   6   48.90    5.50
   0   5  -6   54.09    7.50
   0   5  -6   56.49    8.00
   0   5   6   47.30    7.70
   0   5  -6   53.29    6.60
   0   5  -6   53.29    7.40
   0   5  -6   73.99   10.50
   0   5   6   47.10    6.50
   0   5   6   52.99    7.50
   0   5   6   52.59    7.20
  -1  -5  -6  446.76   30.80
   1  -5   6  443.26   31.30
   1  -5   6  467.25   31.30
   1  -5   6  475.75   32.60
  -1  -5  -6  444.86   30.30
   1  -5   6  437.86   30.70
   1  -5   6  448.86   28.90
  -1  -5  -6  441.66   30.30
  -1  -5  -6  489.95   30.80
  -1   5  -6  465.35   28.70
   1   5   6  466.65   29.60
  -1   5  -6  462.75   30.60
  -1   5  -6  454.05   31.30
   1   5   6  497.05   30.40
  -1   5  -6  457.95   30.40
  -1   5  -6  445.66   29.20
   1   5   6  438.36   32.60
   1   5   6  439.66   28.10
  -1   5  -6  454.55   30.70
   1   5   6  448.46   30.70
   1   5   6  470.95   30.60
  -2  -5  -6   10.60    5.10
   2  -5   6    8.60    7.80
   2  -5   6   14.80    6.50
  -2  -5  -6    4.10    7.10
  -2  -5  -6    4.80    4.90
   2  -5   6    6.20    4.60
   2  -5   6   10.00    5.60
  -2  -5  -6    1.00    5.70
   2  -5   6    6.50    6.40
  -2   5  -6   11.40    5.50
   2   5   6    8.80    6.70
  -2   5  -6    7.40    5.50
   2   5   6    7.40    5.30
   2   5   6    9.40    4.70
  -2   5  -6    0.30    6.20
  -2   5  -6    6.90    3.50
  -2   5  -6    6.70    5.10
   2   5   6    4.60    4.10
   2   5   6    1.10    3.10
   3  -5   6   60.29   10.50
  -3  -5  -6   58.29    8.60
  -3  -5  -6   45.30    7.00
   3  -5   6   36.60    7.90
   3  -5   6   65.89    9.10
  -3  -5  -6   62.09    8.80
   3  -5   6   41.20    6.60
   3   5   6   45.40    7.10
   3   5   6   49.60    7.40
  -3   5  -6   40.80    7.50
   3   5   6   49.10    5.70
  -3   5  -6   39.10    4.70
  -3   5  -6   42.80    7.90
   3   5   6   38.90    7.50
   3   5   6   49.50    6.80
  -3   5  -6   49.70    7.70
  -4  -5  -6   -7.30    4.70
   4  -5   6   -0.20    6.20
   4  -5   6    6.20    4.50
  -4  -5  -6   -1.40    6.40
  -4   5  -6    7.40    6.20
   4   5   6    3.50    4.50
   4   5   6   -1.10    4.30
   4   5   6   -0.90    4.80
  -4   5  -6    4.40    7.30
   4   5   6    2.80    5.20
  -5  -5  -6   -2.20    5.70
   5  -5   6   14.20    7.60
   5  -5   6   19.30    7.20
   5  -5   6    7.70    5.20
  -5  -5  -6   -2.50    5.30
   5   5   6    6.70    5.30
   5   5   6   -1.30    5.60
   5   5   6    5.90    4.40
  -5   5  -6    6.90    6.60
  -5   5  -6   11.80    7.40
   5   5   6    0.60    4.40
  -5   5  -6    7.90    4.40
  -6  -5  -6   -4.30    6.60
   6  -5   6    0.00    7.70
   6  -5   6   -6.70    7.50
  -6  -5  -6  -11.40    5.70
   6   5   6    8.90    6.00
  -6   5  -6    3.20    4.70
   6   5   6   -2.80    5.80
   6   5   6    0.80    5.30
  -6   5  -6   -1.10    7.20
  -6   5  -6    6.90    6.40
  -7  -5  -6    4.90    7.90
  -7  -5  -6   13.80    7.80
   7  -5   6   22.30    8.30
   7  -5   6    5.50    9.10
  -7   5  -6    3.20    8.60
  -7   5  -6   16.70    7.50
   7   5   6   19.10    6.40
  -7   5  -6   24.90    8.80
   7   5   6    8.80    6.30
   4  -6  -6   16.90    8.30
   4  -6  -6   -1.40    7.10
  -4  -6   6   -9.20    8.80
  -4  -6   6   16.10    9.00
  -4   6   6   18.70    7.90
   4   6  -6   10.00    7.10
   4   6  -6   24.40    8.60
  -4   6   6   12.10    8.20
   4   6  -6    2.70    7.00
  -3  -6   6   64.39   11.50
  -3  -6   6   42.50   12.00
   3  -6  -6   57.39   10.60
   3  -6  -6   78.49   10.30
   3   6  -6   64.79    9.70
  -3   6   6   74.39    8.50
  -3   6   6   69.29   10.90
  -3   6   6   62.69   10.20
   3   6  -6   68.79    9.60
   2  -6  -6  371.16   26.10
   2  -6  -6  333.67   27.20
  -2  -6   6  349.96   27.10
  -2  -6   6  347.77   29.40
   2   6  -6  364.86   27.70
  -2   6   6  364.56   24.20
   2   6  -6  356.66   25.80
  -2   6   6  346.07   27.00
   2   6  -6  345.07   25.00
  -2   6   6  358.46   27.00
   1  -6  -6   16.80    7.40
  -1  -6   6   20.60    8.90
   1  -6  -6   39.80    8.40
  -1  -6   6   39.20   10.60
   1   6  -6   36.00    7.20
  -1   6   6   32.60    8.60
  -1   6   6   31.40    8.40
   1   6  -6   37.80    7.80
   1   6  -6   19.90    8.00
  -1   6   6   48.70    6.90
   0  -6   6   37.10   10.50
   0  -6   6   55.59   11.00
   0  -6  -6   49.70    8.90
   0  -6  -6   43.70    8.90
   0   6  -6   53.09    9.70
   0   6  -6   57.59    7.90
   0   6   6   32.60    8.10
   0   6   6   56.39    7.50
   0   6  -6   34.70    8.80
   0   6   6   43.90    9.00
   1  -6   6   13.80    9.30
   1  -6   6   -2.20    9.80
  -1  -6  -6    8.00    7.80
  -1  -6  -6   11.40    6.10
   1  -6   6   -1.00    4.80
   1   6   6   -2.60    5.70
  -1   6  -6   -1.60    5.50
   1   6   6   -8.90    6.70
  -1   6  -6   -1.10    6.90
   1   6   6   14.40    6.90
   2  -6   6  127.99   14.50
   2  -6   6  107.09   11.60
  -2  -6  -6  112.49   13.80
  -2  -6  -6  179.28   19.20
   2   6   6  111.69   12.70
   2   6   6  124.09   14.40
   2   6   6  110.89   14.10
  -2   6  -6  110.29   14.70
  -3  -6  -6  -13.70    7.40
   3  -6   6    9.10    9.50
   3  -6   6    0.30    5.60
  -3   6  -6   -1.00    7.40
  -3   6  -6    6.40    9.20
   3   6   6    0.20    7.10
   3   6   6    9.70    6.00
   3   6   6  -12.70    6.10
   4  -6   6  231.88   22.20
  -4  -6  -6  232.38   21.10
   4  -6   6  237.18   22.90
   4  -6   6  208.68   18.30
  -4  -6  -6  254.67   21.40
   4   6   6  231.48   17.80
  -4   6  -6  208.18   20.80
   4   6   6  224.58   20.10
   4   6   6  220.58   18.80
   4   6   6  212.38   18.40
  -4   6  -6  267.97   21.80
  11   0  -7   -5.10    6.00
  11   0  -7    5.00    7.50
 -11   0   7    6.20    5.10
  11   0  -7   -1.10    6.10
  10   0  -7    6.00    5.50
  10   0  -7   -7.30    5.60
  10   0  -7    4.60    5.00
 -10   0   7   -5.30    4.20
   9   0  -7    2.00    5.00
   9   0  -7    4.80    4.50
   9   0  -7    1.00    3.70
  -9   0   7   -7.50    3.60
   8   0  -7   -0.90    2.70
  -8   0   7    1.20    3.40
   8   0  -7    2.10    3.80
   8   0  -7   -1.80    6.00
   7   0  -7   -1.40    2.50
  -7   0   7   -3.40    4.10
  -7   0   7    1.50    2.70
   7   0  -7   -2.90    3.20
  -7   0   7   -0.50    1.30
   7   0  -7   -4.50    3.90
   6   0  -7   -0.10    4.00
  -6   0   7    1.40    2.60
  -6   0   7   -3.20    2.20
  -6   0   7   -0.80    3.40
   6   0  -7    0.20    1.00
   6   0  -7   -0.70    3.10
  -6   0   7   -1.10    1.40
   6   0  -7   -3.30    3.10
   6   0  -7    1.30    3.60
   6   0  -7   -0.30    1.00
  -6   0   7    0.70    1.20
   5   0  -7   -1.20    0.90
  -5   0   7   -0.30    2.20
  -5   0   7    1.40    3.00
   5   0  -7    1.20    2.70
  -5   0   7    2.90    2.00
   5   0  -7    4.20    2.70
   5   0  -7    0.20    1.00
   5   0  -7   -1.00    3.30
  -5   0   7   -0.20    1.30
  -5   0   7   -0.70    1.20
   5   0  -7   -1.40    2.60
   4   0  -7   -0.50    0.90
  -4   0   7   -0.10    2.80
   4   0  -7    2.20    1.90
  -4   0   7    1.70    2.10
  -4   0   7    0.80    1.20
   4   0  -7   -2.10    2.80
  -4   0   7    1.40    1.10
   4   0  -7    1.10    1.00
   4   0  -7    0.80    2.30
   4   0  -7    1.70    2.50
   4   0  -7   -1.10    2.10
   4   0  -7   -0.40    0.90
   4   0  -7   -0.40    1.10
  -4   0   7    0.60    1.30
  -4   0   7   -0.60    1.30
   3   0  -7   -0.80    1.70
   3   0  -7   -0.40    1.00
   3   0  -7    0.70    1.10
   3   0  -7   -1.10    1.30
  -3   0   7   -1.50    1.20
  -3   0   7    2.10    2.30
  -3   0   7    0.40    1.40
  -3   0   7    1.50    1.20
   3   0  -7   -0.40    2.20
  -3   0   7    4.70    2.10
  -3   0   7    2.60    1.30
   3   0  -7   -1.40    1.80
   3   0  -7   -0.10    2.30
   3   0  -7    1.90    2.20
   2   0  -7    0.90    1.10
  -2   0   7   -1.10    1.30
   2   0  -7    3.60    1.70
  -2   0   7    2.00    1.50
   2   0  -7   -1.30    1.40
   2   0  -7   -0.70    2.00
  -2   0   7    1.30    1.20
  -2   0   7   -1.00    1.10
  -2   0   7    6.40    2.20
  -2   0   7    2.40    1.90
   2   0  -7    2.70    2.10
   2   0  -7   -0.20    2.30
   2   0  -7    1.60    1.70
   2   0  -7    0.50    1.20
   2   0  -7    0.50    1.10
   1   0  -7    2.50    1.70
  -1   0   7    2.60    1.40
   1   0  -7   -1.90    2.10
  -1   0   7   -1.10    1.60
   1   0  -7    1.80    1.60
   1   0  -7    0.10    1.20
  -1   0   7   -0.70    1.30
   1   0  -7    0.30    2.40
  -1   0   7   -0.50    1.60
   1   0  -7    1.00    1.60
   1   0  -7   -1.60    1.10
  -1   0   7    0.70    1.60
   1   0  -7   -0.60    1.50
   1   0  -7    0.20    1.70
   0   0   7    1.50    1.60
   0   0   7   -1.70    1.50
   0   0  -7    1.70    1.40
   0   0   7   -1.00    1.40
   0   0  -7    2.30    1.90
   0   0  -7   -1.60    1.80
   0   0  -7    1.40    1.90
   0   0   7    1.40    1.60
   0   0  -7    0.40    1.50
   0   0  -7    0.30    1.30
   0   0  -7   -1.80    1.80
   0   0   7    0.10    2.00
   0   0   7   -0.10    1.70
   0   0  -7   -1.60    1.20
   0   0  -7   -1.90    1.60
  -1   0  -7   -3.50    1.60
  -1   0  -7    0.30    1.70
  -1   0  -7    1.10    2.00
   1   0   7    0.80    1.70
   1   0   7   -0.30    1.60
  -1   0  -7    2.50    1.70
  -1   0  -7    0.50    1.80
   1   0   7   -0.30    1.50
   1   0   7   -0.80    1.60
   1   0   7    2.40    1.90
  -1   0  -7    0.40    1.80
  -1   0  -7    0.10    1.50
   1   0   7   -1.60    1.50
  -1   0  -7   -0.10    1.60
  -1   0  -7    0.50    1.50
  -2   0  -7    3.00    2.10
   2   0   7    2.30    2.30
  -2   0  -7   -0.10    1.50
  -2   0  -7    2.10    1.90
   3   0   7   -2.00    1.80
  -3   0  -7    2.40    2.30
  -3   0  -7    0.60    1.80
   3   0   7   -0.70    2.00
  -3   0  -7    0.40    2.00
   3   0   7   -6.90    2.90
   3   0   7    0.70    1.50
   3   0   7    2.40    2.00
  -3   0  -7    0.70    2.00
  -3   0  -7    1.50    1.90
   3   0   7    1.50    1.80
  -3   0  -7   -0.80    1.70
  -3   0  -7   -0.20    1.80
  -3   0  -7   -1.20    2.30
  -3   0  -7    0.20    1.60
  -4   0  -7    2.60    2.10
  -4   0  -7    1.30    2.10
  -4   0  -7    4.30    2.20
   4   0   7   -1.60    2.20
  -4   0  -7    2.20    2.60
   4   0   7   -2.00    1.90
  -4   0  -7    1.00    1.50
   4   0   7    3.50    2.20
   4   0   7    6.80    5.90
   4   0   7   -0.20    1.80
  -4   0  -7    0.60    2.60
  -4   0  -7    0.30    1.90
   4   0   7    2.20    2.20
  -4   0  -7    3.00    2.40
  -4   0  -7   -1.00    2.00
   5   0   7   -0.90    2.20
  -5   0  -7    5.50    2.90
  -5   0  -7   -1.00    2.10
  -5   0  -7    2.70    1.00
  -5   0  -7   -1.10    2.70
  -5   0  -7    0.00    1.10
  -5   0  -7    1.60    2.40
   5   0   7   -0.70    1.90
  -5   0  -7   -4.60    2.60
   5   0   7   -4.10    2.90
   5   0   7    0.20    2.30
  -5   0  -7   -0.60    2.00
   5   0   7    3.00    3.10
   5   0   7   -0.10    2.30
  -5   0  -7    0.30    2.60
  -6   0  -7    2.50    2.90
  -6   0  -7    0.20    2.30
  -6   0  -7   -4.80    2.70
   6   0   7   -0.10    2.50
   6   0   7   -1.00    3.10
  -6   0  -7    2.00    2.20
   6   0   7   -1.50    2.50
  -6   0  -7   -1.80    3.20
   6   0   7    0.30    2.30
   6   0   7    0.50    2.90
  -7   0  -7    3.70    3.80
   7   0   7    3.80    3.30
  -7   0  -7    2.50    3.70
   7   0   7   -0.60    3.10
   7   0   7    0.90    4.00
   7   0   7   -0.60    2.30
  -7   0  -7   -3.90    2.70
  -7   0  -7    0.20    3.00
   7   0   7   -6.50    3.40
  -8   0  -7    1.60    3.40
   8   0   7    3.20    3.30
  -8   0  -7   -7.20    3.70
  -8   0  -7   -0.10    3.30
  -8   0  -7    2.70    3.70
   8   0   7    1.60    4.10
   8   0   7   -0.20    3.50
   8   0   7  -10.20    4.40
  -8   0  -7   -4.00    3.70
   8   0   7    2.00    2.80
  -9   0  -7   -2.50    3.60
  -9   0  -7    4.40    4.90
   9   0   7    6.90    5.60
   9   0   7    6.90    4.30
   9   0   7   -3.10    3.50
 -10   0  -7    2.30    5.10
  10   0   7    7.30    6.70
 -10   0  -7    1.20    4.30
  10   0   7    1.10    5.00
  10   0   7    5.70    4.30
 -11  -1   7   79.59   10.10
  11  -1  -7   97.89   11.20
  11  -1  -7   79.29    8.80
  11  -1  -7   83.79   11.50
  11   1  -7   89.29   10.40
 -11   1   7   90.29   14.60
  11   1  -7   68.59   11.20
  11   1  -7   80.19   10.80
 -10  -1   7    3.90    4.70
  10  -1  -7   -3.80    4.80
  10  -1  -7    8.90    6.00
  10  -1  -7   -2.00    5.00
  10   1  -7   -5.70    5.10
  10   1  -7   -6.80    5.70
 -10   1   7    0.40    4.00
  10   1  -7   -8.10    5.80
   9  -1  -7    7.70    5.20
   9  -1  -7   -7.00    4.30
  -9  -1   7    0.90    3.80
   9  -1  -7   -9.70    8.60
   9  -1  -7   -4.80    3.30
   9   1  -7    2.10    4.30
   9   1  -7    3.20    4.30
   9   1  -7    5.70    5.30
  -8  -1   7    5.00    1.40
  -8  -1   7    2.10    3.60
   8  -1  -7    8.50    2.80
  -8  -1   7   -0.20    4.90
   8  -1  -7    8.10    4.80
  -8  -1   7    3.70    1.90
   8  -1  -7   10.30    4.50
  -8   1   7    3.80    3.30
   8   1  -7    3.40    4.40
  -8   1   7    4.70    1.80
  -8   1   7   19.00    5.00
  -8   1   7    3.50    2.20
  -7  -1   7   67.19    4.80
   7  -1  -7   58.89    4.50
   7  -1  -7   67.99    8.50
   7  -1  -7   67.79    5.70
  -7  -1   7   66.59    5.70
   7  -1  -7   59.89    4.70
   7  -1  -7   70.19    7.50
   7  -1  -7   55.49    6.50
  -7  -1   7   59.29    6.80
  -7  -1   7   62.09    7.70
  -7   1   7   65.69    7.70
  -7   1   7   61.79    5.50
   7   1  -7   67.59    8.10
   7   1  -7   64.39    4.60
   7   1  -7   62.09    4.40
  -7   1   7   59.89    6.50
   7   1  -7   69.29    7.80
  -7   1   7   67.29    5.10
  -7   1   7   59.29    8.70
   6  -1  -7   55.89    6.10
   6  -1  -7   57.09    4.70
   6  -1  -7   49.60    4.30
  -6  -1   7   48.20    6.00
  -6  -1   7   54.99    5.00
  -6  -1   7   54.29    7.40
  -6  -1   7   50.79    4.40
   6  -1  -7   46.50    4.00
  -6  -1   7   59.49    5.60
   6  -1  -7   47.50    6.10
  -6   1   7   57.29    5.90
   6   1  -7   61.89    6.80
   6   1  -7   54.89    4.30
   6   1  -7   58.29    7.10
   6   1  -7   54.99    4.10
  -6   1   7   47.20    4.60
  -6   1   7   59.59    7.10
  -6   1   7   56.59    4.90
   6   1  -7   49.50    6.70
  -6   1   7   52.79    7.60
  -5  -1   7  130.39   10.80
   5  -1  -7  129.19    9.40
   5  -1  -7  128.99    8.30
  -5  -1   7  122.29    8.90
  -5  -1   7  126.29    7.80
   5  -1  -7  125.19    8.30
   5  -1  -7  129.99    8.40
  -5  -1   7  132.09    8.00
  -5  -1   7  133.09   10.30
   5  -1  -7  116.19    9.50
   5  -1  -7  117.89   10.80
  -5  -1   7  129.09    8.70
   5  -1  -7  131.39    9.60
  -5  -1   7  123.09    8.40
  -5   1   7  120.19    8.50
   5   1  -7  119.99   10.10
  -5   1   7  122.99   10.10
   5   1  -7  121.79   10.40
  -5   1   7  125.79   11.40
  -5   1   7  125.59    8.80
   5   1  -7  131.19    8.40
   5   1  -7  129.29   11.50
  -5   1   7  119.19    9.30
  -5   1   7  126.09    8.00
   5   1  -7  120.29   10.50
   5   1  -7  134.29    8.40
  -5   1   7  121.49    8.10
  -4  -1   7   56.69    4.40
  -4  -1   7   66.89    6.60
  -4  -1   7   53.09    5.00
  -4  -1   7   56.19    4.90
  -4  -1   7   60.99    4.30
   4  -1  -7   55.89    6.60
   4  -1  -7   52.79    4.60
   4  -1  -7   52.09    5.70
   4  -1  -7   55.39    4.20
  -4  -1   7   49.00    5.00
   4  -1  -7   60.39    4.50
   4  -1  -7   57.19    4.40
  -4  -1   7   56.99    6.30
   4  -1  -7   61.19    5.40
   4   1  -7   57.89    6.40
  -4   1   7   47.50    5.30
  -4   1   7   56.89    7.10
  -4   1   7   63.79    5.00
   4   1  -7   54.09    4.20
   4   1  -7   59.29    6.50
   4   1  -7   48.80    7.10
  -4   1   7   55.99    4.60
   4   1  -7   58.39    4.90
   4   1  -7   51.79    4.50
   4   1  -7   62.09    6.50
   4   1  -7   58.49    4.20
  -4   1   7   52.59    5.90
  -4   1   7   53.49    4.80
   3  -1  -7  312.07   20.50
  -3  -1   7  344.67   21.80
   3  -1  -7  337.27   20.50
   3  -1  -7  321.97   20.90
  -3  -1   7  337.57   20.40
  -3  -1   7  324.47   21.80
   3  -1  -7  337.27   20.50
   3  -1  -7  324.97   20.90
   3  -1  -7  333.97   20.10
  -3  -1   7  334.37   21.00
   3  -1  -7  346.57   20.50
  -3  -1   7  350.86   21.60
   3  -1  -7  331.17   21.80
  -3  -1   7  330.87   20.60
  -3   1   7  331.37   20.80
   3   1  -7  340.17   21.40
   3   1  -7  330.07   20.50
  -3   1   7  335.67   22.40
  -3   1   7  339.67   21.20
   3   1  -7  330.57   21.30
   3   1  -7  317.57   20.50
   3   1  -7  349.96   20.60
  -3   1   7  349.07   20.30
  -3   1   7  337.17   20.60
   3   1  -7  325.57   20.60
  -3   1   7  336.47   20.40
   3   1  -7  346.87   22.10
   2  -1  -7   48.70    4.20
  -2  -1   7   46.20    4.40
   2  -1  -7   43.70    5.10
   2  -1  -7   49.90    5.50
  -2  -1   7   45.80    5.30
  -2  -1   7   53.99    5.40
  -2  -1   7   52.29    5.60
  -2  -1   7   48.40    4.20
  -2  -1   7   48.60    4.10
   2  -1  -7   46.80    4.20
   2  -1  -7   47.50    4.50
  -2  -1   7   42.40    4.90
   2  -1  -7   49.10    5.00
   2  -1  -7   49.50    4.20
   2  -1  -7   46.90    3.50
   2   1  -7   60.39    4.80
   2   1  -7   47.70    5.60
   2   1  -7   45.50    4.20
   2   1  -7   52.19    4.40
  -2   1   7   47.90    4.80
   2   1  -7   42.10    5.20
  -2   1   7   46.40    4.40
   2   1  -7   49.70    4.30
  -2   1   7   48.60    4.20
  -2   1   7   53.39    4.50
  -2   1   7   45.30    5.60
   2   1  -7   56.59    5.40
  -2   1   7   52.39    3.80
  -2   1   7   51.19    4.70
  -1  -1   7  179.58   13.10
  -1  -1   7  171.58   13.00
  -1  -1   7  181.38   12.60
   1  -1  -7  223.88   12.90
   1  -1  -7  215.98   12.00
   1  -1  -7  220.28   13.00
  -1  -1   7  169.98   12.60
   1  -1  -7  217.48   13.00
   1  -1  -7  217.98   12.80
   1  -1  -7  213.98   13.60
   1  -1  -7  219.78   12.80
  -1  -1   7  168.28   13.00
   1  -1  -7  217.78   13.00
  -1  -1   7  179.58   13.60
   1   1  -7  174.08   12.60
   1   1  -7  168.48   13.00
  -1   1   7  232.98   13.30
  -1   1   7  210.08   13.10
   1   1  -7  180.28   13.50
  -1   1   7  207.68   13.00
  -1   1   7  221.68   13.00
   1   1  -7  173.48   12.90
   1   1  -7  183.68   13.00
   1   1  -7  166.28   12.60
   1   1  -7  166.08   12.50
  -1   1   7  215.18   12.30
  -1   1   7  214.88   14.00
   0  -1   7    3.20    2.10
   0  -1   7   -0.20    1.50
   0  -1   7    0.20    1.70
   0  -1   7    0.80    1.70
   0  -1  -7    3.30    2.00
   0  -1   7    1.80    1.60
   0  -1  -7    3.80    2.10
   0  -1  -7    5.80    2.10
   0  -1  -7    5.40    1.90
   0  -1  -7    1.30    1.40
   0  -1   7   -1.80    1.30
   0  -1  -7    2.00    2.10
   0  -1  -7    3.10    1.60
   0  -1  -7    0.50    1.10
   0  -1   7    2.00    2.10
   0   1  -7    1.00    1.70
   0   1  -7    0.80    2.00
   0   1   7    3.60    1.50
   0   1   7    3.60    1.90
   0   1  -7    1.90    1.60
   0   1   7    3.70    1.90
   0   1  -7    2.10    2.10
   0   1   7    2.00    1.80
   0   1   7    2.70    2.30
   0   1   7    3.90    1.80
   0   1  -7   -0.50    1.40
   0   1  -7    2.30    2.00
   0   1  -7    1.90    1.90
   0   1   7   -1.00    1.30
   1  -1   7   78.79    5.90
   1  -1   7   81.59    5.80
  -1  -1  -7   69.89    5.70
   1  -1   7   79.89    6.40
  -1  -1  -7   60.79    5.80
   1  -1   7   68.79    6.10
   1  -1   7   75.89    6.70
  -1  -1  -7   70.49    6.30
   1  -1   7   75.79    6.20
  -1  -1  -7   63.79    6.10
  -1  -1  -7   56.09    5.70
  -1  -1  -7   68.59    5.90
  -1  -1  -7   56.19    5.40
  -1  -1  -7   68.89    6.00
  -1  -1  -7   64.99    5.70
   1  -1   7   78.69    6.10
   1   1   7   54.59    5.70
   1   1   7   54.99    5.20
   1   1   7   62.19    6.10
  -1   1  -7   77.29    5.20
  -1   1  -7   77.39    6.10
  -1   1  -7   78.79    6.40
  -1   1  -7   67.69    5.60
  -1   1  -7   80.89    5.90
  -1   1  -7   77.29    6.10
   1   1   7   65.39    6.00
  -1   1  -7   79.69    6.00
   1   1   7   63.89    5.80
   1   1   7   65.49    5.80
   1   1   7   63.79    6.10
  -1   1  -7   79.09    6.50
   2  -1   7   16.20    3.10
  -2  -1  -7   17.40    3.30
  -2  -1  -7   15.40    2.60
  -2  -1  -7   11.80    2.70
  -2  -1  -7   20.20    3.00
  -2  -1  -7   12.20    2.60
  -2  -1  -7   18.20    3.40
  -2  -1  -7   16.10    2.40
   2  -1   7   18.50    3.20
  -2  -1  -7   13.80    2.80
  -2  -1  -7   17.30    2.70
   2  -1   7   11.50    2.70
   2  -1   7   17.00    2.50
   2  -1   7   14.40    3.00
   2  -1   7   16.00    2.80
   2  -1   7   21.80    3.90
  -2   1  -7   16.90    3.00
  -2   1  -7   15.30    3.10
   2   1   7   13.40    3.10
  -2   1  -7   16.70    3.60
  -2   1  -7   11.90    3.50
  -2   1  -7   19.70    2.50
  -2   1  -7   15.30    3.00
   2   1   7   15.20    3.20
   2   1   7   11.40    2.60
   2   1   7   16.70    3.40
   2   1   7   12.00    2.70
  -2   1  -7   13.90    2.50
  -2   1  -7   14.30    2.90
   2   1   7   11.20    2.30
  -3  -1  -7  171.18   12.70
  -3  -1  -7  182.48   13.10
   3  -1   7  179.48   14.10
   3  -1   7  184.28   12.80
   3  -1   7  210.08   13.40
  -3  -1  -7  193.88   13.40
  -3  -1  -7  191.48   12.30
   3  -1   7  181.98   13.20
   3  -1   7  192.38   12.60
  -3  -1  -7  188.78   13.60
   3  -1   7  198.18   13.10
  -3  -1  -7  194.78   13.10
  -3  -1  -7  203.28   13.10
   3  -1   7  203.88   13.30
  -3  -1  -7  197.88   13.10
  -3  -1  -7  211.28   12.90
   3   1   7  205.18   13.50
  -3   1  -7  197.38   13.00
  -3   1  -7  199.78   13.70
   3   1   7  183.88   12.80
  -3   1  -7  196.68   12.50
  -3   1  -7  200.18   13.10
   3   1   7  193.78   13.10
  -3   1  -7  201.58   12.80
   3   1   7  200.58   13.20
  -3   1  -7  194.58   13.20
   3   1   7  191.98   12.90
  -3   1  -7  187.18   13.20
   3   1   7  191.08   13.70
  -4  -1  -7   21.90    3.70
  -4  -1  -7   15.80    3.20
  -4  -1  -7   17.10    3.00
  -4  -1  -7   15.70    2.00
  -4  -1  -7   15.80    3.30
   4  -1   7   19.90    3.80
   4  -1   7   16.50    3.90
   4  -1   7   21.20    2.80
  -4  -1  -7   12.40    3.50
  -4  -1  -7   22.00    3.30
   4  -1   7   16.70    3.10
   4  -1   7   19.10    3.70
   4  -1   7   21.30    3.10
   4  -1   7   22.50    3.40
  -4  -1  -7   19.70    3.20
   4   1   7   17.70    3.70
  -4   1  -7   15.70    2.80
   4   1   7   25.10    3.60
  -4   1  -7   18.50    3.50
  -4   1  -7   18.60    3.50
   4   1   7   15.70    3.00
  -4   1  -7   21.70    3.50
  -4   1  -7   22.80    3.50
  -4   1  -7   10.80    3.20
  -4   1  -7   23.20    4.00
   4   1   7   16.00    3.00
   4   1   7   18.20    3.20
   4   1   7   12.10    3.50
  -4   1  -7   15.40    4.40
   5  -1   7    6.70    3.20
   5  -1   7    7.50    2.10
   5  -1   7    7.20    3.30
   5  -1   7    4.50    3.20
  -5  -1  -7    6.70    3.00
  -5  -1  -7    6.50    3.20
   5  -1   7    2.00    2.30
  -5  -1  -7    6.70    3.20
   5  -1   7    6.80    2.40
  -5  -1  -7    6.30    2.60
   5  -1   7    8.40    3.10
  -5  -1  -7   14.10    3.10
  -5  -1  -7    4.60    2.90
  -5  -1  -7    3.50    2.20
  -5   1  -7    1.30    2.30
   5   1   7    4.40    3.20
   5   1   7    4.80    2.50
  -5   1  -7    2.40    2.30
  -5   1  -7   10.50    3.00
  -5   1  -7   10.30    3.10
   5   1   7    4.90    2.60
  -5   1  -7    9.10    2.80
   5   1   7    2.70    2.70
   5   1   7    3.50    2.60
  -5   1  -7    6.40    3.30
   5   1   7    3.10    2.80
   6  -1   7   22.20    3.20
  -6  -1  -7   28.20    4.50
   6  -1   7   27.00    4.60
  -6  -1  -7   33.10    4.90
   6  -1   7   26.20    3.90
   6  -1   7   24.40    3.50
   6  -1   7   17.20    4.40
   6  -1   7   23.90    5.00
  -6  -1  -7   24.60    4.70
  -6  -1  -7   18.80    4.10
  -6  -1  -7   26.60    4.00
   6   1   7   26.30    4.20
  -6   1  -7   26.80    4.20
  -6   1  -7   29.30    3.60
   6   1   7   28.80    4.70
   6   1   7   19.00    3.80
  -6   1  -7   29.20    4.50
  -6   1  -7   22.00    4.60
  -6   1  -7   27.50    4.30
  -6   1  -7   20.90    3.40
   6   1   7   30.30    4.20
   6   1   7   23.60    4.20
   7  -1   7   15.30    4.80
   7  -1   7   16.00    3.60
   7  -1   7   11.80    2.70
   7  -1   7   11.50    5.50
  -7  -1  -7   13.30    3.70
   7  -1   7   12.90    2.80
   7  -1   7   14.40    5.00
  -7  -1  -7   12.50    4.10
  -7  -1  -7   17.20    4.80
   7   1   7    8.60    4.00
  -7   1  -7   12.70    3.70
   7   1   7   13.80    3.90
  -7   1  -7   16.60    2.80
   7   1   7   16.90    3.70
  -7   1  -7   11.40    4.30
  -7   1  -7    8.90    3.80
  -7   1  -7   15.20    3.60
   7   1   7   11.30    3.60
   8  -1   7    1.90    4.20
   8  -1   7   -0.40    4.60
  -8  -1  -7    2.80    3.70
  -8  -1  -7   -0.90    3.40
   8  -1   7    6.00    2.40
   8   1   7    2.70    3.60
  -8   1  -7   -2.70    3.00
   8   1   7    3.60    3.80
  -8   1  -7   -2.00    2.10
  -8   1  -7   -1.30    3.50
   8   1   7    1.20    3.90
   8   1   7   -9.10    3.90
  -8   1  -7   -0.30    4.10
   9  -1   7   23.80    3.80
  -9  -1  -7   31.90    5.90
   9  -1   7   23.30    6.50
   9  -1   7   19.90    5.60
  -9  -1  -7   31.40    5.80
  -9   1  -7   35.00    6.00
   9   1   7   23.90    5.30
   9   1   7   26.60    5.20
   9   1   7   24.50    6.60
  -9   1  -7   25.20    5.80
 -10  -1  -7    9.90    4.50
 -10  -1  -7    5.00    5.00
  10  -1   7    1.70    5.10
  10  -1   7    3.40    6.00
  10   1   7   -3.20    5.30
 -10   1  -7    1.30    5.00
 -10   1  -7    4.40    5.30
  10   1   7    7.10    4.60
  10   1   7    5.50    5.90
 -10  -2   7    6.30    2.20
 -10  -2   7   10.10    2.30
  10  -2  -7    5.80    5.00
 -10  -2   7    1.60    4.60
 -10   2   7   10.00    2.80
  10   2  -7   15.00    6.70
  10   2  -7   11.70    7.00
 -10   2   7   12.00    3.80
 -10   2   7    1.90    5.10
 -10   2   7   14.60    9.80
  10   2  -7   -2.10    5.90
  -9  -2   7   38.40    4.90
  -9  -2   7   42.80    5.40
  -9  -2   7   67.89    9.20
  -9  -2   7   45.70    6.00
   9  -2  -7   53.19    5.70
   9  -2  -7   42.40    5.00
   9  -2  -7   48.30    6.10
   9  -2  -7   46.10    4.20
   9   2  -7   41.90    7.80
  -9   2   7   35.20    6.00
   9   2  -7   52.49    4.10
  -9   2   7   39.90    5.30
  -9   2   7   48.30    5.70
   9   2  -7   50.49    8.20
  -9   2   7   54.79    9.50
   9   2  -7   45.90    3.80
  -8  -2   7   40.50    6.60
  -8  -2   7   36.40    6.90
   8  -2  -7   44.50    4.20
   8  -2  -7   35.30    5.30
  -8  -2   7   45.90    5.60
  -8  -2   7   39.30    4.70
   8  -2  -7   36.90    4.30
   8  -2  -7   45.20    4.60
  -8   2   7   38.10    4.90
   8   2  -7   48.60    7.20
  -8   2   7   39.70    5.90
   8   2  -7   38.70    7.20
  -8   2   7   36.60    7.70
  -8   2   7   62.19    7.10
   8   2  -7   39.80    4.30
  -8   2   7   45.00    5.70
   8   2  -7   40.80    4.20
   7  -2  -7   12.70    4.30
   7  -2  -7   24.40    3.20
  -7  -2   7   19.30    3.60
   7  -2  -7   19.70    2.80
   7  -2  -7   14.40    3.80
   7  -2  -7   21.50    2.90
  -7  -2   7   20.40    4.00
   7  -2  -7   24.40    4.50
  -7  -2   7   14.10    5.50
  -7  -2   7   17.10    2.90
   7   2  -7   18.50    5.80
  -7   2   7   16.10    3.10
  -7   2   7   17.30    4.10
   7   2  -7   16.90    2.80
  -7   2   7   17.30    5.90
  -7   2   7   21.00    4.30
   7   2  -7   13.90    4.80
  -7   2   7   25.50    5.10
   7   2  -7   17.10    2.90
   6  -2  -7    7.20    3.40
  -6  -2   7    9.40    2.00
   6  -2  -7    7.90    2.70
   6  -2  -7    7.90    2.10
   6  -2  -7    9.00    2.60
  -6  -2   7   11.00    3.00
  -6  -2   7   12.30    4.80
  -6  -2   7   11.40    2.70
   6  -2  -7    9.10    3.50
  -6   2   7   10.40    2.00
   6   2  -7    8.10    3.90
  -6   2   7   12.10    3.90
  -6   2   7    7.80    3.30
   6   2  -7   15.40    2.50
   6   2  -7    6.30    3.90
  -6   2   7    6.20    4.80
  -5  -2   7   28.80    3.80
  -5  -2   7   42.40    4.30
   5  -2  -7   45.80    4.80
   5  -2  -7   33.90    4.20
   5  -2  -7   44.20    5.30
   5  -2  -7   26.00    2.70
   5  -2  -7   36.80    3.60
  -5  -2   7   31.20    5.30
   5  -2  -7   31.10    4.00
  -5  -2   7   34.20    4.60
  -5  -2   7   34.00    4.10
   5  -2  -7   42.90    3.10
   5   2  -7   35.80    3.60
   5   2  -7   33.90    4.20
   5   2  -7   35.90    4.30
  -5   2   7   29.60    3.80
   5   2  -7   26.20    4.70
  -5   2   7   41.20    5.10
  -5   2   7   28.30    6.00
  -5   2   7   33.40    4.40
  -5   2   7   34.80    5.00
   5   2  -7   36.40    7.20
   5   2  -7   36.40    6.10
  -4  -2   7  312.57   22.00
  -4  -2   7  313.37   20.30
   4  -2  -7  361.86   21.30
  -4  -2   7  315.97   21.00
   4  -2  -7  316.87   20.20
   4  -2  -7  349.27   20.60
   4  -2  -7  366.96   20.20
  -4  -2   7  297.37   19.90
  -4  -2   7  307.37   21.90
  -4  -2   7  334.27   22.50
  -4  -2   7  331.17   21.80
   4  -2  -7  389.96   22.70
   4  -2  -7  346.77   20.30
   4  -2  -7  315.27   21.90
   4   2  -7  312.87   20.30
  -4   2   7  287.57   20.20
   4   2  -7  304.27   20.20
  -4   2   7  342.97   20.10
   4   2  -7  317.47   21.10
   4   2  -7  304.87   20.40
   4   2  -7  307.37   20.50
   4   2  -7  300.57   21.60
   4   2  -7  306.07   21.70
   4   2  -7  308.77   22.00
  -4   2   7  338.27   22.40
  -4   2   7  339.57   20.60
  -4   2   7  338.37   20.80
  -3  -2   7   15.20    4.00
  -3  -2   7   17.20    4.30
  -3  -2   7   13.10    3.20
   3  -2  -7   16.30    2.80
   3  -2  -7   15.80    2.40
   3  -2  -7   12.00    4.00
   3  -2  -7   14.20    4.20
  -3  -2   7   15.30    2.50
  -3  -2   7   18.70    2.90
   3  -2  -7   14.70    2.70
   3  -2  -7   18.80    3.00
  -3  -2   7   21.10    2.90
  -3  -2   7    9.10    3.90
   3  -2  -7   15.40    2.80
  -3   2   7   14.40    2.50
  -3   2   7   15.70    2.80
   3   2  -7   11.50    3.80
  -3   2   7    9.80    2.70
   3   2  -7   15.00    2.70
   3   2  -7   16.00    3.00
   3   2  -7   18.40    2.60
  -3   2   7   13.70    3.20
  -3   2   7   14.10    3.00
   3   2  -7   17.50    4.00
  -3   2   7   16.00    3.80
   3   2  -7   16.50    4.10
   3   2  -7   18.50    2.90
  -2  -2   7   48.60    4.90
  -2  -2   7   44.30    5.80
  -2  -2   7   50.69    6.30
   2  -2  -7   65.49    5.30
   2  -2  -7   70.49    5.70
   2  -2  -7   54.09    6.00
  -2  -2   7   36.80    5.40
  -2  -2   7   59.39    6.30
   2  -2  -7   59.09    5.00
   2  -2  -7   63.89    6.40
  -2  -2   7   49.50    5.30
   2  -2  -7   67.89    5.60
   2  -2  -7   53.49    5.20
  -2   2   7   64.89    5.60
   2   2  -7   48.20    6.60
   2   2  -7   50.29    6.00
  -2   2   7   55.29    5.40
   2   2  -7   45.80    5.60
   2   2  -7   53.99    5.10
  -2   2   7   61.99    5.50
  -2   2   7   59.19    6.70
  -2   2   7   71.39    5.70
   2   2  -7   47.00    5.00
   2   2  -7   45.30    5.60
  -2   2   7   63.89    5.80
   2   2  -7   49.00    5.00
   1  -2  -7    1.10    1.60
  -1  -2   7    4.20    1.90
  -1  -2   7    2.70    1.80
  -1  -2   7    9.10    3.20
   1  -2  -7    2.00    2.30
   1  -2  -7    1.20    2.80
  -1  -2   7    1.20    1.80
   1  -2  -7   -1.50    2.20
  -1  -2   7    1.50    2.40
  -1  -2   7    0.30    2.40
   1  -2  -7    4.80    2.20
  -1  -2   7    0.20    2.50
   1  -2  -7    3.30    2.60
   1  -2  -7    2.90    1.90
  -1   2   7    0.00    2.20
  -1   2   7    2.40    1.90
   1   2  -7    1.00    1.80
   1   2  -7    2.90    2.60
   1   2  -7    1.90    2.40
   1   2  -7   -1.50    2.40
   1   2  -7    0.30    1.70
   1   2  -7    1.70    3.20
  -1   2   7    4.30    2.10
  -1   2   7   -1.10    2.50
  -1   2   7    2.80    2.10
   1   2  -7    4.70    2.10
  -1   2   7    1.10    2.20
   0  -2  -7   85.79    6.90
   0  -2   7   76.39    6.50
   0  -2   7   85.89    7.00
   0  -2   7   75.49    7.40
   0  -2   7   76.79    6.90
   0  -2  -7  109.29    7.60
   0  -2  -7   90.49    7.20
   0  -2   7   90.89    7.40
   0  -2   7   79.49    7.90
   0  -2   7   78.89    7.00
   0  -2  -7   91.39    6.80
   0   2  -7   80.99    6.80
   0   2  -7   70.39    6.70
   0   2  -7  101.39    7.30
   0   2   7   78.49    5.50
   0   2  -7   77.29    6.80
   0   2  -7   85.49    8.00
   0   2  -7   65.99    7.30
   0   2   7   91.59    7.50
   0   2  -7   72.49    6.80
  -1  -2  -7    3.30    2.00
  -1  -2  -7    5.70    2.00
  -1  -2  -7    1.70    2.50
   1  -2   7    1.30    2.50
  -1  -2  -7    3.30    2.20
   1  -2   7    0.40    1.90
   1  -2   7    2.40    2.00
  -1  -2  -7    2.50    3.10
  -1  -2  -7    0.00    2.20
   1  -2   7    3.80    2.20
   1  -2   7    0.60    2.20
  -1  -2  -7    0.80    2.50
   1  -2   7   -1.40    2.70
   1  -2   7    4.40    3.00
  -1   2  -7    2.50    2.20
  -1   2  -7    2.80    1.80
   1   2   7    3.60    2.60
  -1   2  -7    1.60    3.10
  -1   2  -7    1.50    2.60
   1   2   7    3.50    2.90
   1   2   7    2.70    1.70
  -1   2  -7    0.40    2.20
  -1   2  -7    2.10    2.80
  -1   2  -7    0.30    2.30
   1   2   7    0.70    2.10
   1   2   7    0.90    2.10
   1   2   7    0.10    2.40
   1   2   7    4.30    2.30
   1   2   7    0.20    1.40
  -1   2  -7    2.60    2.50
  -2  -2  -7  653.63   44.20
   2  -2   7  812.72   44.90
   2  -2   7  827.82   45.40
  -2  -2  -7  659.83   44.50
   2  -2   7  803.32   45.10
  -2  -2  -7  681.33   44.50
   2  -2   7  747.23   44.90
  -2  -2  -7  682.23   44.80
  -2  -2  -7  653.43   44.60
   2  -2   7  806.82   45.80
   2  -2   7  799.62   44.30
   2  -2   7  812.32   44.70
  -2  -2  -7  689.43   44.80
  -2   2  -7  796.52   45.00
  -2   2  -7  802.12   44.90
  -2   2  -7  774.72   44.00
   2   2   7  674.93   44.40
   2   2   7  654.43   44.40
   2   2   7  669.93   44.80
   2   2   7  670.23   45.00
  -2   2  -7  774.62   44.80
   2   2   7  657.53   44.40
   2   2   7  655.73   43.80
   2   2   7  691.63   44.10
  -2   2  -7  861.11   45.60
   2   2   7  701.43   44.70
  -2   2  -7  824.12   43.90
  -2   2  -7  784.22   44.80
   3  -2   7   37.70    4.00
  -3  -2  -7   28.80    4.10
   3  -2   7   40.70    5.00
   3  -2   7   30.40    5.10
  -3  -2  -7   27.20    4.60
   3  -2   7   25.90    3.90
  -3  -2  -7   35.10    4.00
   3  -2   7   31.20    4.70
   3  -2   7   33.50    4.90
  -3  -2  -7   49.10    5.80
  -3  -2  -7   35.10    4.60
  -3  -2  -7   28.20    4.30
   3  -2   7   25.40    4.40
   3   2   7   28.30    4.60
   3   2   7   36.60    4.90
  -3   2  -7   41.10    5.00
   3   2   7   29.60    4.60
  -3   2  -7   36.30    5.50
   3   2   7   30.90    4.00
   3   2   7   34.40    4.40
  -3   2  -7   41.10    4.80
   3   2   7   36.80    4.60
   3   2   7   35.40    4.80
  -3   2  -7   29.20    3.60
  -3   2  -7   37.90    4.80
  -3   2  -7   32.60    3.90
   3   2   7   30.50    4.30
  -3   2  -7   38.30    5.00
  -4  -2  -7    2.50    3.40
   4  -2   7   11.70    3.70
   4  -2   7    8.60    2.10
  -4  -2  -7    7.10    3.80
   4  -2   7   10.60    3.20
  -4  -2  -7    1.80    3.60
   4  -2   7    8.80    7.20
   4  -2   7    5.60    2.80
   4  -2   7    3.40    2.90
  -4  -2  -7    0.30    2.60
  -4  -2  -7    8.90    3.80
   4  -2   7    6.70    2.80
   4   2   7    9.50    3.70
   4   2   7    0.20    3.10
  -4   2  -7    4.10    3.30
   4   2   7    1.80    3.60
   4   2   7    2.50    3.30
  -4   2  -7    9.60    3.30
   4   2   7    5.80    2.90
  -4   2  -7    2.20    3.80
   4   2   7   10.10    3.00
   4   2   7    8.00    2.40
   5  -2   7    7.40    4.20
   5  -2   7   13.40    3.90
  -5  -2  -7   11.40    4.40
  -5  -2  -7    9.90    3.70
   5  -2   7   13.80    2.40
   5  -2   7   12.40    3.10
  -5  -2  -7   12.40    4.20
  -5  -2  -7    0.50    3.00
   5  -2   7   18.00    3.80
   5  -2   7   10.30    4.10
  -5  -2  -7   12.50    3.50
   5  -2   7   18.80    4.20
   5   2   7   14.60    5.00
  -5   2  -7    6.50    3.40
  -5   2  -7   13.70    4.40
   5   2   7   11.80    3.60
   5   2   7    6.60    4.20
   5   2   7   12.00    3.10
  -5   2  -7    4.20    3.30
  -5   2  -7    8.80    3.30
  -5   2  -7   13.40    3.50
   5   2   7   14.90    3.80
   5   2   7   11.60    3.90
   5   2   7   21.30    4.40
  -5   2  -7   12.90    3.50
  -5   2  -7    8.10    3.80
  -6  -2  -7  127.99   12.00
   6  -2   7  144.59   11.00
  -6  -2  -7  121.89   11.10
   6  -2   7  124.89   11.30
   6  -2   7  139.49   11.00
   6  -2   7  140.69   12.50
  -6  -2  -7  155.68   11.50
   6  -2   7  136.99    9.40
   6  -2   7  151.58   11.90
  -6  -2  -7  149.29   10.60
  -6   2  -7  126.89   10.50
   6   2   7  141.19   11.00
   6   2   7  133.19   11.20
   6   2   7  133.79   11.10
  -6   2  -7  121.09   10.80
  -6   2  -7  141.89    9.90
   6   2   7  175.68   11.50
  -6   2  -7  153.58   12.50
   6   2   7  141.59   11.70
  -6   2  -7  134.39   11.20
  -6   2  -7  139.79   11.20
  -7  -2  -7   26.60    5.40
  -7  -2  -7   22.60    4.70
   7  -2   7   20.80    5.60
   7  -2   7   23.60    3.20
   7  -2   7   32.70    5.80
   7  -2   7   25.50    5.90
  -7  -2  -7   18.30    4.90
   7  -2   7   19.20    4.00
   7  -2   7   19.50    4.30
  -7   2  -7   21.60    2.70
   7   2   7   10.70    4.20
   7   2   7   23.00    4.50
   7   2   7   17.90    4.70
  -7   2  -7   20.40    4.00
   7   2   7   24.70    5.20
  -7   2  -7   21.00    4.80
   7   2   7   13.10    4.30
  -7   2  -7   29.40    5.00
  -7   2  -7   25.60    4.60
  -7   2  -7   20.90    5.00
   8  -2   7  139.79   12.40
  -8  -2  -7  121.59   11.40
  -8  -2  -7  110.29   11.50
   8  -2   7  123.39   12.50
   8   2   7  122.59   11.50
  -8   2  -7  119.79   10.90
   8   2   7  132.49   11.50
  -8   2  -7  127.29   11.70
  -8   2  -7  117.59   10.30
   8   2   7  124.49   11.00
  -9  -2  -7   93.49   15.10
   9  -2   7   82.69    9.80
   9  -2   7   90.19   10.70
  -9  -2  -7   77.79   10.00
  -9   2  -7   95.29   10.70
  -9   2  -7   68.59    9.30
   9   2   7   77.39    9.30
   9   2   7   84.69   10.30
   9   2   7   82.59    9.50
 -10  -2  -7   -2.70    4.70
  10  -2   7   -3.40    6.60
  10  -2   7   -0.30    5.50
 -10  -2  -7    3.40    6.20
  10   2   7    2.90    5.80
 -10   2  -7   10.10    5.70
  10   2   7    1.30    5.00
  10   2   7   -0.80    6.00
  -9  -3   7   52.89    6.20
   9  -3  -7   53.39    6.90
   9  -3  -7   58.09    6.10
  -9  -3   7   47.90    9.00
   9   3  -7   64.89   10.50
   9   3  -7   49.80    6.20
  -9   3   7   43.80   10.10
   9   3  -7   44.50    5.90
  -9   3   7   54.79    7.10
   9   3  -7   51.39    8.50
  -8  -3   7   64.89    7.70
   8  -3  -7   51.39    8.10
  -8  -3   7   65.59    8.20
   8  -3  -7   78.59    7.30
   8  -3  -7   53.59    6.40
  -8  -3   7   67.79    9.30
  -8   3   7   77.59   10.80
  -8   3   7   74.99    8.60
   8   3  -7   62.29    8.50
  -8   3   7   66.69    7.50
   8   3  -7   69.79    6.70
   8   3  -7   51.59    9.30
   8   3  -7   59.39    7.10
  -8   3   7   64.09   10.20
   7  -3  -7    6.10    4.50
  -7  -3   7    7.60    3.80
   7  -3  -7   11.40    2.50
  -7  -3   7   16.60    6.10
  -7  -3   7   10.00    4.20
  -7  -3   7    8.60    2.60
   7  -3  -7    7.50    3.00
   7  -3  -7   12.60    3.80
   7  -3  -7   15.50    3.90
  -7   3   7    9.90    6.50
   7   3  -7   14.10    3.30
   7   3  -7    4.70    4.80
  -7   3   7    8.10    2.40
   7   3  -7    6.60    5.70
  -7   3   7   -0.30    4.70
  -7   3   7    7.20    3.50
  -7   3   7    2.70    5.60
   7   3  -7   14.40    3.80
   6  -3  -7   42.40    5.00
   6  -3  -7   47.00    7.50
   6  -3  -7   48.20    5.10
  -6  -3   7   48.80    5.90
  -6  -3   7   56.99    6.80
  -6  -3   7   48.90    5.80
   6  -3  -7   39.40    5.40
  -6  -3   7   42.00    7.30
   6  -3  -7   56.99    5.60
   6   3  -7   42.80    6.70
  -6   3   7   49.40    6.10
  -6   3   7   51.09    8.00
  -6   3   7   51.49    5.50
   6   3  -7   48.30    6.00
   6   3  -7   45.40    5.00
  -6   3   7   48.40    6.30
  -6   3   7   47.90    7.80
   6   3  -7   35.40    5.20
   6   3  -7   58.39    8.30
  -5  -3   7  111.89   11.20
  -5  -3   7  109.39   10.40
   5  -3  -7  109.59   10.00
  -5  -3   7  103.09    9.00
   5  -3  -7  106.79    8.80
   5  -3  -7   96.69    9.30
   5  -3  -7  106.89    8.80
   5  -3  -7  123.99    8.50
   5   3  -7  112.89   11.70
  -5   3   7   90.19    9.90
   5   3  -7   98.29   10.10
  -5   3   7  117.39    9.30
  -5   3   7  119.69    9.10
  -5   3   7  113.79   11.50
   5   3  -7  105.69    8.90
   5   3  -7  107.09    8.50
  -5   3   7  107.99    9.10
   4  -3  -7   13.70    4.00
   4  -3  -7    9.70    3.20
   4  -3  -7    8.70    3.30
  -4  -3   7    6.50    4.10
  -4  -3   7   14.40    3.40
  -4  -3   7   10.80    4.90
   4  -3  -7   14.60    2.70
   4  -3  -7   12.40    3.20
  -4  -3   7   10.60    2.90
   4   3  -7   10.90    3.10
  -4   3   7   17.90    3.20
  -4   3   7   14.50    4.50
   4   3  -7    8.70    2.90
   4   3  -7   11.80    3.10
   4   3  -7   18.30    5.10
  -4   3   7   13.60    3.90
  -4   3   7   14.20    3.80
   4   3  -7   16.60    4.10
  -4   3   7    5.90    2.80
  -3  -3   7   57.89    7.60
  -3  -3   7   60.79    7.40
  -3  -3   7   60.09    6.70
   3  -3  -7   69.99    6.70
   3  -3  -7   63.69    7.10
   3  -3  -7   70.09    6.70
   3  -3  -7   75.79    6.50
   3  -3  -7   75.39    6.70
   3   3  -7   53.39    6.50
  -3   3   7   65.69    7.70
  -3   3   7   83.09    8.50
  -3   3   7   86.59    6.30
   3   3  -7   64.39    6.50
  -3   3   7   79.59    7.00
   3   3  -7   68.49    7.00
   3   3  -7   46.80    6.40
   3   3  -7   61.29    8.50
  -3   3   7   77.59    6.60
   2  -3  -7  109.79    9.30
   2  -3  -7  113.19    8.70
   2  -3  -7  111.39    8.80
   2  -3  -7  110.19    8.70
   2  -3  -7  104.79    8.60
   2  -3  -7   87.39    9.60
  -2  -3   7  110.29    8.80
  -2  -3   7   88.89    8.50
   2  -3  -7  122.29    9.50
  -2  -3   7  110.09   10.10
  -2  -3   7   95.99    9.80
  -2   3   7   93.59    9.30
   2   3  -7  119.49    8.90
  -2   3   7  110.79    9.00
  -2   3   7  106.89    8.20
   2   3  -7  121.09    9.70
  -2   3   7  102.39    9.60
   2   3  -7  109.79    9.00
  -2   3   7   98.99    8.30
   2   3  -7  119.09    8.80
  -2   3   7  103.79    9.80
   2   3  -7  102.29    8.70
   2   3  -7  115.79   10.70
   2   3  -7   99.79    9.90
   1  -3  -7  383.86   24.80
   1  -3  -7  393.16   24.40
  -1  -3   7  365.76   25.60
  -1  -3   7  370.86   25.30
  -1  -3   7  384.96   26.10
  -1  -3   7  366.86   24.60
  -1  -3   7  363.86   24.30
   1  -3  -7  417.66   25.00
   1  -3  -7  389.06   25.30
   1  -3  -7  398.16   24.60
   1  -3  -7  401.76   24.70
   1  -3  -7  442.06   24.80
  -1  -3   7  378.76   24.80
  -1   3   7  388.46   25.30
   1   3  -7  355.56   24.50
  -1   3   7  404.96   25.50
   1   3  -7  381.26   24.70
  -1   3   7  413.56   24.90
   1   3  -7  365.26   25.10
  -1   3   7  413.46   24.40
  -1   3   7  381.16   24.80
   1   3  -7  382.36   24.70
   1   3  -7  353.56   25.30
   1   3  -7  375.16   24.60
   1   3  -7  364.36   24.30
   0  -3  -7   12.40    3.70
   0  -3   7   15.60    4.90
   0  -3   7   15.70    4.00
   0  -3   7   10.60    4.30
   0  -3  -7    9.70    3.10
   0  -3  -7   14.60    3.40
   0  -3  -7   15.30    3.60
   0  -3   7   12.80    4.20
   0  -3  -7   12.10    3.90
   0  -3   7   18.90    3.10
   0  -3   7   11.20    2.90
   0  -3   7   15.10    3.50
   0  -3  -7   14.90    4.00
   0  -3   7    6.50    4.50
   0   3  -7   13.90    2.90
   0   3   7   11.00    3.30
   0   3   7   14.20    2.20
   0   3  -7   13.50    3.50
   0   3  -7    9.00    3.10
   0   3   7   12.60    1.70
   0   3   7   10.40    3.50
   0   3   7   16.40    3.50
   0   3   7   13.50    3.60
   0   3  -7   18.80    3.70
   0   3  -7   20.90    3.90
   0   3   7   16.20    3.60
   0   3   7   18.60    4.80
   0   3  -7    5.80    4.60
   0   3  -7   17.00    4.30
   1  -3   7  136.69   10.90
  -1  -3  -7  130.89   10.90
   1  -3   7  113.09   10.70
  -1  -3  -7  143.89   11.20
  -1  -3  -7  145.99   11.00
   1  -3   7  148.99   12.30
  -1  -3  -7  149.88   10.90
   1  -3   7  129.89   10.40
   1  -3   7  130.29    9.60
  -1  -3  -7  121.29   10.80
  -1  -3  -7  153.78   11.20
   1  -3   7  134.29   11.20
  -1  -3  -7  142.39   10.60
   1  -3   7  141.39   10.30
   1  -3   7  137.09   11.90
   1   3   7  142.09   10.90
  -1   3  -7  181.48   16.60
   1   3   7  144.79   10.50
  -1   3  -7  139.59   10.90
  -1   3  -7  143.09   10.10
   1   3   7  132.99    9.00
  -1   3  -7  144.69   12.10
   1   3   7  135.39   10.60
  -1   3  -7  151.58   11.00
   1   3   7  132.79   10.40
  -1   3  -7  126.19   10.90
   1   3   7  126.49   11.80
   1   3   7  124.09    9.80
   1   3   7  147.09   11.10
   2  -3   7    0.10    3.30
   2  -3   7    4.00    3.00
   2  -3   7   -1.00    4.20
  -2  -3  -7    3.20    2.90
   2  -3   7    3.60    3.20
  -2  -3  -7    6.70    4.30
  -2  -3  -7   -3.00    2.60
   2  -3   7    2.70    2.80
  -2  -3  -7   -5.00    2.90
  -2  -3  -7   -1.90    3.00
   2  -3   7   -5.60    3.00
   2  -3   7    0.10    3.80
  -2  -3  -7    2.10    2.50
  -2   3  -7    0.00    2.50
   2   3   7    2.80    2.50
  -2   3  -7    2.00    3.20
  -2   3  -7    0.10    2.90
   2   3   7   -5.10    2.60
   2   3   7   -1.50    1.70
   2   3   7    0.30    2.80
   2   3   7    1.90    2.50
   2   3   7   -4.10    2.70
  -2   3  -7   13.00    5.20
   2   3   7    2.10    4.10
  -2   3  -7    1.40    2.30
   2   3   7    2.20    3.40
  -2   3  -7   -1.50    2.80
   3  -3   7  334.77   21.40
  -3  -3  -7  278.37   21.00
   3  -3   7  322.27   22.30
  -3  -3  -7  294.17   21.40
  -3  -3  -7  284.17   20.40
   3  -3   7  354.56   21.10
   3  -3   7  307.97   19.80
  -3  -3  -7  292.97   20.60
   3  -3   7  343.67   22.20
  -3  -3  -7  284.87   20.20
   3  -3   7  364.16   20.90
  -3  -3  -7  280.97   20.70
   3  -3   7  324.07   21.30
  -3   3  -7  341.67   21.10
   3   3   7  276.87   20.80
   3   3   7  281.27   20.30
   3   3   7  279.67   21.60
   3   3   7  299.97   21.00
   3   3   7  289.17   20.10
   3   3   7  295.47   19.70
   3   3   7  286.27   20.50
  -3   3  -7  359.86   21.20
  -3   3  -7  359.36   22.60
  -3   3  -7  325.67   22.20
  -3   3  -7  342.27   21.10
   3   3   7  288.57   20.50
  -3   3  -7  339.77   19.40
  -3   3  -7  338.17   20.00
  -4  -3  -7    2.10    3.40
   4  -3   7    0.30    4.70
   4  -3   7    2.30    4.90
   4  -3   7    0.40    3.60
   4  -3   7   -2.00    3.40
  -4  -3  -7    3.60    3.80
  -4  -3  -7    0.40    4.60
   4  -3   7    2.20    4.60
  -4  -3  -7   -0.90    3.30
   4  -3   7   -4.50    3.40
   4  -3   7    6.40    2.40
  -4  -3  -7   -8.30    3.50
  -4  -3  -7    3.10    3.70
   4   3   7    2.70    4.40
   4   3   7   -3.70    2.80
   4   3   7    0.70    6.10
  -4   3  -7    6.90    4.70
  -4   3  -7    1.70    3.50
  -4   3  -7   -1.30    1.90
  -4   3  -7   -2.50    3.60
  -4   3  -7    5.00    3.20
   4   3   7   -6.90    3.80
  -4   3  -7   -2.40    5.30
   4   3   7   -1.40    3.90
   4   3   7   -1.60    2.30
   4   3   7    1.30    2.40
   4   3   7    0.80    5.40
  -4   3  -7    0.90    3.60
   5  -3   7  613.84   36.80
  -5  -3  -7  581.64   35.10
   5  -3   7  625.44   36.90
   5  -3   7  594.04   37.20
   5  -3   7  536.65   37.90
  -5  -3  -7  515.45   36.20
  -5  -3  -7  509.85   36.70
  -5  -3  -7  540.25   36.50
  -5  -3  -7  539.25   36.90
  -5   3  -7  566.94   34.10
  -5   3  -7  618.94   36.80
  -5   3  -7  612.04   36.70
  -5   3  -7  659.23   35.90
   5   3   7  542.05   36.40
   5   3   7  541.15   34.80
  -5   3  -7  604.34   37.60
   5   3   7  587.34   36.20
   5   3   7  538.85   36.00
   5   3   7  567.64   36.50
   5   3   7  569.84   35.60
  -5   3  -7  594.74   36.80
   6  -3   7  159.38   14.30
  -6  -3  -7  166.48   19.20
   6  -3   7  137.39   15.20
  -6  -3  -7  165.48   14.10
   6  -3   7  183.58   19.00
  -6  -3  -7  162.48   13.60
   6  -3   7  164.18   13.20
  -6  -3  -7  172.98   12.70
   6   3   7  165.08   13.40
   6   3   7  181.18   13.50
  -6   3  -7  171.38   16.50
   6   3   7  171.58   14.10
   6   3   7  166.38   13.20
  -6   3  -7  166.48   13.30
  -6   3  -7  152.88   12.60
   6   3   7  166.98   13.40
  -6   3  -7  149.99   14.80
  -6   3  -7  154.68   18.40
   7  -3   7    6.40    5.60
   7  -3   7   10.90    5.60
  -7  -3  -7   -1.30    5.00
  -7  -3  -7    4.30    4.90
  -7   3  -7   -7.20    3.40
  -7   3  -7    8.30    4.20
   7   3   7    9.60    4.50
  -7   3  -7   -0.40    5.00
   7   3   7   10.20    4.80
   7   3   7    0.70    4.40
  -8  -3  -7   69.89    9.20
   8  -3   7   51.29    8.70
  -8  -3  -7   74.59    9.20
   8  -3   7   62.79    9.00
  -8   3  -7   73.09    9.50
   8   3   7   71.49    8.60
   8   3   7   68.59    8.80
  -8   3  -7   73.29    8.60
   8   3   7   77.49    9.20
  -8   3  -7   64.79    9.50
  -9  -3  -7   22.90   12.40
   9  -3   7   13.60    6.40
   9  -3   7   18.10    8.10
  -9  -3  -7   16.60    6.30
   9   3   7   22.30    6.90
   9   3   7   15.60    5.50
  -9   3  -7    1.20    6.10
  -9   3  -7   10.00    6.30
   9   3   7   24.60    6.70
   8  -4  -7  158.58   17.20
  -8  -4   7  128.39   16.30
   8  -4  -7  157.38   12.50
  -8  -4   7  162.88   14.40
   8   4  -7  168.38   12.60
   8   4  -7  142.59   15.10
  -8   4   7  153.28   13.30
  -8   4   7  170.88   18.20
  -7  -4   7   48.20    8.50
   7  -4  -7   31.00    5.30
  -7  -4   7   34.10    6.80
   7  -4  -7   38.60    7.90
   7   4  -7   24.70    5.30
  -7   4   7   29.40    5.70
  -7   4   7   21.00    8.20
   7   4  -7   34.90    7.30
  -7   4   7   43.30    6.70
  -6  -4   7    6.40    6.90
  -6  -4   7   24.10    6.20
   6  -4  -7   40.30    5.40
   6   4  -7   37.90    5.40
  -6   4   7   33.80    7.40
   6   4  -7   23.20    5.70
   5  -4  -7  229.68   16.40
   5  -4  -7  233.98   16.10
   5  -4  -7  260.47   18.60
  -5  -4   7  230.08   19.00
  -5  -4   7  223.08   17.80
   5  -4  -7  209.98   17.30
   5   4  -7  214.38   16.30
  -5   4   7  225.18   16.00
  -5   4   7  240.28   16.90
  -5   4   7  234.38   19.00
   5   4  -7  220.08   16.20
   5   4  -7  218.88   17.00
  -4  -4   7  415.16   27.60
  -4  -4   7  355.66   29.10
   4  -4  -7  449.86   28.80
   4  -4  -7  452.85   27.50
   4  -4  -7  476.05   28.20
  -4  -4   7  388.76   29.20
   4  -4  -7  484.05   28.40
   4  -4  -7  462.65   27.80
  -4   4   7  447.76   27.40
  -4   4   7  478.85   30.10
   4   4  -7  386.66   28.10
  -4   4   7  451.65   29.10
  -4   4   7  463.55   28.50
   4   4  -7  400.26   27.90
   4   4  -7  394.06   27.60
  -4   4   7  472.95   27.40
   4   4  -7  357.46   27.60
  -3  -4   7   19.10    3.90
   3  -4  -7   21.60    4.80
   3  -4  -7   23.40    9.00
   3  -4  -7   19.70    4.50
   3  -4  -7   27.70    6.60
  -3  -4   7   23.10    6.60
  -3  -4   7   27.60    6.70
   3   4  -7   23.60    5.20
   3   4  -7   22.30    4.70
   3   4  -7   25.40    4.90
  -3   4   7   13.20    5.50
  -3   4   7   26.60    6.30
   3   4  -7   22.70    4.30
  -3   4   7   32.10    4.60
   2  -4  -7   67.89    7.70
  -2  -4   7   57.19    7.00
  -2  -4   7   58.09    7.10
   2  -4  -7   58.39    6.90
   2  -4  -7   60.09    7.60
  -2  -4   7   49.00    7.70
   2  -4  -7   48.00    6.30
  -2  -4   7   34.10    7.00
   2   4  -7   46.30    6.60
   2   4  -7   50.29    6.70
  -2   4   7   63.79    7.90
  -2   4   7   46.60    5.80
  -2   4   7   63.89    6.40
   2   4  -7   41.30    6.00
  -2   4   7   50.39    7.50
   2   4  -7   48.90    6.30
  -2   4   7   56.89    8.60
   1  -4  -7    7.60    4.10
  -1  -4   7   -5.30    4.70
  -1  -4   7    1.70    4.00
  -1  -4   7    3.70    5.10
   1  -4  -7    1.10    3.70
   1  -4  -7    2.30    3.40
   1  -4  -7    5.00    4.30
  -1  -4   7    3.50    4.20
   1   4  -7    5.60    5.90
  -1   4   7    3.30    3.90
  -1   4   7   12.60    6.40
   1   4  -7   -0.50    3.10
   1   4  -7    8.00    3.70
  -1   4   7    6.00    3.60
  -1   4   7    2.30    3.20
   1   4  -7   -4.20    4.90
   1   4  -7    4.50    4.10
   0  -4   7  451.95   30.70
   0  -4  -7  429.56   30.20
   0  -4   7  455.35   31.10
   0  -4  -7  472.55   30.00
   0  -4  -7  475.55   30.00
   0  -4  -7  498.55   29.90
   0  -4  -7  464.35   30.00
   0  -4   7  451.45   30.20
   0  -4   7  451.65   30.30
   0  -4   7  454.75   29.70
   0  -4   7  443.16   28.00
   0   4   7  460.35   29.20
   0   4  -7  477.65   28.90
   0   4  -7  471.75   30.20
   0   4   7  433.06   30.10
   0   4   7  462.45   30.30
   0   4   7  455.45   30.00
   0   4   7  466.25   29.60
   0   4  -7  445.16   29.80
   0   4   7  458.15   27.80
   0   4  -7  463.75   30.00
   0   4   7  470.25   27.70
   0   4  -7  466.65   29.40
   0   4   7  494.95   31.40
  -1  -4  -7   32.00    5.00
   1  -4   7   24.00    6.10
   1  -4   7   26.80    6.00
  -1  -4  -7   33.00    5.90
   1  -4   7   29.70    6.50
   1  -4   7   18.10    4.70
  -1  -4  -7   29.50    5.40
  -1  -4  -7   36.70    5.80
   1  -4   7   23.20    4.40
  -1  -4  -7   21.60    6.20
   1  -4   7   32.80    6.00
  -1  -4  -7   31.10    6.70
  -1   4  -7   27.40    4.70
   1   4   7   28.30    5.10
  -1   4  -7   29.40    4.70
  -1   4  -7   27.20    4.90
   1   4   7   31.00    5.80
  -1   4  -7   22.50    5.00
   1   4   7   36.90    5.60
   1   4   7   30.50    5.10
  -1   4  -7   27.40    6.80
   1   4   7   31.50    4.60
  -1   4  -7   28.10    4.10
   1   4   7   23.80    5.00
   1   4   7   28.00    3.30
   1   4   7   20.60    7.10
   2  -4   7  760.72   45.20
   2  -4   7  738.93   47.70
   2  -4   7  760.52   46.10
   2  -4   7  759.42   46.40
  -2  -4  -7  729.13   46.70
   2  -4   7  774.62   46.90
  -2  -4  -7  721.33   46.20
  -2  -4  -7  761.82   46.50
   2  -4   7  772.12   47.00
  -2  -4  -7  727.53   46.50
  -2  -4  -7  694.83   46.60
  -2  -4  -7  654.33   46.30
  -2   4  -7  767.32   47.80
   2   4   7  764.62   45.60
  -2   4  -7  754.82   46.50
   2   4   7  727.43   46.60
  -2   4  -7  761.82   46.60
   2   4   7  740.13   46.10
   2   4   7  710.93   45.90
   2   4   7  724.03   46.10
  -2   4  -7  755.62   45.00
  -2   4  -7  694.73   46.30
  -2   4  -7  830.42   45.20
  -2   4  -7  833.42   48.70
   2   4   7  729.23   44.80
   2   4   7  715.93   47.60
   2   4   7  772.82   46.80
  -3  -4  -7   77.59    8.80
   3  -4   7   63.59    8.60
   3  -4   7   74.99    9.80
  -3  -4  -7   69.09    8.60
   3  -4   7   85.99   10.80
  -3  -4  -7   72.09    9.00
   3  -4   7   70.79    8.90
   3  -4   7   63.99    8.30
  -3  -4  -7   53.49    7.30
  -3  -4  -7   56.99    8.40
  -3  -4  -7   89.59    9.50
  -3   4  -7   65.39    7.10
  -3   4  -7   88.49    9.10
   3   4   7   76.79    8.80
   3   4   7   79.69    8.70
   3   4   7   84.09    9.00
  -3   4  -7   70.99    6.30
  -3   4  -7   77.19    6.40
  -3   4  -7   90.09   10.80
   3   4   7   71.39    7.60
  -3   4  -7   52.19    8.50
  -3   4  -7   51.79    7.50
   3   4   7   64.09    6.70
   3   4   7   63.69    7.50
   3   4   7   84.39    8.50
  -3   4  -7   68.19    8.20
  -4  -4  -7   82.19   10.10
   4  -4   7  112.09   10.20
  -4  -4  -7   87.99   10.20
  -4  -4  -7   85.49   10.70
   4  -4   7  109.49   11.80
  -4  -4  -7   93.09   12.50
   4  -4   7  125.99   13.20
   4  -4   7  105.79   11.20
   4   4   7   94.49    9.80
  -4   4  -7   88.39   11.20
   4   4   7   94.69    9.70
  -4   4  -7  112.69    9.00
  -4   4  -7  105.49   11.50
  -4   4  -7  103.49    7.40
   4   4   7   97.09   10.50
   4   4   7   90.19   10.60
  -4   4  -7  113.49   11.00
   4   4   7   88.99    8.90
   4   4   7   79.79   10.60
   4   4   7   89.39    8.60
  -4   4  -7  146.09   13.60
   5  -4   7   44.30    7.90
  -5  -4  -7   21.50    5.70
   5  -4   7   32.80    9.10
  -5  -4  -7   27.30    5.90
   5   4   7   35.10    5.70
   5   4   7   32.50    5.70
  -5   4  -7   39.50    7.50
   5   4   7   31.80    4.80
  -5   4  -7   27.90    6.50
   5   4   7   27.00    7.20
  -5   4  -7   40.90    7.30
  -5   4  -7   34.00    5.10
   5   4   7   34.30    6.50
  -6  -4  -7   89.09   11.40
  -6  -4  -7   65.99    9.30
   6  -4   7  114.49   13.10
   6  -4   7   87.89   10.80
   6   4   7   99.89   10.70
  -6   4  -7   90.99   10.80
  -6   4  -7   94.39   12.30
   6   4   7   93.59   10.70
   6   4   7   74.79    9.50
  -7  -4  -7   10.40    5.90
  -7  -4  -7   11.70    7.00
   7  -4   7    4.80    7.80
   7  -4   7   12.40    6.30
   7   4   7    5.50    5.60
  -7   4  -7   18.40    6.70
  -7   4  -7   11.60    5.20
   7   4   7    4.60    5.80
  -7   4  -7   12.00    6.00
   7   4   7   20.90    5.80
   8  -4   7   74.39   10.90
   8  -4   7   64.79   10.60
  -8  -4  -7   76.99   10.30
  -8  -4  -7   68.19   10.50
  -8   4  -7   72.39   10.30
  -8   4  -7   83.09   10.80
   8   4   7   60.79    9.10
  -8   4  -7   63.09    9.40
   8   4   7   57.49    9.10
   8   4   7   78.29    9.50
   6  -5  -7    1.70    5.00
  -6  -5   7    1.90    6.40
  -6  -5   7    6.50    7.60
  -6   5   7   11.60    7.90
   6   5  -7   -5.00    5.10
   6   5  -7   -5.00    8.10
  -6   5   7    5.20    5.60
   6   5  -7    1.70    5.90
   5  -5  -7  111.29   14.60
  -5  -5   7  154.58   16.00
   5  -5  -7  159.68   13.30
  -5  -5   7   96.49   13.20
   5   5  -7  117.69   13.70
  -5   5   7  161.48   14.20
  -5   5   7  135.19   12.10
  -5   5   7  146.39   15.90
   5   5  -7  143.99   13.30
   4  -5  -7    7.70    5.30
  -4  -5   7   -0.70    7.20
  -4  -5   7  -10.80    6.20
   4  -5  -7   -1.90    5.20
   4   5  -7    2.30    5.20
  -4   5   7   -2.60    4.50
  -4   5   7   -1.10    6.90
   4   5  -7   -2.70    4.80
  -4   5   7   -4.70    5.60
   4   5  -7  -11.20    7.00
  -3  -5   7  250.27   20.30
  -3  -5   7  256.37   20.90
   3  -5  -7  218.58   18.80
   3  -5  -7  265.37   18.90
  -3   5   7  262.87   17.60
  -3   5   7  245.78   20.40
   3   5  -7  236.78   18.30
  -3   5   7  242.88   19.20
   3   5  -7  234.48   18.70
   2  -5  -7   62.29    8.10
  -2  -5   7   51.49    9.10
   2  -5  -7   50.49    7.60
  -2  -5   7   50.79    9.00
  -2   5   7   66.99    8.80
  -2   5   7   53.09    8.80
   2   5  -7   50.09    7.40
  -2   5   7   56.49    8.50
   2   5  -7   60.39   10.70
   2   5  -7   63.69    7.60
   1  -5  -7  172.68   15.00
   1  -5  -7  170.08   16.00
  -1  -5   7  195.68   19.30
  -1  -5   7  164.58   17.20
  -1  -5   7  191.38   17.20
   1   5  -7  211.48   17.20
  -1   5   7  191.18   14.50
   1   5  -7  186.48   18.00
   1   5  -7  181.68   15.50
  -1   5   7  186.08   16.50
  -1   5   7  173.48   16.00
  -1   5   7  191.88   15.20
   0  -5   7   58.39    9.70
   0  -5   7   46.70    8.80
   0  -5   7   53.49    9.40
   0  -5  -7   41.10    7.30
   0  -5  -7   50.69    7.90
   0  -5  -7   44.50    8.00
   0   5  -7   51.69    7.60
   0   5   7   53.89    5.10
   0   5  -7   48.90    9.40
   0   5   7   53.79    7.90
   0   5  -7   45.70    7.40
   0   5   7   62.09    7.20
   0   5   7   42.80    7.00
   0   5  -7   59.69    6.60
   0   5   7   63.99    9.70
  -1  -5  -7   30.50    6.60
   1  -5   7   23.70    5.80
  -1  -5  -7   17.20    5.90
   1  -5   7   25.60    8.20
   1  -5   7   25.30    7.90
  -1  -5  -7   27.70    6.40
   1  -5   7   26.90    7.40
   1   5   7   25.20    6.20
  -1   5  -7   26.90    4.90
   1   5   7   32.00    6.80
  -1   5  -7   23.10    6.20
   1   5   7   24.80    4.00
  -1   5  -7   39.20    6.80
  -1   5  -7   34.50    7.70
   1   5   7   33.70    5.60
   1   5   7   23.50    6.70
  -2  -5  -7   31.00    7.20
   2  -5   7   37.60    6.20
   2  -5   7   31.20    8.50
   2  -5   7   36.20    7.90
  -2  -5  -7   50.19    7.20
  -2  -5  -7   35.60    6.50
   2  -5   7   28.00    8.20
   2   5   7   36.00    4.90
  -2   5  -7   35.70    7.20
   2   5   7   48.70    7.90
  -2   5  -7   31.70    7.70
   2   5   7   50.79    7.50
   2   5   7   34.60    6.30
   2   5   7   31.90    6.70
  -2   5  -7   38.00    5.30
  -2   5  -7   36.30    7.40
   3  -5   7  137.89   16.10
   3  -5   7  152.38   14.90
  -3  -5  -7  128.09   13.50
   3  -5   7  142.09   11.70
   3  -5   7  119.29   13.40
  -3  -5  -7  102.49   13.20
  -3  -5  -7  118.69   13.00
  -3   5  -7  127.09   14.50
   3   5   7  130.09   12.40
  -3   5  -7  129.09   13.90
   3   5   7  111.39   12.00
   3   5   7  125.89   10.60
  -3   5  -7  140.39   14.20
   3   5   7  128.19   13.60
   3   5   7  114.59   13.20
   4  -5   7   19.50    8.00
   4  -5   7    9.00    5.30
  -4  -5  -7    3.10    6.40
   4  -5   7    9.10    7.40
  -4  -5  -7   11.20    7.20
   4   5   7   18.70    5.40
  -4   5  -7    6.20   10.60
  -4   5  -7   14.40    7.40
   4   5   7   16.50    6.40
   4   5   7   10.90    4.70
   4   5   7   22.70    5.40
   5  -5   7  312.67   20.90
  -5  -5  -7  252.87   21.80
   5  -5   7  329.77   23.50
  -5  -5  -7  279.17   22.50
   5  -5   7  336.37   23.80
   5   5   7  260.87   21.20
   5   5   7  240.98   20.70
  -5   5  -7  322.47   23.50
   5   5   7  244.78   21.40
  -5   5  -7  308.77   23.10
  -5   5  -7  296.17   20.10
   5   5   7  258.47   19.90
   6  -5   7   57.29   10.10
   6  -5   7   62.79   11.10
  -6  -5  -7   64.09   10.40
  -6  -5  -7   59.29   10.10
  -6   5  -7   44.90    9.00
   6   5   7   53.09    8.70
   6   5   7   40.90    7.40
  -6   5  -7   46.40   10.30
   6   5   7   67.89    9.50
  -6   5  -7   43.70    7.40
   3  -6  -7   18.30    7.90
  -3  -6   7    4.20    9.00
   3  -6  -7   17.40    7.50
  -3  -6   7   18.00   10.50
   3   6  -7   31.30    8.70
  -3   6   7   19.40    8.70
   3   6  -7   25.00    7.40
  -3   6   7   20.70    6.70
  -3   6   7   12.90    8.80
   3   6  -7   21.30    7.30
  -2  -6   7  328.97   27.10
   2  -6  -7  305.67   26.40
  -2  -6   7  366.76   30.10
   2  -6  -7  341.97   26.10
  -2   6   7  382.36   27.40
   2   6  -7  348.57   25.00
  -2   6   7  384.86   27.00
   2   6  -7  338.87   26.10
   2   6  -7  364.16   27.90
  -2   6   7  345.37   24.20
  -1  -6   7   -0.30   10.10
   1  -6  -7    6.40    7.50
  -1  -6   7    5.90    8.70
   1  -6  -7    8.70    9.30
   1   6  -7    7.80    7.50
  -1   6   7    8.10    7.20
   1   6  -7    9.80    7.30
   1   6  -7    0.00    6.00
  -1   6   7   -6.40    6.90
   0  -6   7   85.99   13.40
   0  -6  -7   98.99   12.70
   0  -6   7  117.49   14.20
   0   6   7   88.79   11.70
   0   6  -7  111.49   10.90
   0   6   7   99.59   11.60
   0   6  -7  101.49   13.50
   0   6  -7   97.09   12.80
   0   6   7   96.49   14.40
   1  -6   7   55.89   11.10
  -1  -6  -7   67.09   15.00
  -1  -6  -7   78.39   10.70
   1  -6   7   65.39   13.10
   1   6   7   69.99    8.90
  -1   6  -7   50.89   10.00
   1   6   7  107.19   18.60
  -1   6  -7   67.69   10.20
   1   6   7   73.99   10.60
   2  -6   7  139.79   15.90
  -2  -6  -7  135.59   16.20
  -2   6  -7  113.89   16.50
   2   6   7  165.58   15.60
   2   6   7  133.39   14.00
   3  -6   7   16.50   10.60
  -3  -6  -7   24.20    8.90
   3  -6   7   28.20   11.00
  -3   6  -7   30.20    9.40
   3   6   7   25.40    7.00
   3   6   7   41.60    7.80
  10   0  -8   27.60    6.10
 -10   0   8   18.60    5.10
  10   0  -8   24.80    7.30
  10   0  -8   25.60    6.80
   9   0  -8   15.00    5.60
   9   0  -8   20.10    4.90
  -9   0   8   10.30    4.00
   9   0  -8   15.90    6.10
  -8   0   8   47.20    6.10
   8   0  -8   56.09    6.30
   8   0  -8   66.39    8.70
  -8   0   8   55.89    4.10
   8   0  -8   45.20    6.60
  -8   0   8   52.99    4.30
   7   0  -8  136.99    8.40
   7   0  -8  133.69    8.40
  -7   0   8  124.19   10.80
  -7   0   8  135.29   12.90
   7   0  -8  115.99   11.40
  -7   0   8  139.69    8.80
  -7   0   8  139.09   10.20
   7   0  -8  137.09   10.00
  -6   0   8  198.58   14.20
  -6   0   8  206.08   13.20
   6   0  -8  204.48   15.50
   6   0  -8  215.18   14.70
  -6   0   8  203.58   13.70
  -6   0   8  220.58   15.50
  -6   0   8  207.78   13.00
   6   0  -8  199.58   12.70
   6   0  -8  201.38   12.70
   5   0  -8  845.52   50.99
   5   0  -8  840.82   51.49
  -5   0   8  842.22   50.69
  -5   0   8  901.21   52.89
   5   0  -8  824.92   52.19
   5   0  -8  851.91   53.09
   5   0  -8  881.91   51.09
  -5   0   8  851.41   51.19
   5   0  -8  873.61   51.89
  -5   0   8  883.11   50.69
  -5   0   8  865.91   51.39
   5   0  -8  883.81   55.29
  -5   0   8  857.11   51.79
   4   0  -8 1641.64   94.39
  -4   0   8 1667.83   95.99
   4   0  -8 1592.14   95.09
  -4   0   8 1528.65   94.49
  -4   0   8 1597.04   94.79
   4   0  -8 1624.04   94.69
   4   0  -8 1582.74   94.39
   4   0  -8 1622.24   95.49
  -4   0   8 1625.34   94.99
  -4   0   8 1649.54   94.59
   4   0  -8 1610.64   94.59
  -4   0   8 1628.54   95.19
   4   0  -8 1539.55   96.49
   4   0  -8 1651.33   96.39
   4   0  -8 1566.04   94.79
   3   0  -8   26.40    4.80
  -3   0   8   23.00    3.40
  -3   0   8   24.40    3.20
   3   0  -8   21.30    2.80
   3   0  -8   25.50    2.90
  -3   0   8   24.90    3.10
   3   0  -8   24.90    3.60
   3   0  -8   26.20    3.10
   3   0  -8   23.50    4.00
  -3   0   8   26.50    4.10
  -3   0   8   24.50    3.20
   3   0  -8   28.80    3.60
   3   0  -8   25.30    3.30
   3   0  -8   34.80    4.10
   2   0  -8  157.78   10.00
   2   0  -8  152.38   10.10
   2   0  -8  143.79   10.00
  -2   0   8  164.88   10.60
  -2   0   8  153.68   10.70
  -2   0   8  143.29   10.00
   2   0  -8  137.69   11.60
  -2   0   8  146.09   10.10
   2   0  -8  149.59   11.10
   2   0  -8  166.58   10.40
   2   0  -8  140.49   10.50
  -2   0   8  136.09   10.10
   2   0  -8  158.28   10.10
   2   0  -8  160.88   10.30
  -2   0   8  162.38   10.60
   1   0  -8    7.40    1.70
   1   0  -8    8.80    2.30
  -1   0   8   11.20    2.30
  -1   0   8   10.80    2.40
   1   0  -8    8.80    3.20
   1   0  -8    8.90    2.40
   1   0  -8    9.50    2.10
  -1   0   8    9.40    2.40
   1   0  -8    8.80    2.60
   1   0  -8   10.80    2.00
  -1   0   8    8.80    2.20
   1   0  -8    7.30    1.80
  -1   0   8    9.90    2.50
   1   0  -8    7.20    2.10
   0   0  -8 2569.04  137.69
   0   0  -8 2282.07  137.69
   0   0  -8 2412.96  138.79
   0   0  -8 2338.57  137.99
   0   0   8 2262.27  138.09
   0   0  -8 2270.27  137.99
   0   0   8 2390.36  138.49
   0   0  -8 2412.26  138.29
   0   0   8 2181.58  137.79
   0   0  -8 2284.67  137.99
   0   0   8 2459.45  137.99
   0   0  -8 2380.16  138.59
   0   0   8 2291.57  138.09
   0   0  -8 2298.87  137.89
  -1   0  -8  228.08   15.90
  -1   0  -8  247.78   16.10
  -1   0  -8  256.17   16.80
  -1   0  -8  256.27   16.20
   1   0   8  230.78   16.00
   1   0   8  261.47   16.20
  -1   0  -8  263.87   15.90
  -1   0  -8  246.88   16.20
  -1   0  -8  249.97   16.40
   1   0   8  247.08   16.60
   1   0   8  244.88   16.30
  -1   0  -8  259.37   16.00
  -1   0  -8  260.77   16.60
   1   0   8  259.27   16.30
   1   0   8  244.18   16.20
  -2   0  -8 3646.74  216.38
   2   0   8 3611.24  216.18
  -2   0  -8 3697.83  216.58
   2   0   8 3818.22  216.48
  -2   0  -8 3840.22  216.08
  -2   0  -8 3747.02  216.28
  -2   0  -8 3574.64  216.38
   2   0   8 3635.14  216.08
  -2   0  -8 3515.95  216.18
  -2   0  -8 3697.33  216.28
   2   0   8 3554.24  216.08
   2   0   8 3691.33  216.38
  -2   0  -8 3787.02  216.08
   2   0   8 3742.43  216.78
  -2   0  -8 3716.73  215.98
  -3   0  -8   21.10    3.30
   3   0   8   20.40    3.80
   3   0   8   19.80    3.90
  -3   0  -8   21.80    3.20
   3   0   8   16.70    3.10
  -3   0  -8   25.40    4.00
  -3   0  -8   20.60    3.90
  -3   0  -8   16.60    3.20
   3   0   8   18.40    3.10
   3   0   8   19.00    3.50
  -3   0  -8   19.30    3.10
  -3   0  -8   20.60    3.20
   3   0   8   19.60    3.70
  -3   0  -8   21.80    3.50
  -4   0  -8 1142.79   67.49
  -4   0  -8 1139.39   67.49
   4   0   8  986.60   69.19
   4   0   8 1156.78   67.49
  -4   0  -8 1159.48   67.19
  -4   0  -8 1160.38   68.09
   4   0   8 1146.19   67.59
  -4   0  -8 1111.59   67.69
  -4   0  -8 1073.89   67.29
   4   0   8 1160.48   67.79
   4   0   8 1136.99   67.69
  -4   0  -8 1098.39   67.49
   4   0   8 1146.39   67.19
  -4   0  -8 1151.98   66.89
   5   0   8  165.28   14.70
  -5   0  -8  156.68   12.50
   5   0   8  180.68   12.90
   5   0   8  181.38   12.00
   5   0   8  182.28   12.90
  -5   0  -8  169.28   11.30
  -5   0  -8  177.58   12.50
   5   0   8  174.88   12.60
   5   0   8  178.38   13.20
  -5   0  -8  172.28   13.00
  -5   0  -8  189.48   12.80
  -5   0  -8  172.48   12.80
  -5   0  -8  172.28   12.40
  -5   0  -8  183.28   11.30
   6   0   8  879.41   53.89
   6   0   8  869.91   53.19
  -6   0  -8  842.72   53.79
   6   0   8  897.51   54.09
   6   0   8  909.41   53.69
  -6   0  -8  878.61   53.49
  -6   0  -8  908.91   53.39
  -6   0  -8  897.71   54.19
  -6   0  -8  876.21   53.89
   6   0   8  878.91   54.39
  -7   0  -8    7.20    4.10
   7   0   8    6.70    3.10
   7   0   8    8.60    4.00
  -7   0  -8    2.70    3.70
   7   0   8   -0.90    4.40
  -7   0  -8    4.60    3.00
  -7   0  -8    0.10    3.30
   7   0   8   -0.60    4.20
   7   0   8    6.20    4.80
  -8   0  -8 1172.18   74.49
  -8   0  -8 1268.27   74.49
   8   0   8 1233.08   73.49
   8   0   8 1234.58   74.49
   8   0   8 1236.58   74.79
   9   0   8   55.69    7.70
   9   0   8   53.79    6.40
  -9   0  -8   30.80    6.40
  -9   0  -8   59.89    7.60
   9   0   8   48.30    7.90
  10   0   8  540.05   34.60
  10   0   8  516.35   34.90
  10   0   8  536.15   33.50
 -10   0  -8  513.55   34.30
  10  -1  -8   30.60    8.00
  10  -1  -8   33.60    6.90
  10  -1  -8   34.50    6.00
 -10  -1   8   47.40    6.10
  10   1  -8   20.80    7.60
  10   1  -8   26.80    7.20
 -10   1   8   26.70    5.70
  10   1  -8   23.80    6.30
   9  -1  -8  120.79    9.60
   9  -1  -8  124.19   11.50
  -9  -1   8  119.59   10.30
   9  -1  -8  106.89   12.70
  -9   1   8   98.99    9.90
   9   1  -8  118.09   12.20
   9   1  -8  111.89   12.70
   9   1  -8  128.19   11.70
  -8  -1   8  172.48   11.20
   8  -1  -8  173.08   10.40
  -8  -1   8  156.88   16.70
   8  -1  -8  179.68   13.70
   8  -1  -8  158.08   11.80
   8  -1  -8  163.88   10.20
   8  -1  -8  174.38   15.00
  -8  -1   8  178.48   12.60
  -8  -1   8  173.48   10.70
  -8   1   8  158.88   12.70
  -8   1   8  167.98   11.30
   8   1  -8  172.48   14.00
   8   1  -8  168.18   14.90
  -8   1   8  173.28   15.20
  -8   1   8  162.18   11.00
   7  -1  -8  235.08   15.60
  -7  -1   8  236.48   17.40
   7  -1  -8  227.38   18.30
   7  -1  -8  266.57   16.60
  -7  -1   8  239.98   15.80
   7  -1  -8  238.88   14.90
   7  -1  -8  239.18   15.10
  -7  -1   8  245.28   15.20
  -7  -1   8  245.28   16.20
   7   1  -8  245.28   14.90
   7   1  -8  253.57   17.60
  -7   1   8  249.38   15.70
  -7   1   8  266.07   17.90
  -7   1   8  226.48   16.40
   7   1  -8  255.57   15.10
  -7   1   8  239.48   15.40
   7   1  -8  229.68   20.00
   6  -1  -8    6.00    3.70
   6  -1  -8   12.20    2.20
  -6  -1   8   16.10    4.20
  -6  -1   8   12.90    2.40
  -6  -1   8   18.10    5.40
   6  -1  -8    8.50    3.20
  -6  -1   8   11.60    2.80
   6  -1  -8   11.00    2.20
   6  -1  -8   13.40    3.50
  -6  -1   8   13.80    2.90
   6  -1  -8   12.90    2.10
   6  -1  -8   10.50    4.40
   6   1  -8   11.40    4.60
   6   1  -8   10.20    1.90
  -6   1   8   10.60    4.90
  -6   1   8   12.20    4.50
  -6   1   8    9.20    3.00
   6   1  -8   12.20    2.20
   6   1  -8    9.70    4.90
  -6   1   8   14.50    2.70
  -6   1   8   10.00    2.40
   5  -1  -8  421.66   25.20
  -5  -1   8  416.56   26.40
  -5  -1   8  408.16   25.50
   5  -1  -8  392.96   25.90
   5  -1  -8  425.66   25.30
  -5  -1   8  441.76   27.40
  -5  -1   8  441.56   28.20
   5  -1  -8  397.66   26.90
  -5  -1   8  439.26   26.10
  -5  -1   8  428.86   25.70
   5  -1  -8  431.86   25.90
  -5  -1   8  426.76   25.80
   5  -1  -8  430.06   25.80
   5   1  -8  455.05   27.50
  -5   1   8  444.06   27.40
   5   1  -8  431.46   26.00
  -5   1   8  446.06   29.10
   5   1  -8  446.46   28.20
  -5   1   8  435.36   25.60
   5   1  -8  390.96   25.80
  -5   1   8  435.16   26.20
  -5   1   8  432.56   26.10
   4  -1  -8    1.70    1.50
   4  -1  -8    1.40    1.70
   4  -1  -8    3.50    2.60
  -4  -1   8    3.50    3.10
   4  -1  -8    2.20    3.70
   4  -1  -8    4.00    1.60
  -4  -1   8    3.70    3.00
  -4  -1   8    4.80    1.80
   4  -1  -8    2.40    1.70
   4  -1  -8    1.20    2.60
   4  -1  -8    3.40    2.00
  -4  -1   8    5.50    2.20
  -4  -1   8    5.60    2.20
   4   1  -8    0.20    3.10
   4   1  -8    3.50    2.00
  -4   1   8    0.70    1.70
  -4   1   8   -0.30    2.60
   4   1  -8    3.20    2.00
  -4   1   8   -0.30    3.40
   4   1  -8    1.20    3.60
   4   1  -8    5.20    1.70
  -4   1   8    4.40    2.10
   4   1  -8    0.80    2.90
   4   1  -8    4.50    1.70
  -4   1   8    5.50    2.00
  -4   1   8    2.40    2.00
   4   1  -8    2.00    1.50
   4   1  -8    7.30    4.10
   3  -1  -8 1981.30  112.29
  -3  -1   8 1863.01  112.39
  -3  -1   8 1870.61  112.79
  -3  -1   8 2005.60  113.29
  -3  -1   8 1847.22  113.69
   3  -1  -8 1946.11  112.39
   3  -1  -8 1882.01  112.39
  -3  -1   8 1868.71  112.19
   3  -1  -8 1876.71  112.59
  -3  -1   8 1948.41  113.49
   3  -1  -8 1961.80  112.39
   3  -1  -8 1893.71  111.79
   3  -1  -8 2028.10  113.89
   3  -1  -8 1820.32  112.59
   3   1  -8 1786.42  112.29
   3   1  -8 1950.30  113.89
   3   1  -8 1938.71  112.39
   3   1  -8 1924.41  112.99
  -3   1   8 1968.50  112.69
  -3   1   8 1911.31  112.99
  -3   1   8 1986.60  114.39
   3   1  -8 1842.92  112.99
   3   1  -8 1871.81  112.29
  -3   1   8 1986.40  111.99
  -3   1   8 1948.21  112.29
   3   1  -8 1873.41  112.39
  -3   1   8 1857.01  112.29
   3   1  -8 1798.42  114.19
   2  -1  -8  471.05   28.90
   2  -1  -8  468.85   30.10
  -2  -1   8  454.65   29.70
  -2  -1   8  475.05   29.10
  -2  -1   8  465.35   29.60
   2  -1  -8  490.25   29.10
   2  -1  -8  489.25   29.30
   2  -1  -8  468.15   28.90
  -2  -1   8  493.35   28.90
   2  -1  -8  476.25   29.10
   2  -1  -8  462.15   28.90
   2  -1  -8  465.35   28.30
  -2  -1   8  462.85   29.50
  -2  -1   8  450.75   29.00
  -2  -1   8  505.25   30.40
   2   1  -8  459.75   29.00
  -2   1   8  451.65   29.30
  -2   1   8  484.45   28.90
   2   1  -8  485.35   29.20
  -2   1   8  488.15   29.40
   2   1  -8  492.15   30.30
  -2   1   8  500.15   28.50
   2   1  -8  484.15   29.50
   2   1  -8  475.05   29.00
  -2   1   8  473.95   30.60
   2   1  -8  456.05   29.00
  -2   1   8  473.05   29.00
   2   1  -8  488.95   29.60
   1  -1  -8 2192.78  124.19
   1  -1  -8 2166.88  123.39
  -1  -1   8 2024.50  124.89
   1  -1  -8 2251.97  124.19
   1  -1  -8 2225.18  124.29
  -1  -1   8 2223.98  124.59
  -1  -1   8 1842.42  124.39
   1  -1  -8 2216.68  124.29
  -1  -1   8 1892.11  124.09
  -1  -1   8 2244.08  124.59
   1  -1  -8 2230.38  124.99
   1  -1  -8 2165.68  124.09
   1  -1  -8 2268.57  124.19
  -1  -1   8 1817.52  123.89
  -1   1   8 1814.42  123.99
  -1   1   8 2287.27  124.49
  -1   1   8 2232.38  124.19
   1   1  -8 2360.96  124.39
   1   1  -8 1767.72  123.99
   1   1  -8 1879.51  123.99
   1   1  -8 1973.40  124.29
  -1   1   8 2128.09  124.29
   1   1  -8 2161.68  125.19
  -1   1   8 2266.87  125.59
   1   1  -8 2024.50  124.09
  -1   1   8 2178.98  124.09
   1   1  -8 1937.61  124.19
  -1   1   8 2246.68  124.59
   0  -1   8   12.80    3.00
   0  -1  -8   18.20    2.20
   0  -1  -8    7.90    2.70
   0  -1   8   11.70    2.70
   0  -1   8   10.90    2.40
   0  -1  -8   12.30    2.40
   0  -1   8   17.00    3.50
   0  -1  -8   12.60    2.30
   0  -1  -8   19.70    3.30
   0  -1  -8   12.20    3.10
   0  -1  -8   18.40    2.90
   0  -1   8   15.80    2.70
   0  -1   8   17.30    3.40
   0  -1  -8   14.90    3.10
   0  -1  -8   14.00    2.80
   0   1  -8   13.50    2.80
   0   1   8   10.50    2.60
   0   1  -8   12.20    2.50
   0   1   8   17.60    3.20
   0   1  -8   15.20    3.30
   0   1  -8   14.70    2.60
   0   1   8   15.60    2.30
   0   1  -8   10.80    2.80
   0   1  -8   14.00    2.50
   0   1   8   16.60    3.10
   0   1  -8   15.90    3.20
   0   1   8   12.10    2.80
  -1  -1  -8  206.68   14.00
  -1  -1  -8  172.48   14.20
  -1  -1  -8  190.58   13.60
  -1  -1  -8  203.58   13.80
   1  -1   8  201.18   13.90
   1  -1   8  208.78   14.90
  -1  -1  -8  204.18   14.00
   1  -1   8  222.28   14.00
  -1  -1  -8  196.88   13.90
   1  -1   8  233.98   14.60
   1  -1   8  215.58   13.90
   1  -1   8  226.68   13.90
  -1  -1  -8  221.48   13.30
  -1  -1  -8  190.48   14.10
   1  -1   8  222.28   14.40
  -1  -1  -8  201.18   13.80
  -1   1  -8  204.28   13.90
   1   1   8  202.38   14.10
   1   1   8  201.18   13.80
  -1   1  -8  214.38   13.90
   1   1   8  195.08   13.80
  -1   1  -8  216.18   14.10
  -1   1  -8  223.48   14.50
   1   1   8  206.88   14.30
  -1   1  -8  212.08   13.80
  -1   1  -8  222.58   13.10
   1   1   8  188.98   13.30
  -1   1  -8  205.78   13.60
  -1   1  -8  231.78   14.50
   2  -1   8   52.89    6.10
   2  -1   8   40.00    5.10
  -2  -1  -8   41.90    5.40
  -2  -1  -8   43.90    5.10
  -2  -1  -8   46.00    4.90
   2  -1   8   44.90    5.30
  -2  -1  -8   42.00    4.90
  -2  -1  -8   39.90    4.40
   2  -1   8   49.60    5.40
  -2  -1  -8   42.50    4.40
  -2  -1  -8   41.60    4.90
  -2  -1  -8   37.20    4.80
   2  -1   8   36.70    4.80
  -2  -1  -8   46.60    5.00
   2  -1   8   44.20    4.80
   2  -1   8   38.10    4.40
   2   1   8   42.50    4.60
  -2   1  -8   40.40    5.00
  -2   1  -8   41.30    4.60
   2   1   8   46.70    5.50
  -2   1  -8   49.40    5.20
  -2   1  -8   35.90    5.00
  -2   1  -8   53.39    5.40
   2   1   8   42.90    5.10
  -2   1  -8   39.90    4.50
  -2   1  -8   37.70    4.20
   2   1   8   44.60    5.00
   2   1   8   42.40    4.80
   2   1   8   51.39    5.70
  -2   1  -8   38.80    4.80
  -3  -1  -8 2247.08  135.39
   3  -1   8 2254.87  135.59
   3  -1   8 2378.76  136.29
   3  -1   8 2420.36  136.39
  -3  -1  -8 2320.67  136.19
   3  -1   8 2263.37  136.79
  -3  -1  -8 2351.56  136.39
   3  -1   8 2270.47  136.29
  -3  -1  -8 2302.97  136.29
  -3  -1  -8 2295.07  135.59
   3  -1   8 2368.26  135.99
   3  -1   8 2334.17  135.99
  -3  -1  -8 2302.77  135.89
  -3  -1  -8 2354.46  135.99
  -3  -1  -8 2241.48  135.39
  -3  -1  -8 2246.88  135.89
  -3   1  -8 2255.97  135.89
  -3   1  -8 2293.47  135.49
  -3   1  -8 2279.77  135.59
   3   1   8 2286.17  136.09
  -3   1  -8 2331.27  136.19
  -3   1  -8 2271.47  136.09
   3   1   8 2184.18  135.69
   3   1   8 2323.57  136.59
   3   1   8 2329.47  136.09
  -3   1  -8 2375.76  136.59
  -3   1  -8 2346.57  136.09
   3   1   8 2304.67  135.89
   3   1   8 2305.87  136.29
  -4  -1  -8  120.49    9.30
   4  -1   8  121.99    9.70
  -4  -1  -8  115.39    7.80
   4  -1   8  119.99    9.10
  -4  -1  -8  111.49    9.10
   4  -1   8  120.89    9.00
  -4  -1  -8  122.89    8.00
  -4  -1  -8  123.79    9.80
   4  -1   8   94.39   10.60
   4  -1   8  119.79    9.70
   4  -1   8  123.79    8.60
  -4  -1  -8  128.69    9.60
  -4  -1  -8  118.69    9.00
   4  -1   8  121.49    9.70
  -4  -1  -8  112.39    9.30
  -4   1  -8  116.79    9.60
   4   1   8  104.59   10.20
  -4   1  -8  119.29    9.10
   4   1   8  116.59    9.10
  -4   1  -8  110.79    9.30
   4   1   8  123.99    9.30
  -4   1  -8  102.49    9.60
  -4   1  -8  116.39    9.30
  -4   1  -8  124.59    8.60
  -4   1  -8  118.79   10.40
   4   1   8  108.29    8.90
   4   1   8  121.09    9.20
   4   1   8  116.09   10.00
  -5  -1  -8 1196.48   72.79
  -5  -1  -8 1207.68   72.79
   5  -1   8 1269.17   72.59
  -5  -1  -8 1172.18   72.89
   5  -1   8 1204.98   71.79
   5  -1   8 1294.17   72.09
  -5  -1  -8 1166.98   72.49
  -5  -1  -8 1218.68   72.39
  -5  -1  -8 1177.48   72.49
   5  -1   8 1215.38   72.89
   5  -1   8 1234.58   73.89
  -5  -1  -8 1185.68   72.49
   5  -1   8 1212.68   72.79
   5  -1   8 1163.98   72.79
   5   1   8 1277.97   72.69
  -5   1  -8 1189.88   72.39
  -5   1  -8 1215.48   72.69
  -5   1  -8 1195.18   72.79
  -5   1  -8 1210.28   72.59
  -5   1  -8 1251.87   71.89
   5   1   8 1204.48   72.69
  -5   1  -8 1204.28   73.19
   5   1   8 1264.17   72.69
   5   1   8 1174.78   72.89
   5   1   8 1176.58   72.29
  -5   1  -8 1177.28   71.99
   6  -1   8   24.30    5.30
   6  -1   8   26.20    3.60
   6  -1   8   19.50    4.60
   6  -1   8    9.30    3.50
  -6  -1  -8   13.20    4.20
  -6  -1  -8   17.90    4.20
  -6  -1  -8   17.40    3.60
  -6  -1  -8   22.30    4.60
   6  -1   8   19.30    3.10
   6  -1   8   19.20    4.70
   6   1   8   15.70    4.00
  -6   1  -8   25.20    4.60
   6   1   8   19.80    3.70
   6   1   8   18.30    4.50
   6   1   8    9.70    3.90
  -6   1  -8   28.70    4.00
  -6   1  -8   20.00    5.00
  -6   1  -8   15.60    3.20
  -6   1  -8   17.40    3.80
  -6   1  -8   21.40    4.10
   6   1   8   14.10    3.80
  -7  -1  -8  339.37   23.50
   7  -1   8  352.06   21.50
  -7  -1  -8  330.97   23.10
  -7  -1  -8  338.47   22.50
   7  -1   8  354.26   24.10
   7  -1   8  334.37   23.50
  -7  -1  -8  355.26   23.40
   7  -1   8  370.96   23.80
   7  -1   8  358.56   22.70
   7  -1   8  337.97   21.80
  -7   1  -8  339.47   23.60
   7   1   8  329.67   23.00
   7   1   8  356.16   23.60
   7   1   8  335.77   22.80
  -7   1  -8  361.36   23.20
  -7   1  -8  356.56   22.80
  -7   1  -8  360.56   23.40
  -7   1  -8  331.87   22.10
   7   1   8  355.96   22.90
   7   1   8  365.56   23.40
  -7   1  -8  335.97   21.50
   8  -1   8  141.49   12.30
  -8  -1  -8  125.89   11.60
   8  -1   8  140.59    9.80
  -8  -1  -8  117.29   11.20
   8  -1   8  111.19   12.10
   8   1   8  144.69   11.40
  -8   1  -8  130.19   11.60
   8   1   8  141.29   11.60
  -8   1  -8  124.99   11.80
   8   1   8  125.19   11.90
   9  -1   8  185.78   15.20
   9  -1   8  174.98   12.20
  -9  -1  -8  151.58   14.00
   9  -1   8  179.28   15.40
  -9  -1  -8  150.08   14.00
  -9   1  -8  170.38   14.50
  -9   1  -8  179.98   14.70
   9   1   8  145.59   13.90
   9   1   8  182.38   14.10
   9   1   8  159.98   14.50
 -10  -1  -8   -3.10    5.40
  10  -1   8    4.40    5.80
  10  -1   8   -2.50    7.20
 -10  -1  -8    2.40    4.70
  10   1   8    5.10    4.70
 -10   1  -8   -6.60    5.20
  10   1   8   -3.00    6.20
  10   1   8  -11.30    5.50
 -10  -2   8   97.09    6.90
  10  -2  -8  114.79   11.10
  10  -2  -8   92.99   12.30
 -10   2   8  105.79   14.80
 -10   2   8   93.29    7.60
  10   2  -8   69.59   10.70
  10   2  -8  123.19   13.10
  10   2  -8   81.49   11.90
 -10   2   8  101.69    9.00
  -9  -2   8    0.30    3.00
  -9  -2   8    2.90    2.60
  -9  -2   8    0.30    6.00
   9  -2  -8   -4.00    4.60
   9  -2  -8    0.20    1.70
   9  -2  -8    2.30    2.30
  -9   2   8   11.90    8.10
  -9   2   8    4.40    4.40
  -9   2   8    8.30    4.40
  -9   2   8    2.80    7.30
  -9   2   8   -0.40    2.60
   9   2  -8    2.20    1.70
   9   2  -8   -6.20    5.50
   9   2  -8    1.40    6.30
   8  -2  -8    7.50    2.40
  -8  -2   8    2.10    5.70
   8  -2  -8   -0.30    4.10
   8  -2  -8    5.30    2.60
  -8  -2   8    6.10    2.70
  -8  -2   8    3.00    3.20
   8  -2  -8    2.70    2.00
  -8   2   8    6.50    2.70
   8   2  -8   -1.60    5.10
   8   2  -8   -4.10    4.90
  -8   2   8    3.50    6.00
  -8   2   8    6.00    4.10
  -8   2   8   -1.00    3.70
   8   2  -8    1.10    2.10
   8   2  -8    4.60    2.20
  -8   2   8   17.90    5.80
   7  -2  -8   -1.30    2.10
   7  -2  -8    2.80    4.10
  -7  -2   8    1.80    3.10
   7  -2  -8    0.40    2.00
  -7  -2   8   -8.90    4.50
   7  -2  -8    0.80    2.40
   7  -2  -8   -0.60    3.60
  -7  -2   8   -2.40    2.30
  -7   2   8   -1.20    4.60
  -7   2   8   -1.90    3.60
   7   2  -8   -1.00    2.10
   7   2  -8    4.10    2.20
  -7   2   8   -5.30    4.90
   7   2  -8    2.50    4.60
   7   2  -8   -1.30    4.40
  -7   2   8    2.30    2.50
   6  -2  -8  178.08   12.50
   6  -2  -8  198.48   12.20
  -6  -2   8  202.68   13.90
   6  -2  -8  175.28   14.00
  -6  -2   8  200.08   13.00
  -6  -2   8  192.68   12.20
   6  -2  -8  197.28   12.90
  -6  -2   8  189.38   15.70
   6  -2  -8  172.18   13.90
  -6   2   8  192.68   14.30
  -6   2   8  198.98   12.30
   6   2  -8  188.28   12.90
  -6   2   8  192.78   14.00
  -6   2   8  200.78   16.40
   6   2  -8  194.18   14.70
  -6   2   8  184.68   13.00
   6   2  -8  193.28   12.70
   5  -2  -8  134.69   11.70
   5  -2  -8  149.99   10.80
   5  -2  -8  153.98   10.00
   5  -2  -8  153.38   11.40
  -5  -2   8  154.38   12.80
  -5  -2   8  155.38   10.60
  -5  -2   8  148.69   11.00
   5  -2  -8  143.99   10.50
  -5  -2   8  151.48   11.80
  -5   2   8  150.68   11.70
  -5   2   8  149.79   11.00
   5   2  -8  163.98   10.10
  -5   2   8  157.28   13.80
   5   2  -8  156.38   10.80
  -5   2   8  152.58   10.30
   5   2  -8  160.08   12.20
   5   2  -8  142.89   10.60
  -5   2   8  159.08   11.90
   5   2  -8  152.28   13.20
  -4  -2   8  961.80   58.99
   4  -2  -8 1016.60   60.49
  -4  -2   8 1046.10   60.79
   4  -2  -8 1043.00   59.09
   4  -2  -8  983.70   59.69
  -4  -2   8 1015.80   60.39
  -4  -2   8  981.90   59.79
   4  -2  -8  981.80   59.29
   4  -2  -8 1019.60   58.79
   4   2  -8  947.41   59.09
   4   2  -8  884.61   59.09
  -4   2   8 1003.70   61.19
   4   2  -8  912.41   59.09
  -4   2   8 1043.40   58.89
  -4   2   8 1039.30   59.39
   4   2  -8  941.71   60.19
  -4   2   8  996.60   59.49
   4   2  -8  982.50   60.89
   3  -2  -8    8.70    2.20
  -3  -2   8    8.30    2.40
  -3  -2   8   12.00    4.00
   3  -2  -8    4.40    2.10
  -3  -2   8    9.20    3.00
   3  -2  -8    5.40    3.10
   3  -2  -8   10.70    4.00
   3  -2  -8   10.40    3.30
  -3  -2   8   10.20    2.90
   3  -2  -8    5.40    2.60
   3  -2  -8    8.40    2.30
  -3  -2   8    4.40    3.60
  -3  -2   8    9.90    4.40
  -3  -2   8    8.40    2.50
   3   2  -8    6.70    3.00
   3   2  -8   10.90    2.80
   3   2  -8    6.90    3.90
   3   2  -8   10.00    3.60
  -3   2   8   10.50    2.90
  -3   2   8    6.90    2.80
   3   2  -8    7.80    2.40
  -3   2   8    9.10    2.20
  -3   2   8    9.60    3.80
   3   2  -8    5.50    4.30
   3   2  -8    8.40    2.50
  -3   2   8    8.30    2.90
  -3   2   8    7.00    2.80
  -2  -2   8  494.95   35.70
  -2  -2   8  496.25   33.70
   2  -2  -8  621.74   33.90
  -2  -2   8  513.15   33.40
   2  -2  -8  628.04   34.20
   2  -2  -8  620.64   36.40
  -2  -2   8  507.15   34.80
  -2  -2   8  486.65   34.20
  -2  -2   8  496.85   34.20
   2  -2  -8  615.84   33.70
  -2  -2   8  498.95   34.20
   2  -2  -8  588.04   34.80
   2  -2  -8  583.04   33.90
   2  -2  -8  591.04   33.60
   2   2  -8  517.45   34.10
   2   2  -8  520.45   34.90
   2   2  -8  496.05   33.50
  -2   2   8  582.54   33.80
  -2   2   8  581.04   33.90
   2   2  -8  503.75   33.80
   2   2  -8  485.25   33.50
   2   2  -8  492.45   34.20
   2   2  -8  499.25   33.60
  -2   2   8  601.14   34.30
  -2   2   8  619.04   35.20
  -2   2   8  621.04   34.10
  -2   2   8  577.24   33.90
  -1  -2   8    0.00    2.90
   1  -2  -8    2.00    2.50
  -1  -2   8    1.70    2.90
   1  -2  -8    0.70    2.20
  -1  -2   8   -3.30    1.90
   1  -2  -8    1.10    1.90
  -1  -2   8   -2.20    3.10
  -1  -2   8    0.80    2.00
  -1  -2   8    1.40    2.20
  -1  -2   8    0.50    2.50
   1  -2  -8   -2.60    2.10
   1  -2  -8    6.60    2.80
   1  -2  -8   -2.00    2.60
   1  -2  -8    2.80    3.00
  -1   2   8    4.30    1.70
   1   2  -8    0.10    1.90
   1   2  -8    4.50    3.00
  -1   2   8    1.90    2.30
  -1   2   8   -0.40    2.30
   1   2  -8    0.60    2.50
   1   2  -8   -0.70    1.90
  -1   2   8    0.30    2.30
   1   2  -8   -1.60    2.70
  -1   2   8   -0.10    2.70
   1   2  -8    0.90    3.40
   1   2  -8   -0.10    2.10
  -1   2   8    4.20    2.50
   0  -2   8  654.23   44.70
   0  -2  -8  788.72   44.80
   0  -2  -8  658.93   44.80
   0  -2  -8  770.32   45.20
   0  -2   8  737.13   45.70
   0  -2   8  787.72   45.40
   0  -2  -8  754.12   44.80
   0  -2  -8  657.23   44.90
   0  -2  -8  789.92   45.20
   0   2   8  800.12   44.90
   0   2   8  737.03   43.80
   0   2  -8  601.84   45.50
   0   2   8  722.23   45.30
   0   2   8  789.02   45.30
   0   2   8  777.72   47.30
   0   2   8  826.32   45.20
   1  -2   8  242.18   17.30
   1  -2   8  237.58   16.40
   1  -2   8  257.67   17.30
  -1  -2  -8  251.87   16.50
   1  -2   8  250.47   17.10
  -1  -2  -8  264.57   17.10
  -1  -2  -8  256.57   16.50
   1  -2   8  240.68   16.90
  -1  -2  -8  255.97   16.90
   1  -2   8  242.68   16.30
  -1  -2  -8  259.07   16.90
  -1  -2  -8  232.48   16.50
   1   2   8  246.38   16.80
   1   2   8  252.97   16.60
  -1   2  -8  239.98   16.40
   1   2   8  250.37   15.50
  -1   2  -8  255.67   16.60
  -1   2  -8  234.38   16.80
   1   2   8  244.28   16.40
  -1   2  -8  238.08   16.10
   1   2   8  256.07   16.80
  -1   2  -8  251.17   17.30
   1   2   8  247.78   17.40
  -1   2  -8  236.28   16.70
  -1   2  -8  267.47   17.80
  -1   2  -8  245.88   15.40
   1   2   8  257.67   17.00
   2  -2   8 3264.37  168.28
  -2  -2  -8 2641.24  167.98
   2  -2   8 3193.08  169.18
   2  -2   8 3006.00  168.28
   2  -2   8 3107.89  168.38
  -2  -2  -8 2675.73  168.08
  -2  -2  -8 2455.05  167.58
  -2  -2  -8 2781.42  168.08
  -2  -2  -8 2666.53  166.98
   2  -2   8 3099.29  167.68
  -2  -2  -8 2601.94  167.48
  -2  -2  -8 2626.64  167.78
   2  -2   8 3262.37  168.08
  -2  -2  -8 2576.74  167.68
   2   2   8 2533.25  167.58
   2   2   8 2546.35  167.68
  -2   2  -8 3158.98  168.18
  -2   2  -8 3075.19  168.08
  -2   2  -8 2834.32  167.88
   2   2   8 2590.14  168.08
  -2   2  -8 3086.29  167.28
   2   2   8 2706.03  168.38
   2   2   8 2739.13  167.38
   2   2   8 2549.34  167.08
  -2   2  -8 3322.97  168.88
  -2   2  -8 3121.99  167.08
   2   2   8 2706.83  167.88
  -2   2  -8 3081.59  168.18
   2   2   8 2668.63  167.78
  -3  -2  -8   -0.60    2.40
  -3  -2  -8   -2.20    3.10
  -3  -2  -8    5.20    4.10
   3  -2   8    6.50    3.00
  -3  -2  -8    2.90    2.90
   3  -2   8    1.50    3.10
   3  -2   8   -1.20    2.00
  -3  -2  -8    2.40    2.80
   3  -2   8    1.40    3.50
   3  -2   8   -2.00    3.20
  -3  -2  -8    2.60    4.20
   3  -2   8   -5.10    4.80
   3  -2   8    2.10    3.00
  -3  -2  -8   -0.30    2.20
  -3  -2  -8   -1.50    2.60
   3   2   8    4.20    2.50
   3   2   8    1.00    2.70
  -3   2  -8    1.60    2.70
   3   2   8   -3.90    2.40
   3   2   8    2.20    3.60
  -3   2  -8    0.80    2.90
  -3   2  -8    4.70    2.90
  -3   2  -8    2.10    2.10
   3   2   8    0.90    3.10
  -3   2  -8    1.20    2.20
  -3   2  -8   -9.50    3.50
   3   2   8    2.10    2.20
   3   2   8    2.40    3.20
   3   2   8    6.50    3.20
  -4  -2  -8  636.94   39.90
  -4  -2  -8  594.44   39.40
  -4  -2  -8  590.54   39.10
  -4  -2  -8  591.54   38.10
   4  -2   8  674.73   39.80
  -4  -2  -8  603.74   39.50
   4  -2   8  608.34   40.50
  -4  -2  -8  597.34   38.10
   4  -2   8  542.55   38.30
   4  -2   8  630.64   39.50
   4  -2   8  714.73   39.70
   4  -2   8  680.93   39.30
   4  -2   8  680.43   39.90
   4   2   8  634.44   39.40
  -4   2  -8  641.74   39.50
  -4   2  -8  694.13   38.30
  -4   2  -8  740.43   39.80
   4   2   8  590.84   39.90
  -4   2  -8  715.23   40.10
   4   2   8  634.04   39.60
   4   2   8  591.74   39.80
  -4   2  -8  689.33   40.30
   4   2   8  598.74   39.20
   4   2   8  602.94   38.80
  -4   2  -8  697.03   39.70
   4   2   8  597.94   39.20
  -5  -2  -8   87.09    8.50
   5  -2   8   67.69   10.30
  -5  -2  -8   77.89    7.90
   5  -2   8   69.49    9.70
  -5  -2  -8   81.49   10.70
   5  -2   8   58.99    6.10
   5  -2   8   87.59    7.90
   5  -2   8   74.09    8.30
   5  -2   8   66.49    8.10
  -5   2  -8   73.59    9.30
  -5   2  -8   75.79    8.00
   5   2   8   79.09    8.60
  -5   2  -8   75.19    6.40
   5   2   8   73.59    8.80
  -5   2  -8   96.19   10.80
   5   2   8   78.29    7.90
  -5   2  -8   61.69   10.10
  -5   2  -8   71.19    8.00
   5   2   8   75.69    7.90
  -5   2  -8   81.29    7.30
   5   2   8   71.99    7.20
   6  -2   8  684.03   44.90
  -6  -2  -8  705.73   43.50
   6  -2   8  775.82   43.80
   6  -2   8  683.03   42.40
   6  -2   8  697.43   44.40
  -6  -2  -8  714.23   44.40
   6  -2   8  715.43   44.50
   6  -2   8  714.83   43.70
  -6  -2  -8  690.13   44.00
   6   2   8  692.23   44.80
  -6   2  -8  678.53   43.50
   6   2   8  724.93   43.90
   6   2   8  742.93   44.20
   6   2   8  708.03   43.70
   6   2   8  711.03   44.30
  -6   2  -8  738.93   42.40
  -6   2  -8  708.33   44.80
  -6   2  -8  661.93   44.00
  -6   2  -8  684.23   43.50
  -7  -2  -8   12.20    4.60
   7  -2   8   10.50    7.30
   7  -2   8   17.90    4.30
   7  -2   8   17.60    3.00
   7  -2   8   13.00    5.80
   7  -2   8   12.00    5.00
  -7  -2  -8   19.60    5.50
  -7   2  -8   17.10    5.10
   7   2   8   12.00    4.50
   7   2   8   15.60    4.40
   7   2   8   25.50    5.30
  -7   2  -8   10.40    3.90
  -7   2  -8   15.40    3.90
   8  -2   8 1082.89   64.29
   8  -2   8 1019.70   63.99
  -8  -2  -8 1034.70   64.19
  -8  -2  -8 1060.39   63.79
  -8   2  -8 1004.70   63.79
   8   2   8 1084.39   63.69
   8   2   8 1046.90   63.49
  -8   2  -8  988.20   62.29
  -8   2  -8 1015.60   63.49
   8   2   8 1043.80   63.39
  -9  -2  -8    4.60    5.60
  -9  -2  -8    3.40    5.60
   9  -2   8   20.20    6.70
   9  -2   8    9.40    6.20
   9   2   8    8.20    6.00
   9   2   8   17.40    6.50
  -9   2  -8    9.70    5.10
  -9   2  -8    2.30    5.90
   9   2   8    4.40    5.40
   9  -3  -8   87.99   11.50
  -9  -3   8  125.99   14.60
   9  -3  -8  105.69    8.70
  -9  -3   8  115.59   10.20
   9   3  -8  110.59    8.70
  -9   3   8   99.99   13.70
  -9   3   8  111.89    9.70
   9   3  -8  116.29   13.20
   9   3  -8  106.49   15.40
   8  -3  -8   40.40    4.80
  -8  -3   8   45.30    6.10
   8  -3  -8   45.00    5.40
   8  -3  -8   41.60    7.50
  -8  -3   8   30.90    8.30
   8   3  -8   33.70    8.40
   8   3  -8   25.10    6.70
  -8   3   8   35.70    5.30
   8   3  -8   35.60    4.80
  -8   3   8   30.20    9.10
   8   3  -8   40.40    4.70
  -8   3   8   54.09    8.10
   7  -3  -8  467.35   32.70
  -7  -3   8  473.65   31.40
   7  -3  -8  471.05   31.00
   7  -3  -8  539.75   31.60
  -7  -3   8  500.55   32.30
  -7  -3   8  531.45   34.00
  -7   3   8  470.05   32.60
   7   3  -8  529.75   34.40
  -7   3   8  504.35   32.30
   7   3  -8  502.95   33.00
   7   3  -8  513.65   31.30
   7   3  -8  516.85   31.30
  -7   3   8  504.85   34.60
  -7   3   8  491.45   31.50
  -6  -3   8   39.20    5.90
   6  -3  -8   34.70    4.40
   6  -3  -8   35.70    5.50
  -6  -3   8   36.40    5.30
   6  -3  -8   36.40    6.00
  -6  -3   8   30.50    6.80
   6  -3  -8   38.50    5.30
   6  -3  -8   36.30    3.80
  -6  -3   8   30.60    4.20
   6   3  -8   25.70    4.40
  -6   3   8   35.70    7.20
  -6   3   8   41.30    6.00
  -6   3   8   36.40    8.00
   6   3  -8   27.10    6.70
   6   3  -8   36.70    5.00
  -6   3   8   35.10    4.90
   6   3  -8   33.30    3.80
  -6   3   8   33.60    4.00
   6   3  -8   45.00    6.50
   5  -3  -8  112.49    9.90
  -5  -3   8  108.19   11.10
  -5  -3   8  108.99    9.70
   5  -3  -8  122.59   10.60
   5  -3  -8  121.79    9.40
   5  -3  -8  120.29   10.30
   5  -3  -8  136.69    9.20
  -5  -3   8  126.49   11.90
  -5   3   8  113.29   10.80
   5   3  -8  116.19    9.10
   5   3  -8  103.39   10.60
  -5   3   8  134.79   10.10
   5   3  -8   89.89   11.70
  -5   3   8  116.99    9.80
  -5   3   8  138.69   12.70
   5   3  -8   99.19   11.20
  -5   3   8  129.69    9.40
   5   3  -8  103.49    9.40
   4  -3  -8    1.60    2.40
  -4  -3   8   -5.30    4.00
   4  -3  -8   -1.00    3.60
  -4  -3   8    9.30    6.70
   4  -3  -8   -0.80    2.80
   4  -3  -8    4.50    3.50
   4  -3  -8    2.70    3.60
  -4  -3   8   -0.70    2.60
  -4  -3   8   -0.20    3.00
   4   3  -8   -0.10    3.00
  -4   3   8    0.50    2.90
   4   3  -8    6.80    3.00
  -4   3   8    1.10    4.70
   4   3  -8    0.20    5.10
  -4   3   8    2.00    5.80
  -4   3   8   -5.80    2.60
   4   3  -8   -5.90    4.20
  -4   3   8    0.40    3.60
   4   3  -8    1.70    2.80
  -3  -3   8  454.05   31.50
   3  -3  -8  516.65   32.10
   3  -3  -8  558.94   31.80
  -3  -3   8  465.75   32.60
  -3  -3   8  478.35   32.90
   3  -3  -8  540.15   31.40
   3  -3  -8  553.14   31.80
   3  -3  -8  525.25   31.50
  -3   3   8  554.74   32.70
   3   3  -8  461.55   33.40
  -3   3   8  533.65   33.30
   3   3  -8  455.65   31.30
   3   3  -8  452.55   31.70
  -3   3   8  539.15   32.00
  -3   3   8  553.74   31.40
   3   3  -8  436.26   31.40
  -3   3   8  538.15   31.60
   3   3  -8  481.75   31.60
  -2  -3   8  114.09    9.20
   2  -3  -8   98.49    9.60
   2  -3  -8  120.09    9.40
  -2  -3   8  104.99   10.70
  -2  -3   8  114.59   10.80
   2  -3  -8  116.79    9.80
   2  -3  -8  124.49    9.40
   2  -3  -8  104.09    8.90
   2   3  -8  120.19    9.50
  -2   3   8  117.49    9.80
  -2   3   8  116.99    8.90
   2   3  -8  108.89    9.10
  -2   3   8  114.99   10.70
  -2   3   8  115.19   10.40
   2   3  -8  121.39   11.30
   2   3  -8  114.99    9.50
   2   3  -8  114.69    9.50
  -2   3   8  115.59    9.20
   1  -3  -8  526.65   29.30
  -1  -3   8  419.86   29.50
  -1  -3   8  421.46   29.00
   1  -3  -8  501.05   29.30
   1  -3  -8  513.75   29.30
   1  -3  -8  464.25   29.40
   1  -3  -8  558.74   29.80
   1  -3  -8  489.45   29.30
  -1  -3   8  433.16   29.30
  -1  -3   8  424.96   30.00
   1  -3  -8  518.75   30.20
  -1  -3   8  395.16   28.80
  -1  -3   8  410.16   29.80
   1   3  -8  428.56   29.00
   1   3  -8  426.16   29.10
   1   3  -8  427.36   29.10
  -1   3   8  511.95   29.70
   1   3  -8  430.16   28.90
   1   3  -8  426.96   29.10
   1   3  -8  400.16   29.60
   1   3  -8  455.55   31.00
  -1   3   8  512.75   30.20
  -1   3   8  530.95   29.70
   0  -3  -8    1.20    2.90
   0  -3   8    7.20    3.30
   0  -3  -8    0.80    3.50
   0  -3  -8   -0.10    3.40
   0  -3   8    4.00    3.40
   0  -3   8   -0.20    3.60
   0  -3   8    4.70    3.90
   0  -3   8   -2.00    6.30
   0  -3  -8   -1.60    3.20
   0  -3  -8    4.30    2.60
   0  -3   8   -3.80    3.50
   0   3  -8   -2.20    2.80
   0   3  -8   -3.10    3.30
   0   3   8   -3.10    3.10
   0   3   8    1.40    1.70
   0   3  -8   -3.00    4.20
   0   3   8   -7.70    3.20
   0   3   8   -3.50    2.50
   0   3   8    1.60    3.40
   0   3  -8   -1.40    2.90
   0   3  -8   -2.60    3.20
   0   3  -8   10.30    4.60
   0   3   8    2.20    3.10
   1  -3   8  957.60   60.79
  -1  -3  -8  990.60   59.69
  -1  -3  -8  964.90   59.89
  -1  -3  -8 1030.60   59.89
   1  -3   8  924.71   60.19
   1  -3   8  985.10   59.99
  -1  -3  -8  974.50   60.09
   1  -3   8 1047.00   59.79
   1  -3   8 1008.40   59.59
  -1  -3  -8 1003.70   60.19
   1  -3   8  955.90   60.19
  -1  -3  -8  900.81   59.79
   1  -3   8  998.70   58.39
   1   3   8  986.10   59.69
  -1   3  -8  994.60   60.59
   1   3   8  958.20   59.59
   1   3   8 1042.10   60.29
  -1   3  -8 1059.09   59.29
  -1   3  -8  994.90   60.09
   1   3   8  925.21   59.89
  -1   3  -8 1035.60   60.09
   1   3   8  945.51   58.39
  -1   3  -8 1024.70   60.09
   1   3   8 1020.10   60.09
   1   3   8  962.10   60.59
   2  -3   8   79.99    8.30
   2  -3   8   65.49    7.00
   2  -3   8   57.79    7.90
   2  -3   8   65.89    8.20
  -2  -3  -8   87.89    8.00
   2  -3   8   79.39    7.50
  -2  -3  -8   62.39    7.40
  -2  -3  -8   80.79    8.40
  -2  -3  -8   59.99    7.30
   2  -3   8   86.59    9.40
  -2  -3  -8   69.49    9.00
  -2  -3  -8   65.29    7.70
   2   3   8   71.49    7.20
   2   3   8   81.09    7.40
  -2   3  -8   63.19    7.50
   2   3   8   69.49    5.90
   2   3   8   79.39    7.80
  -2   3  -8   64.59    7.70
  -2   3  -8   68.79    6.10
  -2   3  -8   69.49    6.70
  -2   3  -8   73.59    7.90
   2   3   8   61.79    8.00
   2   3   8   69.79    7.50
  -2   3  -8   74.39    8.40
   2   3   8   60.89    7.00
   2   3   8   76.29    8.60
  -3  -3  -8  260.67   19.50
   3  -3   8  324.47   20.30
  -3  -3  -8  295.67   20.40
  -3  -3  -8  270.27   19.70
   3  -3   8  311.27   19.00
   3  -3   8  293.27   21.20
   3  -3   8  318.37   19.60
  -3  -3  -8  251.07   19.50
  -3  -3  -8  288.07   20.60
  -3  -3  -8  266.77   19.10
   3  -3   8  331.37   20.60
   3   3   8  287.37   20.20
  -3   3  -8  346.57   21.60
   3   3   8  247.18   19.10
   3   3   8  271.97   19.60
  -3   3  -8  299.97   18.40
   3   3   8  270.57   20.10
   3   3   8  260.97   18.50
  -3   3  -8  312.67   20.30
   3   3   8  291.57   19.60
  -3   3  -8  317.97   20.20
  -3   3  -8  331.27   18.90
  -3   3  -8  310.57   20.10
   3   3   8  270.77   20.90
   4  -3   8   37.10    6.90
  -4  -3  -8   35.80    6.10
   4  -3   8   30.90    6.60
   4  -3   8   31.80    6.00
   4  -3   8   44.60    6.60
  -4  -3  -8   14.10    5.90
  -4  -3  -8   28.70    6.40
   4  -3   8   31.40    5.00
  -4  -3  -8   29.50    5.30
  -4  -3  -8   23.70    4.80
  -4  -3  -8   41.10    6.40
   4  -3   8   32.90    4.10
  -4   3  -8   36.90    4.90
  -4   3  -8   30.60    5.70
   4   3   8   39.40    5.80
  -4   3  -8   30.20    3.80
   4   3   8   34.10    4.50
   4   3   8   29.50    5.90
  -4   3  -8   29.20    6.70
   4   3   8   40.60    6.40
   4   3   8   28.20    4.80
  -4   3  -8   29.50    6.00
  -4   3  -8   36.10    5.90
   4   3   8   32.30    4.40
   4   3   8   36.80    5.80
   5  -3   8  943.01   57.19
   5  -3   8  946.31   55.99
  -5  -3  -8  867.51   55.79
   5  -3   8  924.71   55.29
  -5  -3  -8  866.41   55.49
  -5  -3  -8  945.01   56.09
   5  -3   8  860.91   53.69
  -5  -3  -8  859.31   55.19
   5  -3   8  997.50   56.19
  -5   3  -8  946.71   55.89
   5   3   8  897.81   55.69
   5   3   8  882.81   55.19
  -5   3  -8  895.31   56.49
  -5   3  -8  970.80   55.89
   5   3   8  852.11   53.89
  -5   3  -8  859.41   55.59
   5   3   8  854.41   54.59
   5   3   8  842.72   54.99
   5   3   8  852.91   55.79
  -5   3  -8  978.30   54.69
  -6  -3  -8   -1.00    4.90
   6  -3   8    1.00    5.10
   6  -3   8    2.10    5.90
  -6  -3  -8    5.50    4.40
   6  -3   8    7.60    5.40
  -6  -3  -8   -2.60    4.70
  -6   3  -8    2.40    4.40
  -6   3  -8   -0.90    3.60
   6   3   8   -3.00    4.20
  -6   3  -8    0.80    5.10
   6   3   8   -1.00    3.80
   6   3   8    1.20    4.30
   6   3   8    6.30    4.50
  -7  -3  -8  139.59   13.00
   7  -3   8  125.49   13.60
   7  -3   8  148.09   14.30
  -7  -3  -8  143.89   13.60
  -7   3  -8  138.29   12.80
   7   3   8  134.09   13.10
   7   3   8  167.98   12.70
  -7   3  -8  146.39   12.10
  -7   3  -8  144.59   14.10
   7   3   8  124.19   12.50
  -8  -3  -8    9.50    6.30
  -8  -3  -8    2.80    6.20
   8  -3   8   11.90    7.60
   8  -3   8   11.50    6.20
   8   3   8   12.80    5.70
  -8   3  -8    6.70    4.80
  -8   3  -8   13.80    6.60
   8   3   8    4.30    5.80
   8   3   8   10.20    5.90
  -8   3  -8   10.10    5.00
  -9  -3  -8  157.08   16.40
   9  -3   8  130.19   16.00
  -9  -3  -8  154.88   15.20
   9  -3   8  163.98   16.10
  -9   3  -8  149.69   15.50
   9   3   8  156.68   14.60
   9   3   8  148.59   15.10
   9   3   8  179.28   14.70
  -9   3  -8  157.68   15.00
  -8  -4   8   37.50    9.40
   8  -4  -8   43.80    6.10
   8  -4  -8   32.00   10.70
  -8  -4   8   37.60    7.50
   8   4  -8   48.10    6.50
   8   4  -8   43.40    8.00
   8   4  -8   34.20   11.10
  -8   4   8   35.50   10.30
  -8   4   8   46.10    6.90
   7  -4  -8   10.70    4.10
  -7  -4   8   21.40    8.40
  -7  -4   8   21.90    6.50
   7   4  -8   26.30    6.60
   7   4  -8    5.50    8.30
  -7   4   8   19.70    8.40
  -7   4   8   27.10    6.90
  -7   4   8   11.60    4.60
   7   4  -8   14.90    4.50
   6  -4  -8    5.30    4.00
   6  -4  -8   23.90    6.20
  -6  -4   8   12.50    7.30
  -6  -4   8   11.40    6.60
   6   4  -8   11.70    4.20
  -6   4   8   17.90    7.80
  -6   4   8   13.70    5.00
  -6   4   8   15.30    5.50
   6   4  -8   19.50    5.80
   6   4  -8    7.50    7.50
   5  -4  -8    6.00    3.80
  -5  -4   8    9.10    6.10
   5  -4  -8   14.20    5.50
  -5  -4   8   11.70    6.30
  -5   4   8    7.40    4.30
  -5   4   8   10.40    6.20
   5   4  -8   14.70    5.60
   5   4  -8   -1.80    6.80
   5   4  -8    7.50    4.00
  -5   4   8    7.00    4.50
  -4  -4   8  437.26   33.80
  -4  -4   8  459.05   34.00
   4  -4  -8  544.95   33.30
   4  -4  -8  566.44   32.80
  -4   4   8  575.74   35.10
   4   4  -8  413.46   34.80
  -4   4   8  552.14   33.10
   4   4  -8  469.75   32.50
   4   4  -8  496.25   32.90
  -4   4   8  561.14   32.30
  -3  -4   8   -2.50    3.40
   3  -4  -8    3.50    4.10
  -3  -4   8   -0.70    5.30
  -3  -4   8    2.40    3.80
   3  -4  -8   -3.30    3.50
   3  -4  -8   -7.70    4.10
  -3  -4   8    0.90    5.50
   3  -4  -8    4.00    4.10
   3   4  -8   -3.70    3.80
  -3   4   8    1.20    5.10
   3   4  -8    2.80    3.80
   3   4  -8   -4.50    6.40
  -3   4   8    6.70    4.60
  -3   4   8   -2.20    4.00
  -3   4   8    2.50    3.50
   3   4  -8   -7.30    3.60
   3   4  -8    4.00    4.20
  -2  -4   8  181.28   14.20
   2  -4  -8  186.78   15.90
   2  -4  -8  176.28   14.40
  -2  -4   8  177.18   14.40
   2  -4  -8  213.28   14.70
  -2  -4   8  164.38   15.70
  -2  -4   8  186.68   20.30
   2  -4  -8  180.08   14.00
  -2   4   8  205.48   13.80
   2   4  -8  187.68   14.50
   2   4  -8  166.98   14.40
  -2   4   8  179.18   13.30
  -2   4   8  190.98   14.80
  -2   4   8  174.38   16.00
   2   4  -8  175.58   13.80
  -2   4   8  183.78   15.50
   1  -4  -8   55.39    9.60
   1  -4  -8   46.20    7.30
  -1  -4   8   41.40    7.40
   1  -4  -8   44.90    6.40
   1  -4  -8   48.90    6.70
  -1  -4   8   57.79    8.40
  -1   4   8   48.30    7.10
   1   4  -8   37.70    6.00
   1   4  -8   40.50    6.60
   1   4  -8   51.49    6.50
  -1   4   8   40.00   11.00
   1   4  -8   48.80    6.00
  -1   4   8   48.30    6.10
  -1   4   8   38.70    8.30
   0  -4   8  137.29   13.90
   0  -4   8  120.49   13.00
   0  -4  -8  145.89   12.30
   0  -4  -8  151.18   15.50
   0  -4  -8  149.49   12.40
   0  -4   8  148.29   13.60
   0  -4  -8  138.29   11.80
   0  -4   8  131.19   12.10
   0   4  -8  119.09   11.90
   0   4  -8  143.69   12.70
   0   4   8  137.49    9.00
   0   4  -8  142.19   12.10
   0   4  -8  130.59   10.60
   0   4   8  139.69   12.80
   0   4  -8  135.49   11.80
   0   4   8  144.59   11.80
   0   4   8  136.19   12.10
   0   4   8  127.69   12.10
   0   4   8  139.39   14.90
   1  -4   8   44.70    7.90
  -1  -4  -8   36.00    5.80
  -1  -4  -8   23.00    8.30
   1  -4   8   35.80    6.00
   1  -4   8   26.50    5.60
  -1  -4  -8   33.20    6.00
   1  -4   8   25.90    6.70
  -1  -4  -8   37.10   10.60
   1  -4   8   34.40    4.40
   1  -4   8   29.40    6.20
  -1  -4  -8   33.60    6.20
  -1   4  -8   43.70    9.40
  -1   4  -8   43.90    6.30
   1   4   8   31.60    3.60
  -1   4  -8   21.20    5.30
   1   4   8   32.60    5.70
   1   4   8   32.60    5.10
   1   4   8   35.90    8.00
   1   4   8   35.10    6.30
   1   4   8   35.40    4.80
  -1   4  -8   26.00    4.60
  -1   4  -8   27.20    5.40
  -1   4  -8   33.40    5.60
   1   4   8   34.50    6.60
   1   4   8   42.50    5.90
  -2  -4  -8  903.51   55.79
   2  -4   8  979.40   55.99
  -2  -4  -8  813.62   55.29
   2  -4   8  918.11   56.09
   2  -4   8  938.51   56.19
  -2  -4  -8  864.81   55.29
  -2  -4  -8  907.11   55.49
   2  -4   8  902.41   57.09
  -2  -4  -8  844.72   55.99
  -2  -4  -8  860.71   55.79
   2  -4   8  941.21   54.19
   2   4   8  848.22   55.29
  -2   4  -8  922.01   55.69
   2   4   8  882.61   55.29
  -2   4  -8  950.70   55.89
  -2   4  -8 1008.00   57.49
   2   4   8  868.31   55.69
  -2   4  -8  879.01   56.89
   2   4   8  861.01   55.79
  -2   4  -8  914.81   54.19
  -2   4  -8  995.60   54.29
   2   4   8  857.81   54.39
   2   4   8  877.91   53.79
  -2   4  -8  946.61   55.79
   2   4   8  900.31   55.09
   2   4   8  834.52   56.79
   3  -4   8    0.30    4.70
  -3  -4  -8   11.30    6.10
  -3  -4  -8   13.20    6.90
   3  -4   8   10.60    5.90
   3  -4   8   10.00    4.70
  -3  -4  -8   12.60    5.10
  -3  -4  -8   10.30    4.70
  -3  -4  -8   16.30    5.40
  -3  -4  -8    8.50    5.10
   3  -4   8   -2.00    6.20
  -3   4  -8    7.50    5.50
  -3   4  -8   15.70    6.20
   3   4   8    1.70    4.00
   3   4   8   11.00    5.60
  -3   4  -8    1.40    5.90
   3   4   8   14.40    5.00
  -3   4  -8   -2.60    6.70
  -3   4  -8    7.40    3.10
   3   4   8    8.70    5.10
   3   4   8   11.80    4.00
   3   4   8   11.50    4.50
   3   4   8    5.80    3.10
  -3   4  -8   12.80    3.60
  -3   4  -8    4.40    4.70
  -3   4  -8   10.90    2.90
   4  -4   8  791.82   47.10
   4  -4   8  749.82   44.80
  -4  -4  -8  655.23   44.10
  -4  -4  -8  633.54   43.80
   4  -4   8  769.12   46.20
   4  -4   8  730.73   44.60
  -4  -4  -8  612.04   43.30
   4   4   8  599.94   43.80
   4   4   8  594.84   43.10
  -4   4  -8  768.12   44.50
  -4   4  -8  755.92   41.60
  -4   4  -8  744.83   44.80
   4   4   8  634.34   42.70
   4   4   8  635.74   42.30
   4   4   8  639.54   43.30
  -4   4  -8  737.63   42.50
  -4   4  -8  763.42   44.30
  -5  -4  -8    0.10    5.50
   5  -4   8   -7.20    5.80
  -5  -4  -8    4.40    5.10
   5  -4   8    3.50    6.00
   5   4   8    0.20    3.60
   5   4   8    2.10    4.80
   5   4   8   -4.60    4.90
  -5   4  -8    8.40    3.90
  -5   4  -8    0.30    5.50
   6  -4   8   44.70    8.60
   6  -4   8   34.00    8.70
  -6  -4  -8   33.60    8.10
  -6  -4  -8   39.00    7.50
  -6   4  -8   33.10    7.50
   6   4   8   44.40    7.10
   6   4   8   35.10    6.20
   6   4   8   32.10    6.30
  -6   4  -8   32.20    5.70
  -6   4  -8   49.80    8.80
  -7  -4  -8   51.59    9.50
   7  -4   8   65.09    9.80
  -7  -4  -8   79.09   13.50
   7  -4   8   59.39   10.00
  -7   4  -8   58.79    9.70
   7   4   8   54.39    8.20
  -7   4  -8   53.49    7.90
   7   4   8   63.39    9.10
   7   4   8   55.69    8.70
  -7   4  -8   53.19    8.80
   6  -5  -8   16.00    5.70
  -6  -5   8   20.40   10.00
  -6  -5   8   24.30    7.60
   6  -5  -8   15.30    7.90
  -6   5   8   17.10    6.70
  -6   5   8   15.80    9.60
   6   5  -8   18.60    5.60
   6   5  -8   17.50    7.10
  -5  -5   8  244.68   22.40
   5  -5  -8  271.07   21.70
   5  -5  -8  319.67   20.60
  -5  -5   8  223.18   22.60
  -5   5   8  312.17   23.70
   5   5  -8  233.28   20.80
  -5   5   8  315.27   21.60
  -5   5   8  264.57   24.90
   5   5  -8  256.97   20.50
   4  -5  -8  118.89   12.40
  -4  -5   8  123.99   14.60
   4  -5  -8  138.29   20.50
  -4  -5   8   95.09   12.90
   4   5  -8  114.69   12.30
  -4   5   8   96.19   14.40
  -4   5   8   99.79   11.30
   4   5  -8  119.39   12.20
  -4   5   8  105.59   12.40
  -3  -5   8   28.40    8.80
   3  -5  -8   11.70    6.00
  -3  -5   8   17.50    7.80
   3  -5  -8   22.00    6.70
   3   5  -8   19.10    5.80
  -3   5   8   23.80    7.40
  -3   5   8   16.50    5.60
  -3   5   8    7.30    5.90
   3   5  -8   19.50    6.20
   2  -5  -8    5.10    5.30
  -2  -5   8   11.60    8.10
   2  -5  -8   15.70    6.50
  -2  -5   8    2.20    6.90
  -2   5   8   -1.70    5.60
   2   5  -8    7.70    5.90
   2   5  -8   14.30    8.20
   2   5  -8    9.00    5.30
  -2   5   8    7.00    6.50
  -2   5   8    6.80    5.20
   1  -5  -8  358.06   27.00
  -1  -5   8  383.56   29.60
   1  -5  -8  390.26   27.00
  -1  -5   8  379.26   28.40
   1   5  -8  439.36   30.70
  -1   5   8  391.26   28.00
   1   5  -8  393.76   26.20
  -1   5   8  409.46   26.20
  -1   5   8  389.46   27.30
   1   5  -8  378.96   27.00
   0  -5  -8   -1.70    5.70
   0  -5   8   -1.50    6.80
   0  -5  -8   -2.50    6.20
   0  -5   8   11.30   13.60
   0  -5  -8    0.00    5.30
   0   5   8    5.60    6.00
   0   5   8    7.80    4.80
   0   5  -8   14.10    8.10
   0   5  -8   10.00    5.00
   0   5  -8    2.90    5.40
   0   5   8    7.90    5.90
   0   5   8    6.30    5.70
   1  -5   8  181.98   17.90
   1  -5   8  145.99   16.60
  -1  -5  -8  165.78   15.20
  -1  -5  -8  175.48   15.70
   1  -5   8  189.38   18.50
  -1  -5  -8  176.48   15.70
  -1   5  -8  197.78   16.00
   1   5   8  160.68   15.80
   1   5   8  169.48   14.20
  -1   5  -8  164.28   18.10
   1   5   8  166.68   15.80
  -1   5  -8  182.78   15.80
   1   5   8  185.58   15.70
  -1   5  -8  180.58   13.60
  -2  -5  -8    0.90    5.80
  -2  -5  -8    7.40    5.50
   2  -5   8   14.70    7.30
   2  -5   8   -0.50    7.30
   2  -5   8   13.50    8.00
  -2  -5  -8    3.10    5.60
   2   5   8   12.50    3.70
  -2   5  -8   -1.50    6.10
   2   5   8   12.20    5.40
  -2   5  -8    0.40    6.70
  -2   5  -8    9.50    5.90
   2   5   8   15.80    6.50
   2   5   8   10.60    6.00
  -2   5  -8    3.10    4.20
   2   5   8    5.30    6.00
  -3  -5  -8   48.10    8.10
  -3  -5  -8   38.20    8.00
   3  -5   8   40.00    9.30
   3  -5   8   60.09   10.70
   3  -5   8   56.89   10.10
  -3  -5  -8   52.99    8.90
   3  -5   8   46.50    6.90
   3   5   8   54.59    6.20
   3   5   8   42.40    7.40
  -3   5  -8   52.39    9.40
   3   5   8   50.19    8.30
  -3   5  -8   73.29    9.10
  -3   5  -8   50.49    8.40
   3   5   8   63.09    9.30
  -4  -5  -8   61.89   10.10
   4  -5   8   64.29    7.80
  -4  -5  -8   76.19   10.40
   4  -5   8   69.09   11.40
   4  -5   8   52.19   10.30
   4   5   8   94.49   10.30
   4   5   8   60.09    8.30
   4   5   8   70.69    7.90
  -4   5  -8   46.90   12.70
   4   5   8   70.29    9.10
  -4   5  -8   52.99   10.00
  -5  -5  -8  184.38   18.60
   5  -5   8  189.98   19.00
   5  -5   8  194.18   19.40
   5  -5   8  191.78   16.20
  -5  -5  -8  181.68   24.80
   5   5   8  203.08   17.30
   5   5   8  163.28   16.20
   5   5   8  189.68   15.70
  -5   5  -8  206.78   15.30
  -5   5  -8  221.68   19.00
  -5   5  -8  213.48   19.30
  -6   5  -8    9.70    7.50
  -2  -6   8  260.67   26.00
   2  -6  -8  233.48   21.90
  -2  -6   8  257.67   23.90
   2  -6  -8  263.27   21.90
  -2   6   8  271.07   23.20
  -2   6   8  250.67   20.50
   2   6  -8  293.07   22.20
   2   6  -8  282.17   20.60
  -2   6   8  247.88   23.10
   2   6  -8  345.77   31.30
   1  -6  -8   59.99   10.10
  -1  -6   8   58.29   12.50
  -1  -6   8   40.70   10.40
   1  -6  -8   61.79   10.90
   1   6  -8   60.19   10.50
  -1   6   8   62.39    8.90
  -1   6   8   60.39   10.70
   1   6  -8   70.19   11.90
  -1   6   8   66.79   10.30
   1   6  -8   64.79    9.00
   0  -6  -8   26.70    9.40
   0  -6  -8   20.20    8.70
   0  -6   8   12.40   10.30
   0  -6   8  -14.10    8.40
   0   6  -8   20.60    8.40
   0   6  -8   17.80    6.80
   0   6  -8   39.50    9.70
   0   6   8    7.10    8.30
   0   6   8   23.90    6.90
   0   6   8   12.10    8.70
   1  -6   8   15.20    9.70
  -1  -6  -8    6.10    7.60
   1  -6   8  -10.80   11.90
   1   6   8   22.70    6.80
  -1   6  -8   28.30    9.20
   1   6   8   15.50    8.60
  -1   6  -8   21.60    9.00
 -10   0   9   -4.90    4.30
  10   0  -9   -3.30    6.80
  10   0  -9   -0.80    5.00
  10   0  -9    0.00    6.10
  -9   0   9    3.50    3.90
   9   0  -9   -4.60    5.20
   9   0  -9    1.20    5.90
   8   0  -9    2.30    4.50
   8   0  -9    0.60    4.60
  -8   0   9    1.40    6.20
  -8   0   9    1.40    2.10
   8   0  -9   -6.50    3.10
  -8   0   9   -0.30    3.30
  -8   0   9    1.40    1.90
   7   0  -9    0.50    1.20
   7   0  -9    4.10    4.60
  -7   0   9    0.50    1.80
  -7   0   9    0.30    3.00
  -7   0   9    6.80    5.50
  -7   0   9    1.20    2.20
  -7   0   9   -5.70    3.50
   7   0  -9   -7.20    4.60
   7   0  -9   -0.80    1.50
   6   0  -9   -8.00    3.30
  -6   0   9    3.10    3.00
  -6   0   9   -1.10    1.80
   6   0  -9   -0.90    1.50
  -6   0   9    2.10    4.70
   6   0  -9   -2.80    3.10
  -5   0   9   -0.50    2.80
  -5   0   9    4.00    4.30
   5   0  -9    2.40    2.60
   5   0  -9   -0.60    1.40
  -5   0   9    0.30    2.20
  -5   0   9   -2.30    1.80
   5   0  -9    2.70    3.60
   5   0  -9    1.10    1.60
  -5   0   9    1.20    2.20
   5   0  -9   -5.30    2.90
   4   0  -9    2.80    2.20
  -4   0   9   -0.30    1.90
   4   0  -9    1.30    1.60
  -4   0   9   -0.20    1.90
  -4   0   9    1.00    2.60
   4   0  -9    0.20    1.50
   4   0  -9   -1.20    3.60
  -4   0   9   -5.60    2.00
   4   0  -9   -0.20    2.70
   4   0  -9   -0.10    3.10
  -4   0   9    0.40    3.70
  -4   0   9    2.90    3.30
   4   0  -9   -1.50    1.80
   4   0  -9   -1.50    1.80
  -3   0   9    1.90    2.00
   3   0  -9    0.30    2.10
  -3   0   9    3.30    2.60
  -3   0   9    0.60    1.90
   3   0  -9   -1.10    2.50
   3   0  -9    1.60    1.50
   3   0  -9    0.00    3.40
   3   0  -9   -2.90    1.50
   3   0  -9   -0.20    1.50
  -3   0   9   -1.40    1.60
  -3   0   9    2.20    3.00
   3   0  -9    0.60    2.00
  -3   0   9    1.30    1.70
   3   0  -9    1.00    2.50
   3   0  -9   -3.40    2.90
  -2   0   9   -1.80    1.70
   2   0  -9    5.10    3.70
   2   0  -9    0.10    1.40
   2   0  -9   -0.10    1.50
  -2   0   9    1.20    2.20
  -2   0   9   -4.90    1.90
   2   0  -9   -0.30    2.00
  -2   0   9    1.50    2.40
   2   0  -9   -0.10    2.00
   2   0  -9    4.10    3.00
  -2   0   9    2.80    1.90
  -2   0   9    1.40    2.10
   2   0  -9    0.70    1.60
   2   0  -9   -0.10    2.80
   2   0  -9    1.00    2.10
   1   0  -9    3.70    2.50
   1   0  -9    0.20    1.70
   1   0  -9    2.10    2.50
  -1   0   9    1.60    2.40
   1   0  -9    0.10    1.50
   1   0  -9   -0.90    2.90
  -1   0   9    0.40    2.00
  -1   0   9   -2.00    2.10
   1   0  -9   -1.70    2.00
   1   0  -9    0.20    1.50
  -1   0   9   -2.40    2.00
   1   0  -9    1.70    2.10
   1   0  -9   -0.60    2.20
  -1   0   9   -0.30    1.70
   0   0  -9    1.70    1.90
   0   0  -9   -0.60    2.30
   0   0  -9   -1.50    1.80
   0   0   9    2.60    2.00
   0   0   9   -2.00    2.10
   0   0  -9    0.30    3.10
   0   0   9   -2.70    1.70
   0   0  -9    2.40    1.70
   0   0  -9   -0.90    2.50
   0   0  -9    0.30    2.20
   0   0  -9    3.80    2.10
   0   0   9    1.80    2.10
   0   0   9    1.90    2.30
   0   0   9    0.10    2.30
   0   0  -9   -0.20    1.90
  -1   0  -9   -2.30    2.20
   1   0   9    2.60    2.50
  -1   0  -9    1.00    2.10
   1   0   9    0.90    2.30
  -1   0  -9   -0.80    1.90
  -1   0  -9    1.20    2.80
   1   0   9   -1.10    1.90
  -1   0  -9    1.00    2.10
  -1   0  -9   -4.20    2.00
  -1   0  -9    0.30    2.50
   1   0   9    1.00    2.00
  -1   0  -9   -1.20    2.40
   1   0   9   -2.10    2.20
  -1   0  -9    0.20    2.00
  -2   0  -9    0.70    2.60
   2   0   9    1.60    2.70
  -2   0  -9    2.30    2.40
  -2   0  -9   -1.40    2.50
   2   0   9   -1.10    2.70
   2   0   9    1.10    2.10
  -2   0  -9    4.80    2.50
   2   0   9    3.90    2.50
  -2   0  -9    0.40    2.00
   2   0   9   -1.90    2.30
   2   0   9   -0.40    2.50
  -2   0  -9    3.90    3.10
  -2   0  -9    2.00    2.10
  -2   0  -9   -0.60    2.50
  -2   0  -9    5.30    2.40
   3   0   9    2.90    2.60
   3   0   9   -2.80    2.30
   3   0   9   -5.90    2.50
  -3   0  -9    0.50    2.60
  -3   0  -9    1.10    2.40
   3   0   9    0.80    3.30
  -3   0  -9   -1.00    2.30
  -3   0  -9    3.90    3.00
  -3   0  -9   -1.50    2.60
  -3   0  -9    0.30    2.80
  -3   0  -9    6.20    3.00
  -3   0  -9   -2.90    2.00
   3   0   9   -2.80    3.00
  -3   0  -9   -1.70    2.70
   3   0   9   -1.30    2.00
  -4   0  -9    4.40    2.60
  -4   0  -9    3.70    3.10
   4   0   9   -4.20    2.80
  -4   0  -9   -0.10    2.30
  -4   0  -9    4.80    3.40
  -4   0  -9    3.80    2.80
   4   0   9   -0.80    2.80
   4   0   9    2.30    3.40
  -4   0  -9   -0.40    3.40
  -4   0  -9   -4.90    2.70
  -4   0  -9    0.80    2.70
   4   0   9    2.40    2.20
   4   0   9    0.20    2.90
   4   0   9   -0.60    3.90
  -5   0  -9   -2.20    3.40
  -5   0  -9   -1.40    2.90
  -5   0  -9    4.50    3.50
   5   0   9    1.20    4.00
  -5   0  -9   -3.20    3.30
   5   0   9   -0.20    3.80
  -5   0  -9    4.00    3.90
  -5   0  -9    7.90    3.90
  -5   0  -9   -0.60    2.10
  -5   0  -9    1.20    2.50
   5   0   9    6.50    3.90
   5   0   9    0.50    2.30
   5   0   9   -1.30    2.90
   6   0   9    1.50    3.40
   6   0   9    8.50    4.70
   6   0   9   -3.50    3.60
  -6   0  -9   -3.90    3.10
  -6   0  -9    5.30    3.90
   6   0   9   -3.30    2.70
  -6   0  -9    0.20    3.30
  -6   0  -9    1.40    3.50
  -6   0  -9   -7.70    3.80
   6   0   9   -1.50    3.90
  -7   0  -9    3.30    3.80
  -7   0  -9   -2.50    3.80
  -7   0  -9   -7.30    3.50
   7   0   9   -4.30    3.80
   7   0   9   -6.60    3.10
   7   0   9   -1.90    4.40
   7   0   9    3.50    4.20
   7   0   9   -1.90    4.20
   8   0   9    0.80    3.70
  -8   0  -9    7.70    4.10
   8   0   9    0.80    4.50
  -8   0  -9    3.20    4.60
   8   0   9   -9.80    5.10
   9   0   9   -0.50    6.00
  -9   0  -9    7.40    5.30
   9   0   9    0.00    4.80
   9   0   9    9.70    5.70
  -9   0  -9    0.10    5.90
 -10   0  -9    6.30    5.60
  10   0   9    5.10    6.20
 -10   0  -9    0.80    6.30
  10   0   9    1.80    7.60
  10  -1  -9   17.10    6.60
  10  -1  -9   22.70    7.90
 -10  -1   9   18.20    4.90
  10   1  -9    5.90    7.00
  10   1  -9   22.30    6.50
  10   1  -9   11.30    8.00
 -10   1   9   19.40    5.40
   9  -1  -9   -0.30    5.40
  -9  -1   9    6.30    4.40
   9  -1  -9    9.20    6.30
   9  -1  -9   13.10    3.90
  -9   1   9   16.80    7.60
   9   1  -9   11.50    5.70
  -9   1   9   15.10    2.40
   9   1  -9   17.20    5.50
  -9   1   9    9.60    3.00
  -9   1   9    7.10    4.10
   9   1  -9   12.30    6.10
   8  -1  -9   20.90    3.70
  -8  -1   9   19.50    3.30
   8  -1  -9   21.90    2.60
   8  -1  -9   14.80    4.70
  -8  -1   9   24.90    2.90
  -8  -1   9   20.40    5.90
  -8  -1   9   27.40    4.40
   8  -1  -9   22.90    6.00
   8  -1  -9   20.90    2.70
  -8   1   9   18.00    6.60
   8   1  -9   22.90    2.80
  -8   1   9   19.80    3.60
   8   1  -9   24.60    3.10
  -8   1   9   22.90    3.10
   8   1  -9   23.90    6.80
  -8   1   9   15.80    4.10
   8   1  -9   23.30    6.00
   7  -1  -9   62.99    7.40
  -7  -1   9   55.59    5.30
   7  -1  -9   58.09    5.10
  -7  -1   9   59.49    8.80
  -7  -1   9   53.29    6.20
  -7  -1   9   60.29    7.50
   7  -1  -9   62.89    4.80
   7  -1  -9   52.39    8.00
  -7  -1   9   65.79    6.60
   7  -1  -9   68.69    7.60
   7  -1  -9   56.49    5.60
   7   1  -9   57.09    7.50
   7   1  -9   56.49    4.70
  -7   1   9   71.19    9.90
  -7   1   9   62.79    5.70
  -7   1   9   52.49    5.80
   7   1  -9   62.39    5.10
   7   1  -9   52.79    8.20
   6  -1  -9   56.49    6.90
   6  -1  -9   52.99    6.50
  -6  -1   9   45.40    7.70
  -6  -1   9   66.89    5.60
  -6  -1   9   65.19    5.80
   6  -1  -9   56.39    5.10
  -6  -1   9   58.69    6.30
   6  -1  -9   57.19    5.10
   6  -1  -9   56.29    8.40
   6  -1  -9   59.89    5.10
  -6  -1   9   67.39    8.10
   6   1  -9   55.59    8.60
  -6   1   9   65.99    8.00
   6   1  -9   74.79    6.20
  -6   1   9   54.29    6.00
   6   1  -9   65.09    5.10
   6   1  -9   57.29    7.50
   6   1  -9   62.29    5.40
  -6   1   9   65.39    5.80
   5  -1  -9   -3.80    3.20
   5  -1  -9   -3.80    3.70
  -5  -1   9    4.30    4.30
  -5  -1   9    4.60    2.70
  -5  -1   9    3.20    2.20
   5  -1  -9    2.90    1.90
  -5  -1   9    0.10    2.20
   5  -1  -9    7.10    2.60
   5  -1  -9    0.70    1.70
   5  -1  -9    1.60    1.30
  -5  -1   9   -2.10    3.20
  -5   1   9   -2.00    2.10
   5   1  -9   -0.20    3.80
  -5   1   9    1.40    1.90
  -5   1   9    0.70    2.40
   5   1  -9    3.60    2.50
  -5   1   9    0.80    3.60
   5   1  -9   -3.20    1.50
   5   1  -9    1.80    1.30
   5   1  -9    2.70    2.00
   5   1  -9    4.50    3.90
   4  -1  -9   -1.60    2.60
   4  -1  -9    0.40    2.00
  -4  -1   9    5.10    2.40
  -4  -1   9    3.90    3.40
   4  -1  -9    3.60    1.80
  -4  -1   9    0.40    3.50
   4  -1  -9   -2.20    3.20
  -4  -1   9    3.10    2.20
   4  -1  -9    0.00    1.60
   4  -1  -9   -2.70    3.20
  -4  -1   9   -0.80    2.40
  -4   1   9    2.10    3.00
   4   1  -9    3.80    3.50
   4   1  -9    2.90    1.70
  -4   1   9    0.70    2.10
  -4   1   9   -5.00    1.80
   4   1  -9    1.20    3.30
  -4   1   9    0.30    2.10
   4   1  -9    1.10    2.10
  -4   1   9    3.50    4.30
   4   1  -9    2.70    1.90
  -3  -1   9   92.99    8.00
   3  -1  -9   99.19    7.20
   3  -1  -9  101.49    8.40
  -3  -1   9  108.19    8.80
   3  -1  -9   93.49    7.00
   3  -1  -9   78.39    7.30
   3  -1  -9   95.19    7.20
  -3  -1   9   93.09    7.10
   3  -1  -9  101.89    9.00
   3  -1  -9  103.69    6.60
   3  -1  -9   82.79    9.20
  -3  -1   9   97.49    7.30
  -3  -1   9  101.39    9.10
   3  -1  -9   92.79    7.90
  -3  -1   9   90.69    7.40
  -3   1   9   97.89    7.00
   3   1  -9   97.49    9.00
   3   1  -9   93.59    7.20
   3   1  -9   87.19    9.60
  -3   1   9   87.09    9.70
   3   1  -9   89.69    8.40
   3   1  -9   90.29    7.20
  -3   1   9   93.79    7.70
  -3   1   9  102.39    7.30
   3   1  -9   95.39    8.80
   3   1  -9   85.89    7.40
  -3   1   9   87.89    7.40
  -3   1   9   91.69    7.40
  -3   1   9   86.99    8.00
   3   1  -9   98.19    7.10
  -2  -1   9    3.10    2.90
   2  -1  -9    5.50    3.30
  -2  -1   9    5.80    2.90
  -2  -1   9    3.70    2.40
   2  -1  -9    4.60    3.70
  -2  -1   9    6.30    2.20
  -2  -1   9    7.50    3.70
   2  -1  -9    4.20    3.00
   2  -1  -9    6.40    2.10
  -2  -1   9    7.80    2.30
   2  -1  -9    9.70    1.70
   2  -1  -9    6.50    3.40
   2  -1  -9    5.60    2.70
   2  -1  -9    6.10    2.00
   2  -1  -9    6.20    2.10
   2   1  -9    6.20    2.70
   2   1  -9   13.20    3.20
   2   1  -9    7.10    4.20
  -2   1   9    7.10    2.10
   2   1  -9    7.70    2.10
   2   1  -9    5.70    2.00
  -2   1   9    7.90    3.00
  -2   1   9    7.80    2.50
   2   1  -9   13.30    3.50
   2   1  -9    8.10    2.10
  -2   1   9    8.40    2.80
   2   1  -9    9.70    3.20
  -2   1   9    5.90    2.20
   1  -1  -9   59.89    6.80
  -1  -1   9   49.10    5.90
   1  -1  -9   61.89    6.30
   1  -1  -9   63.19    5.20
  -1  -1   9   45.90    5.00
   1  -1  -9   48.30    5.20
   1  -1  -9   55.09    5.00
   1  -1  -9   54.89    4.30
  -1  -1   9   57.09    6.10
   1  -1  -9   65.29    5.80
  -1  -1   9   44.50    5.20
   1  -1  -9   61.29    6.00
  -1  -1   9   47.30    5.10
  -1  -1   9   49.70    6.40
  -1  -1   9   49.80    5.90
   1  -1  -9   63.99    6.10
   1   1  -9   42.60    5.70
  -1   1   9   56.09    5.90
  -1   1   9   43.60    5.30
  -1   1   9   57.79    5.60
   1   1  -9   48.50    4.90
   1   1  -9   54.19    5.00
   1   1  -9   43.90    5.90
   1   1  -9   40.70    5.00
  -1   1   9   55.79    5.50
  -1   1   9   56.89    4.90
   1   1  -9   48.60    5.70
  -1   1   9   60.79    5.10
   1   1  -9   45.70    5.80
   0  -1   9    3.00    2.70
   0  -1   9    1.70    2.30
   0  -1   9   -1.30    1.80
   0  -1  -9    5.10    1.90
   0  -1  -9    1.70    2.60
   0  -1  -9    6.40    2.60
   0  -1  -9    4.60    1.90
   0  -1  -9    5.00    2.90
   0  -1  -9    0.90    2.60
   0  -1   9   -0.50    2.70
   0  -1  -9    3.50    1.80
   0  -1   9    0.30    2.70
   0  -1  -9    3.90    2.50
   0  -1   9    0.90    2.40
   0  -1   9    1.20    2.00
   0  -1  -9   -0.70    2.70
   0   1   9    1.20    2.60
   0   1  -9    0.10    1.80
   0   1   9    3.30    1.90
   0   1  -9    5.20    2.00
   0   1  -9    0.50    2.30
   0   1   9    0.60    2.30
   0   1  -9   -0.70    2.60
   0   1   9    6.70    2.60
   0   1  -9    2.80    2.10
   0   1  -9   -3.90    2.30
   0   1  -9    3.00    1.80
   0   1   9   -3.00    1.70
   0   1  -9    1.40    2.50
   0   1   9   -0.90    2.40
   1  -1   9   15.40    3.60
  -1  -1  -9    8.00    2.50
  -1  -1  -9    9.50    2.80
  -1  -1  -9    7.30    3.20
   1  -1   9    8.00    2.70
  -1  -1  -9    8.00    2.30
   1  -1   9   10.70    3.00
   1  -1   9   10.20    3.30
  -1  -1  -9    2.80    2.70
  -1  -1  -9   11.60    2.70
   1  -1   9    3.40    2.80
   1  -1   9    5.40    3.60
  -1  -1  -9   10.10    3.20
   1  -1   9   11.80    2.70
  -1  -1  -9    5.60    3.00
  -1   1  -9   11.10    3.70
  -1   1  -9   11.00    3.20
   1   1   9    7.70    2.90
   1   1   9    7.80    3.00
  -1   1  -9   12.90    2.80
  -1   1  -9   13.20    3.00
  -1   1  -9   12.50    3.00
   1   1   9    5.60    2.60
   1   1   9    6.10    3.10
  -1   1  -9   11.90    2.30
   1   1   9    9.50    3.30
  -1   1  -9   12.20    3.10
   1   1   9    8.90    2.50
   2  -1   9    0.50    2.70
   2  -1   9    3.50    3.00
  -2  -1  -9    8.60    2.80
  -2  -1  -9    2.30    2.60
  -2  -1  -9    3.10    2.20
   2  -1   9   -0.60    3.00
   2  -1   9    0.80    2.50
   2  -1   9   -1.30    2.20
  -2  -1  -9    2.40    3.00
  -2  -1  -9    6.40    3.00
   2  -1   9   -0.90    2.60
   2  -1   9   -1.30    2.10
  -2  -1  -9    3.00    2.60
  -2  -1  -9    1.40    2.10
  -2  -1  -9   -2.20    2.40
   2   1   9    0.70    2.40
   2   1   9    1.30    2.60
   2   1   9    0.20    3.00
  -2   1  -9    1.90    3.00
   2   1   9   -1.20    2.30
  -2   1  -9   -1.20    2.20
  -2   1  -9    4.40    3.00
   2   1   9    1.30    2.80
  -2   1  -9    3.70    2.50
   2   1   9   -3.10    2.00
  -2   1  -9   -2.60    3.20
  -2   1  -9   -0.80    1.90
  -2   1  -9   -2.20    2.30
  -2   1  -9   -0.10    2.60
   3  -1   9   78.79    8.00
  -3  -1  -9   70.89    8.00
   3  -1   9   76.09    7.60
  -3  -1  -9   65.89    7.30
   3  -1   9   75.49    7.00
   3  -1   9   82.79    7.00
   3  -1   9   95.09    8.70
  -3  -1  -9   72.19    7.10
  -3  -1  -9   75.09    7.30
  -3  -1  -9   75.49    6.40
  -3  -1  -9   81.19    6.80
   3  -1   9   69.79    6.60
   3  -1   9   73.69    7.50
  -3  -1  -9   79.19    7.20
  -3  -1  -9   79.29    7.40
  -3  -1  -9   75.19    6.90
   3   1   9   73.39    8.10
   3   1   9   78.69    8.10
   3   1   9   78.49    7.40
  -3   1  -9   76.99    6.60
  -3   1  -9   94.59    8.10
  -3   1  -9   78.99    7.00
  -3   1  -9   65.79    7.90
  -3   1  -9   79.49    7.40
   3   1   9   83.59    7.50
  -3   1  -9   81.59    6.80
  -3   1  -9   85.29    8.40
   3   1   9   69.69    6.90
   3   1   9   78.89    6.80
  -3   1  -9   81.59    7.40
   4  -1   9    4.40    3.90
  -4  -1  -9   -0.30    1.80
  -4  -1  -9    4.20    3.50
   4  -1   9   -0.20    2.20
   4  -1   9    3.00    3.50
   4  -1   9    1.20    3.20
  -4  -1  -9    5.60    3.70
  -4  -1  -9   -5.60    3.10
  -4  -1  -9    0.00    2.80
  -4  -1  -9   -3.90    2.70
   4  -1   9    6.70    3.00
  -4  -1  -9    1.70    2.00
  -4  -1  -9    0.90    3.40
   4  -1   9   -4.40    3.60
   4  -1   9   -1.70    2.40
  -4  -1  -9   -3.20    3.80
   4   1   9    4.30    3.70
  -4   1  -9    0.00    4.10
  -4   1  -9   -1.70    2.40
   4   1   9    1.00    2.80
   4   1   9   -3.00    3.10
  -4   1  -9    5.80    2.80
  -4   1  -9    0.70    3.50
   4   1   9   -1.20    2.50
  -4   1  -9   -1.10    3.00
  -4   1  -9    7.20    3.20
  -4   1  -9    0.80    3.00
   4   1   9    4.10    3.60
   4   1   9    4.70    2.90
  -5  -1  -9  306.97   20.90
   5  -1   9  282.77   19.80
   5  -1   9  327.57   21.30
  -5  -1  -9  296.47   20.90
   5  -1   9  297.37   22.50
  -5  -1  -9  316.87   21.00
   5  -1   9  345.07   20.90
   5  -1   9  317.37   20.10
  -5  -1  -9  315.47   21.00
   5  -1   9  287.27   21.60
  -5  -1  -9  326.37   21.70
   5   1   9  307.67   20.50
   5   1   9  328.77   20.80
  -5   1  -9  314.87   20.40
   5   1   9  316.87   21.80
   5   1   9  320.77   21.00
  -5   1  -9  321.97   21.30
  -5   1  -9  306.77   20.90
  -5   1  -9  309.87   20.10
  -5   1  -9  331.97   22.10
  -5   1  -9  308.67   21.00
  -5   1  -9  317.57   20.60
   5   1   9  300.27   21.90
   6  -1   9    3.00    3.40
  -6  -1  -9    3.80    7.70
   6  -1   9    1.80    6.30
  -6  -1  -9   -1.10    3.20
   6  -1   9    2.00    4.40
   6  -1   9   -5.60    2.50
   6  -1   9   -0.10    3.90
  -6  -1  -9    3.80    3.80
  -6  -1  -9   -4.40    3.50
   6  -1   9    2.30    2.50
   6   1   9   -4.80    3.40
   6   1   9   -3.90    3.30
  -6   1  -9    2.90    3.50
  -6   1  -9   -1.50    4.00
  -6   1  -9   -4.20    3.20
  -6   1  -9   -0.70    3.90
   6   1   9   -3.40    3.70
   6   1   9    2.00    4.70
   6   1   9   -0.90    4.10
  -6   1  -9   -6.40    2.60
  -7  -1  -9  100.09   10.70
   7  -1   9  102.59    8.60
   7  -1   9  109.29   11.30
   7  -1   9  108.89   11.10
   7  -1   9  106.29   10.30
  -7  -1  -9  123.29   10.60
  -7  -1  -9   90.29    9.80
   7   1   9   96.29   10.90
   7   1   9  110.09   10.40
  -7   1  -9  113.39   11.00
  -7   1  -9  106.59    9.30
   7   1   9   94.59    9.90
   7   1   9  105.09   10.50
  -7   1  -9  103.09   10.60
  -7   1  -9   97.89    8.00
   8  -1   9    8.80    3.40
   8  -1   9   13.90    6.10
  -8  -1  -9    0.60    4.70
  -8  -1  -9    6.30    4.60
   8  -1   9   11.60    5.90
   8   1   9    2.90    4.50
  -8   1  -9    9.10    4.40
   8   1   9   -3.20    4.10
   8   1   9    1.50    5.20
  -8   1  -9    4.90    5.10
  -9  -1  -9   -2.20    4.70
   9  -1   9   -0.50    6.40
  -9  -1  -9    9.10    5.50
   9  -1   9    6.00    6.10
  -9   1  -9    0.20    5.30
   9   1   9   13.00    5.50
   9   1   9    5.90    5.20
  -9   1  -9    7.30    5.40
   9   1   9   -3.30    6.10
   9  -2  -9   30.60    7.10
   9  -2  -9   48.30    4.60
  -9  -2   9   49.70    6.50
   9  -2  -9   45.80    5.20
  -9  -2   9   41.40    8.90
   9  -2  -9   46.80    9.60
  -9   2   9   48.90    5.20
   9   2  -9   51.29    9.30
  -9   2   9   56.49   10.80
   9   2  -9   42.40    8.40
  -9   2   9   43.90    9.30
   9   2  -9   50.99    4.40
  -9   2   9   41.90    6.50
   9   2  -9   47.50    4.30
  -8  -2   9   19.00    7.00
   8  -2  -9   33.90    4.00
   8  -2  -9   24.20    5.40
  -8  -2   9   34.10    4.30
  -8  -2   9   29.30    5.00
   8  -2  -9   29.60    3.50
   8   2  -9   34.50    6.70
  -8   2   9   32.90    8.40
   8   2  -9   28.20    3.80
  -8   2   9   23.20    7.50
   8   2  -9   33.20    3.60
  -8   2   9   31.70    4.30
  -8   2   9   27.00    5.50
   8   2  -9   21.90    7.30
   7  -2  -9    9.20    2.40
   7  -2  -9   14.90    4.20
  -7  -2   9    3.20    3.70
   7  -2  -9   13.40    3.20
   7  -2  -9    6.70    2.40
  -7  -2   9    6.20    5.60
  -7  -2   9   12.10    3.30
  -7   2   9   10.00    2.90
   7   2  -9    8.70    5.30
   7   2  -9    6.90    2.70
   7   2  -9    8.50    2.70
  -7   2   9    6.30    6.20
   7   2  -9    9.60    4.60
  -7   2   9    6.10    4.40
  -7   2   9   -1.10    5.40
   6  -2  -9    6.90    1.70
  -6  -2   9    8.20    5.90
  -6  -2   9    6.50    2.80
   6  -2  -9   10.00    2.90
   6  -2  -9    2.90    3.60
  -6  -2   9   -1.20    3.50
   6  -2  -9    3.30    2.30
   6  -2  -9    4.60    1.70
  -6  -2   9    7.90    2.50
   6   2  -9    5.50    4.10
   6   2  -9    5.80    2.40
  -6   2   9    3.20    3.70
   6   2  -9    2.20    4.60
  -6   2   9    3.30    5.40
  -6   2   9    7.60    2.90
  -6   2   9   -0.90    4.40
   6   2  -9    4.80    2.60
  -6   2   9    2.70    2.40
   5  -2  -9   41.70    5.50
   5  -2  -9   37.20    4.40
  -5  -2   9   36.80    4.80
  -5  -2   9   42.40    5.50
   5  -2  -9   34.00    4.10
  -5  -2   9   28.90    6.50
  -5  -2   9   40.70    7.10
   5  -2  -9   44.00    4.90
  -5  -2   9   43.20    4.70
  -5   2   9   42.50    6.00
  -5   2   9   32.40    6.90
  -5   2   9   39.70    4.90
   5   2  -9   34.50    4.40
  -5   2   9   36.10    5.70
   5   2  -9   33.90    6.60
   5   2  -9   26.70    5.30
   5   2  -9   37.40    4.30
   5   2  -9   31.30    4.30
  -5   2   9   43.10    4.90
   4  -2  -9   49.20    6.20
  -4  -2   9   36.10    5.60
  -4  -2   9   45.10    6.50
  -4  -2   9   28.50    6.30
  -4  -2   9   55.79    6.10
   4   2  -9   50.69    7.20
   4   2  -9   36.50    4.90
   4   2  -9   41.10    5.00
   4   2  -9   39.90    4.80
  -3  -2   9  195.98   15.00
   3  -2  -9  205.08   13.70
   3  -2  -9  210.08   14.00
  -3  -2   9  204.78   14.20
   3  -2  -9  189.18   14.70
  -3  -2   9  203.38   15.60
   3  -2  -9  209.28   14.00
  -3  -2   9  208.68   14.00
   3  -2  -9  210.58   14.70
  -3  -2   9  197.98   15.30
  -3   2   9  217.78   14.60
  -3   2   9  216.18   13.80
  -3   2   9  221.48   16.30
  -3   2   9  208.28   14.50
  -3   2   9  210.68   14.50
   3   2  -9  213.98   16.20
   3   2  -9  217.08   14.10
   3   2  -9  204.48   15.80
   3   2  -9  202.78   14.10
   3   2  -9  203.78   14.10
   2  -2  -9  248.88   17.20
  -2  -2   9  207.28   15.30
   2  -2  -9  253.67   15.40
   2  -2  -9  259.57   15.60
   2  -2  -9  252.47   16.00
  -2  -2   9  207.78   16.30
   2  -2  -9  259.77   16.90
   2  -2  -9  260.07   15.60
  -2  -2   9  205.38   16.20
  -2  -2   9  202.68   15.50
  -2  -2   9  207.78   16.30
   2  -2  -9  263.57   16.10
  -2   2   9  250.97   15.80
   2   2  -9  208.38   15.40
   2   2  -9  201.38   15.40
   2   2  -9  221.48   17.10
  -2   2   9  253.77   16.10
  -2   2   9  252.97   17.30
  -2   2   9  266.07   16.30
  -2   2   9  233.08   15.90
  -2   2   9  258.97   15.70
   2   2  -9  196.68   16.60
   2   2  -9  212.88   15.40
   2   2  -9  179.98   15.70
   1  -2  -9   25.00    3.80
   1  -2  -9   20.10    4.00
   1  -2  -9   26.50    3.70
  -1  -2   9   21.10    4.40
  -1  -2   9   31.90    4.90
  -1  -2   9   20.50    3.50
  -1  -2   9   31.50    4.10
   1  -2  -9   31.60    4.70
   1  -2  -9   21.00    4.20
  -1  -2   9   23.30    5.70
  -1  -2   9   28.60    3.90
   1  -2  -9   27.00    4.90
  -1  -2   9   21.30    4.50
  -1   2   9   27.20    2.50
  -1   2   9   26.70    5.00
  -1   2   9   22.30    3.30
   1   2  -9   43.40    4.70
   1   2  -9   30.20    4.10
  -1   2   9   28.60    4.30
  -1   2   9   23.50    4.30
   1   2  -9   29.70    5.30
  -1   2   9   30.60    4.60
   1   2  -9   32.20    4.90
   1   2  -9   24.40    4.60
  -1   2   9   27.50    2.60
  -1   2   9   35.10    4.80
   1   2  -9   30.50    4.20
   1   2  -9   29.00    5.40
   0  -2  -9    3.80    3.50
   0  -2   9    5.90    2.70
   0  -2   9    4.60    3.30
   0  -2  -9    4.90    2.70
   0  -2   9    0.30    3.20
   0  -2  -9    4.70    2.40
   0  -2   9    1.40    3.70
   0  -2  -9    0.90    2.50
   0  -2   9    0.20    2.40
   0  -2   9    4.90    3.10
   0  -2   9    3.10    2.80
   0   2  -9    0.80    3.80
   0   2  -9    0.50    2.50
   0   2  -9   13.20    3.40
   0   2  -9    3.80    3.30
   0   2  -9    4.00    3.50
   0   2   9    3.80    2.60
   0   2   9   -0.40    2.60
   0   2   9    4.80    3.00
   0   2   9    7.60    3.10
   0   2  -9    2.10    2.40
   1  -2   9   13.60    3.40
  -1  -2  -9   18.10    2.50
  -1  -2  -9   11.60    3.20
  -1  -2  -9   12.80    4.70
  -1  -2  -9   18.20    3.70
   1  -2   9   23.20    4.60
   1  -2   9   18.10    3.90
  -1  -2  -9   12.40    3.70
  -1  -2  -9   21.10    4.30
   1  -2   9   16.00    4.10
  -1  -2  -9   14.90    3.10
   1  -2   9   11.20    3.00
   1  -2   9   22.70    4.60
   1  -2   9   16.00    4.40
   1   2   9   15.80    4.30
  -1   2  -9   14.50    2.60
  -1   2  -9   16.40    4.60
   1   2   9   11.50    3.50
  -1   2  -9    8.00    3.60
   1   2   9   15.80    2.60
   1   2   9   15.40    3.70
   1   2   9   14.70    3.30
  -1   2  -9   10.60    3.10
   1   2   9   20.10    4.20
  -1   2  -9   12.60    4.40
  -1   2  -9   16.80    4.70
  -1   2  -9   16.40    3.10
   2  -2   9  451.75   25.40
  -2  -2  -9  373.46   25.80
   2  -2   9  447.86   26.20
   2  -2   9  429.86   25.10
   2  -2   9  416.46   25.80
   2  -2   9  419.36   26.50
   2  -2   9  428.26   25.90
   2  -2   9  454.15   25.90
  -2  -2  -9  368.46   24.90
  -2  -2  -9  356.56   24.20
  -2  -2  -9  369.36   25.20
  -2  -2  -9  357.46   25.20
  -2  -2  -9  368.86   25.10
  -2  -2  -9  373.36   25.60
  -2   2  -9  411.06   24.20
  -2   2  -9  461.75   26.50
   2   2   9  357.16   25.30
   2   2   9  364.66   25.10
  -2   2  -9  427.46   24.70
   2   2   9  362.26   25.60
   2   2   9  345.67   25.10
  -2   2  -9  438.56   25.60
  -2   2  -9  400.96   25.60
   2   2   9  359.06   24.30
  -2   2  -9  399.56   25.40
   2   2   9  369.26   25.30
  -3  -2  -9    2.20    3.00
   3  -2   9    1.00    3.00
   3  -2   9    0.50    3.70
   3  -2   9    2.30    3.50
  -3  -2  -9    3.00    4.50
  -3  -2  -9    1.70    2.90
  -3  -2  -9    1.50    2.50
   3  -2   9    5.70    4.20
  -3  -2  -9    2.20    3.20
   3  -2   9   -1.00    3.90
   3  -2   9    2.40    3.30
  -3  -2  -9    6.20    2.90
  -3  -2  -9   -1.40    2.20
  -3  -2  -9    1.20    3.60
   3  -2   9    3.20    2.80
  -3   2  -9    7.60    2.70
   3   2   9    7.80    4.50
  -3   2  -9    7.90    4.70
  -3   2  -9    3.90    3.20
  -3   2  -9   -5.10    4.30
   3   2   9    3.40    2.50
   3   2   9    4.40    3.50
  -3   2  -9    3.40    3.40
   3   2   9    6.00    4.00
   3   2   9    1.20    3.10
  -3   2  -9    1.10    3.30
   3   2   9    0.40    3.10
  -3   2  -9    2.10    2.50
  -4  -2  -9   72.79    8.20
  -4  -2  -9   62.09    6.20
  -4  -2  -9   64.29    7.80
  -4  -2  -9   78.39    8.10
   4  -2   9  101.19    9.10
  -4  -2  -9   74.89    7.90
  -4  -2  -9   76.19    9.20
   4  -2   9  102.89    9.20
  -4  -2  -9   67.09    6.50
   4  -2   9   74.19    8.30
  -4  -2  -9   86.79    8.40
   4  -2   9   71.89    6.80
   4  -2   9   87.99   10.10
   4  -2   9   91.09    8.10
   4   2   9   67.89    7.20
  -4   2  -9   78.09   10.20
   4   2   9   58.49    7.70
   4   2   9   63.39    7.70
  -4   2  -9   89.79    8.50
  -4   2  -9  101.29    8.50
  -4   2  -9   83.89    8.50
   4   2   9   74.69    7.80
  -4   2  -9   99.69    7.00
   4   2   9   64.39    8.50
   4   2   9   72.69    8.70
  -4   2  -9   79.39    7.10
   4   2   9   84.59    9.20
   5  -2   9   28.50    5.00
  -5  -2  -9   36.50    5.80
   5  -2   9   37.10    7.90
   5  -2   9   39.10    6.10
  -5  -2  -9   29.50    6.60
   5  -2   9   40.90    5.50
   5  -2   9   30.50    4.00
  -5  -2  -9   22.50    3.20
  -5  -2  -9   24.50    5.20
  -5  -2  -9   26.90    5.20
  -5  -2  -9   30.60    3.10
   5  -2   9   29.10    6.00
   5   2   9   31.10    5.80
  -5   2  -9   26.30    6.00
   5   2   9   34.80    5.60
  -5   2  -9   32.70    7.00
  -5   2  -9   23.90    4.50
  -5   2  -9   29.20    5.20
  -5   2  -9   35.80    6.10
  -5   2  -9   39.50    4.30
   5   2   9   21.40    4.30
   5   2   9   22.70    5.60
   5   2   9   30.60    5.00
  -6  -2  -9    1.50    4.70
  -6  -2  -9    0.00    3.90
   6  -2   9   -5.30    5.70
  -6  -2  -9    1.70    4.30
   6  -2   9   -1.70    4.30
   6  -2   9    7.40    5.00
   6  -2   9    2.90    4.40
  -6  -2  -9   -1.30    5.80
   6  -2   9    5.10    2.70
   6  -2   9   -4.50    3.90
  -6   2  -9   -1.60    3.40
  -6   2  -9    1.00    6.20
  -6   2  -9  -11.60    5.00
   6   2   9    3.50    4.20
  -6   2  -9   -3.90    4.20
   6   2   9   -0.70    4.70
   6   2   9    7.50    4.50
  -6   2  -9    2.70    3.00
   6   2   9    1.00    4.00
  -6   2  -9    2.00    3.30
  -7  -2  -9    9.60    5.20
   7  -2   9    9.30    6.30
   7  -2   9    6.70    5.60
   7  -2   9   17.50    3.60
  -7  -2  -9   12.80    4.60
   7   2   9    9.20    4.80
   7   2   9    4.80    5.00
  -7   2  -9   16.10    4.30
   7   2   9   11.70    5.20
  -7   2  -9   14.80    4.20
  -7   2  -9   11.00    5.30
  -8  -2  -9  108.49   12.40
   8  -2   9  106.29   13.60
   8  -2   9  106.99   13.10
  -8  -2  -9  113.69   12.20
   8   2   9  116.99   12.20
   8   2   9  122.29   11.80
  -8   2  -9  107.09   10.70
   8   2   9  137.59   12.80
  -8   2  -9  117.19   12.80
  -9  -2  -9   31.50    8.30
   9  -2   9   31.90    8.60
  -9  -2  -9   37.00    7.40
   9  -2   9   33.00    8.40
   9   2   9   32.40    7.60
   9   2   9   31.40    7.30
  -9   2  -9   28.40    7.80
  -9   2  -9   26.70    7.40
   9   2   9   35.00    7.30
   9  -3  -9   73.29   10.80
  -9  -3   9   98.99    9.90
  -9  -3   9   74.59   11.40
   9  -3  -9   90.99    7.80
  -9   3   9   77.09   13.50
  -9   3   9   97.59    9.40
   9   3  -9   72.79   10.80
   9   3  -9   94.19    8.00
   9   3  -9  106.89   15.50
   8  -3  -9   12.90    6.00
  -8  -3   9   12.50    7.80
  -8  -3   9   20.40    5.40
   8  -3  -9   17.10    3.60
  -8   3   9   15.30   10.40
   8   3  -9   28.00    7.30
   8   3  -9   21.20    4.40
  -8   3   9   22.70    4.40
   8   3  -9   29.60    8.30
  -8   3   9   23.50    9.10
   7  -3  -9    2.70    4.40
  -7  -3   9    0.10    4.80
   7  -3  -9   -3.40    4.60
   7  -3  -9    2.30    3.10
  -7  -3   9    0.60    6.40
   7   3  -9    7.60    3.60
   7   3  -9   -2.70    6.20
  -7   3   9   14.20    6.20
  -7   3   9   -1.70    3.60
   7   3  -9   -0.70    3.10
   7   3  -9    4.60    5.40
  -7   3   9    3.00    6.90
  -6  -3   9  190.68   14.30
  -6  -3   9  189.28   16.70
   6  -3  -9  183.48   13.40
   6  -3  -9  190.08   14.20
   6  -3  -9  220.08   13.80
  -6  -3   9  184.28   15.30
   6  -3  -9  168.08   14.80
   6   3  -9  184.58   13.80
  -6   3   9  177.08   17.50
  -6   3   9  175.88   15.10
   6   3  -9  209.18   13.90
   6   3  -9  182.58   14.90
   6   3  -9  212.18   17.60
   6   3  -9  190.28   13.00
  -6   3   9  219.88   14.40
  -6   3   9  180.18   15.90
  -5  -3   9   21.80    6.40
   5  -3  -9   18.60    4.60
  -5  -3   9   19.50    4.10
  -5  -3   9   30.50    5.90
   5   3  -9   18.80    4.60
  -5   3   9   29.60    3.90
   5   3  -9   16.60    6.10
   5   3  -9   23.60    3.80
   5   3  -9   18.00    4.30
  -5   3   9   27.40    6.80
  -5   3   9   24.00    6.70
   5   3  -9   16.10    4.90
  -4  -3   9   83.09    8.10
  -4  -3   9   77.29    7.60
   4  -3  -9   81.09    7.10
   4  -3  -9   76.69    7.90
   4  -3  -9   64.89    7.30
  -4  -3   9   62.59    8.10
   4  -3  -9   69.09    8.10
  -4  -3   9   73.59    9.00
  -4   3   9   79.29    8.80
   4   3  -9   83.09    7.40
   4   3  -9   69.59    8.30
  -4   3   9   68.79    7.10
  -4   3   9   74.59   10.40
   4   3  -9   82.29    7.90
   4   3  -9   68.89    7.70
  -4   3   9   66.29    7.90
   4   3  -9   69.79   10.30
  -4   3   9   80.29    8.30
   3  -3  -9   97.49    9.10
   3  -3  -9   74.99   10.90
   3  -3  -9   96.69    8.20
   3  -3  -9   92.89    8.40
  -3  -3   9   85.59   10.10
  -3  -3   9   86.19    8.80
   3   3  -9   83.09    8.20
  -3   3   9   95.39    8.60
  -3   3   9  101.99    8.00
  -3   3   9  105.19   11.30
  -3   3   9   97.59   10.40
  -3   3   9   94.89    9.40
   3   3  -9   84.39    8.20
   3   3  -9   91.49   10.90
  -2  -3   9   71.79    7.50
   2  -3  -9   89.79    7.70
   2  -3  -9   69.89    7.90
  -2  -3   9   73.99    9.20
   2  -3  -9   88.29    7.80
   2  -3  -9   65.39    6.90
  -2  -3   9   75.99    9.00
  -2  -3   9   78.29   10.20
  -2   3   9   69.39    7.00
   2   3  -9   74.19    8.10
   2   3  -9   72.49    7.50
  -2   3   9   78.19    7.50
   2   3  -9   82.69   10.40
  -2   3   9   79.99    8.30
  -2   3   9   74.29    8.90
   2   3  -9   68.09    7.90
  -2   3   9   77.09    9.70
  -1  -3   9  450.35   30.80
   1  -3  -9  471.85   29.70
  -1  -3   9  476.35   29.90
  -1  -3   9  426.76   30.70
   1  -3  -9  492.15   29.80
  -1  -3   9  451.05   30.40
   1  -3  -9  466.25   30.10
   1  -3  -9  499.85   29.80
  -1  -3   9  447.46   30.00
  -1   3   9  473.45   30.90
  -1   3   9  462.25   30.10
  -1   3   9  475.65   29.50
   1   3  -9  441.46   29.80
  -1   3   9  478.15   29.70
  -1   3   9  483.65   30.80
   1   3  -9  482.65   30.00
   1   3  -9  474.55   29.90
   1   3  -9  481.85   31.80
   0  -3  -9   65.39    8.50
   0  -3   9   59.29    7.90
   0  -3   9   62.99    7.30
   0  -3   9   76.19    8.60
   0  -3  -9   70.09    8.70
   0  -3  -9   66.59    8.30
   0  -3  -9   74.19    7.90
   0  -3  -9   71.49    7.40
   0  -3   9   73.29    7.80
   0   3  -9   63.79    8.20
   0   3   9   76.69    8.80
   0   3  -9   56.19    7.60
   0   3   9   68.49    7.10
   0   3   9   61.09    7.60
   0   3  -9   68.29    7.50
   0   3   9   72.39    5.20
   0   3   9   65.79    8.30
   0   3  -9   70.99    7.50
   0   3   9   67.19    7.90
   0   3   9   73.79    8.30
   1  -3   9  177.88   13.00
   1  -3   9  169.78   13.90
  -1  -3  -9  152.78   12.90
  -1  -3  -9  184.08   14.10
  -1  -3  -9  177.28   13.30
   1  -3   9  172.78   11.20
   1  -3   9  181.78   14.70
   1  -3   9  170.68   12.90
  -1  -3  -9  168.08   13.20
  -1  -3  -9  167.28   12.80
  -1  -3  -9  163.78   13.30
   1  -3   9  149.79   15.70
   1  -3   9  174.98   13.30
   1   3   9  171.08   13.30
   1   3   9  160.88   14.30
   1   3   9  152.28   13.00
  -1   3  -9  191.08   12.80
   1   3   9  177.28   13.50
  -1   3  -9  183.28   13.20
   1   3   9  163.68   12.90
  -1   3  -9  185.88   15.10
  -1   3  -9  156.48   12.90
   1   3   9  157.98   11.20
  -1   3  -9  173.58   13.20
   1   3   9  183.88   13.20
  -2  -3  -9   28.40    4.80
   2  -3   9   29.10    4.90
   2  -3   9   25.60    5.30
   2  -3   9   29.70    4.70
  -2  -3  -9   27.70    4.70
   2  -3   9   19.30    4.90
   2  -3   9   24.00    6.00
  -2  -3  -9   23.50    6.00
   2  -3   9   34.20    6.40
  -2  -3  -9   33.90    4.90
  -2  -3  -9   30.50    5.60
  -2  -3  -9   19.00    4.30
   2   3   9   25.80    5.10
  -2   3  -9   23.30    6.50
  -2   3  -9   21.20    4.60
  -2   3  -9   17.70    3.80
   2   3   9   23.90    6.00
   2   3   9   29.20    5.60
  -2   3  -9   36.70    4.00
   2   3   9   29.80    4.50
  -2   3  -9   19.50    5.30
   2   3   9   23.20    5.30
  -2   3  -9   19.60    5.00
  -2   3  -9    6.50    6.00
   2   3   9   28.60    3.60
   2   3   9   29.40    5.10
   2   3   9   21.50    4.40
  -3  -3  -9   85.69    9.60
  -3  -3  -9   82.79    8.70
  -3  -3  -9   76.59    9.50
  -3  -3  -9   67.09    8.60
  -3  -3  -9   77.39    8.40
   3  -3   9   96.09   10.20
   3  -3   9   98.39    8.00
   3  -3   9   90.89   10.60
  -3  -3  -9   77.09    8.60
   3  -3   9   95.19    9.90
   3  -3   9   90.79   10.00
   3  -3   9  106.79    9.00
   3   3   9   93.99    9.00
  -3   3  -9   94.29   10.40
  -3   3  -9   89.99    7.60
  -3   3  -9   89.09    9.40
   3   3   9   88.99    8.50
   3   3   9   79.79    9.20
   3   3   9   80.79    9.20
  -3   3  -9   91.69    9.40
   3   3   9   75.69    9.00
   3   3   9   55.89    8.40
  -3   3  -9   91.39    7.70
   3   3   9   65.29    8.10
   3   3   9   71.99    7.20
  -3   3  -9   87.29    9.20
   4  -3   9    7.00    5.00
   4  -3   9   10.40    6.20
  -4  -3  -9   21.20    5.80
  -4  -3  -9   25.30    5.50
  -4  -3  -9   10.70    4.70
  -4  -3  -9   13.30    4.90
   4  -3   9   17.70    5.70
   4  -3   9   14.60    4.60
   4  -3   9   17.20    3.60
  -4  -3  -9    2.10    3.70
   4   3   9   14.50    3.30
  -4   3  -9   11.40    3.70
  -4   3  -9   19.00    5.40
   4   3   9   13.20    3.60
  -4   3  -9   12.50    5.20
  -4   3  -9   27.50    7.40
  -4   3  -9    6.80    9.00
  -4   3  -9    5.90    6.20
   4   3   9    7.50    4.70
   4   3   9   13.20    6.00
   4   3   9   12.00    5.40
   4   3   9    5.10    4.10
   4   3   9   12.90    5.10
  -4   3  -9    4.90    3.10
   5  -3   9   75.29    7.10
  -5  -3  -9   67.19    9.00
   5  -3   9  108.39   11.00
  -5  -3  -9   61.29    6.70
   5  -3   9   96.29   10.80
   5  -3   9   98.49   10.10
  -5  -3  -9   68.89    8.40
  -5  -3  -9   65.89    8.90
   5  -3   9   69.29    9.90
  -5   3  -9  109.99   10.80
  -5   3  -9   87.99   10.70
   5   3   9   70.29    8.10
   5   3   9   67.59    8.40
  -5   3  -9   92.69    8.00
   5   3   9   55.39    8.20
  -5   3  -9   72.59   11.30
   5   3   9   70.49    8.90
   5   3   9   80.99   11.40
  -6  -3  -9   19.40    6.00
   6  -3   9   27.90    6.40
  -6  -3  -9   15.60    6.00
   6  -3   9   23.30    6.90
  -6   3  -9   20.00    6.10
   6   3   9   24.50    5.80
  -6   3  -9   24.00    6.50
  -6   3  -9   19.90    4.50
   6   3   9   20.50    5.00
   6   3   9   34.30    6.10
   7  -3   9    4.20    6.00
  -7  -3  -9   -2.30    5.80
  -7  -3  -9   -3.60    5.90
   7  -3   9    1.60    6.70
  -7   3  -9    1.30    4.40
   7   3   9    4.30    5.20
  -7   3  -9    6.10    5.20
   7   3   9   -4.70    5.20
   7   3   9    0.60    5.00
  -7   3  -9    9.50    6.70
  -8  -3  -9   47.90   11.70
  -8  -3  -9   47.40    8.80
   8  -3   9   52.09    9.10
   8  -3   9   56.49    9.10
  -8   3  -9   46.50    7.90
  -8   3  -9   70.29   10.60
   8   3   9   56.49    8.10
   8   3   9   77.59    9.20
   8   3   9   66.99    8.70
  -7  -4   9   42.70    8.10
   7  -4  -9   54.69    6.70
   7  -4  -9   56.69    9.10
  -7  -4   9   50.49   10.00
   7   4  -9   64.69    8.00
  -7   4   9   45.90    6.80
  -7   4   9   33.50   12.40
  -7   4   9   57.09   10.10
   7   4  -9   51.39   11.10
   7   4  -9   46.80    8.50
  -6  -4   9    5.40    7.10
  -6  -4   9   12.40    6.70
   6  -4  -9   15.70    6.10
   6  -4  -9    9.00    4.50
   6   4  -9   18.80    6.40
  -6   4   9    9.20    5.40
   6   4  -9   17.30    8.30
  -6   4   9   24.90    8.30
   6   4  -9   11.10    4.50
  -5  -4   9   65.99   10.10
   5  -4  -9   66.89    7.70
   5  -4  -9   66.09    8.50
  -5  -4   9   73.39    9.70
  -5   4   9   53.29    9.70
   5   4  -9   73.39    8.70
   5   4  -9   52.49    8.40
   5   4  -9   43.10   10.30
  -5   4   9   54.29    7.70
   4  -4  -9    6.90    5.00
  -4  -4   9   13.00    6.50
   4  -4  -9   19.30    4.60
  -4  -4   9   14.40    6.20
   4   4  -9   -8.80    6.60
  -4   4   9   14.30    4.70
   4   4  -9   12.20    4.80
  -4   4   9   19.70    7.50
   4   4  -9   12.70    4.80
   3  -4  -9   74.49    9.00
  -3  -4   9   68.79    9.30
   3  -4  -9   72.39    9.00
  -3  -4   9   73.09   10.10
   3   4  -9   69.09    8.20
  -3   4   9   75.39   10.80
  -3   4   9   54.99    9.00
  -3   4   9   77.19    9.50
   3   4  -9   81.09    9.40
   2  -4  -9  249.08   16.90
  -2  -4   9  224.58   16.50
   2  -4  -9  253.27   20.40
   2  -4  -9  226.08   16.10
  -2  -4   9  228.58   18.70
   2  -4  -9  202.78   16.80
  -2  -4   9  225.58   18.10
   2   4  -9  215.38   16.10
  -2   4   9  229.28   17.30
  -2   4   9  207.18   15.60
  -2   4   9  221.98   16.00
  -2   4   9  203.18   17.80
   2   4  -9  208.88   16.20
   2   4  -9  223.98   16.70
   1  -4  -9    2.90    4.30
  -1  -4   9    3.70    5.20
  -1  -4   9   -1.10    5.30
   1  -4  -9    5.10    4.20
   1  -4  -9    3.60    4.70
  -1  -4   9    6.20    6.90
  -1  -4   9   -3.80    4.60
   1   4  -9   -4.30    6.00
   1   4  -9    0.40    8.20
  -1   4   9    1.80    4.90
  -1   4   9   -7.80    6.60
  -1   4   9    7.10    5.40
   1   4  -9   -2.40    3.90
  -1   4   9    4.80    4.30
   1   4  -9    6.00    4.30
  -1   4   9    6.50    6.30
   1   4  -9    1.10    4.20
   0  -4  -9    2.60    4.20
   0  -4   9   -0.80    4.70
   0  -4  -9    1.80    4.00
   0  -4  -9    3.10    4.60
   0  -4   9    2.60    6.10
   0  -4   9   -7.00    5.20
   0  -4   9   16.90    6.80
   0  -4  -9    9.70    5.00
   0   4  -9    9.50    4.70
   0   4  -9    1.00    5.00
   0   4  -9    7.20    6.30
   0   4   9    4.90    4.20
   0   4   9   -5.30    4.10
   0   4  -9    3.30    3.70
   0   4   9    5.80    4.60
   0   4  -9   -3.70    4.40
   0   4   9    1.10    6.10
  -1  -4  -9   19.60    5.40
  -1  -4  -9   28.60    6.10
   1  -4   9   29.40    6.20
   1  -4   9   31.20    6.90
  -1  -4  -9   35.00    5.80
   1  -4   9   28.30    7.40
   1  -4   9   34.50    7.50
  -1  -4  -9   41.80    6.90
   1   4   9   37.30    6.10
  -1   4  -9   37.90    5.10
  -1   4  -9   24.60    5.70
  -1   4  -9   32.70    5.60
  -1   4  -9   11.40    7.30
   1   4   9   27.50    5.80
   1   4   9   31.80    6.50
   1   4   9   35.30    3.80
  -1   4  -9   32.80    6.20
   1   4   9   29.60    5.80
   1   4   9   24.40    6.00
  -1   4  -9   41.20    6.60
   1   4   9   31.40    8.50
   2  -4   9  248.18   19.30
  -2  -4  -9  228.28   18.30
  -2  -4  -9  255.97   18.30
   2  -4   9  250.87   18.60
   2  -4   9  231.68   19.00
   2  -4   9  286.77   17.80
  -2  -4  -9  228.48   18.40
  -2  -4  -9  238.58   18.00
   2  -4   9  246.98   20.90
  -2   4  -9  232.38   16.60
   2   4   9  251.17   16.10
   2   4   9  240.68   18.10
   2   4   9  220.28   20.70
   2   4   9  245.18   18.60
   2   4   9  246.88   18.20
  -2   4  -9  286.97   21.30
   2   4   9  245.88   17.70
  -2   4  -9  246.98   16.60
  -2   4  -9  267.57   18.70
  -2   4  -9  233.58   18.40
  -2   4  -9  245.78   18.60
   2   4   9  230.98   20.60
   2   4   9  234.28   19.20
  -3  -4  -9    3.80    5.40
   3  -4   9   -3.20    6.90
   3  -4   9    1.20    5.60
   3  -4   9    7.70    6.10
  -3  -4  -9   10.90    6.60
  -3  -4  -9   -4.30    4.10
  -3  -4  -9    1.60    4.90
  -3  -4  -9    6.20    4.50
   3  -4   9   -0.10    5.80
  -3   4  -9    6.00    8.70
  -3   4  -9    1.80    3.30
  -3   4  -9    5.70    5.10
  -3   4  -9    1.40    3.80
   3   4   9    7.50    5.00
  -3   4  -9    7.40    6.60
   3   4   9    2.50    5.40
   3   4   9   10.40    7.00
   3   4   9   11.60    5.10
   3   4   9    3.20    4.20
  -3   4  -9    5.00    6.00
   3   4   9    4.40    3.20
  -4  -4  -9   27.30    6.50
  -4  -4  -9   44.60    8.00
   4  -4   9   31.10    7.40
   4  -4   9   38.90    9.10
  -4  -4  -9   41.20    7.50
   4  -4   9   39.70    7.80
   4   4   9   47.00    8.30
  -4   4  -9   55.39    6.20
  -4   4  -9   49.90    8.10
   4   4   9   41.70    6.30
  -4   4  -9   44.90    7.70
  -4   4  -9   47.60    9.10
   4   4   9   43.30    7.20
  -4   4  -9   50.19    5.10
   4   4   9   37.00    7.10
   4   4   9   39.60    5.60
   5  -4   9   53.29    9.40
  -5  -4  -9   58.59    9.00
  -5  -4  -9   66.49    9.40
   5  -4   9   42.30    8.70
  -5   4  -9   59.19    7.40
  -5   4  -9   60.69    9.20
   5   4   9   83.89    8.90
   5   4   9   57.89    8.20
  -5   4  -9   67.39    9.80
   5   4   9   78.39    8.80
   6  -4   9   21.70    8.10
  -6  -4  -9   13.80    6.50
   6  -4   9    7.70    7.70
  -6  -4  -9   14.90    7.00
  -6   4  -9   11.90    6.60
   6   4   9    4.80    6.30
  -6   4  -9   -0.60    7.00
   6   4   9   16.30    5.40
   6   4   9   -3.00    5.40
  -6   4  -9   13.30    5.10
   7  -4   9   19.00    8.80
  -7  -4  -9    2.60    7.60
   7  -4   9   12.40    8.10
  -7  -4  -9   -2.50    7.60
  -7   4  -9    7.40    6.90
   7   4   9   22.90    6.40
  -7   4  -9   -8.30    8.00
   7   4   9   -1.10    6.80
  -7   4  -9    6.60    5.50
   7   4   9   -0.70    5.90
   5  -5  -9   49.70    7.20
   5  -5  -9   43.70    9.10
  -5  -5   9   34.50    9.50
  -5  -5   9   24.40    9.40
  -5   5   9   32.60    9.70
  -5   5   9   46.80    7.50
   5   5  -9   38.70    7.30
   5   5  -9   39.10    8.10
  -5   5   9   38.40    7.60
   4  -5  -9   -0.60    5.90
  -4  -5   9   -4.60    7.90
  -4  -5   9    2.80    7.20
   4  -5  -9   -7.10    5.50
   4   5  -9   -4.40    6.10
  -4   5   9    6.90    6.50
  -4   5   9   -4.80    7.30
  -4   5   9    3.40    5.60
   4   5  -9    6.20    5.60
  -3  -5   9   22.00    9.10
   3  -5  -9    9.90    6.20
   3  -5  -9   15.00    8.10
  -3  -5   9   13.00    8.10
  -3   5   9   21.50    7.40
  -3   5   9   16.10    6.10
   3   5  -9   22.40    6.40
   3   5  -9   -8.00    7.70
  -3   5   9   11.70    8.50
   3   5  -9   26.60    6.20
   2  -5  -9   67.19    9.30
   2  -5  -9   44.50    8.90
  -2  -5   9   52.59   10.20
  -2  -5   9   57.09   10.80
  -2   5   9   59.49   10.30
   2   5  -9   59.49    8.30
  -2   5   9   50.89    8.80
   2   5  -9   53.49    7.80
  -2   5   9   55.59    7.50
  -1  -5   9   31.80    9.20
  -1  -5   9   33.50    9.30
   1  -5  -9   44.80    7.90
   1  -5  -9   45.80    7.80
   1   5  -9   39.60    7.80
   1   5  -9   17.40    9.10
  -1   5   9   44.10    8.50
   1   5  -9   36.60    6.40
  -1   5   9   44.20    8.00
  -1   5   9   43.10    7.00
   0  -5   9   69.89   10.60
   0  -5   9   68.39   12.50
   0  -5  -9   66.39    9.70
   0  -5  -9   63.29    9.40
   0   5   9   68.89    9.80
   0   5  -9   57.69    7.80
   0   5  -9   63.09    9.20
   0   5   9   57.09    9.60
   0   5  -9   64.49   11.40
   0   5   9   78.89    9.00
  -1  -5  -9    3.20    5.80
   1  -5   9    1.50   10.10
   1  -5   9    1.80    7.60
  -1  -5  -9   -0.20    5.90
   1   5   9   -0.10    6.40
  -1   5  -9   13.20    8.60
  -1   5  -9   -1.50    7.30
   1   5   9    8.50    6.20
   1   5   9    5.60    6.00
  -1   5  -9   -2.20    4.70
   2  -5   9   -1.40    8.20
   2  -5   9  -10.30    7.70
   2  -5   9   -1.00    8.50
  -2  -5  -9    3.50    6.70
  -2  -5  -9    2.00    6.30
   2   5   9    6.80    5.50
  -2   5  -9   13.50    7.60
   2   5   9    4.50    6.10
  -2   5  -9    3.80    4.50
   2   5   9    8.20    6.50
   2   5   9   -3.80    5.90
  -2   5  -9   -1.40    7.00
  -3  -5  -9   89.19   11.40
  -3  -5  -9   91.79   11.40
   3  -5   9   89.39   12.20
   3  -5   9  110.59   13.00
   3   5   9   82.39   11.50
  -3   5  -9   88.09   12.80
   3   5   9   78.79    9.90
  -3   5  -9   96.59   11.40
   3   5   9   93.49   12.70
  -3   5  -9   80.69   14.70
   4  -5   9    9.90    9.00
  -4  -5  -9   22.60   14.20
  -4  -5  -9   41.70    8.20
   4  -5   9   40.50    6.70
   4  -5   9   13.70    8.60
   4   5   9   44.30   11.90
   4   5   9   28.90    8.00
   4   5   9   31.20    7.20
  -4   5  -9   17.10    8.60
  -4   5  -9   42.30    9.30
  -5  -5  -9   76.69   11.30
   5  -5   9   89.59   13.00
   5  -5   9  108.89   13.30
  -5  -5  -9   77.69   12.30
   5  -5   9  105.79   10.20
   5   5   9   77.59    9.70
   5   5   9   96.29   12.30
  -5   5  -9   94.99   14.00
  -5   5  -9   90.69   11.90
   5   5   9   96.69   12.00
  -5   5  -9   98.49   10.50
  10   0 -10  869.81   55.19
  10   0 -10  835.22   53.09
  10   0 -10  831.62   51.69
 -10   0  10  834.52   51.79
   9   0 -10   86.49    8.50
   9   0 -10   76.09    9.70
   9   0 -10   77.19    8.40
  -9   0  10   64.69    7.60
   9   0 -10   73.89   10.80
   8   0 -10  279.67   16.80
   8   0 -10  276.37   21.40
  -8   0  10  270.67   21.80
   8   0 -10  285.87   18.60
  -8   0  10  281.07   17.70
  -8   0  10  274.57   17.50
   8   0 -10  264.17   17.20
   8   0 -10  284.67   19.10
  -7   0  10  369.16   22.70
  -7   0  10  341.97   24.50
  -7   0  10  349.07   21.30
   7   0 -10  324.47   23.10
   7   0 -10  313.97   22.10
   7   0 -10  338.77   20.90
   7   0 -10  341.07   24.50
  -7   0  10  346.87   21.50
   6   0 -10    0.80    4.50
  -6   0  10    3.40    2.50
   6   0 -10    6.40    2.00
   6   0 -10    4.20    1.90
  -6   0  10   -0.90    5.20
   6   0 -10    4.50    4.20
  -6   0  10   11.20    3.70
   6   0 -10   13.60    3.50
  -6   0  10    9.70    2.80
   5   0 -10  107.29    8.50
  -5   0  10  104.49   10.50
  -5   0  10   87.49    8.20
  -5   0  10   84.79    7.70
  -5   0  10   99.19    7.10
  -5   0  10   93.19    8.60
   5   0 -10   99.09    7.60
   5   0 -10   94.49   11.60
   5   0 -10   92.79    7.90
   5   0 -10   93.19    6.30
   5   0 -10   87.49    7.00
   4   0 -10 1199.98   70.99
  -4   0  10 1168.08   71.39
  -4   0  10 1239.68   71.39
   4   0 -10 1233.38   70.89
   4   0 -10 1207.18   71.19
   4   0 -10 1219.98   73.09
   4   0 -10 1155.98   70.59
  -4   0  10 1145.09   72.19
  -4   0  10 1231.98   70.99
  -4   0  10 1152.68   71.29
   4   0 -10 1186.18   70.89
   3   0 -10   17.90    2.80
  -3   0  10   18.30    3.20
  -3   0  10   16.40    3.30
  -3   0  10   17.40    3.00
  -3   0  10   17.50    3.80
   3   0 -10   15.50    4.50
  -3   0  10   22.00    4.50
   3   0 -10   18.30    3.30
   3   0 -10   15.60    2.80
   3   0 -10   19.90    2.70
   3   0 -10   23.70    3.20
   2   0 -10 1464.65   86.89
  -2   0  10 1503.75   87.49
   2   0 -10 1543.05   88.39
  -2   0  10 1410.06   86.89
   2   0 -10 1558.14   86.49
   2   0 -10 1339.77   87.19
   2   0 -10 1521.85   86.99
  -2   0  10 1527.95   87.09
  -2   0  10 1486.75   87.09
   2   0 -10 1541.25   86.89
   2   0 -10 1303.17   88.09
   2   0 -10 1432.86   87.09
  -2   0  10 1407.46   87.49
   2   0 -10 1479.55   86.89
   1   0 -10  167.48   13.20
   1   0 -10  169.98   12.00
   1   0 -10  172.08   12.80
  -1   0  10  182.88   12.20
  -1   0  10  151.88   11.60
   1   0 -10  153.68   11.40
   1   0 -10  162.38   11.50
   1   0 -10  170.28   11.60
   1   0 -10  171.78   11.50
  -1   0  10  164.98   12.20
  -1   0  10  163.48   12.20
  -1   0  10  166.98   11.70
  -1   0  10  158.28   11.70
   1   0 -10  152.08   12.10
   1   0 -10  186.68   11.30
   0   0 -10   77.79    7.70
   0   0 -10   74.99    8.40
   0   0 -10   80.39    7.00
   0   0  10   83.59    7.10
   0   0 -10   67.59    6.70
   0   0 -10   76.49    6.90
   0   0  10   85.39    7.10
   0   0 -10   78.69    6.80
   0   0 -10   90.09    6.60
   0   0  10   72.19    7.20
   0   0 -10   81.29    7.70
   0   0 -10   73.89    7.40
   0   0  10   75.39    6.90
   0   0  10   86.99    7.80
   1   0  10   87.59    7.50
  -1   0 -10   90.09    8.30
   1   0  10   88.29    8.40
  -1   0 -10   91.89    7.70
  -1   0 -10   93.09    7.80
  -1   0 -10   89.39    7.30
   1   0  10   74.29    7.80
  -1   0 -10   76.59    7.60
  -1   0 -10   79.89    7.10
  -1   0 -10   89.99    7.20
   1   0  10   83.09    7.70
   1   0  10   94.59    8.10
   1   0  10   84.49    7.60
  -1   0 -10   83.29    8.60
  -2   0 -10  627.84   38.30
   2   0  10  632.04   39.10
   2   0  10  664.53   38.80
   2   0  10  665.33   38.40
  -2   0 -10  618.64   38.60
  -2   0 -10  642.44   37.90
  -2   0 -10  599.74   38.40
   2   0  10  592.44   38.40
  -2   0 -10  611.14   38.70
  -2   0 -10  598.44   38.00
  -2   0 -10  628.74   38.30
  -2   0 -10  597.24   38.30
   2   0  10  605.14   38.10
   2   0  10  605.84   38.20
  -2   0 -10  641.14   37.90
  -3   0 -10   20.90    3.80
   3   0  10   30.70    4.20
  -3   0 -10   27.60    4.50
   3   0  10   21.40    5.10
  -3   0 -10   12.80    3.90
  -3   0 -10   25.40    4.20
   3   0  10   26.90    4.50
  -3   0 -10   27.00    4.40
  -3   0 -10   25.10    4.90
   3   0  10   17.80    4.00
  -3   0 -10   17.10    3.80
  -3   0 -10   22.30    4.10
  -3   0 -10   18.00    4.30
   3   0  10   31.40    5.30
   3   0  10   27.10    4.10
  -4   0 -10  631.84   38.40
  -4   0 -10  624.34   38.20
   4   0  10  584.04   39.10
  -4   0 -10  621.94   38.60
  -4   0 -10  562.34   37.90
  -4   0 -10  615.54   39.00
   4   0  10  635.14   38.40
   4   0  10  605.54   37.90
   4   0  10  634.54   38.80
   4   0  10  642.44   38.40
  -4   0 -10  621.84   37.80
  -4   0 -10  630.54   38.40
   4   0  10  608.24   38.60
  -4   0 -10  631.94   37.90
   5   0  10   35.80    6.50
  -5   0 -10   36.80    6.30
   5   0  10   45.40    5.40
   5   0  10   34.00    5.50
  -5   0 -10   37.50    6.20
  -5   0 -10   44.40    5.40
   5   0  10   37.00    6.00
   5   0  10   46.10    7.00
  -5   0 -10   44.70    5.80
  -5   0 -10   41.40    5.90
   6   0  10    3.60    4.30
   6   0  10    3.40    4.00
  -6   0 -10    7.40    1.60
   6   0  10    6.80    3.60
  -6   0 -10    8.60    4.30
   6   0  10    8.70    4.50
   6   0  10   11.10    5.90
  -6   0 -10    6.20    5.20
  -6   0 -10    6.00    3.70
  -6   0 -10    9.00    4.80
   7   0  10  228.98   17.90
  -7   0 -10  241.78   18.20
   7   0  10  232.28   16.60
   7   0  10  274.57   18.30
  -7   0 -10  229.68   17.30
   8   0  10   23.50    5.60
   8   0  10   38.10    6.60
  -8   0 -10   18.20    5.80
  -8   0 -10   25.10    6.10
   8   0  10   19.60    6.20
   9   0  10   11.80    6.30
   9   0  10    4.40    6.50
  -9   0 -10   -1.40    6.00
   9   0  10   10.10    4.70
  -9   0 -10    8.40    5.30
  10  -1 -10  222.18   18.60
  10   1 -10  182.38   19.50
  10   1 -10  218.38   18.50
   9  -1 -10  228.38   20.60
  -9  -1  10  246.08   15.40
  -9  -1  10  235.58   14.90
  -9  -1  10  274.17   19.30
   9  -1 -10  214.28   17.80
  -9   1  10  238.68   15.80
   9   1 -10  232.68   18.30
   9   1 -10  238.28   19.30
  -9   1  10  256.77   20.80
   9   1 -10  238.28   20.50
  -9   1  10  239.98   15.40
   8  -1 -10   30.50    7.20
   8  -1 -10   36.90    4.40
   8  -1 -10   37.40    3.90
  -8  -1  10   36.60    5.00
   8  -1 -10   35.80    5.80
  -8  -1  10   43.10    4.80
   8  -1 -10   44.60    4.90
  -8  -1  10   53.79    7.50
  -8   1  10   53.69    8.90
   8   1 -10   38.70    4.10
  -8   1  10   36.70    4.90
  -8   1  10   44.50    5.30
   8   1 -10   38.30    7.10
   8   1 -10   29.50    7.30
   7  -1 -10  511.55   35.30
   7  -1 -10  583.34   34.30
   7  -1 -10  583.34   34.20
   7  -1 -10  562.04   34.00
  -7  -1  10  583.34   37.80
   7  -1 -10  542.75   37.40
  -7  -1  10  591.24   34.40
  -7  -1  10  549.95   34.90
  -7  -1  10  593.74   36.40
   7   1 -10  565.54   34.00
  -7   1  10  569.04   37.00
  -7   1  10  570.84   34.60
   7   1 -10  546.05   34.10
  -7   1  10  559.24   34.70
   7   1 -10  578.84   37.70
  -6  -1  10   49.80    7.80
   6  -1 -10   60.79    5.00
   6  -1 -10   52.49    5.10
  -6  -1  10   47.50    5.50
   6  -1 -10   47.50    4.90
   6  -1 -10   50.79    6.50
   6  -1 -10   55.49    6.20
   6  -1 -10   40.00    7.20
  -6  -1  10   63.79    7.30
  -6  -1  10   49.40    5.70
  -6   1  10   56.99    4.50
   6   1 -10   41.70    7.20
  -6   1  10   45.10    5.40
  -6   1  10   52.59    6.30
   6   1 -10   56.69    5.30
   6   1 -10   47.40    5.00
  -6   1  10   41.20    7.30
   5  -1 -10  654.83   39.80
  -5  -1  10  629.04   41.90
   5  -1 -10  624.44   40.50
  -5  -1  10  696.33   41.30
  -5  -1  10  658.13   39.70
   5  -1 -10  651.13   42.40
   5  -1 -10  644.24   39.20
  -5  -1  10  681.43   40.10
   5  -1 -10  672.23   39.70
  -5  -1  10  638.64   40.50
  -5   1  10  649.24   40.30
  -5   1  10  674.43   39.80
   5   1 -10  677.53   39.30
   5   1 -10  633.74   41.10
  -5   1  10  666.83   39.70
   5   1 -10  701.73   42.70
   5   1 -10  662.13   39.90
   5   1 -10  674.23   39.90
  -5   1  10  681.33   40.40
  -5   1  10  633.54   41.40
   4  -1 -10  498.95   30.50
  -4  -1  10  518.95   30.80
   4  -1 -10  496.25   32.70
  -4  -1  10  493.25   32.50
  -4  -1  10  541.15   31.90
  -4  -1  10  499.65   30.60
   4  -1 -10  510.85   30.30
  -4  -1  10  484.55   31.30
   4  -1 -10  503.25   30.10
   4  -1 -10  508.75   31.60
  -4   1  10  498.35   30.20
  -4   1  10  513.65   31.00
   4   1 -10  521.05   33.00
   4   1 -10  478.75   31.40
  -4   1  10  487.35   30.70
   4   1 -10  503.65   30.60
   4   1 -10  430.36   31.10
  -4   1  10  503.55   31.10
   4   1 -10  502.35   30.30
  -4   1  10  474.95   31.60
  -3  -1  10    5.80    2.20
   3  -1 -10    5.00    1.80
  -3  -1  10    0.90    3.10
  -3  -1  10   -0.80    2.40
   3  -1 -10    6.10    4.00
   3  -1 -10    2.80    2.10
   3  -1 -10    1.80    2.10
  -3  -1  10    6.40    4.10
   3  -1 -10    2.10    2.20
  -3  -1  10    4.40    3.70
   3  -1 -10    4.80    3.00
  -3   1  10    2.40    2.40
  -3   1  10    5.00    3.20
   3   1 -10    6.50    2.50
   3   1 -10   -0.20    3.60
   3   1 -10    4.20    3.70
  -3   1  10    0.70    2.60
   3   1 -10    3.70    2.30
  -3   1  10   -0.90    2.30
   3   1 -10    2.80    2.20
  -3   1  10   -1.00    2.40
   2  -1 -10   48.60    4.30
  -2  -1  10   54.19    6.50
   2  -1 -10   54.49    5.50
   2  -1 -10   51.29    6.80
   2  -1 -10   48.70    5.10
  -2  -1  10   58.49    6.90
   2  -1 -10   50.59    7.20
   2  -1 -10   52.79    5.20
   2  -1 -10   47.90    5.10
  -2  -1  10   50.79    6.30
  -2  -1  10   43.30    5.20
  -2  -1  10   45.10    6.00
   2   1 -10   42.00    4.80
  -2   1  10   54.79    6.70
   2   1 -10   48.40    6.60
  -2   1  10   43.10    5.40
  -2   1  10   52.49    6.00
   2   1 -10   50.79    5.90
  -2   1  10   53.89    5.20
   2   1 -10   35.60    5.00
  -2   1  10   43.30    5.00
  -2   1  10   41.50    5.80
   2   1 -10   51.89    5.20
   1  -1 -10  376.36   22.90
  -1  -1  10  376.66   23.70
  -1  -1  10  369.16   23.10
   1  -1 -10  348.07   23.30
  -1  -1  10  306.87   22.70
  -1  -1  10  379.66   23.50
   1  -1 -10  379.76   22.90
   1  -1 -10  393.76   22.90
   1  -1 -10  382.16   22.10
  -1  -1  10  322.87   22.50
  -1  -1  10  392.96   23.40
   1  -1 -10  382.36   23.90
   1  -1 -10  346.97   23.20
   1  -1 -10  369.46   22.90
   1  -1 -10  361.56   24.00
  -1   1  10  383.86   23.20
  -1   1  10  369.76   23.40
   1   1 -10  358.86   22.80
   1   1 -10  372.66   22.90
   1   1 -10  334.27   23.10
  -1   1  10  352.06   23.10
   1   1 -10  323.77   22.60
  -1   1  10  351.36   22.90
  -1   1  10  350.06   22.30
   1   1 -10  370.66   24.20
   1   1 -10  334.37   23.10
   1   1 -10  292.57   24.30
   1   1 -10  407.66   23.30
  -1   1  10  359.46   22.80
   0  -1 -10   59.19    5.70
   0  -1 -10   54.49    7.20
   0  -1  10   56.89    6.50
   0  -1  10   61.69    6.40
   0  -1 -10   52.89    5.80
   0  -1 -10   66.49    7.10
   0  -1 -10   41.90    5.80
   0  -1 -10   67.69    6.60
   0  -1  10   54.49    6.10
   0  -1 -10   52.89    5.00
   0  -1 -10   56.59    6.40
   0  -1  10   53.99    6.90
   0  -1  10   54.09    6.00
   0  -1  10   51.89    6.90
   0  -1 -10   50.49    5.80
   0   1  10   51.99    6.40
   0   1  10   48.80    6.20
   0   1 -10   58.99    6.60
   0   1 -10   65.79    6.50
   0   1  10   49.50    6.30
   0   1 -10   52.59    4.90
   0   1 -10   37.80    5.20
   0   1  10   49.99    6.00
   0   1 -10   49.90    6.60
   0   1 -10   52.99    5.50
   0   1 -10   50.09    5.80
   0   1  10   52.29    5.30
   0   1 -10   49.60    5.70
  -1  -1 -10  399.26   23.70
  -1  -1 -10  396.86   23.50
   1  -1  10  360.16   23.00
   1  -1  10  339.67   23.10
   1  -1  10  331.57   23.20
   1  -1  10  344.07   23.90
   1  -1  10  358.66   23.60
   1  -1  10  383.06   23.80
   1   1  10  429.26   23.60
  -1   1 -10  340.87   24.10
  -1   1 -10  352.06   23.00
  -1   1 -10  354.66   23.00
  -1   1 -10  360.46   23.70
   1   1  10  334.47   25.60
  -1   1 -10  342.87   23.00
  -1   1 -10  348.07   23.70
  -1   1 -10  363.46   22.10
  -1   1 -10  350.96   23.20
  -2  -1 -10   13.00    3.60
  -2  -1 -10   13.70    4.10
  -2  -1 -10   19.50    4.00
  -2  -1 -10   11.30    3.20
  -2  -1 -10   16.60    3.20
  -2  -1 -10   16.60    3.70
   2  -1  10   13.30    3.90
   2  -1  10   14.00    3.20
   2  -1  10   15.40    4.70
   2  -1  10   17.70    3.70
  -2  -1 -10   15.30    3.30
   2  -1  10   19.00    4.30
   2  -1  10   22.30    3.90
  -2  -1 -10   15.80    3.70
   2  -1  10   19.30    4.20
  -2   1 -10   14.50    3.70
  -2   1 -10   23.70    5.20
  -2   1 -10   19.80    3.60
   2   1  10   14.50    3.70
   2   1  10   14.00    3.80
  -2   1 -10   10.80    3.90
   2   1  10   15.50    4.30
   2   1  10   17.80    3.70
  -2   1 -10   12.60    3.30
  -2   1 -10   18.50    3.90
   2   1  10   16.30    3.10
  -2   1 -10   11.80    3.60
   2   1  10   21.70    4.60
  -2   1 -10   14.50    2.60
   3  -1  10   60.89    6.50
   3  -1  10   50.59    5.90
  -3  -1 -10   77.19    6.60
  -3  -1 -10   58.19    5.70
  -3  -1 -10   52.89    6.50
  -3  -1 -10   53.39    6.80
  -3  -1 -10   63.09    6.30
  -3  -1 -10   52.69    6.60
   3  -1  10   65.09    7.40
   3  -1  10   58.79    7.00
  -3  -1 -10   47.80    6.00
  -3  -1 -10   50.39    6.50
   3  -1  10   59.09    7.60
   3  -1  10   54.19    7.20
   3  -1  10   52.79    6.30
   3   1  10   57.39    6.80
   3   1  10   52.29    6.10
   3   1  10   68.69    7.80
  -3   1 -10   64.99    6.70
  -3   1 -10   47.30    6.90
  -3   1 -10   47.70    6.50
  -3   1 -10   52.39    5.80
   3   1  10   46.10    6.90
   3   1  10   50.39    6.20
  -3   1 -10   62.49    7.40
   3   1  10   64.09    6.70
  -3   1 -10   50.99    6.30
  -3   1 -10   49.40    6.40
   4  -1  10  266.67   18.40
   4  -1  10  269.97   18.30
  -4  -1 -10  259.97   16.60
   4  -1  10  248.58   17.50
  -4  -1 -10  268.87   18.70
   4  -1  10  279.27   18.70
  -4  -1 -10  253.47   17.70
  -4  -1 -10  226.78   17.50
  -4  -1 -10  254.87   17.70
   4  -1  10  266.57   17.30
   4  -1  10  251.37   18.90
  -4  -1 -10  264.47   17.80
   4  -1  10  252.97   17.10
  -4  -1 -10  264.77   17.70
  -4  -1 -10  240.08   18.60
  -4   1 -10  266.37   18.00
  -4   1 -10  264.77   17.10
   4   1  10  250.57   17.90
  -4   1 -10  259.67   17.80
  -4   1 -10  264.17   17.80
   4   1  10  254.87   17.50
  -4   1 -10  271.77   19.00
   4   1  10  244.28   18.50
   4   1  10  250.67   18.50
   4   1  10  270.87   17.80
   4   1  10  260.27   17.50
  -4   1 -10  229.68   17.00
  -5  -1 -10  171.58   13.50
   5  -1  10  183.68   13.20
  -5  -1 -10  176.48   14.40
  -5  -1 -10  169.48   13.40
  -5  -1 -10  168.18   11.10
   5  -1  10  185.68   12.60
   5  -1  10  182.48   13.90
   5  -1  10  177.48   12.50
  -5  -1 -10  158.28   13.40
   5  -1  10  151.18   13.50
   5  -1  10  192.08   15.70
  -5   1 -10  173.08   13.60
  -5   1 -10  168.98   14.10
   5   1  10  163.38   13.10
   5   1  10  192.28   13.80
  -5   1 -10  200.68   14.90
   5   1  10  182.08   13.70
   5   1  10  164.58   14.40
  -5   1 -10  185.58   12.80
   5   1  10  171.78   13.50
  -5   1 -10  177.68   12.80
  -5   1 -10  191.38   15.10
  -6  -1 -10   -0.50    4.50
   6  -1  10   15.00    9.50
   6  -1  10   -2.20    4.30
   6  -1  10    1.50    3.30
   6  -1  10    2.10    3.10
   6  -1  10    4.60    4.60
  -6  -1 -10    4.80    4.90
   6  -1  10   -6.00    4.50
  -6  -1 -10    2.40    4.10
  -6  -1 -10    4.00    4.10
  -6   1 -10    2.20    4.00
   6   1  10    1.60    4.20
  -6   1 -10    8.50    5.40
  -6   1 -10    1.00    3.30
   6   1  10    0.10    4.10
  -6   1 -10   -2.80    2.90
  -6   1 -10    9.50    4.60
   6   1  10    3.50    4.30
   6   1  10    2.80    4.50
  -6   1 -10    0.90    4.70
  -7  -1 -10    7.20    4.90
  -7  -1 -10   14.00    4.70
   7  -1  10    9.30    5.30
   7  -1  10   12.00    5.60
   7  -1  10    8.50    3.60
  -7   1 -10   10.10    5.90
   7   1  10    5.00    4.40
   7   1  10   10.00    4.40
   7   1  10    9.60    5.20
  -7   1 -10    5.10    3.80
   8  -1  10  120.79   12.30
   8  -1  10  123.59   10.10
  -8  -1 -10  100.49   11.50
  -8  -1 -10  126.49   12.20
   8  -1  10  137.49   13.70
   8   1  10  126.19   11.60
   8   1  10  107.59   12.80
  -8   1 -10  112.59   11.30
  -8   1 -10  120.49   12.50
   8   1  10  106.49   12.40
   9  -1  10   67.19   10.60
   9  -1  10   57.49    9.60
  -9  -1 -10   69.79    9.20
   9   1  10   63.39    8.60
  -9   1 -10   62.59    9.60
   9   1  10   76.79    8.80
   9   1  10   81.99   10.10
  -9   1 -10   57.69    9.00
  -9  -2  10   22.60    3.80
   9  -2 -10   16.40    2.70
   9  -2 -10   11.40    3.00
   9  -2 -10   16.60    7.10
  -9  -2  10   12.90    4.20
   9  -2 -10   18.50    6.30
  -9  -2  10   12.20    7.60
   9   2 -10   17.00    2.80
  -9   2  10   16.30    8.50
   9   2 -10   16.50    2.50
   9   2 -10   19.60    8.30
  -9   2  10   18.30    3.80
   9   2 -10   21.80    7.00
   8  -2 -10  279.47   18.00
   8  -2 -10  271.07   20.40
  -8  -2  10  306.57   18.70
   8  -2 -10  296.07   18.50
   8  -2 -10  294.67   22.90
  -8  -2  10  282.87   22.10
  -8  -2  10  281.07   19.60
   8   2 -10  265.47   22.60
   8   2 -10  280.67   21.40
  -8   2  10  286.57   19.80
   8   2 -10  283.37   18.20
  -8   2  10  283.17   18.70
  -8   2  10  249.28   23.80
   8   2 -10  293.87   18.00
  -8   2  10  294.47   21.90
  -7  -2  10  253.37   18.10
   7  -2 -10  249.28   16.60
  -7  -2  10  265.77   20.40
  -7  -2  10  253.47   17.20
   7  -2 -10  269.07   17.10
  -7   2  10  241.28   18.30
   7   2 -10  248.08   16.90
   7   2 -10  261.07   19.60
  -7   2  10  274.57   21.90
  -7   2  10  255.07   17.20
   7   2 -10  260.87   20.80
   7   2 -10  265.07   16.60
  -7   2  10  257.47   19.70
  -6  -2  10   61.29    5.60
  -6  -2  10   46.10    6.40
   6  -2 -10   50.29    5.30
  -6  -2  10   53.29    6.90
   6  -2 -10   50.39    6.10
   6  -2 -10   57.99    6.90
  -6  -2  10   55.79    7.90
  -6   2  10   56.99    9.90
   6   2 -10   57.79    7.40
  -6   2  10   50.19    6.20
   6   2 -10   48.20    5.70
   6   2 -10   40.00    7.50
  -6   2  10   54.89    6.90
  -6   2  10   59.99    8.00
   6   2 -10   52.49    5.90
  -6   2  10   45.70    4.70
   5  -2 -10   36.00    4.30
  -5  -2  10   41.30    4.80
   5  -2 -10   39.90    4.70
  -5  -2  10   40.60    5.40
   5  -2 -10   41.90    5.70
  -5  -2  10   38.00    5.70
  -5  -2  10   42.70   10.50
   5  -2 -10   37.20    4.90
  -5  -2  10   38.40    7.60
  -5   2  10   37.80    5.80
   5   2 -10   31.00    7.00
   5   2 -10   39.60    4.90
  -5   2  10   44.40    5.30
   5   2 -10   33.30    4.60
  -5   2  10   37.30    7.80
  -5   2  10   43.80    5.40
  -5   2  10   45.10    6.90
   5   2 -10   39.80    4.70
   4  -2 -10 1184.88   70.89
   4  -2 -10 1214.18   70.09
  -4  -2  10 1076.19   71.79
  -4  -2  10 1183.48   72.09
  -4  -2  10 1132.39   71.29
   4  -2 -10 1183.98   70.29
  -4  -2  10 1205.28   71.79
   4   2 -10 1141.99   70.09
  -4   2  10 1214.28   71.19
   4   2 -10 1144.19   70.49
   4   2 -10 1135.49   70.39
  -4   2  10 1207.68   71.09
  -4   2  10 1210.48   73.09
  -4   2  10 1226.28   70.19
   4   2 -10 1159.88   72.49
  -4   2  10 1219.48   70.89
   3  -2 -10  109.99    8.30
  -3  -2  10  104.99   10.70
   3  -2 -10   99.79    8.20
   3  -2 -10  120.49    8.50
  -3  -2  10   84.69   10.60
  -3  -2  10   96.89    8.40
  -3  -2  10  105.19   10.20
  -3  -2  10   97.09    8.70
   3  -2 -10  107.09    9.00
  -3   2  10   97.59    8.10
  -3   2  10  104.09    9.20
   3   2 -10  101.29    8.50
  -3   2  10  110.59   11.70
   3   2 -10   91.69    8.60
   3   2 -10  107.79    8.60
  -3   2  10  101.39    9.20
   3   2 -10   70.89   12.50
  -3   2  10  100.39    9.00
   2  -2 -10  798.72   44.70
  -2  -2  10  645.44   44.50
  -2  -2  10  647.54   45.20
   2  -2 -10  771.02   44.60
  -2  -2  10  632.44   45.30
  -2  -2  10  672.03   44.70
   2  -2 -10  849.41   44.80
  -2  -2  10  654.53   45.40
   2  -2 -10  779.12   45.00
  -2   2  10  835.12   45.40
   2   2 -10  655.03   45.90
   2   2 -10  646.04   44.40
  -2   2  10  823.22   46.90
  -2   2  10  840.82   45.50
   2   2 -10  658.63   44.60
   2   2 -10  641.54   45.20
  -2   2  10  832.72   45.20
  -2   2  10  809.42   44.80
  -1  -2  10  134.19   11.40
   1  -2 -10  119.59    9.90
  -1  -2  10  143.29   11.50
  -1  -2  10  135.59   10.20
   1  -2 -10  127.69    9.90
  -1  -2  10  121.49   11.00
   1  -2 -10  118.29   11.60
   1  -2 -10  133.59   10.50
  -1  -2  10  132.69   10.20
   1   2 -10  114.49    9.90
  -1   2  10  133.89   11.70
  -1   2  10  129.79   10.40
   1   2 -10  129.89   11.80
  -1   2  10  137.09    9.80
   1   2 -10  128.99   10.20
  -1   2  10  142.29   10.80
   1   2 -10  129.49   10.10
   0  -2  10   -0.10    3.30
   0  -2 -10    1.90    1.80
   0  -2 -10    1.20    2.90
   0  -2 -10    2.50    3.60
   0  -2  10    2.50    6.20
   0  -2  10    3.20    3.40
   0  -2  10    2.00    3.40
   0  -2 -10    9.20    3.80
   0  -2  10    6.20    3.40
   0  -2 -10   -0.80    4.00
   0  -2 -10    2.50    2.50
   0  -2  10   -1.40    3.20
   0   2  10    1.20    2.80
   0   2  10    0.50    3.40
   0   2  10    0.70    3.00
   0   2  10    3.00    3.00
   0   2  10    1.70    2.20
   0   2 -10   -0.70    3.80
   0   2  10    3.80    3.80
   0   2 -10    0.70    3.30
   0   2 -10    0.50    2.80
   0   2 -10    3.40    3.00
   0   2 -10    5.00    2.90
   0   2 -10    5.80    4.10
   1  -2  10  201.18   15.60
   1  -2  10  198.58   14.80
  -1  -2 -10  212.88   14.50
   1  -2  10  201.18   14.20
   1  -2  10  208.78   14.50
  -1  -2 -10  200.98   14.70
  -1  -2 -10  213.58   14.40
   1  -2  10  177.68   15.20
   1  -2  10  182.18   15.20
  -1  -2 -10  210.08   15.50
  -1  -2 -10  207.88   14.70
   1  -2  10  219.28   15.10
  -1  -2 -10  220.98   15.00
  -1  -2 -10  200.18   13.10
   1   2  10  200.68   14.80
   1   2  10  197.68   15.10
   1   2  10  211.28   15.20
  -1   2 -10  187.28   15.50
  -1   2 -10  194.48   14.90
  -1   2 -10  216.08   15.70
  -1   2 -10  209.08   12.80
   1   2  10  193.38   14.60
  -1   2 -10  201.18   14.70
  -1   2 -10  196.88   14.00
   1   2  10  189.78   13.20
  -1   2 -10  205.78   14.50
   1   2  10  206.58   14.50
   2  -2  10  489.65   30.90
  -2  -2 -10  448.86   30.20
   2  -2  10  486.45   30.20
  -2  -2 -10  454.25   28.50
  -2  -2 -10  438.76   29.40
  -2  -2 -10  469.35   30.00
   2  -2  10  484.75   29.40
   2  -2  10  488.35   29.60
   2  -2  10  499.85   30.30
  -2  -2 -10  414.86   29.10
  -2  -2 -10  442.46   29.50
  -2  -2 -10  421.26   29.30
  -2  -2 -10  400.86   29.40
   2  -2  10  515.65   30.20
   2  -2  10  498.75   30.60
  -2   2 -10  529.45   30.00
  -2   2 -10  515.85   29.90
   2   2  10  430.16   29.50
  -2   2 -10  439.66   31.00
  -2   2 -10  463.25   29.90
   2   2  10  431.96   29.50
  -2   2 -10  525.25   28.40
  -2   2 -10  547.85   31.10
   2   2  10  416.76   30.00
   2   2  10  428.06   28.60
   2   2  10  434.96   29.80
  -2   2 -10  504.55   29.20
   3  -2  10   17.40    4.70
  -3  -2 -10    6.60    3.50
   3  -2  10    2.50    4.20
  -3  -2 -10    4.90    5.10
   3  -2  10    1.50    3.60
   3  -2  10   16.10    5.10
  -3  -2 -10    4.80    3.30
  -3  -2 -10    5.30    3.70
   3  -2  10    4.80    3.40
  -3  -2 -10    0.90    3.20
  -3  -2 -10    3.00    2.60
  -3  -2 -10    5.90    3.20
   3  -2  10    9.20    3.80
  -3  -2 -10   -3.00    3.20
  -3   2 -10    2.70    3.50
   3   2  10   -0.10    4.20
   3   2  10    7.90    3.40
  -3   2 -10    4.50    3.10
  -3   2 -10    5.90    4.00
  -3   2 -10    5.60    2.80
   3   2  10    8.50    4.80
   3   2  10   10.40    4.10
  -3   2 -10    6.00    5.20
  -3   2 -10   -2.20    5.20
  -3   2 -10   12.50    4.00
   3   2  10   10.90    3.70
   4  -2  10  415.46   26.70
  -4  -2 -10  410.46   27.50
   4  -2  10  423.86   29.30
   4  -2  10  433.96   28.30
   4  -2  10  492.65   27.80
  -4  -2 -10  419.26   27.90
  -4  -2 -10  404.16   27.70
   4  -2  10  430.76   27.90
  -4  -2 -10  413.66   27.20
  -4  -2 -10  443.96   29.00
  -4  -2 -10  404.66   26.30
  -4  -2 -10  413.56   26.40
   4  -2  10  432.56   28.20
  -4  -2 -10  417.46   27.80
   4  -2  10  453.45   28.30
  -4   2 -10  448.96   26.60
   4   2  10  428.26   28.10
   4   2  10  418.66   29.10
   4   2  10  435.26   27.80
  -4   2 -10  437.76   29.10
  -4   2 -10  421.96   27.80
   4   2  10  418.46   27.80
   4   2  10  407.66   26.90
  -4   2 -10  435.06   27.90
   4   2  10  427.26   28.50
  -4   2 -10  425.76   27.90
  -4   2 -10  434.46   26.80
   4   2  10  395.76   27.30
   5  -2  10   -0.60    5.40
   5  -2  10   13.80    4.30
  -5  -2 -10    1.00    2.00
   5  -2  10   10.20    4.80
   5  -2  10    5.70    3.30
  -5  -2 -10    8.80    4.10
  -5  -2 -10    6.80    4.50
   5  -2  10   16.20    4.70
  -5  -2 -10    6.30    2.00
   5  -2  10    6.00    5.40
  -5  -2 -10   12.90    6.40
  -5  -2 -10    8.00    4.10
  -5   2 -10    8.70    4.90
   5   2  10    6.20    4.20
   5   2  10   19.10    5.30
  -5   2 -10    0.60    4.80
   5   2  10    2.20    6.00
   5   2  10    8.60    4.20
  -5   2 -10   11.50    5.30
  -5   2 -10    9.70    6.50
   5   2  10    6.30    4.10
  -5   2 -10    9.60    3.60
  -5   2 -10   13.30    3.50
   6  -2  10   -1.10    3.00
   6  -2  10   -0.60    5.90
  -6  -2 -10    4.20    4.30
   6  -2  10   11.90    7.60
  -6  -2 -10   -1.20    4.30
   6  -2  10   -3.30    5.70
  -6  -2 -10    4.00    9.00
   6  -2  10   15.10    7.90
   6   2  10    4.50    4.40
   6   2  10   -1.50    4.90
   6   2  10    7.00    4.60
   6   2  10    2.70    6.40
  -6   2 -10    3.20    3.50
  -6   2 -10    5.00    5.40
  -6   2 -10   -1.60    3.80
   7  -2  10  151.78   11.20
   7  -2  10  150.68   14.40
   7  -2  10  145.59   14.90
  -7  -2 -10  162.78   13.40
  -7  -2 -10  132.19   14.20
  -7   2 -10  146.79   12.30
   7   2  10  154.78   13.20
   7   2  10  160.28   13.90
  -7   2 -10  131.09   14.40
  -7   2 -10  152.68   12.50
   7   2  10  145.59   13.50
   8  -2  10   30.30    7.50
  -8  -2 -10   24.10    7.10
  -8  -2 -10   28.40    7.40
   8  -2  10   36.20    7.70
  -8   2 -10   29.90    6.00
   8   2  10   28.00    6.70
   8   2  10   32.50    6.80
  -8   2 -10   37.60    7.90
   8   2  10   30.30    7.50
   9   2  10    8.40    6.00
   9   2  10  -16.80    7.20
  -8  -3  10  103.69   13.40
   8  -3 -10   94.29    8.80
   8  -3 -10   91.09   12.10
  -8  -3  10  105.19   11.10
   8   3 -10  109.09    9.30
  -8   3  10  108.69   16.60
   8   3 -10   87.99   10.90
  -8   3  10  112.99   12.40
  -8   3  10  110.49    9.70
   8   3 -10   99.79   13.50
   7  -3 -10  395.46   28.40
  -7  -3  10  406.96   30.20
  -7  -3  10  411.06   28.30
   7  -3 -10  417.86   26.50
   7   3 -10  423.96   26.90
  -7   3  10  416.26   27.20
  -7   3  10  414.96   31.60
   7   3 -10  436.26   29.40
   7   3 -10  438.56   31.10
  -7   3  10  429.06   28.80
  -6  -3  10   15.20    5.60
  -6  -3  10    6.00    6.90
   6  -3 -10    9.40    4.40
   6  -3 -10   -3.80    3.20
  -6   3  10    8.20    4.00
   6   3 -10   10.00    4.00
  -6   3  10    0.10    7.00
   6   3 -10   10.90    5.50
  -6   3  10    6.20    5.80
   6   3 -10   19.80    7.10
   5  -3 -10  167.28   11.50
  -5  -3  10  120.99   13.30
   5  -3 -10  156.38   12.70
  -5  -3  10  160.98   15.10
   5   3 -10  139.59   11.60
   5   3 -10  129.49   12.60
   5   3 -10  135.69   12.50
  -5   3  10  156.88   13.00
  -5   3  10  176.58   15.90
  -5   3  10  168.58   12.60
   5   3 -10  135.59   14.50
  -4  -3  10   92.39   11.30
  -4  -3  10   65.69    8.50
   4  -3 -10   73.79    7.30
   4  -3 -10   65.59    7.60
  -4  -3  10   76.39    9.10
  -4  -3  10   57.09    7.30
   4  -3 -10   69.19    8.40
   4  -3 -10   65.69    7.20
   4   3 -10   76.19    7.90
   4   3 -10   78.49    7.90
  -4   3  10   67.29   10.10
  -4   3  10   75.99    8.60
  -4   3  10   55.79    9.20
   4   3 -10   57.69    7.50
  -4   3  10   72.29    8.50
   4   3 -10   70.79   10.10
   4   3 -10   65.39    7.60
   3  -3 -10  363.36   23.00
   3  -3 -10  363.06   23.50
  -3  -3  10  313.27   24.50
  -3  -3  10  324.77   22.90
   3  -3 -10  386.26   22.90
  -3  -3  10  307.27   24.40
   3  -3 -10  381.56   22.70
  -3  -3  10  322.97   24.20
  -3   3  10  375.76   23.80
   3   3 -10  332.37   25.20
   3   3 -10  307.17   23.10
  -3   3  10  403.46   23.70
   3   3 -10  317.87   22.70
   3   3 -10  318.47   22.90
  -3   3  10  385.46   22.60
  -3   3  10  374.06   25.20
   3   3 -10  321.37   22.70
   2  -3 -10  276.77   19.10
   2  -3 -10  281.07   19.50
   2  -3 -10  277.67   19.30
  -2  -3  10  296.57   21.00
  -2  -3  10  289.37   19.40
   2  -3 -10  233.08   21.10
   2   3 -10  282.17   21.40
   2   3 -10  293.07   19.50
  -2   3  10  313.37   20.40
  -2   3  10  309.77   20.40
  -2   3  10  292.97   19.30
  -2   3  10  277.97   21.30
   2   3 -10  277.57   19.30
  -1  -3  10  441.46   31.30
  -1  -3  10  477.05   31.20
   1  -3 -10  595.04   31.40
  -1  -3  10  436.06   32.20
  -1  -3  10  460.55   31.80
   1  -3 -10  540.95   31.20
  -1  -3  10  442.66   32.10
  -1   3  10  580.44   31.10
   1   3 -10  460.15   31.10
   1   3 -10  460.15   31.30
  -1   3  10  456.45   31.70
  -1   3  10  589.94   32.00
   1   3 -10  420.26   30.90
   1   3 -10  475.45   33.10
   0  -3 -10    8.00    4.30
   0  -3  10    7.60    4.80
   0  -3  10   16.90    4.80
   0  -3 -10   14.40    4.00
   0  -3  10   12.30    5.60
   0  -3  10    7.90    5.00
   0  -3 -10   13.40    4.50
   0   3  10   19.30    5.10
   0   3  10   14.30    4.50
   0   3 -10   10.20    4.60
   0   3  10   16.70    2.20
   0   3  10   16.80    5.80
   0   3 -10   21.40    4.60
   0   3 -10    2.80    5.80
   0   3 -10    0.30    4.30
   0   3  10   15.90    4.80
   0   3  10   12.90    4.30
  -1  -3 -10  221.88   16.80
  -1  -3 -10  210.18   17.20
  -1  -3 -10  231.48   17.40
   1  -3  10  247.48   18.10
   1  -3  10  272.57   17.30
   1  -3  10  260.47   19.10
  -1  -3 -10  226.78   17.30
   1  -3  10  273.67   18.20
   1  -3  10  269.97   17.90
  -1  -3 -10  223.18   17.10
   1   3  10  227.88   18.20
   1   3  10  238.58   17.50
   1   3  10  211.88   15.20
   1   3  10  229.28   17.70
   1   3  10  225.38   16.90
   1   3  10  227.88   15.70
  -1   3 -10  254.87   17.40
  -1   3 -10  265.37   17.60
   1   3  10  246.78   19.20
  -1   3 -10  252.07   16.50
   1   3  10  232.38   17.10
  -1   3 -10  248.38   17.50
   2  -3  10   16.80    5.50
   2  -3  10   25.30    4.80
   2  -3  10   21.60    5.70
   2  -3  10   18.10    6.30
  -2  -3 -10   29.70    5.60
  -2  -3 -10   17.90    5.10
  -2  -3 -10   21.10    4.70
   2  -3  10   16.10    4.80
  -2  -3 -10   19.80    6.00
  -2  -3 -10   26.80    5.70
  -2  -3 -10   20.50    4.90
   2  -3  10   24.10    6.10
   2   3  10   19.70    4.90
   2   3  10   12.40    5.60
   2   3  10   21.80    4.90
  -2   3 -10    4.70    7.90
   2   3  10   22.20    4.90
   2   3  10   24.20    6.80
  -2   3 -10   25.40    3.70
  -2   3 -10   17.90    5.00
   2   3  10   18.60    3.50
  -2   3 -10   19.80    5.00
   2   3  10   18.80    5.00
  -2   3 -10   18.40    7.00
   2   3  10   26.70    4.70
  -2   3 -10   19.60    4.70
  -2   3 -10   29.50    4.50
  -3  -3 -10   20.70    4.50
  -3  -3 -10   19.60    4.80
   3  -3  10   14.10    5.60
   3  -3  10   21.60    4.60
  -3  -3 -10   20.90    5.00
   3  -3  10   23.20    6.60
   3  -3  10   29.70    6.30
   3  -3  10   17.30    5.20
   3  -3  10   14.20    5.60
  -3  -3 -10   13.70    6.80
  -3  -3 -10   28.80    6.10
  -3  -3 -10   26.10    5.90
  -3   3 -10   13.90    6.90
  -3   3 -10   34.40    9.50
   3   3  10   28.00    5.80
   3   3  10   18.60    4.70
   3   3  10   18.50    5.10
   3   3  10   10.30    6.60
  -3   3 -10   28.20    5.30
   3   3  10   17.90    4.80
   3   3  10   23.70    5.50
  -3   3 -10   17.60    4.20
   3   3  10   18.60    3.90
  -3   3 -10   27.40    4.30
   3   3  10   12.00    5.90
  -3   3 -10   25.20    5.90
  -3   3 -10   18.50    5.00
  -4  -3 -10  116.49   10.60
  -4  -3 -10   90.09   10.10
  -4  -3 -10  113.09   12.20
   4  -3  10  109.19   13.00
   4  -3  10   97.69    9.20
   4  -3  10  112.69   12.00
  -4  -3 -10   92.49   10.80
  -4  -3 -10  104.39    9.00
   4  -3  10  100.59   10.70
   4  -3  10  127.99   12.30
   4   3  10  105.39   10.90
  -4   3 -10   96.39   11.30
   4   3  10  103.29   10.00
  -4   3 -10  103.99   13.30
  -4   3 -10   82.49   11.30
  -4   3 -10   90.79    9.00
  -4   3 -10  110.29   12.10
   4   3  10   94.99   11.30
  -4   3 -10   89.09    8.20
   4   3  10  102.49    9.50
   4   3  10  107.29    9.20
   4   3  10   84.79   11.20
   4   3  10   96.09   10.50
  -5  -3 -10   50.19    7.50
  -5  -3 -10   37.50    6.70
  -5  -3 -10   45.10    7.60
   5   3  10   30.20    6.60
   5   3  10   36.80    7.10
   5   3  10   53.99    7.80
   5   3  10   28.80    6.30
  -6  -3 -10   13.80    5.40
   6  -3  10   22.00    7.90
  -6  -3 -10   21.20    7.40
   6  -3  10   32.90    8.00
  -6   3 -10   19.40    6.30
   6   3  10    9.40    5.30
   6   3  10   23.20    5.80
  -6   3 -10   17.80    5.30
  -6   3 -10   28.10    7.20
   6   3  10   25.30    6.30
  -7  -3 -10    3.60    6.90
  -7  -3 -10    5.90    6.00
   7  -3  10    1.00    6.70
   7  -3  10  -15.80    7.10
  -7   3 -10   -2.10    5.70
  -7   3 -10    9.00    7.20
   7   3  10    3.00    5.90
   7   3  10    3.20    5.70
   7   3  10   -9.40    5.70
  -7   3 -10   -0.30    4.60
  -8  -3 -10    7.50    6.70
  -8  -3 -10   23.80    7.40
   8  -3  10   15.10    8.90
   8  -3  10   20.50   10.50
  -8   3 -10    1.30    5.60
   8   3  10   11.40    6.60
  -8   3 -10    0.40    8.60
   8   3  10   14.30    6.80
   8   3  10    3.40    6.80
   7  -4 -10   41.70   17.30
   7  -4 -10   33.00    5.70
  -7  -4  10   31.20    8.50
  -7  -4  10   39.60   10.30
  -7   4  10   31.20    9.50
  -7   4  10   15.40    9.60
  -7   4  10   28.40    6.60
   7   4 -10   32.60    9.70
   7   4 -10   30.80    7.90
   7   4 -10   28.00    6.90
   6  -4 -10   34.30   10.10
  -6  -4  10   35.50    8.30
   6  -4 -10   47.70    6.00
  -6  -4  10   46.90   10.00
   6   4 -10   32.50    9.40
  -6   4  10   51.09    9.50
  -6   4  10   51.99    8.20
   6   4 -10   48.70    6.40
   6   4 -10   29.10    7.60
  -6   4  10   50.09    7.60
  -5  -4  10  189.18   17.80
  -5  -4  10  201.88   18.10
   5  -4 -10  194.78   14.90
   5  -4 -10  187.58   16.20
  -5   4  10  183.68   15.60
   5   4 -10  190.08   16.00
   5   4 -10  205.48   15.40
  -5   4  10  215.68   16.10
   5   4 -10  162.38   19.10
  -5   4  10  186.48   19.00
  -4  -4  10  412.06   31.60
  -4  -4  10  395.86   31.70
   4  -4 -10  516.55   30.10
   4  -4 -10  489.35   31.00
  -4   4  10  505.65   30.10
  -4   4  10  529.05   33.20
  -4   4  10  515.45   30.80
   4   4 -10  406.66   29.90
   4   4 -10  367.36   32.80
   4   4 -10  426.46   30.50
   3  -4 -10    2.10    5.00
   3  -4 -10    6.50    4.50
  -3  -4  10   10.70    6.80
  -3  -4  10   16.20    6.70
  -3   4  10    1.20    4.70
  -3   4  10    2.90    5.00
   3   4 -10   -2.80    4.50
  -3   4  10   -1.50    6.20
   3   4 -10    7.40    5.20
   3   4 -10   -7.20    6.20
  -2  -4  10  209.68   19.50
  -2  -4  10  187.78   17.80
   2  -4 -10  246.28   17.20
   2  -4 -10  229.78   17.50
  -2   4  10  236.98   17.90
   2   4 -10  221.98   17.30
   2   4 -10  212.18   16.80
  -2   4  10  228.88   18.90
  -2   4  10  259.47   17.20
   1  -4 -10   30.20    6.10
  -1  -4  10   39.40    8.80
   1  -4 -10   27.90    6.10
   1  -4 -10   20.80    7.60
  -1  -4  10   36.60    7.70
  -1   4  10   15.30    5.80
  -1   4  10   33.40    6.20
   1   4 -10   31.60    5.80
  -1   4  10   25.80    7.00
   1   4 -10   28.80    6.00
   0  -4 -10  175.38   14.90
   0  -4 -10  182.18   15.00
   0  -4 -10  180.18   14.80
   0  -4  10  177.28   16.20
   0  -4  10  168.08   17.90
   0  -4  10  172.58   16.50
   0   4  10  193.48   15.30
   0   4  10  182.38   14.90
   0   4 -10  191.28   14.20
   0   4 -10  189.38   16.20
   0   4  10  190.48   15.80
   0   4  10  187.68   16.10
   1  -4  10  111.39   14.30
  -1  -4 -10  120.19   12.30
   1  -4  10  126.39   13.10
  -1  -4 -10  130.29   12.70
  -1  -4 -10  147.09   12.40
   1  -4  10  152.58   16.30
  -1   4 -10  122.89   12.80
  -1   4 -10  133.19   11.10
   1   4  10  135.99   13.00
   1   4  10  110.29   15.50
  -1   4 -10  122.19   12.70
   1   4  10  141.69   12.00
   1   4  10  133.19   12.90
   1   4  10  129.89    9.10
  -2  -4 -10  498.15   34.20
  -2  -4 -10  528.65   34.10
   2  -4  10  516.35   34.90
   2  -4  10  504.55   35.10
   2  -4  10  558.04   36.70
  -2  -4 -10  565.44   34.00
   2   4  10  509.05   34.00
  -2   4 -10  512.45   34.20
   2   4  10  505.25   31.80
  -2   4 -10  516.65   34.40
   2   4  10  525.35   34.60
  -2   4 -10  519.45   32.50
  -2   4 -10  562.84   37.00
   2   4  10  495.75   33.40
   2   4  10  478.75   33.80
   3  -4  10   16.80    7.40
   3  -4  10   15.90    6.50
   3  -4  10   14.50    9.10
  -3  -4 -10   11.70    6.20
  -3  -4 -10    7.90    5.40
  -3  -4 -10   16.40    6.30
  -3   4 -10    2.40    5.70
  -3   4 -10    9.10    4.20
   3   4  10   19.10    6.00
   3   4  10    7.40    4.00
   3   4  10    8.90    4.80
   3   4  10   -5.70    5.50
   3   4  10    4.90    4.90
  -3   4 -10   -0.30    9.10
  -3   4 -10   23.40    6.20
  -4  -4 -10   13.00    6.00
   4  -4  10   16.80    7.40
  -4  -4 -10   14.10    6.20
  -4  -4 -10   19.90    6.80
   4  -4  10   10.10    7.40
   4  -4  10    7.90    8.40
  -4   4 -10    6.30    6.40
   4   4  10   14.10    4.70
   4   4  10   13.70    5.50
  -4   4 -10   17.20    7.10
  -4   4 -10   23.00    4.90
  -4   4 -10   12.60    6.60
   4   4  10    9.20    6.50
   4   4  10   18.30    5.30
  -5  -4 -10  -12.60    6.50
  -5  -4 -10    3.90    6.60
   5  -4  10   -3.40    7.30
   5  -4  10    4.10    7.00
   5   4  10   -9.70    5.00
  -5   4 -10   -5.40    5.90
   5   4  10    7.20    4.80
   5   4  10    4.10    6.20
  -5   4 -10   15.40    7.80
  -5   4 -10    2.10    4.50
  -6  -4 -10  137.79   16.50
   6  -4  10  187.88   17.70
   6  -4  10  220.38   18.50
  -6  -4 -10  128.89   16.90
   6   4  10  151.18   13.90
  -6   4 -10  181.88   17.30
   6   4  10  113.89   15.50
  -6   4 -10  193.18   17.50
  -6   4 -10  190.38   14.00
   6   4  10  119.79   14.80
   4  -5 -10   21.60    6.70
  -4  -5  10   13.10    8.80
   4  -5 -10    0.10    7.10
  -4  -5  10   12.20    9.10
  -4   5  10    5.80    7.10
   4   5 -10    2.20    6.50
   4   5 -10  -10.50    8.60
  -4   5  10    0.70    6.20
   4   5 -10   16.90    6.20
  -4   5  10    5.40    8.40
  -3  -5  10   57.79   11.70
   3  -5 -10   55.59    8.80
   3  -5 -10   43.50   10.60
  -3  -5  10   40.60    9.50
  -3   5  10   67.89    8.40
  -3   5  10   64.69    9.50
   3   5 -10   55.89    8.40
   3   5 -10   58.19    8.80
  -3   5  10   46.70    9.70
   2  -5 -10  149.49   16.00
   2  -5 -10  177.78   15.90
  -2  -5  10  167.18   19.50
  -2  -5  10  167.38   17.30
   2   5 -10  180.68   15.60
  -2   5  10  169.78   14.80
   2   5 -10  145.49   15.00
  -2   5  10  178.18   18.60
  -2   5  10  170.88   16.80
   1  -5 -10  260.87   20.50
  -1  -5  10  262.17   24.30
  -1  -5  10  264.67   21.70
   1  -5 -10  272.47   21.70
  -1   5  10  274.57   21.80
  -1   5  10  265.07   20.40
  -1   5  10  265.27   22.30
   1   5 -10  261.77   19.70
   1   5 -10  279.47   21.30
   0  -5 -10    7.50    7.20
   0  -5 -10    5.10    6.10
   0  -5  10   -2.10    7.30
   0  -5  10    6.60   10.30
   0   5 -10   14.10    9.00
   0   5  10   -6.50    6.40
   0   5  10    0.90    6.90
   0   5  10    2.00    5.80
   0   5 -10   -7.20    5.20
   0   5 -10    0.50    6.20
   1  -5  10    0.90    9.30
  -1  -5 -10   -2.00    6.60
   1  -5  10   -1.60    7.70
  -1  -5 -10   -1.20    7.20
  -1   5 -10   -1.30    6.90
  -1   5 -10   12.90    8.60
   1   5  10   -1.20    7.40
   1   5  10   11.10    7.40
   1   5  10    7.30    6.20
  -1   5 -10    1.10    7.10
   2  -5  10    6.50   10.90
  -2  -5 -10  -12.80    6.50
   2  -5  10    7.80    7.90
  -2  -5 -10   -4.60    6.90
  -2   5 -10   -5.20    7.60
   2   5  10   -3.50    6.90
   2   5  10   -5.10    6.40
  -2   5 -10   -3.10    9.50
   2   5  10   -7.10    5.80
  -3  -5 -10  413.66   29.90
   3  -5  10  388.26   29.10
  -3   5 -10  342.37   30.00
   3   5  10  400.76   28.00
   3   5  10  417.66   27.30
  -4  -5 -10   36.70    9.90
   4  -5  10   56.59   10.50
   4   5  10   45.10    7.60
   4   5  10   80.89   13.10
  -4   5 -10   54.89   11.40
  -9   0  11   -4.00    2.70
   9   0 -11   10.70    7.00
   9   0 -11    1.00    5.40
   9   0 -11   -5.80    4.60
   9   0 -11   -0.50    6.30
  -9   0  11   -2.80    2.90
  -8   0  11    2.80    7.60
   8   0 -11   -0.90    4.40
   8   0 -11    0.20    3.90
   8   0 -11    4.00    6.50
  -8   0  11    3.30    3.20
   8   0 -11   -0.20    2.20
   8   0 -11    1.10    2.00
  -7   0  11    5.10    2.80
   7   0 -11   -0.10    2.40
  -7   0  11    2.10    4.50
   7   0 -11    1.30    3.90
  -7   0  11   -0.40    6.60
  -7   0  11    0.70    2.80
   7   0 -11   -1.10    4.90
   7   0 -11    0.40    2.20
   6   0 -11    6.40    4.30
  -6   0  11    0.00    3.70
   6   0 -11    1.70    4.60
   6   0 -11   -2.40    2.00
  -6   0  11   -3.50    2.60
  -6   0  11   -3.90    5.40
  -6   0  11    5.60    3.00
   6   0 -11    2.60    2.20
   6   0 -11    2.60    3.50
   5   0 -11   -2.80    2.00
  -5   0  11   -4.00    2.70
   5   0 -11    8.90    3.30
   5   0 -11    3.90    4.30
   5   0 -11   -1.60    2.10
  -5   0  11    3.70    3.00
  -5   0  11    1.30    4.60
  -5   0  11   -4.30    3.40
   5   0 -11    2.40    2.20
  -5   0  11    0.90    2.80
   5   0 -11  -10.40    3.60
   4   0 -11    3.70    2.70
  -4   0  11   -4.50    3.10
   4   0 -11   -1.10    4.20
   4   0 -11   -1.40    3.20
   4   0 -11    2.30    2.20
  -4   0  11   -2.60    2.60
  -4   0  11    1.10    2.90
   4   0 -11    0.40    2.80
  -4   0  11    1.40    3.30
   4   0 -11   -0.20    2.20
  -4   0  11    7.20    5.00
   3   0 -11   -0.50    2.10
   3   0 -11   -2.80    2.00
  -3   0  11    3.30    3.30
  -3   0  11   -1.00    2.50
   3   0 -11    0.20    2.10
  -3   0  11    7.40    4.30
  -3   0  11    2.10    3.30
   3   0 -11    3.80    2.70
  -3   0  11   -3.50    2.30
   3   0 -11    0.30    3.90
   3   0 -11    1.40    3.00
   2   0 -11    8.70    4.00
   1   0 -11    1.90    2.60
  -1   0  11   -1.20    2.80
   1   0 -11   -3.90    2.70
   1   0 -11   -0.20    2.30
   1   0 -11   -3.50    2.00
   1   0 -11   -2.70    3.30
   1   0 -11   -0.80    3.90
   1   0 -11   -2.20    2.40
  -1   0  11    4.30    2.70
  -1   0  11    2.00    3.20
  -1   0  11   -4.10    3.00
  -1   0  11   -1.20    2.40
   0   0 -11    0.60    2.40
   0   0 -11   -6.70    3.40
   0   0  11   -0.80    3.40
   0   0 -11   -1.20    3.10
   0   0 -11   -4.00    2.10
   0   0  11   -0.90    3.10
   0   0  11    6.80    3.20
   0   0 -11    1.10    2.50
   0   0  11   -2.80    2.90
   0   0 -11    6.60    2.70
   0   0  11   -2.10    2.90
   0   0 -11    1.10    2.50
   0   0 -11    4.20    3.80
   0   0  11    5.20    3.10
   1   0  11    2.80    2.90
  -1   0 -11   -1.90    2.60
  -1   0 -11   -0.30    2.90
  -1   0 -11    1.30    2.50
   1   0  11   -5.50    3.10
  -1   0 -11    0.80    3.60
  -1   0 -11   -2.00    2.90
   1   0  11    1.40    3.00
   1   0  11    1.60    3.30
   1   0  11   -2.50    3.80
  -1   0 -11   -2.40    2.80
   1   0  11   -1.90    3.70
  -1   0 -11    1.30    4.00
  -1   0 -11   -0.60    3.50
   2   0  11    8.30    3.40
   2   0  11    4.70    3.20
   2   0  11    3.30    3.10
  -2   0 -11    4.10    3.70
   2   0  11    2.50    3.20
  -2   0 -11    5.20    3.70
  -2   0 -11    3.80    3.10
   2   0  11    4.40    3.60
  -2   0 -11   -1.10    2.70
  -2   0 -11    9.40    4.00
  -2   0 -11    5.70    3.10
  -2   0 -11    7.20    3.70
  -3   0 -11    0.80    2.80
  -3   0 -11   -0.40    4.70
  -3   0 -11    4.70    3.40
   3   0  11    1.00    3.50
   3   0  11    0.60    3.30
   3   0  11    4.40    3.70
  -3   0 -11    2.40    3.70
  -3   0 -11    1.70    3.20
   3   0  11   -5.30    3.90
   3   0  11    0.00    4.20
   3   0  11   -3.10    3.80
  -3   0 -11    3.10    3.00
  -3   0 -11    0.50    3.10
  -4   0 -11    0.30    4.10
  -4   0 -11   -0.10    3.10
  -4   0 -11    4.60    3.70
   4   0  11  -10.30    3.60
   4   0  11    1.30    3.00
  -4   0 -11   -0.40    3.10
   4   0  11   -3.20    4.50
   4   0  11    4.30    5.00
   4   0  11   -1.10    3.80
  -4   0 -11    1.50    3.70
   4   0  11    1.30    3.50
  -4   0 -11    2.90    4.90
  -4   0 -11    3.70    3.20
  -5   0 -11   -6.70    3.40
   5   0  11   -2.80    3.80
  -5   0 -11   -2.30    3.30
   5   0  11   -5.60    4.60
  -5   0 -11   15.20    4.80
   5   0  11    4.30    4.10
   5   0  11    2.20    3.20
   5   0  11    1.20    5.50
  -5   0 -11    1.20    4.00
  -5   0 -11    6.90    5.70
  -5   0 -11    6.70    3.80
   6   0  11    5.40    6.80
   6   0  11    5.30    5.80
  -6   0 -11   -4.80    4.70
  -6   0 -11   -5.70    4.50
   6   0  11   -2.90    4.90
   7   0  11   -7.80    5.10
  -7   0 -11    1.40    4.60
   7   0  11    1.00    4.50
   7   0  11   13.70    5.80
  -7   0 -11    1.10    5.70
   8   0  11    0.60    4.90
   8   0  11  -18.00    6.10
  -8   0 -11   -2.90    4.80
   8   0  11    3.10    6.20
  -8   0 -11    7.50    5.40
   9   0  11   -7.50    5.10
  -9   0 -11   -0.70    6.30
   9   0  11   13.20    7.00
  -9   0 -11   -2.30    6.70
   9   0  11    5.30    7.30
  -9  -1  11    2.20    7.20
   9  -1 -11    8.70    5.40
  -9  -1  11    7.20    3.70
  -9  -1  11    2.80    3.00
   9  -1 -11    0.80    7.00
  -9   1  11   -0.40    8.50
   9   1 -11   -1.50    6.30
  -9   1  11    8.90    4.20
   9   1 -11   19.20    8.10
   9   1 -11    1.00    6.00
  -9   1  11    2.90    3.10
   8  -1 -11   10.00    2.40
   8  -1 -11    5.50    6.70
  -8  -1  11   17.20    6.20
   8  -1 -11    4.00    4.80
  -8  -1  11   12.40    3.70
  -8  -1  11    7.50    3.30
   8  -1 -11   10.90    3.70
  -8   1  11   11.30    4.10
   8   1 -11    8.70    2.70
  -8   1  11    8.50    3.10
   8   1 -11    4.40    6.30
  -8   1  11    9.00    7.40
   8   1 -11    7.90    6.10
  -7  -1  11   48.60    6.00
   7  -1 -11   58.89    5.60
  -7  -1  11   52.99    8.30
   7  -1 -11   46.00    5.10
  -7  -1  11   51.09    9.50
   7  -1 -11   53.09    5.60
  -7  -1  11   52.09    6.30
   7  -1 -11   48.30    6.40
   7  -1 -11   59.89    8.90
   7   1 -11   54.49    9.30
  -7   1  11   54.69    6.20
  -7   1  11   50.49    8.50
  -7   1  11   58.39    6.30
   7   1 -11   49.30    5.60
   7   1 -11   45.30    5.20
  -6  -1  11   10.20    3.40
  -6  -1  11    7.10    6.70
   6  -1 -11    5.30    2.40
  -6  -1  11    6.40    3.10
   6  -1 -11    6.60    2.80
  -6  -1  11   16.50    5.50
   6  -1 -11    0.00    4.70
   6  -1 -11    6.90    3.90
   6  -1 -11    9.60    2.50
  -6   1  11    7.40    5.40
  -6   1  11    4.20    3.00
  -6   1  11    5.50    4.00
   6   1 -11    3.80    2.60
   6   1 -11    5.50    2.40
  -6   1  11   10.50    3.20
   6   1 -11    1.30    4.90
  -5  -1  11    7.10    4.60
  -5  -1  11    2.90    3.20
   5  -1 -11    0.90    2.70
   5  -1 -11   -3.10    4.50
  -5  -1  11    4.80    3.40
  -5  -1  11   -2.70    4.60
   5  -1 -11    4.70    2.10
   5  -1 -11    2.10    2.40
  -5  -1  11    3.20    3.40
   5  -1 -11    3.50    3.30
   5   1 -11    3.60    2.20
  -5   1  11    5.80    3.00
  -5   1  11    0.60    2.80
   5   1 -11    0.40    2.40
   5   1 -11    3.70    2.40
  -5   1  11   -4.70    4.70
  -5   1  11   -1.40    3.70
   5   1 -11    1.80    4.80
  -5   1  11    4.60    3.10
  -4  -1  11   13.30    3.90
   4  -1 -11   11.50    4.60
   4  -1 -11   14.10    3.00
  -4  -1  11    9.50    5.00
   4  -1 -11    9.20    2.80
   4  -1 -11    8.10    3.60
  -4  -1  11   19.00    4.70
   4  -1 -11   14.30    3.70
  -4  -1  11    9.30    3.50
   4   1 -11   11.90    2.90
   4   1 -11    6.60    3.00
  -4   1  11    5.80    2.80
  -4   1  11   10.10    3.40
  -4   1  11    9.70    4.90
  -4   1  11   -1.70    3.00
   4   1 -11    1.10    4.00
   4   1 -11   10.20    4.80
  -4   1  11   10.60    3.50
   3  -1 -11   22.50    5.40
  -3  -1  11   20.20    4.90
   3  -1 -11   26.00    3.70
   3  -1 -11   30.60    4.00
   3  -1 -11   23.80    3.70
   3  -1 -11   15.20    4.10
  -3  -1  11   21.90    3.80
  -3  -1  11   28.80    5.20
  -3  -1  11   24.70    3.80
   3   1 -11   31.50    4.40
  -3   1  11   28.00    4.20
  -3   1  11   26.90    4.00
   3   1 -11   26.30    9.20
   3   1 -11   18.20    3.60
  -3   1  11   26.90    3.70
  -3   1  11   21.10    4.40
  -3   1  11   30.70    5.00
   3   1 -11   20.00    5.00
   3   1 -11   23.40    3.50
  -2  -1  11    3.30    3.60
  -2  -1  11    3.30    2.80
  -2  -1  11   -0.30    3.10
   2  -1 -11    1.90    2.50
   2  -1 -11   -1.80    3.70
  -2  -1  11    1.70    2.90
  -2  -1  11    8.60    4.40
   2  -1 -11    1.20    2.00
   2  -1 -11    2.20    2.60
   2  -1 -11    3.80    3.10
   2  -1 -11    6.40    2.50
   2   1 -11   -0.50    2.50
  -2   1  11    1.80    2.90
  -2   1  11    1.60    3.80
  -2   1  11    8.00    3.60
   2   1 -11    2.70    3.70
  -2   1  11   -0.30    2.20
  -2   1  11    2.90    2.70
   2   1 -11    1.80    2.20
   2   1 -11    1.20    3.70
   2   1 -11    4.40    2.50
  -1  -1  11   78.39    8.90
  -1  -1  11   76.19    7.80
  -1  -1  11   84.39    8.70
   1  -1 -11   84.29   10.10
   1  -1 -11   99.69    7.70
   1  -1 -11  101.59    7.80
   1  -1 -11   91.09    7.70
   1  -1 -11   98.99    9.20
   1  -1 -11  103.09    7.00
  -1  -1  11   78.99    8.00
   1  -1 -11  105.69    8.20
  -1  -1  11   71.99    8.80
  -1   1  11  104.39    8.60
  -1   1  11   92.69    7.50
  -1   1  11   83.09    8.50
   1   1 -11   83.79    9.30
   1   1 -11   76.39    7.50
   1   1 -11   84.19    8.60
  -1   1  11   93.49    8.90
  -1   1  11   92.89    7.70
   1   1 -11   76.49    7.60
   0  -1 -11   63.19    6.80
   0  -1 -11   61.89    8.60
   0  -1 -11   58.59    7.10
   0  -1  11   55.19    6.60
   0  -1  11   58.19    7.30
   0  -1  11   56.79    7.00
   0  -1  11   66.79    8.70
   0  -1 -11   66.79    7.60
   0  -1 -11   59.29    5.70
   0  -1 -11   56.39    6.70
   0  -1  11   63.49    7.90
   0  -1  11   55.79    7.20
   0  -1 -11   65.19    6.70
   0   1 -11   65.59    6.80
   0   1  11   67.89    7.60
   0   1 -11   56.09    8.40
   0   1  11   63.09    6.10
   0   1 -11   66.09    6.50
   0   1  11   63.79    7.60
   0   1 -11   64.39    8.00
   0   1  11   65.19    7.30
   0   1 -11   61.09    6.70
   0   1 -11   71.89    9.00
   0   1 -11   59.09    6.60
   0   1 -11   69.79    5.50
   0   1  11   57.79    7.20
  -1  -1 -11  482.75   32.40
   1  -1  11  554.24   33.00
   1  -1  11  557.94   33.30
   1  -1  11  581.64   32.90
  -1  -1 -11  454.75   32.70
  -1  -1 -11  483.75   32.80
  -1  -1 -11  475.65   32.90
   1  -1  11  581.94   32.80
   1  -1  11  563.74   33.50
  -1  -1 -11  489.75   32.40
  -1  -1 -11  507.85   31.80
   1  -1  11  564.14   33.70
   1  -1  11  586.54   33.20
  -1  -1 -11  464.45   32.90
  -1  -1 -11  484.55   32.60
  -1   1 -11  586.94   31.60
   1   1  11  478.15   33.10
   1   1  11  498.85   33.10
  -1   1 -11  578.94   32.80
   1   1  11  455.85   31.90
  -1   1 -11  535.35   33.00
   1   1  11  494.65   32.70
  -1   1 -11  594.94   33.70
   1   1  11  446.56   32.60
   1   1  11  475.65   32.60
  -1   1 -11  552.64   32.90
  -1   1 -11  554.34   33.40
  -2  -1 -11   28.30    5.10
  -2  -1 -11   29.20    4.60
  -2  -1 -11   24.50    5.10
  -2  -1 -11   25.40    4.60
  -2  -1 -11   39.10    5.50
   2  -1  11   14.70    4.70
   2  -1  11   24.90    4.50
   2  -1  11   23.30    4.90
   2  -1  11   31.50    5.10
  -2  -1 -11   30.50    4.70
   2  -1  11   38.20    5.70
  -2  -1 -11   33.00    4.40
  -2  -1 -11   32.30    4.60
   2  -1  11   29.10    5.80
   2  -1  11   30.20    4.40
  -2   1 -11   27.80    3.80
  -2   1 -11   39.90    5.10
   2   1  11   33.00    5.50
  -2   1 -11   27.40    4.60
  -2   1 -11   41.90    5.40
   2   1  11   39.20    4.80
   2   1  11   26.10    4.60
  -2   1 -11   17.60    5.40
   2   1  11   34.00    5.90
  -2   1 -11   28.40    5.00
   2   1  11   28.70    4.90
   2   1  11   34.00    5.10
  -2   1 -11   25.10    4.50
  -3  -1 -11  130.89   10.50
  -3  -1 -11  120.29   10.10
  -3  -1 -11  132.99   10.30
   3  -1  11  135.89   11.10
   3  -1  11  126.79   11.20
   3  -1  11  135.59   10.20
  -3  -1 -11  112.99   10.80
   3  -1  11  125.29   10.50
   3  -1  11  137.39   10.30
  -3  -1 -11  116.19   11.50
   3  -1  11  130.99   11.90
  -3  -1 -11  134.89   10.70
  -3  -1 -11  119.99   10.30
  -3  -1 -11  119.29    9.80
   3  -1  11  122.09   11.40
   3   1  11  116.39   10.60
   3   1  11  123.19   10.10
   3   1  11  113.29   11.20
   3   1  11  130.49   10.70
  -3   1 -11  120.99   10.50
  -3   1 -11  111.19   10.50
  -3   1 -11  126.09   10.50
   3   1  11  121.99   10.40
   3   1  11  117.99   11.60
  -3   1 -11  121.59   10.40
  -3   1 -11  105.79   10.50
  -3   1 -11  139.19   11.30
  -3   1 -11  116.09   11.60
   4  -1  11   23.70    5.60
  -4  -1 -11    5.40    5.50
  -4  -1 -11    9.30    3.10
  -4  -1 -11   14.30    4.20
  -4  -1 -11   13.40    3.60
   4  -1  11    7.40    4.90
   4  -1  11    6.30    3.70
   4  -1  11   11.00    4.60
  -4  -1 -11   11.20    4.40
   4  -1  11   13.50    3.80
  -4  -1 -11   20.60    4.50
   4  -1  11    8.10    4.60
   4  -1  11   14.50    3.70
  -4  -1 -11    3.10    3.90
   4   1  11   19.30    4.60
   4   1  11   16.80    4.20
  -4   1 -11    2.60    5.00
  -4   1 -11    5.30    4.00
  -4   1 -11    7.50    3.30
   4   1  11   13.20    4.20
  -4   1 -11   12.10    4.40
   4   1  11    4.00    5.00
   4   1  11    5.50    4.20
  -4   1 -11    5.50    4.40
  -4   1 -11    5.60    4.80
  -4   1 -11    6.90    4.20
   4   1  11    9.10    5.00
  -5  -1 -11   21.40    5.70
  -5  -1 -11   17.80    5.20
   5  -1  11   27.40    7.10
   5  -1  11   23.00    4.60
  -5  -1 -11   35.00    4.90
  -5  -1 -11   25.30    4.90
   5  -1  11   29.30    5.40
   5  -1  11   31.20    5.90
  -5  -1 -11   22.00    5.00
   5  -1  11   24.00    4.40
  -5  -1 -11   21.60    4.00
   5  -1  11   24.70    6.20
   5   1  11   19.50    5.10
  -5   1 -11   34.60    6.00
  -5   1 -11   21.30    4.20
   5   1  11   28.00    5.30
  -5   1 -11   24.80    6.00
   5   1  11   25.20    5.30
  -5   1 -11   19.40    6.30
   5   1  11   30.70    6.40
  -5   1 -11   18.90    6.20
   5   1  11   20.00    5.40
  -6  -1 -11   11.50    4.50
   6  -1  11    6.40    7.40
  -6  -1 -11   10.00    6.30
   6  -1  11    4.70    5.30
  -6  -1 -11   10.00    5.30
   6  -1  11    7.50    3.90
   6   1  11   12.50    5.60
  -6   1 -11    9.70    3.90
   6   1  11   15.80    7.60
   6   1  11   10.20    4.20
  -6   1 -11   -0.20    5.20
  -6   1 -11   13.70    6.10
   6   1  11   13.50    6.50
  -6   1 -11   10.20    3.90
   7  -1  11   -1.50    6.30
   7  -1  11   17.30    6.20
   7  -1  11    2.70    4.00
  -7  -1 -11    1.20    4.50
  -7  -1 -11    6.40    5.40
  -7   1 -11   -5.50    5.40
   7   1  11    0.30    5.30
   7   1  11    5.30    5.60
   7   1  11    6.70    5.00
  -7   1 -11    2.40    3.90
  -8  -1 -11    7.70    5.60
   8  -1  11    7.60    6.50
  -8  -1 -11    2.70    5.60
   8  -1  11    4.50    7.80
   8  -1  11   -1.20    4.20
  -8   1 -11    7.20    4.80
   8   1  11    9.60    5.50
   8   1  11    8.10    6.90
   8   1  11    4.00    6.40
  -8   1 -11   -0.10    7.00
   8  -2 -11   18.10    3.40
   8  -2 -11   20.60    4.00
   8  -2 -11   23.10    5.70
  -8  -2  11   13.20    4.80
   8  -2 -11   16.70    7.30
  -8  -2  11   27.50    7.70
   8   2 -11   17.30    6.90
   8   2 -11   20.70    3.70
  -8   2  11   34.50    7.90
   8   2 -11   17.70    3.40
  -8   2  11    7.50    3.90
   8   2 -11   17.70    8.20
   7  -2 -11   99.89   13.20
   7  -2 -11  107.19    8.20
  -7  -2  11   86.39   10.30
   7  -2 -11   87.49   10.30
  -7  -2  11  107.29   13.20
   7  -2 -11  107.99    8.80
   7   2 -11   96.29    8.70
   7   2 -11   98.09   11.60
  -7   2  11   86.99    8.90
  -7   2  11  111.09   12.90
   7   2 -11  102.89    8.20
   7   2 -11   94.39   13.10
  -7   2  11   99.49   15.30
   6  -2 -11    1.80    3.20
  -6  -2  11    0.40    3.50
   6  -2 -11    1.70    3.90
  -6  -2  11   -9.30    3.70
   6  -2 -11    2.20    5.20
  -6  -2  11   -0.50    5.60
   6  -2 -11    3.40    2.60
  -6  -2  11  -13.50    6.50
  -6   2  11    5.20    7.20
  -6   2  11   -0.50    5.70
   6   2 -11    0.40    2.90
  -6   2  11    4.10    4.20
   6   2 -11    1.00    3.00
   6   2 -11   -9.80    4.50
  -6   2  11    2.20    3.40
   6   2 -11   -0.30    5.50
  -5  -2  11    5.80    4.00
  -5  -2  11   -4.60    6.00
   5  -2 -11    4.00    3.40
   5  -2 -11   11.10    4.30
  -5  -2  11   -0.50    3.60
   5  -2 -11    9.00    2.80
  -5  -2  11    3.70    4.10
  -5  -2  11    4.60    5.80
   5  -2 -11    3.30    2.70
  -5   2  11    1.30    4.90
   5   2 -11    2.00    3.20
  -5   2  11    4.80    4.10
   5   2 -11    6.00    3.00
  -5   2  11    5.90    4.60
   5   2 -11    2.80    3.00
   5   2 -11   11.20    5.50
  -5   2  11    4.10    3.10
  -5   2  11    3.30    5.70
   4  -2 -11   14.20    3.90
  -4  -2  11   20.50    4.90
   4  -2 -11   21.30    3.70
  -4  -2  11    9.80    4.50
   4  -2 -11   15.50    3.40
  -4  -2  11   13.50    5.90
  -4  -2  11   13.20    3.70
  -4   2  11   10.50    3.80
   4   2 -11   12.80    3.60
   4   2 -11   17.90    5.50
  -4   2  11   20.80    6.70
   4   2 -11   17.80    4.00
   4   2 -11   13.80    3.50
  -4   2  11   20.10    5.50
  -4   2  11   17.60    3.70
  -4   2  11   13.00    3.80
  -3  -2  11  111.09   11.60
   3  -2 -11   98.59    8.40
   3  -2 -11  108.59    9.20
  -3  -2  11   98.09   11.30
   3  -2 -11   97.79    8.60
  -3  -2  11   89.19   10.30
  -3  -2  11   97.89    9.30
  -3  -2  11  100.39    8.70
   3  -2 -11  102.39    8.60
   3   2 -11   96.29    8.80
   3   2 -11   99.79    8.80
  -3   2  11  104.49    9.80
  -3   2  11   90.99   11.80
   3   2 -11  106.39   11.50
  -3   2  11   96.49    8.30
   3   2 -11  115.89    9.10
  -3   2  11  106.49    9.70
  -2  -2  11  177.38   14.90
   2  -2 -11  207.18   13.50
   2  -2 -11  197.78   13.70
  -2  -2  11  149.59   14.60
  -2  -2  11  165.28   13.20
   2  -2 -11  208.18   13.30
  -2  -2  11  176.68   13.50
   2   2 -11  163.28   15.20
  -2   2  11  214.28   14.50
  -2   2  11  198.38   14.30
   2   2 -11  155.18   13.10
  -2   2  11  187.18   15.40
   2   2 -11  168.68   13.40
  -2   2  11  218.08   13.30
  -2   2  11  213.28   16.50
   2   2 -11  160.78   13.20
   1  -2 -11   22.20    2.70
  -1  -2  11   19.00    4.40
   1  -2 -11   23.30    4.80
  -1  -2  11   35.30    6.20
  -1  -2  11   17.80    5.30
   1  -2 -11   26.30    4.50
   1  -2 -11   18.20    3.80
  -1  -2  11   19.30    4.10
  -1  -2  11   12.40    4.70
   1  -2 -11   23.60    4.30
   1   2 -11   21.20    4.10
   1   2 -11   18.30    4.00
  -1   2  11   18.20    3.70
  -1   2  11   18.00    2.70
   1   2 -11   27.00    4.60
  -1   2  11   25.90    5.10
  -1   2  11   19.60    5.40
   1   2 -11   24.60    6.20
  -1   2  11   19.70    6.10
   0  -2  11   29.00    5.20
   0  -2 -11   39.40    5.20
   0  -2 -11   33.60    5.00
   0  -2  11   36.60    5.80
   0  -2  11   38.20    6.50
   0  -2 -11   24.20    6.00
   0  -2 -11   47.50    7.00
   0  -2 -11   34.70    5.50
   0  -2  11   38.70    6.00
   0   2 -11   31.00    5.10
   0   2 -11   48.70    5.90
   0   2  11   38.10    5.90
   0   2 -11   34.10    6.10
   0   2  11   43.30    6.70
   0   2  11   27.90    4.90
   0   2 -11   40.20    5.50
   0   2  11   33.40    4.00
   0   2  11   29.30    5.60
  -1  -2 -11   48.70    5.70
   1  -2  11   47.10    6.40
  -1  -2 -11   49.00    6.40
  -1  -2 -11   43.60    6.00
   1  -2  11   47.40    7.10
  -1  -2 -11   55.69    6.90
   1  -2  11   48.00    7.00
  -1  -2 -11   36.10    5.90
  -1  -2 -11   50.99    6.70
   1  -2  11   48.40    7.20
   1  -2  11   37.30    6.70
  -1  -2 -11   49.50    5.00
   1  -2  11   46.10    6.20
   1   2  11   50.29    7.00
  -1   2 -11   55.49    6.80
  -1   2 -11   42.70    5.80
  -1   2 -11   52.59    7.40
   1   2  11   48.50    7.70
   1   2  11   42.70    4.90
   1   2  11   45.10    6.10
   1   2  11   49.50    6.70
  -1   2 -11   56.89    7.30
   1   2  11   41.60    6.00
  -2  -2 -11   -1.50    2.90
  -2  -2 -11    4.00    2.80
   2  -2  11   -3.50    4.40
   2  -2  11   -4.10    3.80
  -2  -2 -11    1.50    3.60
  -2  -2 -11    4.10    4.00
   2  -2  11    4.60    4.20
  -2  -2 -11   -1.50    3.50
  -2  -2 -11    1.80    3.40
   2  -2  11   -3.10    3.30
  -2  -2 -11    8.60    3.90
   2  -2  11    4.00    4.60
  -2  -2 -11   -7.60    5.20
   2  -2  11    4.50    4.50
  -2   2 -11    7.40    3.90
   2   2  11    1.60    3.10
  -2   2 -11   21.20    6.30
   2   2  11   -5.70    4.30
  -2   2 -11   10.40    5.40
   2   2  11    0.10    2.80
  -2   2 -11    4.20    4.20
   2   2  11    3.20    4.00
  -2   2 -11   -1.10    2.80
  -2   2 -11    7.30    4.00
  -2   2 -11   -1.00    3.40
   2   2  11   -7.00    5.30
   3  -2  11   -1.90    4.00
  -3  -2 -11    2.60    4.00
  -3  -2 -11   -1.70    2.90
  -3  -2 -11   -4.00    3.50
   3  -2  11    1.70    3.50
   3  -2  11   -0.70    4.80
   3  -2  11    9.90    4.30
  -3  -2 -11    2.60    3.40
  -3  -2 -11    2.80    3.90
   3  -2  11    9.80    5.20
  -3  -2 -11   -6.30    3.50
  -3  -2 -11   -3.90    3.60
   3  -2  11    6.50    5.00
  -3  -2 -11    5.80    6.10
  -3   2 -11    6.60    4.10
   3   2  11    1.80    5.70
  -3   2 -11   -0.40    3.90
  -3   2 -11   -1.90    3.80
   3   2  11   -4.80    3.10
  -3   2 -11    3.20    6.00
   3   2  11    0.10    4.00
   3   2  11    5.90    4.60
  -3   2 -11   -8.70    4.20
   3   2  11   -3.10    3.60
  -3   2 -11    1.40    6.40
  -3   2 -11    3.30    3.00
  -4  -2 -11  348.17   22.80
   4  -2  11  368.46   24.80
   4  -2  11  362.06   25.90
   4  -2  11  378.26   25.00
  -4  -2 -11  331.17   25.20
   4  -2  11  351.96   24.40
  -4  -2 -11  348.57   22.70
  -4  -2 -11  327.57   24.20
   4  -2  11  415.06   24.20
   4  -2  11  375.86   23.40
  -4  -2 -11  343.07   24.10
   4   2  11  327.27   23.30
  -4   2 -11  353.96   24.60
   4   2  11  331.17   23.70
   4   2  11  386.26   24.60
  -4   2 -11  373.36   23.00
  -4   2 -11  407.96   24.80
   4   2  11  316.57   24.70
   4   2  11  363.76   25.00
  -4   2 -11  370.26   23.00
  -4   2 -11  376.16   25.60
  -4   2 -11  349.67   24.30
   5  -2  11  -10.90    6.50
  -5  -2 -11    2.60    2.90
  -5  -2 -11    2.00    5.20
   5  -2  11   -1.30    5.20
   5  -2  11   -7.20    5.30
   5  -2  11    2.60    4.80
  -5  -2 -11   -6.30    4.10
   5  -2  11    1.90    3.60
  -5  -2 -11  -11.60    4.40
  -5   2 -11    1.80    4.90
  -5   2 -11    0.80    5.60
  -5   2 -11  -10.70    5.30
  -5   2 -11    8.50    3.70
   5   2  11    9.20    5.90
   5   2  11    6.20    4.80
  -5   2 -11    0.60    3.30
   5   2  11   -5.20    5.30
   5   2  11    4.40    4.50
  -6  -2 -11   38.80    7.20
   6  -2  11   41.60    8.00
   6  -2  11   35.00    7.00
  -6  -2 -11   27.70    6.20
   6  -2  11   48.20    5.30
  -6   2 -11   28.70    6.40
   6   2  11   38.10    6.30
   6   2  11   45.40    6.90
  -6   2 -11   22.90    7.50
   6   2  11   49.00    7.00
  -6   2 -11   32.80    5.50
  -7  -2 -11   63.09    9.10
   7  -2  11   72.49   10.20
  -7  -2 -11   56.19   13.10
   7  -2  11   66.49    9.30
   7   2  11   56.29    8.20
  -7   2 -11   42.30    8.50
   7   2  11   59.49    8.40
  -7   2 -11   55.59    7.10
   7   2  11   50.29    7.80
   8  -2  11   -7.00    7.00
   8  -2  11    7.70    7.90
  -8  -2 -11  -15.20    5.90
  -8  -2 -11   -4.20    6.60
   8   2  11   -1.20    7.00
  -8   2 -11    5.70    7.70
  -8   2 -11   -0.30    4.90
   8   2  11  -12.00    6.10
   8   2  11    3.80    6.50
   8   3 -11    8.40    9.00
   7  -3 -11    6.20    3.50
  -7  -3  11    5.90    5.30
   7  -3 -11   17.00    6.00
  -7  -3  11   14.10    9.10
   7   3 -11   16.70    6.40
  -7   3  11   17.70    9.10
  -7   3  11   22.50    7.60
   7   3 -11    5.90    8.20
   7   3 -11    7.00    4.30
  -7   3  11   10.20    4.50
  -6  -3  11  131.09   13.90
   6  -3 -11  137.59   11.20
  -6  -3  11  163.98   15.60
   6  -3 -11  147.69   13.10
   6   3 -11  142.59   11.90
   6   3 -11  113.69   13.30
  -6   3  11  125.99   16.40
   6   3 -11  155.28   16.50
  -6   3  11  145.29   13.80
  -6   3  11  146.19   12.30
   5  -3 -11  525.75   31.10
  -5  -3  11  473.45   33.60
  -5  -3  11  447.06   32.70
   5  -3 -11  531.95   32.30
  -5   3  11  518.35   31.80
   5   3 -11  465.35   32.40
  -5   3  11  520.75   32.10
   5   3 -11  438.36   31.20
   5   3 -11  458.65   34.20
  -5   3  11  518.55   35.00
  -4  -3  11   97.69   11.50
   4  -3 -11   81.19    9.10
  -4  -3  11   93.29   11.30
   4  -3 -11   90.49    8.40
  -4   3  11   76.99    8.90
   4   3 -11   81.79   11.30
   4   3 -11   86.69    9.10
  -4   3  11  100.79   12.50
   4   3 -11   90.19    9.90
  -4   3  11   82.09    9.80
   3  -3 -11   14.00    4.10
  -3  -3  11    7.60    5.90
   3  -3 -11   12.30    5.00
  -3  -3  11    5.90    6.00
  -3  -3  11   24.70    7.00
   3   3 -11   16.80    4.90
   3   3 -11   21.80    4.60
   3   3 -11   20.50    6.90
   3   3 -11   18.50    6.50
  -3   3  11   24.00    7.00
  -3   3  11   15.30    5.10
  -3   3  11   12.90    4.90
   2  -3 -11    7.80    3.80
   2  -3 -11    9.10    4.40
   2  -3 -11    8.50    4.10
  -2  -3  11   21.70    5.90
  -2  -3  11   14.10    4.40
  -2  -3  11   13.30    6.40
  -2  -3  11    9.70    6.20
  -2   3  11   16.30    4.80
   2   3 -11    6.20    4.00
  -2   3  11   22.20    5.70
   2   3 -11   13.10    5.80
  -2   3  11    6.60    5.40
   2   3 -11    9.10    4.00
  -2   3  11   12.80    4.80
   2   3 -11   12.10    4.10
  -1  -3  11    1.70    5.30
  -1  -3  11    6.40    5.50
   1  -3 -11    1.10    3.90
  -1  -3  11    5.90    4.10
   1  -3 -11    2.10    3.40
   1  -3 -11    8.90    4.30
  -1  -3  11    5.50    4.10
   1   3 -11   -5.00    3.50
  -1   3  11   12.00    6.20
   1   3 -11    3.20    4.50
   1   3 -11   -1.10    5.50
  -1   3  11    4.80    5.70
  -1   3  11   -4.50    4.10
  -1   3  11   -0.60    3.50
   1   3 -11    2.90    4.40
  -1   3  11    3.10    5.00
   0  -3  11   17.40    7.30
   0  -3 -11    9.40    4.20
   0  -3  11    9.60    5.10
   0  -3 -11   33.40    6.10
   0  -3  11   18.10    5.70
   0  -3  11   17.40    6.30
   0  -3 -11   13.80    4.40
   0  -3  11   12.80    5.70
   0   3 -11   10.20    5.00
   0   3  11   10.10    5.30
   0   3 -11   19.00    5.40
   0   3  11   10.70    4.20
   0   3  11    7.60    5.00
   0   3  11   11.00    1.90
   0   3  11   29.80    7.00
   0   3 -11   13.00    4.50
   0   3 -11   11.50    6.80
   0   3  11    6.50    5.10
   1  -3  11  298.07   20.10
  -1  -3 -11  281.07   19.90
  -1  -3 -11  244.08   19.60
  -1  -3 -11  272.77   19.60
  -1  -3 -11  286.17   25.40
   1  -3  11  328.37   22.20
   1  -3  11  307.97   21.00
   1  -3  11  308.37   21.20
   1  -3  11  323.97   20.70
   1   3  11  266.27   18.00
   1   3  11  254.27   19.90
  -1   3 -11  303.47   20.30
   1   3  11  258.67   17.90
   1   3  11  263.37   19.60
  -1   3 -11  297.97   20.40
   1   3  11  273.77   21.50
   1   3  11  271.17   20.70
  -1   3 -11  291.27   20.00
   1   3  11  274.27   20.40
   2  -3  11   17.30    5.00
   2  -3  11   10.70    5.40
  -2  -3 -11   12.70    4.80
  -2  -3 -11   10.50    4.60
  -2  -3 -11   19.60    5.70
   2  -3  11   15.50    5.80
   2  -3  11   11.80    5.30
  -2  -3 -11   12.50    5.30
  -2  -3 -11   10.40    4.50
   2  -3  11    3.00    6.00
   2   3  11   10.10    4.80
  -2   3 -11   10.90    5.60
   2   3  11    9.50    3.60
   2   3  11   12.30    5.00
   2   3  11   12.60    4.70
   2   3  11   15.30    4.20
   2   3  11    3.10    6.00
  -2   3 -11   15.90    5.40
   2   3  11   12.30    5.40
  -2   3 -11   15.10    5.00
  -2   3 -11    6.20    6.90
  -3  -3 -11    8.30    6.80
  -3  -3 -11   -2.40    4.30
   3  -3  11    3.80    6.10
  -3  -3 -11   -2.00    4.40
   3  -3  11   -2.30    4.20
   3  -3  11   -0.70    6.00
   3  -3  11    3.10    5.40
   3  -3  11   -3.90    5.50
   3  -3  11    1.80    6.10
  -3  -3 -11    3.20    4.10
  -3  -3 -11   -2.40    4.80
   3   3  11  -11.30    6.70
   3   3  11   -0.10    3.70
  -3   3 -11    7.90    5.00
   3   3  11    8.40    4.60
  -3   3 -11   17.00    6.10
   3   3  11   -3.60    4.70
   3   3  11    8.30    5.40
   3   3  11    0.20    4.30
  -3   3 -11   -0.20    3.90
   3   3  11   -3.90    4.70
  -3   3 -11    6.70    7.80
  -3   3 -11   -3.20    4.90
  -3   3 -11   -4.10    3.70
   4  -3  11   35.70    7.90
  -4  -3 -11   43.40    5.90
   4  -3  11   37.40    8.50
   4  -3  11   34.80    8.80
  -4  -3 -11   38.60    6.80
  -4  -3 -11   51.19    8.00
   4  -3  11   48.60    6.20
  -4  -3 -11   56.39    7.80
  -4   3 -11   61.89   10.60
  -4   3 -11   47.90    6.20
   4   3  11   57.49    6.40
  -4   3 -11   60.39    8.50
   4   3  11   42.50    7.10
  -4   3 -11   50.99    8.10
   4   3  11   52.79    8.60
   4   3  11   45.70    7.50
   5  -3  11   21.40   11.30
  -5  -3 -11   20.40    6.90
  -5  -3 -11    9.00    6.30
   5  -3  11   13.50    4.60
   5  -3  11   14.90    7.60
  -5   3 -11   13.00    4.40
  -5   3 -11    9.30    6.00
   5   3  11   12.50    5.10
   5   3  11    6.50    5.20
  -5   3 -11   19.70    6.80
   5   3  11    7.60    8.00
   6  -3  11    2.80    6.90
  -6  -3 -11   10.40    6.70
   6  -3  11   -4.50    7.50
  -6  -3 -11    5.00    6.70
  -6   3 -11    1.80    7.50
   6   3  11   -0.40    6.00
   6   3  11    5.50    5.60
   6   3  11   16.60    6.50
  -6   3 -11    0.90    6.10
  -7  -3 -11  187.28   17.60
  -7  -3 -11  212.48   18.10
   7  -3  11  184.28   19.40
   7  -3  11  197.98   19.70
  -7   3 -11  165.58   15.40
   7   3  11  193.98   16.50
   7   3  11  180.78   16.30
  -7   3 -11  199.38   18.70
   7   3  11  195.28   17.40
  -6  -4  11   13.80    8.30
   6  -4 -11    6.90    7.30
  -6  -4  11    5.80    6.90
   6  -4 -11   14.20    4.80
   6   4 -11   12.50    7.50
  -6   4  11   13.20    9.40
   6   4 -11    9.40    5.50
  -6   4  11   14.30    7.60
   6   4 -11    8.20    8.40
  -6   4  11   19.20    5.90
  -5  -4  11   11.50    7.80
  -5  -4  11   18.90    7.60
   5  -4 -11   20.30    4.80
   5   4 -11   -6.20    7.50
  -5   4  11    8.60    7.70
  -5   4  11   17.50    6.10
   5   4 -11   14.10    5.20
   5   4 -11   10.60    6.00
  -5   4  11   15.10    6.50
   4  -4 -11   46.90    6.80
   4  -4 -11   50.09    8.20
  -4  -4  11   45.10    8.90
  -4  -4  11   46.30    9.40
   4   4 -11   33.00   10.50
   4   4 -11   36.20    7.40
  -4   4  11   46.90   10.40
  -4   4  11   45.80    7.60
  -4   4  11   45.40    7.20
   4   4 -11   40.50    7.60
  -3  -4  11   80.39   11.90
  -3  -4  11   91.09   11.30
   3  -4 -11   73.09   10.40
   3  -4 -11   87.99   10.10
  -3   4  11   88.79   11.40
   3   4 -11   83.89    9.90
   3   4 -11   99.99   10.70
  -3   4  11   83.29    9.60
  -3   4  11  100.59   13.90
   2  -4 -11  554.44   35.50
  -2  -4  11  517.65   36.40
  -2  -4  11  486.55   37.00
   2  -4 -11  572.14   34.80
  -2   4  11  577.14   35.00
   2   4 -11  528.15   34.80
  -2   4  11  596.54   37.10
   2   4 -11  458.15   34.80
  -2   4  11  550.54   35.60
   1  -4 -11  110.89   11.40
  -1  -4  11  125.69   14.40
  -1  -4  11  137.09   14.00
   1  -4 -11   97.19   11.70
  -1   4  11  113.29   12.90
   1   4 -11  109.59   11.30
  -1   4  11  106.59   13.80
   1   4 -11  113.79   12.30
  -1   4  11  121.99   11.50
   0  -4  11  135.39   14.60
   0  -4 -11  132.09   12.90
   0  -4 -11  122.89   12.40
   0  -4  11  133.29   14.90
   0   4  11  133.29   12.70
   0   4  11  125.59   14.20
   0   4 -11  109.89   12.90
   0   4  11  146.79   14.20
   0   4 -11  143.29   12.30
  -1  -4 -11   15.00    7.40
   1  -4  11   -7.30    9.80
   1  -4  11   -4.90    6.10
  -1  -4 -11   10.10    5.30
  -1  -4 -11    3.50    5.60
  -1   4 -11    0.00    4.60
   1   4  11    1.20    5.60
  -1   4 -11   -1.40    6.30
   1   4  11    5.20    6.00
   1   4  11   12.10    7.00
  -1   4 -11   27.00   10.10
   1   4  11   -4.80    6.50
   2  -4  11   36.60    8.00
  -2  -4 -11   42.10    7.60
  -2  -4 -11   24.10    6.60
  -2  -4 -11   39.60    7.40
   2  -4  11   42.70    9.50
   2  -4  11   35.40    8.20
  -2   4 -11   29.80    5.70
  -2   4 -11   45.30    7.60
  -2   4 -11   62.39   12.20
   2   4  11   39.90    7.40
   2   4  11   17.80    6.90
   2   4  11   37.40    8.10
  -2   4 -11   48.00    7.80
   2   4  11   49.70    7.10
   3  -4  11    2.10    7.50
   3  -4  11   12.70    7.80
  -3  -4 -11    1.70    5.50
  -3  -4 -11    3.00    6.40
  -3  -4 -11   -6.40    5.60
   3  -4  11    2.00    8.50
  -3   4 -11    1.00    4.50
   3   4  11    0.40    6.60
   3   4  11   -0.10    6.10
  -3   4 -11   -4.30    7.80
   3   4  11   -6.60    3.90
  -3   4 -11   -0.50    6.80
  -3   4 -11   -8.80    6.00
   3   4  11   -2.60    4.90
   3   4  11    3.20    5.50
   4  -4  11  593.54   37.70
  -4  -4 -11  523.45   36.30
   4  -4  11  539.95   36.70
  -4  -4 -11  512.05   36.50
   4   4  11  496.25   35.10
  -4   4 -11  603.44   37.00
   4   4  11  505.05   34.10
  -4   4 -11  571.64   37.70
  -5  -4 -11   10.30    8.50
   5  -4  11    9.30    8.10
  -5  -4 -11   -0.20    6.70
   5  -4  11  -16.30    8.00
   5   4  11   -1.20    5.60
  -5   4 -11    5.30    4.90
   5   4  11   -2.40    6.30
  -5   4 -11   10.40    7.60
  -5   4 -11  -17.10    6.70
   5   4  11   -4.40    7.50
   3  -5 -11    1.80    7.90
  -3  -5  11  -11.70    9.80
  -3  -5  11    9.40    9.00
   3  -5 -11    7.40    6.60
  -3   5  11    0.30    8.90
   3   5 -11   18.50    7.20
  -3   5  11    0.00    7.00
  -3   5  11   16.00    6.90
   3   5 -11    1.40    6.80
   3   5 -11  -17.10   10.10
  -2  -5  11    6.70   10.30
   2  -5 -11    4.40    7.50
  -2  -5  11   -3.70    8.80
   2  -5 -11    7.00    6.10
   2   5 -11    5.00    6.50
   2   5 -11    6.50    6.70
  -2   5  11    3.40    7.20
  -2   5  11    9.40    6.70
  -2   5  11   17.90    8.90
   2   5 -11   13.70   10.40
   1  -5 -11   59.19    9.20
  -1  -5  11   45.10   12.30
  -1  -5  11   40.00   10.50
   1  -5 -11   66.29   18.60
   1   5 -11   68.59   10.00
  -1   5  11   58.49   10.30
  -1   5  11   72.49   11.50
  -1   5  11   67.79    9.30
   1   5 -11   50.39    8.50
   1   5 -11   45.30   12.30
   0  -5  11   42.50   10.00
   0  -5 -11   10.40    7.10
   0  -5 -11    8.70   11.70
   0  -5  11   21.50   11.00
   0   5  11   14.00    6.80
   0   5 -11   23.20    6.90
   0   5 -11   20.00    6.90
   0   5  11   19.30    8.60
   0   5  11   17.60    8.90
   1  -5  11  405.76   35.40
  -1  -5 -11  470.65   32.30
  -1  -5 -11  464.15   33.40
   1  -5  11  440.26   33.90
  -1   5 -11  447.56   32.90
   1   5  11  460.65   31.30
  -1   5 -11  465.15   30.60
  -1   5 -11  534.25   36.80
   1   5  11  497.75   33.00
   1   5  11  435.16   33.20
  -2  -5 -11   15.80    8.30
   2  -5  11  -21.90   10.30
   2  -5  11    0.80    9.40
  -2   5 -11    5.00    7.80
  -2   5 -11   11.20    8.60
   2   5  11    6.00    7.10
   2   5  11   -2.50    6.80
  -9   0  12   16.60    9.80
   9   0 -12   14.30    8.60
   9   0 -12   14.60    7.00
  -9   0  12   23.40    4.10
  -9   0  12   15.30    4.10
   8   0 -12   24.50    8.20
   8   0 -12   21.50    4.80
   8   0 -12   25.80    3.50
  -8   0  12   16.00    4.20
   8   0 -12   26.50    3.40
  -8   0  12   29.00    9.00
   7   0 -12  178.68   12.20
   7   0 -12  200.78   17.40
   7   0 -12  165.98   15.40
  -7   0  12  171.18   13.10
  -7   0  12  187.48   14.80
   7   0 -12  174.68   12.20
  -7   0  12  176.58   17.00
  -7   0  12  184.18   13.20
   6   0 -12  293.97   19.10
  -6   0  12  276.37   19.30
  -6   0  12  275.77   21.70
   6   0 -12  266.97   22.00
   6   0 -12  283.77   18.40
  -6   0  12  306.77   19.80
   6   0 -12  302.57   18.50
  -6   0  12  277.67   19.10
  -5   0  12   92.89    9.20
  -5   0  12   77.69    8.10
  -5   0  12   94.19    9.60
   5   0 -12  105.39    8.10
   5   0 -12   98.79    7.30
   5   0 -12   97.69   10.80
   5   0 -12  100.59    8.60
   5   0 -12   88.99    9.60
   5   0 -12   99.59    7.80
  -5   0  12   93.59    9.00
  -5   0  12  101.19   11.00
   4   0 -12    8.80    2.70
  -4   0  12    2.00    3.60
   4   0 -12    0.50    3.60
  -4   0  12    2.00    3.20
  -4   0  12    9.80    4.10
  -4   0  12    9.60    5.30
   4   0 -12   10.30    5.10
  -4   0  12   -0.50    3.10
   4   0 -12   10.10    2.90
   4   0 -12   12.90    3.10
  -3   0  12   10.00    4.70
   3   0 -12   15.40    3.30
  -3   0  12   10.30    4.40
  -3   0  12    9.00    4.40
   3   0 -12    3.90    3.40
  -3   0  12   10.60    3.50
   3   0 -12   12.80    3.30
   3   0 -12   14.70    3.20
   3   0 -12    6.80    4.80
  -3   0  12    8.60    3.30
   3   0 -12    8.30    3.10
  -2   0  12  549.54   33.00
   2   0 -12  427.56   31.70
  -2   0  12  612.54   32.40
   2   0 -12  449.76   33.50
  -2   0  12  544.65   32.20
   2   0 -12  498.05   31.80
  -2   0  12  484.85   31.90
  -2   0  12  494.25   32.80
   2   0 -12  518.35   31.70
   2   0 -12  540.25   31.60
   1   0 -12  824.02   48.40
  -1   0  12  801.52   48.90
  -1   0  12  787.62   49.60
   1   0 -12  855.51   48.10
   1   0 -12  814.32   50.09
  -1   0  12  723.53   51.69
  -1   0  12  795.12   48.80
   1   0 -12  784.12   48.70
  -1   0  12  797.82   49.10
   1   0 -12  804.72   48.80
   1   0 -12  792.02   48.70
   0   0  12 1344.37   79.19
   0   0 -12 1353.86   78.09
   0   0 -12 1348.37   78.99
   0   0 -12 1311.57   78.29
   0   0 -12 1373.06   78.89
   0   0  12 1302.67   78.69
   0   0  12 1150.38   79.89
   0   0 -12 1357.76   79.79
   0   0  12 1299.07   80.09
   0   0 -12 1289.17   78.69
  -1   0 -12    3.20    3.20
  -1   0 -12    4.70    3.70
  -1   0 -12    8.30    4.00
  -1   0 -12   -0.80    3.40
  -1   0 -12    2.30    3.50
  -1   0 -12    7.60    3.40
   1   0  12    5.30    3.40
   1   0  12    5.60    4.40
   1   0  12   -0.50    4.80
   1   0  12   -2.20    3.70
  -1   0 -12    3.20    5.00
   1   0  12   -0.60    3.80
   1   0  12    3.30    4.30
  -2   0 -12  270.17   20.80
   2   0  12  274.67   20.20
  -2   0 -12  302.17   20.20
   2   0  12  289.57   20.10
  -2   0 -12  377.86   23.80
   2   0  12  305.37   20.90
  -2   0 -12  308.07   19.50
  -2   0 -12  299.97   20.80
  -2   0 -12  271.47   20.20
  -2   0 -12  305.27   20.10
   2   0  12  278.17   20.40
  -2   0 -12  305.87   20.00
   2   0  12  277.27   21.10
   2   0  12  295.77   20.50
   3   0  12   90.59    9.60
   3   0  12   90.29    9.10
   3   0  12   72.69    9.20
  -3   0 -12   79.09    8.70
  -3   0 -12   80.99    9.70
  -3   0 -12   71.39    9.50
  -3   0 -12   82.39    8.60
   3   0  12   77.79    9.60
  -3   0 -12   76.99    8.20
   3   0  12   92.99   10.30
  -3   0 -12   82.99    8.10
  -3   0 -12   75.69    8.50
   4   0  12  743.03   47.70
  -4   0 -12  742.43   47.90
   4   0  12  781.02   49.20
  -4   0 -12  733.43   48.60
   4   0  12  770.02   48.30
  -4   0 -12  765.82   48.10
   4   0  12  895.51   51.39
  -4   0 -12  746.53   47.90
   4   0  12  794.42   48.00
  -4   0 -12  790.42   47.50
  -4   0 -12  770.32   47.40
   4   0  12  793.62   48.30
  -4   0 -12  749.23   47.40
  -5   0 -12  109.29   11.50
  -5   0 -12  107.99   10.30
  -5   0 -12  117.29   11.70
   5   0  12  115.89   11.60
   5   0  12  119.79   10.50
   5   0  12  108.39   11.70
   5   0  12  112.89   12.90
   6   0  12  991.20   59.89
  -6   0 -12  934.81   61.69
   6   0  12  942.31   58.99
  -6   0 -12  917.71   59.09
   6   0  12 1052.49   60.39
   7   0  12   75.49    9.40
   7   0  12   82.99   10.20
  -7   0 -12   69.69    8.80
  -7   0 -12   91.49   10.40
   7   0  12   77.79    9.80
   8   0  12  355.26   26.20
   8   0  12  353.56   24.10
  -8   0 -12  347.17   24.90
  -8   0 -12  374.06   26.20
   8   0  12  331.57   25.80
  -8  -1  12   86.09    9.20
   8  -1 -12   87.69   13.30
   8  -1 -12   95.39    7.30
   8  -1 -12   84.89    9.70
   8  -1 -12   69.79    9.00
  -8  -1  12   90.69   10.80
  -8  -1  12  101.89   13.60
   8   1 -12  106.19   11.80
   8   1 -12   95.39    7.70
  -8   1  12   93.99   11.90
   8   1 -12  101.29    7.50
  -8   1  12   85.49    8.70
   8   1 -12   95.29   13.90
  -7  -1  12   16.10    6.70
   7  -1 -12   13.70    3.30
   7  -1 -12   12.10    3.20
  -7  -1  12   21.70    8.20
   7  -1 -12   11.70    4.70
  -7  -1  12   22.70    4.50
   7  -1 -12   18.10    6.90
  -7  -1  12   15.80    4.20
   7   1 -12   14.10    3.40
   7   1 -12    9.10    3.40
  -7   1  12   15.70    7.40
   7   1 -12   24.50    7.60
  -7   1  12    9.90    3.70
  -6  -1  12   -3.80    5.40
  -6  -1  12    2.50    6.60
   6  -1 -12   -1.30    2.90
  -6  -1  12    0.50    3.60
   6  -1 -12    1.90    2.60
   6  -1 -12    4.50    5.30
  -6  -1  12   -1.20    3.70
   6  -1 -12   -1.60    3.60
   6  -1 -12    7.50    2.90
  -6   1  12    2.30    3.40
   6   1 -12    2.90    2.70
  -6   1  12  -10.00    5.40
   6   1 -12    8.90    6.10
   6   1 -12    1.10    2.70
  -5  -1  12  281.97   20.10
  -5  -1  12  311.37   22.90
   5  -1 -12  317.07   20.30
   5  -1 -12  322.17   23.00
   5  -1 -12  291.07   19.30
   5  -1 -12  333.07   20.70
  -5  -1  12  341.37   22.00
   5  -1 -12  313.57   19.90
  -5  -1  12  292.37   21.10
  -5  -1  12  314.67   20.70
  -5   1  12  313.47   19.80
   5   1 -12  300.87   19.40
  -5   1  12  310.97   21.30
   5   1 -12  308.97   23.10
  -5   1  12  303.97   21.10
   5   1 -12  298.17   20.00
  -5   1  12  286.97   22.00
  -5   1  12  330.47   20.90
   5   1 -12  329.27   20.20
   4  -1 -12  358.86   22.10
  -4  -1  12  359.76   23.90
   4  -1 -12  353.56   21.70
  -4  -1  12  340.77   22.70
   4  -1 -12  344.27   22.40
   4  -1 -12  348.57   22.60
  -4  -1  12  354.26   24.90
   4  -1 -12  342.87   22.80
  -4  -1  12  336.17   23.50
   4  -1 -12  360.56   25.00
   4   1 -12  346.37   22.50
  -4   1  12  347.87   22.00
   4   1 -12  355.16   22.20
  -4   1  12  347.07   22.40
  -4   1  12  351.16   23.20
   4   1 -12  369.26   25.40
  -4   1  12  336.37   24.00
   3  -1 -12  362.86   21.00
  -3  -1  12  267.87   21.90
   3  -1 -12  349.07   19.80
   3  -1 -12  364.86   23.20
  -3  -1  12  280.97   20.60
  -3  -1  12  287.77   21.90
   3  -1 -12  383.56   21.00
   3  -1 -12  360.46   20.70
  -3  -1  12  263.37   21.50
  -3  -1  12  267.57   20.80
   3   1 -12  277.37   20.60
   3   1 -12  279.87   22.60
   3   1 -12  257.77   21.50
  -3   1  12  383.06   20.40
   3   1 -12  289.37   20.70
  -3   1  12  366.36   21.90
  -3   1  12  351.96   22.00
   3   1 -12  260.07   20.40
  -3   1  12  373.46   21.00
  -3   1  12  339.67   21.20
  -2  -1  12   30.50    5.20
  -2  -1  12   22.00    6.10
  -2  -1  12   29.80    4.30
   2  -1 -12   29.70    4.70
  -2  -1  12   32.60    4.40
   2  -1 -12   25.30    3.90
   2  -1 -12   30.70    3.60
   2  -1 -12   19.50    6.60
   2   1 -12   27.90    4.00
  -2   1  12   23.90    4.00
  -2   1  12   37.90    5.80
   2   1 -12   21.20    5.80
   2   1 -12   25.10    4.60
   2   1 -12   27.70    5.40
  -2   1  12   19.80    4.00
  -2   1  12   30.70    4.80
   1  -1 -12  127.79   10.90
  -1  -1  12  156.78   11.40
   1  -1 -12  153.58   11.30
  -1  -1  12  194.28   17.30
  -1  -1  12  140.39   12.50
   1  -1 -12  144.59   11.10
  -1  -1  12  156.58   12.40
   1  -1 -12  143.59   12.60
   1  -1 -12  146.99   10.30
  -1  -1  12  144.29   11.40
   1  -1 -12  152.58   11.50
   1   1 -12  143.49   12.70
  -1   1  12  139.09   11.10
  -1   1  12  139.89   12.20
   1   1 -12  142.79   11.40
  -1   1  12  142.99   10.90
  -1   1  12  148.79   11.90
   1   1 -12  154.98   13.20
   1   1 -12  140.19   11.10
  -1   1  12  154.88   11.90
   1   1 -12  145.29   11.30
   0  -1  12   42.70    6.00
   0  -1 -12   40.40    5.50
   0  -1 -12   36.30    5.00
   0  -1  12   33.80    5.80
   0  -1 -12   38.40    4.40
   0  -1  12   34.40    5.60
   0  -1 -12   39.90    6.60
   0  -1  12   28.60    5.80
   0  -1 -12   32.00    5.00
   0  -1 -12   42.40    5.70
   0   1 -12   42.00    4.10
   0   1  12   50.09    6.30
   0   1  12   35.70    6.20
   0   1  12   38.30    5.80
   0   1 -12   45.70    5.60
   0   1 -12   38.00    5.40
   0   1  12   35.50    5.00
   0   1 -12   41.20    5.40
   0   1 -12   34.20    6.00
   1  -1  12 1452.35   79.89
  -1  -1 -12 1177.58   79.49
   1  -1  12 1418.36   80.59
  -1  -1 -12 1281.77   79.09
   1  -1  12 1361.66   79.69
  -1  -1 -12 1266.27   79.19
  -1  -1 -12 1246.38   79.59
   1  -1  12 1366.76   79.59
  -1  -1 -12 1280.67   79.29
   1  -1  12 1394.26   79.99
  -1  -1 -12 1238.68   79.49
  -1  -1 -12 1318.07   78.49
  -1   1 -12 1348.67   79.59
  -1   1 -12 1452.85   78.19
  -1   1 -12 1489.95   80.49
   1   1  12 1179.18   79.29
   1   1  12 1205.88   78.69
  -1   1 -12 1443.26   79.59
   1   1  12 1232.48   79.79
   1   1  12 1245.58   79.99
  -1   1 -12 1447.06   79.59
   1   1  12 1230.58   79.49
   2  -1  12  345.57   22.60
  -2  -1 -12  327.27   21.10
  -2  -1 -12  328.67   21.70
   2  -1  12  348.47   22.80
  -2  -1 -12  333.17   21.80
  -2  -1 -12  341.17   21.80
   2  -1  12  322.07   22.40
   2  -1  12  310.37   21.90
  -2  -1 -12  333.07   21.90
   2  -1  12  299.37   21.70
  -2  -1 -12  315.57   22.10
  -2  -1 -12  346.87   24.10
  -2  -1 -12  297.07   21.90
   2  -1  12  318.67   23.20
   2   1  12  326.37   22.20
   2   1  12  303.37   21.20
   2   1  12  331.67   21.90
   2   1  12  334.97   22.20
   2   1  12  328.07   22.70
  -2   1 -12  305.87   22.00
  -2   1 -12  335.17   22.40
  -2   1 -12  331.67   21.80
  -2   1 -12  317.07   20.50
   2   1  12  329.47   22.70
  -2   1 -12  342.87   21.90
  -2   1 -12  295.37   23.30
   3  -1  12  661.43   39.20
  -3  -1 -12  605.24   39.50
   3  -1  12  731.33   40.00
  -3  -1 -12  582.04   38.60
   3  -1  12  652.73   39.70
  -3  -1 -12  573.54   38.90
  -3  -1 -12  605.94   38.70
  -3  -1 -12  591.74   38.90
  -3  -1 -12  562.84   39.70
   3  -1  12  682.23   39.20
  -3  -1 -12  604.34   39.10
   3  -1  12  676.63   39.90
   3  -1  12  682.33   40.80
  -3   1 -12  607.94   40.00
   3   1  12  552.84   38.90
  -3   1 -12  663.43   39.60
   3   1  12  575.24   39.30
   3   1  12  581.84   39.10
  -3   1 -12  692.33   39.50
   3   1  12  597.84   39.90
  -3   1 -12  657.53   38.20
  -3   1 -12  664.63   39.30
  -3   1 -12  669.13   40.30
   3   1  12  554.34   39.70
   3   1  12  572.14   38.70
  -3   1 -12  642.34   39.50
  -4  -1 -12   26.00    4.40
   4  -1  12   23.60    5.10
   4  -1  12   26.50    5.30
  -4  -1 -12   21.20    5.40
   4  -1  12   23.80    6.50
  -4  -1 -12   17.60    5.90
  -4  -1 -12   18.10    5.90
  -4  -1 -12   35.50    4.80
   4  -1  12   31.50    6.30
  -4  -1 -12   32.30    5.40
  -4  -1 -12   16.70    5.60
   4  -1  12   22.20    5.40
   4   1  12   34.80    6.80
   4   1  12   29.00    5.60
  -4   1 -12   28.20    5.70
   4   1  12   28.50    5.50
  -4   1 -12   19.80    4.10
  -4   1 -12    8.60    5.70
   4   1  12   25.90    5.40
  -4   1 -12   20.70    5.70
   4   1  12   21.60    5.30
  -4   1 -12   21.60    6.30
  -4   1 -12   16.30    5.60
  -4   1 -12   23.40    6.40
  -5  -1 -12   53.89    8.00
  -5  -1 -12   65.19    7.20
   5  -1  12   66.29    8.90
   5  -1  12   68.49    8.40
  -5  -1 -12   75.19    8.40
   5  -1  12   68.69    8.80
  -5  -1 -12   71.89    8.70
   5  -1  12   70.09   10.00
   5   1  12   75.19   10.20
   5   1  12   73.49    8.80
  -5   1 -12   69.19    8.90
   5   1  12   61.19    7.60
  -5   1 -12   76.19    9.60
  -5   1 -12   63.39    7.50
   5   1  12   73.89    8.70
  -6  -1 -12   71.39    8.80
   6  -1  12   74.69    9.90
   6  -1  12   76.69   10.10
   6  -1  12   74.49    8.50
  -6  -1 -12   95.19   11.40
   6   1  12   70.99    8.60
  -6   1 -12   64.49    9.50
   6   1  12   74.19    9.30
  -6   1 -12   59.09    8.40
   6   1  12   88.39    9.80
  -7  -1 -12  782.22   49.20
   7  -1  12  795.52   48.40
   7  -1  12  779.62   49.40
   7  -1  12  799.82   49.60
  -7  -1 -12  763.72   48.70
   7   1  12  750.72   48.70
  -7   1 -12  750.02   48.20
   7   1  12  734.43   47.90
  -7   1 -12  760.02   49.30
   7   1  12  801.32   49.10
   8  -1  12   64.89    9.70
   8  -1  12   50.09    9.50
  -8  -1 -12   42.10    8.30
   8   1  12   45.10    9.20
   8   1  12   38.00    8.00
   8   1  12   45.50    8.10
  -8   1 -12   49.60    9.90
   8  -2 -12   -3.40    5.40
   8  -2 -12   13.70    7.30
   8  -2 -12    0.30    2.80
  -8  -2  12   -3.00    4.80
  -8  -2  12   13.40    7.70
   8   2 -12    6.30    6.80
   8   2 -12    3.10    8.00
   8   2 -12   -3.50    3.30
  -8   2  12   -3.40    3.90
  -8   2  12   -6.50    7.90
   7  -2 -12  167.58   11.80
   7  -2 -12  147.89   13.70
  -7  -2  12  168.48   16.80
  -7  -2  12  159.38   13.90
   7  -2 -12  153.98   16.60
  -7   2  12  148.29   16.30
   7   2 -12  184.18   15.40
  -7   2  12  159.48   12.80
   7   2 -12  155.68   17.30
   7   2 -12  171.48   12.20
  -6  -2  12   49.99    9.90
   6  -2 -12   49.80    8.70
   6  -2 -12   56.99    9.10
   6  -2 -12   55.09    6.50
  -6  -2  12   51.19    7.60
  -6  -2  12   62.69    9.60
  -6   2  12   52.59    9.00
   6   2 -12   54.79    7.00
  -6   2  12   58.69    6.90
   6   2 -12   49.90    7.60
   6   2 -12   38.70    8.80
   5  -2 -12   10.90    5.70
  -5  -2  12   17.20    8.00
  -5  -2  12   10.10    4.90
   5  -2 -12   21.90    3.80
   5  -2 -12   12.50    4.30
  -5  -2  12   21.70    6.70
   5   2 -12   10.90    4.50
  -5   2  12    1.40    6.00
   5   2 -12   14.30    4.10
  -5   2  12    8.20    6.80
  -5   2  12   14.70    4.10
   5   2 -12    4.30    5.80
  -4  -2  12   11.30    6.50
   4  -2 -12    9.50    6.10
   4  -2 -12    7.30    4.10
  -4  -2  12   14.00    6.20
   4  -2 -12    5.50    4.80
  -4  -2  12   -3.10    4.20
   4  -2 -12    5.60    3.10
   4   2 -12    5.90    5.10
   4   2 -12    4.00    3.40
  -4   2  12    4.00    5.40
   4   2 -12    0.20    3.00
  -4   2  12    5.30    4.10
  -4   2  12    2.80    6.00
   3  -2 -12    8.90    5.10
  -3  -2  12    7.20    5.90
   3  -2 -12   11.80    4.10
  -3  -2  12   12.30    5.50
  -3  -2  12    4.80    6.30
   3  -2 -12   15.20    3.70
   3  -2 -12   11.30    3.80
  -3  -2  12    5.90    4.70
   3  -2 -12   11.60    3.80
  -3   2  12   16.10    5.00
   3   2 -12   10.70    3.30
  -3   2  12   10.60    4.40
   3   2 -12   16.90    3.90
   3   2 -12   12.40    3.70
  -3   2  12    5.60    6.00
   3   2 -12   14.30    6.00
  -3   2  12   10.10    4.30
   2  -2 -12  323.57   20.00
   2  -2 -12  332.77   20.20
  -2  -2  12  252.27   21.50
  -2  -2  12  288.17   20.20
  -2  -2  12  265.07   21.50
   2  -2 -12  332.87   20.60
  -2  -2  12  275.97   20.20
   2  -2 -12  326.17   22.10
  -2  -2  12  244.08   21.70
  -2   2  12  338.57   21.20
  -2   2  12  335.57   21.20
  -2   2  12  337.17   23.40
   2   2 -12  259.57   20.00
   2   2 -12  275.87   20.10
  -2   2  12  328.67   20.00
   2   2 -12  283.37   20.20
   2   2 -12  278.17   22.10
  -2   2  12  341.17   21.30
   1  -2 -12  291.67   18.90
   1  -2 -12  289.57   16.70
  -1  -2  12  233.68   24.70
  -1  -2  12  246.58   20.70
   1  -2 -12  274.27   18.60
   1  -2 -12  251.07   22.60
  -1  -2  12  277.07   19.30
   1  -2 -12  262.67   20.70
   1  -2 -12  285.17   18.90
  -1  -2  12  265.17   18.90
  -1  -2  12  244.68   19.80
   1   2 -12  272.87   18.90
   1   2 -12  284.77   20.80
  -1   2  12  259.47   19.10
   1   2 -12  272.47   18.70
  -1   2  12  287.97   18.50
  -1   2  12  290.77   20.20
   0  -2 -12  827.82   50.69
   0  -2 -12  811.32   49.90
   0  -2 -12  865.11   50.09
   0  -2  12  771.72   50.99
   0  -2 -12  818.12   49.80
   0  -2 -12  820.62   48.10
   0  -2 -12  793.72   51.89
   0  -2  12  816.92   50.59
   0   2  12  814.32   50.79
   0   2 -12  825.92   51.39
   0   2 -12  792.72   49.90
   0   2 -12  816.82   50.09
   0   2  12  778.72   48.50
   0   2  12  816.12   50.69
   0   2 -12  824.92   49.99
   0   2  12  769.42   49.90
  -1  -2 -12    8.00    2.70
  -1  -2 -12    3.40    3.40
  -1  -2 -12    1.00    4.00
  -1  -2 -12    0.30    4.60
  -1  -2 -12    3.30    4.30
   1  -2  12    4.70    5.70
   1  -2  12   11.60    5.10
   1  -2  12    6.70    4.70
   1  -2  12    3.10    5.10
  -1  -2 -12    4.40    3.70
  -1  -2 -12    6.90    4.00
   1  -2  12    5.50    5.60
  -1   2 -12    2.00    4.00
   1   2  12    4.80    3.80
   1   2  12    8.40    5.00
   1   2  12    1.80    5.00
   1   2  12    9.80    3.40
  -1   2 -12   -2.60    3.50
  -1   2 -12    5.50    5.40
   1   2  12    1.60    4.60
  -2  -2 -12   84.19    7.90
   2  -2  12  102.39   10.80
   2  -2  12   84.39   11.30
   2  -2  12   93.19   10.90
  -2  -2 -12   80.29    9.30
  -2  -2 -12   87.19    9.40
  -2  -2 -12   85.39    9.10
   2  -2  12   94.19   10.80
  -2  -2 -12   89.19    9.60
  -2  -2 -12   87.89    9.50
  -2  -2 -12   87.49    8.90
   2  -2  12  105.09   10.10
  -2   2 -12   73.69    9.20
   2   2  12   88.49    8.70
  -2   2 -12   87.69    7.40
   2   2  12   93.79   10.40
  -2   2 -12  102.89   10.10
   2   2  12   80.89    9.70
  -2   2 -12  107.89   12.50
   2   2  12   91.69   10.70
  -2   2 -12   87.09   10.00
   2   2  12   79.69    9.00
   3  -2  12   22.80    6.50
  -3  -2 -12   23.00    5.90
   3  -2  12   12.30    5.10
   3  -2  12   12.30    4.90
   3  -2  12   18.40    5.90
  -3  -2 -12   23.80    4.90
  -3  -2 -12   20.70    5.90
  -3  -2 -12   20.80    4.10
  -3  -2 -12   18.70    4.40
   3  -2  12    7.00    5.20
  -3  -2 -12    9.30    4.90
  -3  -2 -12   17.90    5.10
   3  -2  12   14.10    6.80
  -3   2 -12    6.10    6.50
   3   2  12   20.30    5.20
  -3   2 -12   10.90    5.90
  -3   2 -12   16.90    5.50
   3   2  12   33.00    7.90
  -3   2 -12   20.90    3.90
   3   2  12   18.80    5.30
   3   2  12   18.30    4.50
  -3   2 -12   10.10    4.90
   3   2  12   14.60    5.80
  -4  -2 -12  728.33   46.60
   4  -2  12  767.02   46.50
  -4  -2 -12  723.93   46.70
   4  -2  12  828.32   47.70
  -4  -2 -12  729.23   46.80
  -4  -2 -12  708.33   45.40
   4  -2  12  817.22   47.50
   4  -2  12  814.32   46.10
  -4  -2 -12  687.63   47.20
   4   2  12  707.93   46.40
   4   2  12  728.63   47.50
   4   2  12  703.93   45.90
  -4   2 -12  782.52   47.10
   4   2  12  679.43   47.20
  -4   2 -12  825.22   47.30
  -4   2 -12  698.13   47.60
  -4   2 -12  772.32   45.40
   4   2  12  715.33   46.90
   5  -2  12  162.28   16.50
  -5  -2 -12  201.58   15.30
   5  -2  12  195.28   16.90
  -5  -2 -12  189.48   16.20
  -5  -2 -12  180.98   15.60
   5  -2  12  207.48   18.90
   5  -2  12  189.28   14.30
  -5   2 -12  165.18   16.30
  -5   2 -12  187.08   13.70
   5   2  12  192.98   17.30
  -5   2 -12  195.98   16.30
  -5   2 -12  175.48   18.00
   5   2  12  190.98   15.20
   5   2  12  181.98   15.00
   5   2  12  178.88   16.20
  -6  -2 -12  527.55   35.20
   6  -2  12  541.45   33.60
  -6  -2 -12  543.05   35.70
   6  -2  12  512.85   36.00
   6  -2  12  517.65   35.90
   6   2  12  548.45   35.40
   6   2  12  514.35   34.70
  -6   2 -12  553.04   36.10
  -6   2 -12  532.45   34.50
   6   2  12  537.65   34.70
  -7  -2 -12   58.59    9.10
   7  -2  12   61.89   10.70
  -7  -2 -12   66.99    9.60
   7  -2  12   48.70    9.00
   7   2  12   61.49    9.50
   7   2  12   69.79    9.40
  -7   2 -12   49.70    9.50
   7   2  12   50.19    8.30
  -7   2 -12   55.89    7.80
   7  -3 -12    8.10    6.20
  -7  -3  12   10.30    9.50
   7  -3 -12   10.80    4.10
  -7  -3  12   18.90    7.10
   7   3 -12    8.60    9.30
  -7   3  12   20.20    8.60
  -7   3  12   20.90    5.70
  -7   3  12   -3.30    9.70
   7   3 -12   32.10    8.40
   7   3 -12   18.00    5.60
   6  -3 -12    4.90    3.60
  -6  -3  12   -3.40    5.50
   6  -3 -12   -6.70    5.10
  -6  -3  12    5.50    7.40
   6   3 -12   -3.00    5.80
  -6   3  12    6.70    7.00
  -6   3  12    9.40    7.80
   6   3 -12    0.10    7.30
  -6   3  12    1.70    4.50
   6   3 -12    5.60    4.20
   5  -3 -12  135.49   12.30
  -5  -3  12  120.99   15.50
  -5  -3  12  127.59   14.00
   5  -3 -12  120.99   10.70
   5   3 -12  133.89   12.80
  -5   3  12  118.59   12.60
  -5   3  12  136.79   12.30
  -5   3  12  124.89   16.20
   5   3 -12  134.19   11.60
   5   3 -12  115.49   15.60
  -4  -3  12  133.49   15.10
   4  -3 -12  121.99   11.30
  -4  -3  12  128.49   15.90
  -4  -3  12  156.88   14.50
   4  -3 -12  133.69   12.40
   4   3 -12  160.28   13.50
   4   3 -12  136.79   15.20
   4   3 -12  144.59   12.10
  -4   3  12  114.99   15.50
  -4   3  12  139.29   12.50
  -4   3  12  143.29   13.40
  -3  -3  12  162.98   16.30
   3  -3 -12  187.68   13.00
  -3  -3  12  147.29   15.80
  -3  -3  12  135.59   15.00
   3  -3 -12  154.08   13.40
   3   3 -12  160.48   13.50
   3   3 -12  152.58   16.40
  -3   3  12  176.18   16.50
  -3   3  12  159.58   13.80
  -3   3  12  166.88   14.00
  -2  -3  12   15.40    6.70
  -2  -3  12   10.50    6.40
   2  -3 -12    6.30    3.90
  -2  -3  12   10.50    6.10
   2  -3 -12    6.00    4.20
   2   3 -12   -5.40    5.60
  -2   3  12    8.50    5.30
  -2   3  12   -2.20    5.10
  -2   3  12   -0.90    5.70
   2   3 -12    5.20    4.40
  -1  -3  12   -0.30    6.20
   1  -3 -12    3.10    4.00
  -1  -3  12    4.70    6.00
  -1  -3  12    8.80    6.30
   1  -3 -12    2.50    4.30
  -1   3  12    1.90    6.10
  -1   3  12    0.90    5.40
   1   3 -12    2.00    6.20
  -1   3  12   -2.60    4.10
   1   3 -12    3.70    4.60
   0  -3 -12    5.60    4.30
   0  -3  12    6.40    7.20
   0  -3  12    3.00    5.90
   0  -3  12    1.30    5.90
   0  -3 -12    2.50    4.20
   0  -3  12   -6.80    5.60
   0   3  12    7.80    4.40
   0   3  12    6.20   10.50
   0   3 -12    5.30    4.80
   0   3  12   -1.70    5.40
   0   3  12    9.50    5.20
   0   3 -12  -10.20    6.20
   0   3 -12   -2.00    4.40
  -1  -3 -12  749.33   47.50
   1  -3  12  835.22   49.60
   1  -3  12  754.12   52.39
  -1  -3 -12  785.92   47.20
   1  -3  12  760.92   48.00
  -1  -3 -12  703.23   47.10
   1  -3  12  809.92   48.30
   1   3  12  738.13   48.00
   1   3  12  689.23   45.20
  -1   3 -12  837.92   47.90
   1   3  12  686.23   47.00
  -1   3 -12  790.82   47.70
   1   3  12  705.63   47.00
   1   3  12  751.62   48.20
   2  -3  12  243.78   20.10
  -2  -3 -12  259.57   19.10
  -2  -3 -12  259.17   19.50
   2  -3  12  241.08   20.70
   2  -3  12  249.18   22.00
  -2  -3 -12  275.07   19.20
  -2  -3 -12  248.38   19.10
   2  -3  12  275.47   19.40
  -2   3 -12  258.17   19.70
   2   3  12  245.58   17.40
  -2   3 -12  283.87   20.10
   2   3  12  240.48   18.60
   2   3  12  269.57   19.80
   2   3  12  263.67   20.10
   2   3  12  264.17   20.30
  -3  -3 -12  107.69   11.60
   3  -3  12  115.99   11.40
  -3  -3 -12   92.49   10.60
   3  -3  12  100.69   12.70
   3  -3  12  110.69   13.70
  -3  -3 -12   98.99   11.70
   3  -3  12  110.79   14.00
  -3  -3 -12  126.49   11.90
  -3   3 -12  126.19   13.00
   3   3  12   96.99   11.60
   3   3  12   98.29    9.90
   3   3  12   97.79   11.20
  -3   3 -12  123.09   13.20
   3   3  12  111.39   12.70
  -4  -3 -12   30.00    6.40
   4  -3  12   20.00    7.80
   4  -3  12   20.50    8.20
  -4  -3 -12   22.50    6.80
  -4  -3 -12   27.10    6.90
   4  -3  12   28.10    5.70
   4  -3  12   33.20    7.80
   4   3  12   20.40    6.20
   4   3  12   26.60    5.90
  -4   3 -12   21.80    5.00
  -4   3 -12   30.90    9.40
   4   3  12   35.00    7.20
   4   3  12   36.80    7.60
  -4   3 -12   43.10    8.40
  -4   3 -12   25.90    6.50
  -5  -3 -12  286.27   22.70
   5  -3  12  314.97   24.30
   5  -3  12  310.97   23.50
   5   3  12  294.97   22.70
  -5   3 -12  308.07   20.30
   5   3  12  291.17   21.10
  -5   3 -12  278.37   23.60
   5   3  12  276.27   21.80
   6  -3  12   31.70    9.40
   6  -3  12   42.30    9.60
  -6  -3 -12   30.90    7.60
   6   3  12   17.40    7.50
  -6   3 -12   31.10    8.40
  -6   3 -12   32.20    6.10
   6   3  12   32.70    7.10
  -6   3 -12   12.00    7.80
   6   3  12   34.20    7.60
   5  -4 -12    7.10    5.00
  -5  -4  12    7.00    9.00
  -5  -4  12    5.70    7.80
   5  -4 -12   18.30    7.10
   5   4 -12   14.00    5.80
  -5   4  12   10.90    9.10
   5   4 -12   16.00    7.00
  -5   4  12    3.20    5.80
   5   4 -12  -11.00    7.40
  -5   4  12   -6.60    6.90
  -4  -4  12    8.00    8.20
  -4  -4  12    1.70    7.60
   4  -4 -12    7.60    5.30
  -4   4  12   13.00    6.30
  -4   4  12    9.40    8.70
   4   4 -12    8.20    6.60
   4   4 -12   -1.20    5.40
   4   4 -12    6.00    9.50
  -4   4  12    5.80    5.90
  -3  -4  12   16.90    7.70
  -3  -4  12   24.00    9.30
   3  -4 -12    9.40    5.30
   3  -4 -12   14.50    6.40
  -3   4  12   14.70    6.30
   3   4 -12   12.80    5.50
  -3   4  12   13.40    8.50
  -3   4  12   18.30    7.00
   3   4 -12   15.00    6.90
  -2  -4  12   48.90   10.70
   2  -4 -12   94.39   11.50
  -2  -4  12   61.39   10.40
   2  -4 -12   72.99    9.00
   2   4 -12   64.39    8.80
   2   4 -12   61.89    9.30
  -2   4  12   94.99   13.90
  -2   4  12   61.69    8.90
  -2   4  12   81.29    9.70
  -1  -4  12   57.59    9.80
   1  -4 -12   49.70    8.30
  -1  -4  12   61.89   11.60
   1  -4 -12   66.49    8.60
  -1   4  12   59.59   10.10
   1   4 -12   74.69    8.50
   1   4 -12   64.69    8.80
  -1   4  12   58.69    9.10
  -1   4  12   68.19    8.90
   0  -4  12   26.70    8.30
   0  -4  12   27.80   10.70
   0  -4 -12   24.30    6.80
   0  -4 -12   39.70    7.50
   0   4  12   31.90    7.10
   0   4 -12   30.50    6.40
   0   4  12   28.10    7.80
   0   4  12   35.40    8.90
   0   4 -12   46.10    7.80
   1  -4  12   17.20    9.00
  -1  -4 -12   20.90    6.20
  -1  -4 -12   32.30    7.70
   1  -4  12   25.40    9.60
  -1   4 -12   21.90    6.00
  -1   4 -12   39.90    7.70
  -1   4 -12    7.70    9.90
   1   4  12   23.10    8.20
   1   4  12   22.50    6.30
   1   4  12   30.70    8.90
   2  -4  12  214.18   18.70
   2  -4  12  165.88   25.70
  -2  -4 -12  193.18   19.60
   2   4  12  187.98   18.90
   2   4  12  176.78   16.20
   2   4  12  181.78   18.00
  -2   4 -12  167.38   22.20
  -2   4 -12  201.58   17.30
  -2   4 -12  234.58   18.60
  -3  -4 -12   21.50    7.70
   3  -4  12   13.10    7.90
  -3  -4 -12   17.10    7.20
   3  -4  12   36.10   11.70
  -3   4 -12   10.60    6.10
  -3   4 -12   20.50    9.00
   3   4  12   21.50    6.70
   3   4  12   21.10    5.80
   3   4  12   21.20   10.80
  -4  -4 -12  190.28   21.00
   4  -4  12  225.28   20.40
   4   4  12  186.88   17.50
  -4   4 -12  229.18   21.40
   8   0 -13   -1.20    2.70
  -8   0  13    5.00    8.50
   8   0 -13    0.90    3.00
   8   0 -13    6.40    8.10
  -8   0  13    2.90    4.20
   7   0 -13   -7.80    6.50
   7   0 -13    8.00    5.00
   7   0 -13    0.90    3.00
  -7   0  13    5.30    5.90
  -7   0  13    7.30    7.60
  -7   0  13   -1.10    4.00
   6   0 -13   -6.00    5.90
  -6   0  13   -5.30    5.00
  -6   0  13    1.90    3.70
  -6   0  13   -6.30    6.20
   6   0 -13   -6.10    2.80
  -5   0  13   -5.20    3.60
  -5   0  13    4.20    5.70
   5   0 -13   -3.60    3.20
  -5   0  13    0.20    4.30
   5   0 -13   -3.60    5.10
   5   0 -13   -1.20    2.80
   4   0 -13    5.30    4.30
  -4   0  13    3.80    4.60
  -4   0  13   -6.80    7.10
   4   0 -13    3.00    2.90
  -4   0  13    0.50    3.80
   4   0 -13    0.60    5.30
  -4   0  13   -2.00    5.10
   3   0 -13   -5.50    4.80
   3   0 -13   -0.40    2.90
   3   0 -13   -0.40    3.60
   3   0 -13    2.90    3.40
  -3   0  13   -4.90    3.80
  -3   0  13    1.20    3.40
   3   0 -13   -4.60    3.00
  -3   0  13    1.70    4.30
  -3   0  13   -3.70    4.10
   3   0 -13   -0.60    3.60
  -3   0  13    1.00    4.90
   2   0 -13   -2.20    4.40
  -2   0  13   -2.30    3.30
  -2   0  13   -5.40    3.10
   2   0 -13    6.70    3.30
   2   0 -13    1.10    3.20
  -2   0  13    5.70    4.10
  -2   0  13    1.00    4.00
  -2   0  13   -4.20    4.60
   2   0 -13    2.50    2.90
   2   0 -13    7.10    3.70
  -1   0  13   -5.50    4.00
   1   0 -13   -2.00    3.40
   1   0 -13    2.30    3.20
  -1   0  13    3.90    4.20
  -1   0  13   -1.40    3.00
   1   0 -13    1.00    3.30
   1   0 -13    4.50    5.20
   1   0 -13   -3.90    3.60
  -1   0  13   -5.40    7.70
   1   0 -13    0.40    3.30
  -1   0  13    6.50    3.80
   0   0  13    2.70    4.20
   0   0 -13    1.00    3.40
   0   0 -13    3.20    3.50
   0   0  13    0.90    4.10
   0   0  13    3.70    4.70
   0   0 -13    6.30    3.70
   0   0 -13   -1.40    3.90
   0   0  13   -1.30    3.90
   0   0 -13   -0.50    4.30
   0   0 -13    4.10    3.70
   0   0  13    2.20    4.00
  -1   0 -13   -5.50    3.10
   1   0  13   -0.40    4.30
  -1   0 -13   -5.30    3.60
  -1   0 -13    4.30    4.30
   1   0  13   -0.60    5.10
  -1   0 -13   -2.90    4.20
   1   0  13    4.00    5.30
   1   0  13    0.80    3.90
   1   0  13    1.60    5.30
  -2   0 -13    7.40    3.90
  -2   0 -13    5.80    4.40
   2   0  13    7.80    4.40
  -2   0 -13   10.70    4.20
  -2   0 -13    5.20    4.00
   2   0  13    0.80    4.70
   2   0  13    2.60    5.00
  -2   0 -13    2.60    5.30
  -2   0 -13    1.40    4.40
   2   0  13    8.60    4.70
   2   0  13    5.70    5.20
   3   0  13   -1.30    5.60
   3   0  13   -3.10    4.50
  -3   0 -13   -2.90    3.90
   3   0  13    3.10    5.00
   3   0  13   -1.60    4.20
  -3   0 -13    8.60    5.20
   3   0  13    9.60    5.30
  -3   0 -13   12.10    4.30
  -3   0 -13    1.30    3.90
  -3   0 -13   -4.70    4.60
  -3   0 -13   -4.80    3.90
  -4   0 -13    5.20    3.90
   4   0  13    6.80    5.70
   4   0  13   -2.70    5.70
  -4   0 -13   -1.60    4.20
   4   0  13    3.50    4.40
   4   0  13   -7.30    5.00
  -4   0 -13    1.80    4.70
   4   0  13   -2.90    5.60
  -4   0 -13    0.00    5.20
  -5   0 -13   17.60    6.70
   5   0  13    6.80    4.80
   5   0  13   11.00    7.40
   5   0  13    2.20    6.20
  -5   0 -13   -7.00    5.60
  -5   0 -13    1.40    4.90
   5   0  13    7.60    6.30
  -6   0 -13   -7.40    6.10
   6   0  13    2.30    6.60
   6   0  13   -8.60    5.90
   6   0  13    6.50    5.10
  -6   0 -13    1.80    4.10
  -7   0 -13    5.20    6.70
   7   0  13   16.90    6.60
   7   0  13  -10.80    6.90
   7   0  13  -10.80    6.70
  -7   0 -13    0.10    4.60
   8  -1 -13   19.80    8.70
  -8  -1  13    8.90    4.90
   8  -1 -13   12.70    3.10
  -8  -1  13   13.70    8.10
  -8  -1  13   20.10   10.50
  -8   1  13   26.50    8.90
   8   1 -13    6.40    7.00
  -8   1  13   17.80    4.70
   8   1 -13    9.30    3.50
   8   1 -13   10.00    8.00
   7  -1 -13    2.30    6.50
  -7  -1  13  -11.60    8.10
  -7  -1  13    5.60    4.50
   7  -1 -13   -1.40    2.70
   7  -1 -13    6.50    4.90
  -7  -1  13    1.00    6.90
   7   1 -13   14.20    7.00
  -7   1  13    3.10    7.60
   7   1 -13    0.90    3.10
  -7   1  13   -3.70    3.50
  -6  -1  13   84.19   11.20
   6  -1 -13   84.99    9.30
  -6  -1  13   61.09    8.00
   6  -1 -13   78.89   11.30
   6  -1 -13   75.09    7.60
  -6  -1  13   80.79   10.00
   6   1 -13   82.49   11.70
  -6   1  13   79.79    8.70
   6   1 -13   83.69    8.00
  -6   1  13   83.09   10.50
   5  -1 -13   10.70    4.30
  -5  -1  13   10.70    4.90
  -5  -1  13   -3.20    6.70
   5  -1 -13    7.80    6.20
  -5  -1  13   10.30    6.10
   5  -1 -13    7.40    3.20
  -5   1  13   12.90    6.80
  -5   1  13   14.20    4.20
   5   1 -13    2.50    6.30
   5   1 -13    5.90    3.40
   4  -1 -13   41.30    5.10
   4  -1 -13   42.90    5.60
  -4  -1  13   28.90    7.60
   4  -1 -13   40.40    6.90
  -4  -1  13   25.90    5.80
   4  -1 -13   40.40    5.20
  -4  -1  13   37.10    6.80
   4   1 -13   31.20    4.80
  -4   1  13   41.50    7.00
  -4   1  13   30.30    5.70
   4   1 -13   36.40    5.50
  -4   1  13   35.60    4.70
   4   1 -13   29.30    6.70
  -3  -1  13   59.39    8.10
  -3  -1  13   35.80    6.20
   3  -1 -13   60.19    6.90
   3  -1 -13   55.69    6.10
   3  -1 -13   54.49    6.60
   3  -1 -13   64.09    9.30
  -3  -1  13   52.69    7.80
  -3  -1  13   57.09    7.70
   3  -1 -13   63.09    6.70
   3   1 -13   52.69    8.50
   3   1 -13   65.09    6.90
  -3   1  13   70.09    8.50
  -3   1  13   53.19    7.90
   3   1 -13   55.89    7.00
  -3   1  13   59.89    7.50
  -3   1  13   59.39    7.00
  -2  -1  13   34.30    6.30
  -2  -1  13   27.50    4.30
   2  -1 -13   21.80    6.20
   2  -1 -13   20.40    4.20
   2  -1 -13   29.80    4.70
  -2  -1  13   29.00    6.30
  -2  -1  13   24.40    4.40
   2  -1 -13   25.40    4.30
   2  -1 -13   30.70    3.80
   2  -1 -13   20.20    4.70
  -2  -1  13   22.10    6.10
  -2   1  13   34.40    4.50
   2   1 -13   31.40    6.80
   2   1 -13   25.50    4.60
  -2   1  13   32.30    5.80
  -2   1  13   29.60    6.40
   2   1 -13   22.90    4.30
   2   1 -13   25.70    4.80
  -2   1  13   13.70    3.90
  -2   1  13   31.60    4.60
   1  -1 -13  164.78   10.90
   1  -1 -13  161.58   11.90
  -1  -1  13  140.79   13.10
  -1  -1  13  128.69   11.90
   1  -1 -13  166.28   11.90
   1  -1 -13  162.18   12.10
  -1  -1  13  127.59   11.60
  -1  -1  13  126.59   13.20
   1  -1 -13  176.08   14.70
  -1  -1  13  138.39   13.70
   1  -1 -13  181.18   12.20
   1   1 -13  127.39   11.60
  -1   1  13  154.18   12.50
  -1   1  13  173.78   13.70
  -1   1  13  167.68   13.10
  -1   1  13  152.38   11.70
   1   1 -13  146.69   13.80
   1   1 -13  130.39   12.00
   1   1 -13  133.09   11.60
  -1   1  13  149.09   11.60
   0  -1 -13   12.30    3.50
   0  -1 -13    9.50    4.40
   0  -1  13   -0.40    4.50
   0  -1  13   10.70    5.90
   0  -1  13   -1.00    4.90
   0  -1 -13    7.80    4.90
   0  -1  13    8.10    4.80
   0  -1 -13   11.70    3.90
   0  -1 -13    3.00    3.80
   0  -1 -13    6.80    3.70
   0   1  13    6.50    4.30
   0   1 -13    8.20    4.20
   0   1 -13   15.20    4.40
   0   1  13    7.60    4.70
   0   1 -13    4.30    5.60
   0   1  13   -0.70    5.00
   0   1  13    4.70    3.60
   0   1 -13   15.10    4.60
   1  -1  13   41.90    6.50
  -1  -1 -13   28.30    5.90
   1  -1  13   53.19    8.30
   1  -1  13   54.39   10.20
  -1  -1 -13   47.10    5.60
   1  -1  13   64.89    7.70
   1  -1  13   29.70    6.50
  -1  -1 -13   40.70    6.10
  -1  -1 -13   32.40    6.20
  -1  -1 -13   43.90    5.80
  -1  -1 -13   39.60    6.30
  -1   1 -13   47.00    6.20
   1   1  13   44.10    7.20
  -1   1 -13   49.90    5.20
  -1   1 -13   46.40    7.10
  -1   1 -13   34.70    5.80
   1   1  13   30.00    6.10
   1   1  13   49.40    5.80
  -1   1 -13   42.00    6.70
   1   1  13   34.50    6.20
   1   1  13   32.70    6.50
   2  -1  13    6.50    5.40
  -2  -1 -13    2.60    4.60
   2  -1  13    1.70    5.20
   2  -1  13    4.20    5.30
   2  -1  13   -0.30    4.20
  -2  -1 -13   -4.90    5.00
  -2  -1 -13    0.50    4.50
  -2  -1 -13    6.90    4.10
   2  -1  13   12.20    5.10
  -2  -1 -13    4.90    3.90
  -2  -1 -13    6.20    4.60
  -2  -1 -13    1.80    4.00
   2   1  13    3.80    5.60
   2   1  13    3.50    4.40
  -2   1 -13   -0.10    4.40
  -2   1 -13   -1.50    4.00
   2   1  13   -0.10    5.10
  -2   1 -13    3.40    4.50
  -2   1 -13    2.30    4.60
   2   1  13    7.10    4.10
  -2   1 -13   -1.60    3.10
   2   1  13    5.50    4.80
   3  -1  13   15.70    5.50
   3  -1  13   16.20    6.30
  -3  -1 -13   26.70    5.60
  -3  -1 -13   24.60    5.80
   3  -1  13   11.70    5.90
  -3  -1 -13   23.70    5.30
  -3  -1 -13   27.50    5.10
  -3  -1 -13   16.30    5.10
   3  -1  13   28.10    6.50
   3  -1  13   27.30    7.00
  -3  -1 -13   28.90    5.30
  -3   1 -13   26.90    4.40
   3   1  13   32.90    6.10
   3   1  13   22.20    6.70
  -3   1 -13   22.30    5.90
   3   1  13   26.90    6.40
  -3   1 -13   26.60    6.00
   3   1  13   24.20    5.70
  -3   1 -13   13.20    5.80
  -3   1 -13   16.40    5.60
   3   1  13   22.30    5.40
   4  -1  13   11.80    6.10
  -4  -1 -13    9.50    4.30
   4  -1  13   10.20    5.50
   4  -1  13   17.10    6.60
   4  -1  13    9.60    7.00
  -4  -1 -13    9.00    5.90
  -4  -1 -13   16.50    5.70
   4  -1  13    1.20    6.10
  -4   1 -13    7.70    5.10
  -4   1 -13    4.80    5.60
  -4   1 -13   17.90    6.80
   4   1  13   14.40    4.80
   4   1  13   11.70    5.70
   4   1  13   12.80    6.00
  -4   1 -13    5.20    3.60
   4   1  13   11.90    6.00
  -5  -1 -13    7.50    5.60
  -5  -1 -13    0.50    5.50
   5  -1  13    0.40    5.10
   5  -1  13   17.00    7.00
  -5  -1 -13   -3.20    3.90
   5  -1  13   16.10    6.20
   5  -1  13    5.70    7.80
   5   1  13   16.30    6.00
  -5   1 -13    3.30    6.80
   5   1  13    4.30    7.30
   5   1  13  -10.20    6.00
  -5   1 -13    7.80    5.70
  -5   1 -13    5.50    4.00
  -5   1 -13    6.30    5.80
   5   1  13   -2.40    4.40
   6  -1  13   10.60    5.50
   6  -1  13    0.80    7.20
  -6  -1 -13    6.50    5.80
  -6  -1 -13   10.40    6.20
   6  -1  13   18.30    7.40
   6   1  13   19.30    7.90
  -6   1 -13   14.50    4.60
   6   1  13    7.00    6.30
   6   1  13    7.70    5.50
  -6   1 -13   12.60    7.60
  -7  -1 -13   -0.10    5.90
   7  -1  13    2.50    7.20
  -7  -1 -13   10.40    7.20
   7  -1  13    2.90    5.20
   7  -1  13   -2.80    8.90
  -7   1 -13   15.90    5.60
   7   1  13   -0.20    7.10
  -7   1 -13   16.10    8.00
   7   1  13   11.80    6.60
   7   1  13   -1.60    6.00
   7  -2 -13    0.70    3.20
  -7  -2  13   -9.20    7.80
  -7  -2  13   -4.70    5.60
   7  -2 -13    0.50    5.40
   7  -2 -13    8.80    8.00
   7   2 -13    2.30    7.40
  -7   2  13   -1.10    4.50
   7   2 -13    2.30    3.90
   7   2 -13    0.70    6.40
  -7   2  13   17.60    8.30
  -6  -2  13   42.30    7.60
   6  -2 -13   43.10    5.20
  -6  -2  13   35.20    8.70
  -6  -2  13   39.90    9.80
   6  -2 -13   40.40    6.50
   6  -2 -13   29.20    8.30
   6   2 -13   38.00    8.90
  -6   2  13   44.90    6.30
  -6   2  13   33.90    8.70
   6   2 -13   35.50    5.60
   5  -2 -13   18.90    5.20
  -5  -2  13   29.90    7.90
  -5  -2  13   17.50    7.60
  -5  -2  13   27.70    6.30
   5  -2 -13   15.80    3.90
   5  -2 -13   23.60    7.00
  -5   2  13    8.80    4.90
   5   2 -13   22.60    8.00
   5   2 -13   15.80    4.40
  -5   2  13   16.70    6.90
  -4  -2  13   89.89   10.90
   4  -2 -13   91.09   11.70
   4  -2 -13   97.99    9.60
  -4  -2  13   97.09   11.30
  -4  -2  13  106.49   12.70
   4  -2 -13   73.39    8.40
  -4   2  13   78.09    9.80
   4   2 -13   90.19    9.20
   4   2 -13   93.29   12.60
  -4   2  13   92.89   10.40
  -3  -2  13   30.30    7.10
   3  -2 -13   27.90    5.20
   3  -2 -13   23.90    7.00
  -3  -2  13   22.10    7.40
   3  -2 -13   21.20    4.60
  -3  -2  13   17.00    6.00
   3   2 -13   35.70    5.30
  -3   2  13   26.00    6.10
   3   2 -13   21.70    7.20
  -3   2  13   26.50    5.80
   2  -2 -13   33.50    7.00
  -2  -2  13   11.70    6.60
  -2  -2  13   28.20    6.90
   2  -2 -13   33.20    5.50
  -2  -2  13   23.60    6.60
   2  -2 -13   31.80    5.20
   2   2 -13   24.90    6.70
   2   2 -13   18.50    5.40
  -2   2  13   25.00    5.70
  -2   2  13   36.80    6.70
  -1  -2  13   16.00    6.10
  -1  -2  13    9.70    5.90
   1  -2 -13   12.50    4.80
  -1  -2  13   12.20    5.70
   1  -2 -13   17.90    6.10
   1  -2 -13   20.00    5.00
  -1   2  13   11.40    3.20
  -1   2  13   14.30    4.50
  -1   2  13   15.50    5.60
   1   2 -13   12.50    4.30
   1   2 -13   12.60    6.10
   0  -2  13   25.40    6.60
   0  -2  13   17.30    7.30
   0  -2  13    2.20    6.60
   0  -2 -13   32.10    6.00
   0  -2  13   19.30    6.20
   0  -2 -13   32.50    5.70
   0  -2 -13   25.00    5.70
   0   2 -13   27.70    6.00
   0   2 -13   24.30    5.20
   0   2  13   27.70    5.80
   0   2  13   27.70    8.20
   0   2  13   29.60    4.50
   0   2 -13   30.00    7.40
  -1  -2 -13   21.60    5.30
   1  -2  13   16.00    6.70
  -1  -2 -13   28.20    5.70
  -1  -2 -13   22.40    5.50
   1  -2  13   20.20    6.10
  -1  -2 -13   30.50    6.30
   1  -2  13   17.10    5.70
   1  -2  13   27.90    7.90
  -1   2 -13   26.00    6.20
   1   2  13   22.80    4.70
  -1   2 -13   29.40    7.20
   1   2  13   18.80    5.90
   1   2  13   46.90    8.10
  -1   2 -13   31.20    5.90
   1   2  13   18.90    5.50
  -2  -2 -13  221.98   18.50
  -2  -2 -13  205.28   19.20
  -2  -2 -13  236.88   18.40
   2  -2  13  286.47   19.20
   2  -2  13  260.77   19.80
   2  -2  13  275.27   19.90
   2  -2  13  296.57   21.00
  -2  -2 -13  259.97   18.40
  -2  -2 -13  219.68   20.40
  -2   2 -13  295.37   18.90
  -2   2 -13  270.37   19.50
   2   2  13  219.58   18.80
   2   2  13  243.98   19.50
   2   2  13  243.68   17.40
  -2   2 -13  309.27   21.50
   2   2  13  210.58   18.20
  -3  -2 -13    5.40    5.50
   3  -2  13   -7.30    5.70
   3  -2  13    2.90    5.60
  -3  -2 -13    6.80    4.50
   3  -2  13   -7.70    6.40
   3  -2  13    4.90    5.50
  -3  -2 -13   14.10    5.30
  -3  -2 -13    0.40    4.40
   3   2  13    2.20    5.00
   3   2  13   13.90    6.50
   3   2  13   -4.30    4.40
   3   2  13   -0.90    5.60
  -3   2 -13   -3.30    5.40
  -3   2 -13   25.50    9.00
  -3   2 -13    7.90    5.40
   4  -2  13   52.39    8.80
  -4  -2 -13   48.70    8.20
  -4  -2 -13   58.49    8.00
   4  -2  13   66.09   10.10
  -4  -2 -13   60.99    8.50
   4  -2  13  108.29   12.60
  -4  -2 -13   42.10    7.40
   4  -2  13   44.00   11.70
   4   2  13   59.59    8.30
   4   2  13   69.99   10.20
  -4   2 -13   54.29    9.30
   4   2  13   67.79    8.60
  -4   2 -13   63.59    8.70
  -4   2 -13   79.19    7.90
   5  -2  13   -4.50    7.30
   5  -2  13    2.20   12.50
  -5  -2 -13   -4.10    5.80
  -5  -2 -13    4.10    5.60
  -5   2 -13    3.70    4.20
  -5   2 -13   10.00    8.50
   5   2  13   -1.80    5.50
  -5   2 -13    7.80    6.00
   5   2  13   -2.30    5.30
  -6  -2 -13   13.60    6.90
   6  -2  13   19.90    8.10
  -6  -2 -13   12.70    8.20
   6  -2  13   17.90    8.90
  -6   2 -13   25.10    7.60
   6   2  13   12.50    6.80
   6   2  13   20.80    7.50
  -6   2 -13   20.60    5.10
   6   2  13   31.30    6.90
   6  -3 -13   47.20    8.40
  -6  -3  13   51.09    9.60
   6  -3 -13   63.59    7.10
  -6  -3  13   69.69   10.70
   6   3 -13   52.59    9.50
  -6   3  13   56.99    8.30
  -6   3  13   95.89   10.60
  -6   3  13   54.09   12.70
   6   3 -13   65.69   12.10
   6   3 -13   79.29    9.30
  -5  -3  13   17.00    6.50
  -5  -3  13    2.10    8.60
   5  -3 -13   -2.10    3.90
   5  -3 -13    4.40    5.40
  -5   3  13    4.70    7.30
   5   3 -13    8.90    6.00
  -5   3  13    2.70    4.90
   5   3 -13    2.00    7.40
  -5   3  13    3.30    7.70
   5   3 -13    8.00    4.60
  -4  -3  13    2.60    7.20
   4  -3 -13    8.70    4.10
  -4  -3  13    8.30    9.10
  -4  -3  13    7.80    7.50
   4  -3 -13   10.30    4.90
  -4   3  13   16.60    8.70
  -4   3  13    8.40    6.10
   4   3 -13    5.80    7.50
   4   3 -13    0.40    6.00
   4   3 -13   -1.60    4.90
  -4   3  13    4.60    5.60
   3  -3 -13    7.90    4.60
  -3  -3  13   14.10    7.40
  -3  -3  13   10.50    8.30
  -3  -3  13    6.70    7.60
   3  -3 -13   21.20    5.60
  -3   3  13   13.00    6.40
  -3   3  13   14.50    8.10
  -3   3  13   17.70    6.70
   3   3 -13   18.00    5.70
   3   3 -13   12.80    7.80
  -2  -3  13   77.29   10.40
   2  -3 -13   64.89    8.10
   2  -3 -13   56.49    7.50
  -2  -3  13   55.49   10.20
  -2  -3  13   66.79   10.70
  -2   3  13   71.49    9.00
   2   3 -13   47.40    7.40
  -2   3  13   61.89   11.30
   2   3 -13   62.69   10.60
  -2   3  13   79.19    9.10
   1  -3 -13   10.40    4.80
   1  -3 -13   22.50    5.70
  -1  -3  13   19.20    8.70
  -1  -3  13   15.50    7.20
  -1  -3  13   15.00    7.30
   1   3 -13   15.70    8.30
  -1   3  13   27.30    6.10
  -1   3  13   19.80    6.40
   1   3 -13   13.20    5.30
  -1   3  13   11.40    7.20
   0  -3 -13   49.50    7.30
   0  -3  13   35.80    7.70
   0  -3  13   44.70   10.20
   0  -3 -13   33.50    6.40
   0  -3  13   41.80    8.70
   0   3  13   55.89    9.00
   0   3  13   30.50    8.60
   0   3  13   40.10    6.90
   0   3 -13   44.80    9.50
   0   3 -13   38.10    7.20
  -1  -3 -13  113.29   12.80
  -1  -3 -13  126.79   12.50
  -1  -3 -13  137.59   13.30
   1  -3  13  122.39   14.30
   1  -3  13  127.19   13.80
   1  -3  13  114.19   14.30
   1   3  13  121.29   14.60
  -1   3 -13  133.99   13.30
   1   3  13  123.69   12.50
   2  -3  13    1.30    6.60
  -2  -3 -13    6.80    7.00
   2  -3  13    6.10    8.60
  -2  -3 -13    8.70    5.60
  -2  -3 -13    8.20    6.10
   2  -3  13   16.40    6.70
  -2   3 -13    2.10    8.50
   2   3  13   14.20    5.80
   2   3  13   19.20    7.60
  -3  -3 -13   28.60    7.50
   3  -3  13   49.10    9.20
  -3  -3 -13   64.59    9.20
   3  -3  13   57.69   14.00
   3  -3  13   32.60    9.90
  -3  -3 -13   47.10    7.90
   3  -3  13   47.20    8.40
  -3  -3 -13   41.40    7.90
   3   3  13   56.99    8.30
  -3   3 -13   49.00    9.40
   3   3  13   29.30    6.10
  -3   3 -13   20.00   10.00
   3   3  13   32.20    8.60
   3   3  13   37.80    8.20
   4  -3  13   17.70    8.30
   4  -3  13   -2.60    7.40
   4  -3  13   -4.30    6.20
  -4  -3 -13    2.30    6.50
   4   3  13    7.30    5.90
   4   3  13    2.00    6.00
   4   3  13   -4.50    6.90
  -4   3 -13   12.50    7.50
  -5  -3 -13  178.78   17.10
  -5  -3 -13  147.09   21.00
   5  -3  13  132.19   17.70
   5  -3  13  180.48   19.70
   5   3  13  184.68   15.90
  -5   3 -13  220.28   18.60
   5   3  13  153.98   15.70
  -5   3 -13  115.19   19.10
  -5   3 -13  186.98   13.80
   5   3  13  175.68   17.80
  -4  -4  13  100.69   14.00
   4  -4 -13  144.49   12.70
  -4  -4  13  115.89   14.60
   4   4 -13  102.59   13.20
   4   4 -13  124.79   23.90
  -4   4  13  169.38   19.30
   4   4 -13  117.79   14.30
  -4   4  13  152.18   14.50
   3  -4 -13   87.99   11.10
  -3  -4  13   83.89   12.00
   3  -4 -13   86.69    9.90
  -3  -4  13   72.29   12.60
   3   4 -13   44.70   12.00
  -3   4  13  109.49   12.90
   3   4 -13   91.89   10.60
   3   4 -13   71.59   10.00
  -3   4  13   73.49    9.80
  -3   4  13   92.89   14.00
  -2  -4  13   -9.70    8.80
   2  -4 -13   -2.20    5.80
  -2  -4  13   24.60    9.50
   2  -4 -13    0.30    7.20
  -2   4  13   16.60    7.30
  -2   4  13  -12.90    8.90
  -2   4  13    5.20    6.50
   2   4 -13    3.30    5.80
   2   4 -13    6.30    6.70
  -1  -4  13   13.40   10.30
  -1  -4  13   41.60    9.00
   1  -4 -13   20.20    6.40
   1   4 -13   17.50    6.90
  -1   4  13   26.10    9.10
   1   4 -13   -3.50    8.90
  -1   4  13   16.00    7.30
  -1   4  13   26.40    9.40
   1   4 -13   24.20    6.70
   0  -4  13   -1.60    7.70
   0  -4 -13   -3.90    5.50
   0  -4 -13   -5.90    7.10
   0  -4  13    2.90    9.90
   0   4 -13   -3.80    6.30
   0   4  13    4.50    7.50
   0   4  13   -4.30    6.00
   0   4 -13   12.10    5.90
   0   4  13   -4.10    8.00
   0   4 -13   18.90   10.70
   1  -4  13   20.00   11.40
  -1  -4 -13    9.70    7.30
  -1  -4 -13   15.80    6.80
   1  -4  13   16.90    7.90
  -1   4 -13    9.40   10.90
   1   4  13    5.50    8.00
   1   4  13   18.70    8.60
  -1   4 -13   19.20    8.30
  -1   4 -13   17.70    6.00
   1   4  13   22.70    6.40
  -2  -4 -13  124.99   16.10
   2  -4  13  100.79   13.30
   2  -4  13  124.49   13.40
   2  -4  13   99.29   15.30
  -2  -4 -13   86.09   12.00
   2   4  13  125.89   16.10
   2   4  13  127.29   12.10
  -2   4 -13  180.58   23.40
  -2   4 -13  137.49   16.50
  -2   4 -13  155.78   12.80
   2   4  13  105.29   14.80
   3  -4  13   16.30    9.00
  -3  -4 -13   25.40    9.40
  -3   4 -13   37.30   12.30
   3   4  13   23.90    7.90
  -7   0  14   40.00    9.00
   7   0 -14   39.60    4.90
  -7   0  14   38.70    6.30
   7   0 -14   35.90    9.40
  -6   0  14  271.67   21.40
  -6   0  14  232.18   18.10
   6   0 -14  244.98   21.40
   6   0 -14  247.48   16.90
   5   0 -14  530.55   35.30
  -5   0  14  504.95   34.20
  -5   0  14  502.55   32.50
   5   0 -14  493.45   31.50
  -5   0  14  483.45   32.70
  -4   0  14  424.86   27.10
  -4   0  14  391.06   27.40
   4   0 -14  393.06   26.10
   4   0 -14  431.76   29.40
  -4   0  14  396.96   28.60
   3   0 -14   51.69    6.40
   3   0 -14   47.60    8.40
  -3   0  14   50.99    7.80
  -3   0  14   63.19    7.70
  -3   0  14   49.50    8.10
   2   0 -14  373.56   24.40
  -2   0  14  388.16   24.90
   2   0 -14  387.76   26.60
   2   0 -14  376.36   24.10
  -2   0  14  331.27   25.50
  -2   0  14  353.06   25.80
   1   0 -14  183.28   14.80
  -1   0  14  204.18   15.80
  -1   0  14  222.68   15.60
   1   0 -14  179.68   16.60
   1   0 -14  213.68   14.10
  -1   0  14  193.18   16.90
   1   0 -14  201.48   15.20
   0   0 -14  261.07   18.40
   0   0 -14  264.77   19.70
   0   0  14  252.77   20.30
   0   0  14  246.88   18.30
   0   0  14  231.58   18.90
   0   0 -14  274.77   17.50
   0   0 -14  253.67   18.40
  -1   0 -14  106.29   14.00
   1   0  14  104.29   11.50
  -1   0 -14  130.09   13.70
   1   0  14  128.79   14.40
   1   0  14  114.39   12.70
   1   0  14   99.19   11.50
  -1   0 -14  118.99   10.10
  -1   0 -14  121.29   12.40
  -2   0 -14  982.60   60.99
   2   0  14 1076.99   62.49
   2   0  14  910.71   61.09
   2   0  14  848.52   62.39
  -2   0 -14 1023.50   61.19
   2   0  14  977.50   60.89
  -2   0 -14 1034.00   60.89
  -2   0 -14 1051.99   59.99
   3   0  14    6.50    7.20
   3   0  14   10.10    5.70
  -3   0 -14    3.50    4.40
   3   0  14    5.00    6.90
  -3   0 -14   12.90    5.40
   3   0  14    3.40    5.10
  -3   0 -14   13.70    5.50
  -3   0 -14    3.10    5.20
  -4   0 -14    9.90    5.20
   4   0  14    7.70    6.50
   4   0  14   -4.40    7.10
  -4   0 -14    3.50    4.50
  -4   0 -14   12.00    6.10
  -4   0 -14    6.40    5.40
   4   0  14    2.50    5.80
   4   0  14   24.40    5.80
  -5   0 -14  144.29   12.40
  -5   0 -14  144.89   14.60
   5   0  14  133.09   13.70
   5   0  14  165.18   16.50
   5   0  14  131.29   14.90
  -6   0 -14   -4.50    4.20
   6   0  14   -6.60    5.90
  -6   0 -14   13.40    7.00
   6   0  14   11.80    7.30
   6   0  14    3.90    8.00
  -7  -1  14  322.87   24.10
   7  -1 -14  309.37   20.00
  -7  -1  14  305.67   25.30
   7  -1 -14  324.47   21.40
   7  -1 -14  300.47   25.90
  -7  -1  14  295.97   21.90
  -7   1  14  278.67   21.30
   7   1 -14  300.17   25.60
   7   1 -14  287.97   20.20
  -7   1  14  346.07   25.00
  -6  -1  14   67.49    9.80
   6  -1 -14   65.19    7.60
   6  -1 -14   60.59    9.90
  -6  -1  14   62.89   11.10
   6  -1 -14   56.49    7.10
  -6  -1  14   56.89    7.60
  -6   1  14   59.99    7.40
   6   1 -14   64.89    7.70
  -6   1  14   63.09   10.70
   6   1 -14   85.79   11.70
   5  -1 -14  540.25   36.30
  -5  -1  14  571.54   35.10
  -5  -1  14  498.75   35.90
   5  -1 -14  515.15   32.80
  -5  -1  14  525.65   34.40
   5  -1 -14  546.05   33.30
  -5   1  14  503.65   33.80
   5   1 -14  535.35   36.70
   5   1 -14  503.75   33.00
  -5   1  14  496.95   35.20
  -4  -1  14   97.49   14.10
   4  -1 -14  108.39    9.60
   4  -1 -14   99.79   13.30
  -4  -1  14  112.19   12.80
  -4  -1  14  105.09   12.00
   4  -1 -14  113.99   10.50
   4   1 -14  121.39   13.80
  -4   1  14  108.89   12.90
  -4   1  14   96.09   11.30
   4   1 -14  109.59    9.90
  -3  -1  14   45.90    8.90
  -3  -1  14   57.79    8.60
   3  -1 -14   66.19    7.40
   3  -1 -14   79.19    8.50
   3  -1 -14   53.59    9.40
  -3  -1  14   32.00   10.20
  -3   1  14   49.10    6.10
  -3   1  14   64.89    8.80
   3   1 -14   56.09    7.00
  -3   1  14   53.59    7.60
   3   1 -14   50.59    8.90
   2  -1 -14  286.97   19.70
  -2  -1  14  296.77   21.70
  -2  -1  14  272.57   21.30
   2  -1 -14  312.47   20.00
  -2  -1  14  291.07   22.30
   2  -1 -14  288.87   21.70
   2   1 -14  278.57   22.10
  -2   1  14  277.77   21.00
   2   1 -14  291.27   20.10
  -2   1  14  282.87   19.50
  -2   1  14  274.17   21.00
  -1  -1  14  688.23   45.00
  -1  -1  14  739.13   45.90
   1  -1 -14  693.53   44.00
   1  -1 -14  748.13   45.80
   1  -1 -14  729.83   44.00
  -1   1  14  655.93   44.60
   1   1 -14  734.03   44.30
  -1   1  14  692.23   43.50
   1   1 -14  727.93   46.00
  -1   1  14  677.13   45.20
   0  -1  14   36.40    6.50
   0  -1 -14   28.70    5.50
   0  -1  14   30.10    7.70
   0  -1 -14   34.50    7.20
   0  -1 -14   41.20    6.50
   0  -1  14   32.40    6.80
   0  -1 -14   51.89    7.10
   0   1  14   31.80    6.40
   0   1  14   42.90    5.90
   0   1 -14   34.60    6.00
   0   1 -14   34.50    7.50
   0   1  14   45.00    7.40
   1  -1  14   80.49   10.30
   1  -1  14   93.79   12.00
  -1  -1 -14  138.59   10.40
  -1  -1 -14  104.69   11.90
   1  -1  14   95.49   11.10
  -1   1 -14  106.39   12.00
   1   1  14  108.79   11.50
   1   1  14  125.29   18.70
  -1   1 -14  107.59   11.30
   1   1  14  120.09   10.80
  -1   1 -14   88.89   11.90
  -2  -1 -14  153.48   12.30
  -2  -1 -14  152.98   12.90
   2  -1  14  147.79   14.30
  -2  -1 -14  138.39   13.20
   2  -1  14  130.49   13.00
  -2  -1 -14  139.89   13.00
   2  -1  14  142.29   15.40
   2  -1  14  133.79   14.20
   2   1  14  145.59   14.70
  -2   1 -14  160.88   13.60
   2   1  14  129.89   13.90
  -2   1 -14  135.89   16.10
   2   1  14  139.89   13.00
  -2   1 -14  140.59   13.20
   2   1  14  141.89   12.90
   3  -1  14    5.00    6.80
   3  -1  14    2.50    6.30
   3  -1  14   -1.80    6.80
  -3  -1 -14    1.00    5.60
   3  -1  14    3.90    5.40
  -3  -1 -14    4.70    4.20
  -3  -1 -14   -1.60    4.60
  -3  -1 -14   -6.80    4.30
  -3   1 -14    4.60    5.50
   3   1  14    4.20    4.90
  -3   1 -14   -2.30    5.20
   3   1  14    3.50    6.10
  -3   1 -14    2.30    6.00
  -3   1 -14    3.50    3.70
   3   1  14   11.40    6.40
   4  -1  14   58.59   10.00
   4  -1  14   54.29    8.30
   4  -1  14   47.40    9.10
  -4  -1 -14   65.19    7.90
  -4  -1 -14   40.50    7.70
  -4  -1 -14   63.59    8.40
   4  -1  14   67.49   11.20
  -4  -1 -14   54.39    8.70
  -4   1 -14   56.79    8.80
  -4   1 -14   60.79    9.10
   4   1  14   71.69   10.10
   4   1  14   55.49    8.80
   4   1  14   59.79    8.50
   4   1  14   56.69    8.20
  -4   1 -14   53.49    6.60
  -5  -1 -14  190.98   16.00
  -5  -1 -14  203.38   17.90
   5  -1  14  201.98   17.90
   5  -1  14  154.98   24.60
   5  -1  14  213.68   16.60
   5   1  14  200.08   16.30
  -5   1 -14  174.58   16.20
   5   1  14  194.98   16.80
  -5   1 -14  211.58   18.50
   6  -1  14   41.10    7.70
  -6  -1 -14   35.60    8.00
  -6  -1 -14   26.50    7.90
   6  -1  14   27.90    8.20
   6  -1  14   35.80    9.80
  -6   1 -14   41.20    6.90
   6   1  14   49.80    9.70
   6   1  14   47.40    8.00
   6   1  14   28.20    7.90
  -6   1 -14   43.10    9.10
  -6  -2  14  191.78   17.60
   6  -2 -14  177.28   18.70
  -6  -2  14  215.08   19.80
   6  -2 -14  218.78   16.50
  -6  -2  14  216.58   21.30
   6  -2 -14  210.18   15.10
   6   2 -14  213.78   20.10
  -6   2  14  195.58   16.60
   6   2 -14  219.88   15.70
  -6   2  14  201.18   19.40
  -5  -2  14  163.48   17.20
   5  -2 -14  153.08   13.70
   5  -2 -14  145.79   16.00
  -5  -2  14  163.08   15.40
   5  -2 -14  175.88   13.00
  -5  -2  14  176.38   17.30
   5   2 -14  177.98   17.20
   5   2 -14  155.78   13.30
  -5   2  14  157.18   14.40
  -5   2  14  205.38   16.80
   4  -2 -14  689.43   43.30
  -4  -2  14  605.94   43.30
   4  -2 -14  690.53   40.50
  -4  -2  14  684.43   42.60
   4  -2 -14  644.14   40.90
  -4  -2  14  560.84   42.20
  -4   2  14  637.94   41.90
   4   2 -14  646.44   43.80
   4   2 -14  629.64   40.80
  -4   2  14  679.53   41.80
   3  -2 -14   59.29    6.90
   3  -2 -14   52.69    7.40
  -3  -2  14   50.29    8.40
  -3  -2  14   46.80    9.50
   3  -2 -14   51.09    8.80
  -3  -2  14   52.79    9.70
   3   2 -14   54.79    7.50
  -3   2  14   44.60    8.40
   3   2 -14   57.39    9.90
  -3   2  14   49.30    7.80
  -2  -2  14  101.59   13.70
  -2  -2  14  112.29   13.10
  -2  -2  14  106.39   12.60
   2  -2 -14  134.09   11.60
   2  -2 -14  129.99   13.60
   2  -2 -14  129.29   11.50
   2   2 -14  104.69   11.30
   2   2 -14  125.29   14.20
  -2   2  14  113.19   12.90
  -2   2  14  125.39   12.30
   1  -2 -14  111.09   10.30
   1  -2 -14   94.09   11.70
  -1  -2  14   67.09   10.30
  -1  -2  14   80.49   10.70
   1  -2 -14  101.49   10.80
  -1  -2  14  109.79   13.00
   1   2 -14   84.59   10.30
  -1   2  14  113.39   12.80
  -1   2  14  100.69   11.30
   1   2 -14  114.89   13.10
   0  -2  14  111.49   13.30
   0  -2 -14  158.98   13.10
   0  -2 -14  145.79   13.70
   0  -2  14  134.09   14.30
   0  -2 -14  145.79   12.60
   0   2  14  138.39   13.40
   0   2 -14  142.49   13.10
   0   2  14  138.89   14.50
   0   2 -14  154.98   15.00
  -1  -2 -14  126.09   12.80
  -1  -2 -14  153.68   14.20
   1  -2  14  148.69   14.00
  -1  -2 -14  147.59   14.20
   1  -2  14  133.49   14.40
   1  -2  14  136.29   15.70
   1   2  14  134.09   13.20
  -1   2 -14  151.58   14.80
   1   2  14  116.99   14.60
   1   2  14  127.59   11.70
  -1   2 -14  136.59   13.30
   2  -2  14  714.23   49.99
  -2  -2 -14  666.43   42.90
   2  -2  14  754.72   44.30
  -2  -2 -14  643.04   42.70
   2  -2  14  745.33   43.40
  -2   2 -14  685.53   43.70
   2   2  14  603.44   41.70
   2   2  14  613.34   44.30
  -2   2 -14  790.22   45.30
   2   2  14  562.64   42.50
  -3  -2 -14   10.90    6.20
  -3  -2 -14   -0.10    9.80
  -3  -2 -14  -10.20    4.50
  -3  -2 -14   -3.60    4.80
   3  -2  14   -3.10    6.80
   3  -2  14    2.20    6.60
   3  -2  14   -5.50    7.70
  -3   2 -14    7.30    7.80
   3   2  14   -0.70    7.00
  -3   2 -14   10.30    6.50
   3   2  14   -1.10    7.40
   3   2  14   -0.40    5.70
   3   2  14   -1.50    5.60
  -4  -2 -14  147.09   15.80
   4  -2  14  202.78   15.60
   4  -2  14  153.78   16.90
   4  -2  14  203.38   18.20
  -4  -2 -14  146.79   16.40
  -4  -2 -14  161.08   14.60
  -4   2 -14  197.98   13.20
   4   2  14  119.89   14.50
   4   2  14  168.88   16.50
   4   2  14  172.38   21.50
  -4   2 -14  191.58   20.60
  -4   2 -14  168.68   16.30
   4   2  14  150.28   15.20
   5  -2  14  163.28   18.50
  -5  -2 -14  185.38   17.20
   5  -2  14  152.88   17.50
   5  -2  14  174.88   15.40
  -5   2 -14  166.98   13.70
   5   2  14  177.78   15.90
   5   2  14  168.88   15.80
  -5   2 -14  187.88   24.30
   5   2  14  172.48   17.30
  -5  -3  14  299.97   24.80
   5  -3 -14  295.97   24.80
   5  -3 -14  273.97   20.60
  -5  -3  14  289.77   24.50
   5   3 -14  331.37   34.60
  -5   3  14  285.87   26.80
   5   3 -14  272.17   22.70
  -5   3  14  297.47   21.80
  -5   3  14  321.57   22.90
   5   3 -14  276.87   22.00
  -4  -3  14  197.58   18.80
   4  -3 -14  176.68   14.00
   4  -3 -14  196.38   18.00
   4  -3 -14  167.68   15.50
  -4  -3  14  176.48   17.70
  -4  -3  14  186.18   18.80
   4   3 -14  184.38   15.20
   4   3 -14  165.48   18.30
  -4   3  14  168.78   19.70
  -4   3  14  145.49   16.90
  -4   3  14  173.38   15.70
  -3  -3  14   95.49   13.40
  -3  -3  14   95.29   13.40
   3  -3 -14  111.89   11.10
   3  -3 -14  115.09   12.40
   3  -3 -14  109.09   14.30
  -3  -3  14  104.59   13.10
  -3   3  14  100.89   13.10
   3   3 -14   97.09   11.70
  -3   3  14  124.99   13.30
  -3   3  14  117.49   16.90
   3   3 -14   85.19   12.90
   2  -3 -14   45.00    7.10
   2  -3 -14   48.00    9.20
  -2  -3  14   55.19   10.60
  -2  -3  14   47.60   10.00
  -2  -3  14   44.90   10.40
   2  -3 -14   48.90    8.10
  -2   3  14   48.20    8.50
  -2   3  14   54.19    8.80
   2   3 -14   55.39   10.50
   2   3 -14   48.00    7.70
  -2   3  14   49.90   10.20
   1  -3 -14  389.76   24.50
  -1  -3  14  273.27   26.00
   1  -3 -14  405.56   26.50
   1  -3 -14  396.96   25.10
  -1  -3  14  313.27   26.50
  -1  -3  14  312.37   27.60
   1   3 -14  287.07   24.50
   1   3 -14  315.17   27.30
  -1   3  14  389.26   25.30
  -1   3  14  387.06   26.10
   0  -3  14   -5.90    7.70
   0  -3  14    2.60    6.90
   0  -3 -14   11.50    5.50
   0  -3  14    9.60    8.10
   0  -3 -14   -6.00    4.90
   0  -3 -14   15.00    6.50
   0   3  14   -6.10    7.00
   0   3  14   15.10    6.40
   0   3 -14   -4.70    6.20
   0   3 -14   -0.30    8.10
   1  -3  14  315.87   23.80
  -1  -3 -14  299.27   23.40
   1  -3  14  309.37   24.60
  -1  -3 -14  290.67   22.30
   1  -3  14  322.57   26.70
  -1  -3 -14  311.87   23.50
   1   3  14  327.17   22.50
   1   3  14  284.27   25.10
  -1   3 -14  327.47   23.40
  -2  -3 -14  183.98   17.60
  -2  -3 -14  215.98   17.90
   2  -3  14  215.08   21.90
   2  -3  14  173.18   18.20
  -2  -3 -14  225.98   17.90
   2  -3  14  193.08   19.00
  -2   3 -14  201.08   18.30
   2   3  14  214.48   19.70
   2   3  14  205.18   16.90
  -3  -3 -14  196.18   18.90
   3  -3  14  226.98   23.60
   3  -3  14  224.48   18.80
   3  -3  14  228.98   19.70
  -3   3 -14  260.17   20.10
   3   3  14  178.38   17.20
   3   3  14  175.28   28.60
   4  -3  14   13.10    9.00
  -4  -3 -14   12.80   11.00
   4  -3  14   11.60    7.30
   4   3  14   22.80    8.00
  -4   3 -14   42.10   12.70
  -1  -4  14  171.08   20.10
   1  -4 -14  188.58   16.80
  -1  -4  14  192.08   23.50
  -1   4  14  208.28   21.30
  -1   4  14  170.08   17.10
  -1   4  14  183.28   19.60
   1   4 -14  193.88   18.00
   1   4 -14  200.08   17.40
   0  -4  14  289.77   25.70
   0  -4  14  300.07   30.20
   0  -4 -14  329.97   24.10
   0   4 -14  311.27   25.10
   0   4  14  317.77   23.90
   0   4 -14  356.76   23.70
   0   4  14  341.97   26.70
   0   4  14  318.07   27.30
   6   0 -15   -6.40    3.70
  -6   0  15   -3.60    7.50
   6   0 -15   -4.80    8.10
  -6   0  15   -1.20    5.50
   5   0 -15    5.60    7.00
  -5   0  15    1.80    5.10
  -5   0  15   -1.20    7.70
   5   0 -15   -5.30    3.40
  -4   0  15   -8.20    6.90
  -4   0  15    7.10    5.90
   4   0 -15    2.70    6.70
   4   0 -15    4.20    4.00
  -4   0  15    8.50    6.00
   3   0 -15   -9.40    6.00
  -3   0  15    3.50    5.70
  -3   0  15   -3.50    5.80
   3   0 -15   -2.30    4.00
  -3   0  15   -1.20    7.20
   2   0 -15   -4.60    4.10
  -2   0  15    3.60    5.70
  -2   0  15    7.20    6.00
  -2   0  15   -0.50    5.70
   2   0 -15   -5.00    6.20
   1   0 -15    6.20    4.60
   1   0 -15  -12.30    5.60
  -1   0  15   -7.50    6.20
  -1   0  15    5.90    6.90
  -1   0  15   -3.70    5.40
   0   0  15    3.30    5.70
   0   0 -15    0.40    5.80
   0   0 -15   -0.70    4.60
   0   0 -15   -1.60    4.50
   0   0  15   -1.50    6.80
   0   0  15    3.90    5.50
  -1   0 -15    2.70    4.60
  -1   0 -15    1.20    5.20
  -1   0 -15    0.30    5.40
   1   0  15   -5.50    6.70
   1   0  15   -0.50    6.20
   1   0  15    4.90    5.80
  -2   0 -15   -7.80    5.00
  -2   0 -15    0.00    4.80
   2   0  15    0.70    6.10
   2   0  15   -4.60    7.60
   2   0  15   -7.10    5.60
  -2   0 -15    2.40    6.10
   3   0  15    8.80    6.20
  -3   0 -15   11.70    7.20
   3   0  15  -14.30    5.90
  -3   0 -15   12.90    6.00
  -3   0 -15   -2.20    4.50
   3   0  15    5.60    7.70
  -4   0 -15    0.50    5.10
   4   0  15   -1.90    8.30
   4   0  15   -2.50    6.90
  -4   0 -15   -2.70    6.20
   4   0  15   -0.90    6.00
   5   0  15    6.60    6.60
   5   0  15   -9.60    6.80
  -5   0 -15    4.30    5.30
  -6  -1  15  -13.10   11.10
  -6  -1  15   36.50    8.90
   6  -1 -15   29.70    6.70
   6  -1 -15   16.50    9.30
  -6   1  15   29.40   10.10
   6   1 -15   34.60   12.20
   6   1 -15   28.90    8.20
  -6   1  15   20.10    8.60
  -5  -1  15   11.10    8.10
  -5  -1  15    2.30    7.80
   5  -1 -15   15.30    7.50
  -5  -1  15   21.00    5.90
   5  -1 -15   11.40    4.20
   5   1 -15   17.00    7.50
   5   1 -15   10.80    4.40
  -5   1  15    7.10    5.10
  -5   1  15   -1.40    7.20
  -4  -1  15   -2.90    7.00
   4  -1 -15   11.00    5.00
   4  -1 -15    2.90    6.60
   4  -1 -15    8.20    4.30
  -4  -1  15    9.90    8.70
  -4  -1  15    2.30    6.30
   4   1 -15   10.40    4.20
  -4   1  15    7.10    5.50
  -4   1  15   20.00    7.00
   4   1 -15    1.70    6.60
  -3  -1  15   -4.30    6.00
  -3  -1  15   -0.60    6.90
   3  -1 -15    0.60    4.40
   3  -1 -15   11.00    5.30
   3  -1 -15    5.50    6.80
  -3  -1  15   -1.30    7.00
  -3   1  15    3.80    5.20
   3   1 -15   -4.50    6.70
   3   1 -15    2.50    4.10
  -3   1  15    3.40    6.20
   2  -1 -15    2.00    6.10
  -2  -1  15    3.30    6.90
   2  -1 -15   -2.30    4.20
   2  -1 -15   -8.10    4.80
  -2  -1  15   -3.40    6.30
  -2  -1  15   -1.80    6.20
  -2   1  15    7.70    6.20
  -2   1  15    5.70    5.70
   2   1 -15   -4.10    6.40
   2   1 -15   -0.70    4.40
  -1  -1  15   14.20    7.10
   1  -1 -15   25.30    5.30
  -1  -1  15   29.90    6.90
   1  -1 -15   38.00    6.10
   1  -1 -15   27.40    7.60
  -1  -1  15   16.10    7.60
   1   1 -15   16.60    6.80
   1   1 -15   25.00    6.10
  -1   1  15   24.90    5.90
  -1   1  15   24.50    6.70
  -1   1  15   27.30    7.40
   0  -1  15   15.30    7.60
   0  -1  15   -0.90    5.90
   0  -1  15    5.10    6.50
   0  -1 -15    6.10    6.20
   0  -1 -15   11.10    4.80
   0  -1 -15   -2.30    4.70
   0   1  15    9.20    6.50
   0   1  15   14.00    5.30
   0   1  15   10.50    6.50
   0   1 -15    2.50    6.30
   0   1 -15   11.00    5.10
   1  -1  15   20.50    6.60
  -1  -1 -15   -0.10    4.40
  -1  -1 -15    6.10    5.90
   1  -1  15   17.90    6.40
  -1  -1 -15    6.00    5.20
   1  -1  15    4.20    7.10
   1   1  15    0.50    6.90
  -1   1 -15    1.70    6.10
  -1   1 -15   14.50    5.60
   1   1  15    6.30    5.70
   1   1  15   15.30    6.00
  -2  -1 -15    2.90    5.00
  -2  -1 -15    8.80    5.70
   2  -1  15   11.40    6.50
   2  -1  15    7.30    6.80
   2  -1  15   14.40    9.40
   2   1  15   17.20    7.60
   2   1  15   -7.00    5.90
  -2   1 -15    8.90    6.40
  -2   1 -15    3.50    6.10
   2   1  15    7.70    5.60
   3  -1  15    8.80    6.20
  -3  -1 -15   -4.20    5.30
   3  -1  15   -9.60    7.30
   3  -1  15  -12.00    7.70
  -3  -1 -15   -0.80    5.00
   3   1  15   16.50    6.40
   3   1  15   -4.10    8.50
   3   1  15    1.30    6.30
  -3   1 -15   -0.50    4.10
  -3   1 -15   -4.50    7.80
  -3   1 -15    1.80    7.10
   4  -1  15    5.40    6.60
  -4  -1 -15   10.00    5.20
   4  -1  15    4.00    7.50
  -4  -1 -15    8.40   10.90
   4   1  15   -9.40    6.00
   4   1  15   -1.50    6.70
  -4   1 -15    3.90    4.80
  -4   1 -15   -0.20    7.70
  -5  -1 -15   89.09   10.30
   5  -1  15   82.19   11.50
   5  -1  15   75.09   10.90
  -5   1 -15   96.59   10.20
   5   1  15   71.49    9.70
   5   1  15  126.89   14.40
  -5  -2  15   50.29   10.10
   5  -2 -15   32.30    9.50
   5  -2 -15   34.20    6.10
  -5  -2  15   42.80    8.80
  -5  -2  15   56.99   12.90
   5  -2 -15   40.80    7.10
   5   2 -15   31.60    6.20
  -5   2  15   60.79    9.80
   5   2 -15   40.10   10.60
  -5   2  15   48.40    7.80
   4  -2 -15  185.18   12.90
   4  -2 -15  169.08   16.60
   4  -2 -15  199.98   14.40
  -4  -2  15  109.29   14.70
  -4  -2  15  144.19   16.70
   4   2 -15  102.19   16.10
  -4   2  15  154.68   14.60
  -4   2  15  191.48   16.00
   4   2 -15  122.79   13.20
   3  -2 -15  184.98   17.80
   3  -2 -15  158.98   16.30
   3  -2 -15  184.38   14.40
  -3  -2  15  163.58   17.80
  -3  -2  15  182.38   18.50
  -3  -2  15  163.88   18.00
   3   2 -15  171.78   14.90
  -3   2  15  198.68   16.60
  -3   2  15  172.68   16.30
   3   2 -15  183.28   18.00
  -2  -2  15   30.60    8.80
  -2  -2  15   48.30   10.20
   2  -2 -15   52.19    8.80
  -2  -2  15   48.80    9.60
   2  -2 -15   59.39    7.70
   2  -2 -15   55.09   10.90
   2   2 -15   43.10    9.50
   2   2 -15   36.80    6.90
  -2   2  15   64.89    9.60
  -2   2  15   66.49    8.90
   1  -2 -15    2.40    6.40
  -1  -2  15    1.80    7.00
   1  -2 -15    4.80    5.10
  -1  -2  15   -0.50    7.10
  -1  -2  15  -10.50    7.10
   1  -2 -15    8.40    5.40
   1   2 -15   -0.80    7.20
  -1   2  15    2.50    6.60
  -1   2  15    7.30    5.90
   1   2 -15    4.10    5.20
   0  -2  15   16.90    8.10
   0  -2  15   13.00    7.70
   0  -2 -15   12.10    7.00
   0  -2 -15   12.30    5.40
   0  -2 -15   25.40    6.50
   0  -2  15    2.10    7.10
   0   2 -15   20.30    8.10
   0   2  15    2.30    6.80
   0   2 -15    9.10    5.60
   0   2  15   18.70    7.00
   1  -2  15   25.10    9.10
   1  -2  15   15.90    7.70
  -1  -2 -15   35.20    7.00
  -1  -2 -15   22.10    7.10
  -1  -2 -15   26.30    6.20
   1  -2  15   14.20    7.70
   1   2  15   21.20    7.00
  -1   2 -15   16.80    7.80
  -1   2 -15   15.80    6.20
   1   2  15   25.30    8.70
   2  -2  15  239.88   17.90
   2  -2  15  195.68   20.20
  -2  -2 -15  188.08   17.50
  -2  -2 -15  161.18   16.50
   2  -2  15  220.88   19.20
  -2  -2 -15  194.78   16.30
  -2   2 -15  238.58   20.90
   2   2  15  165.08   16.30
  -2   2 -15  218.48   18.10
   2   2  15  162.38   19.50
   3  -2  15    6.00    8.30
   3  -2  15   15.70   10.10
   3  -2  15   12.10    7.60
  -3  -2 -15    9.50    5.80
  -3  -2 -15   15.30    7.50
  -3   2 -15   14.80    7.80
   3   2  15   16.10    6.70
  -3   2 -15    2.10    9.60
   3   2  15   12.90    9.50
   4  -2  15   39.90    9.40
  -4  -2 -15   33.50    9.50
   4  -2  15   15.00    7.80
  -4   2 -15   37.30   11.60
   4   2  15   23.70    8.00
   4   2  15   34.20    8.50
  -3  -3  15   23.90    9.70
   3  -3 -15   21.30    7.00
   3  -3 -15   17.50    5.80
   3  -3 -15   -1.20    7.90
  -3  -3  15   17.30    8.50
  -3  -3  15   30.70    9.70
  -3   3  15   30.00    8.50
   3   3 -15   16.80    6.90
   3   3 -15    6.60    9.00
  -3   3  15   15.50    7.30
   2  -3 -15   91.89   10.80
   2  -3 -15   73.09    9.90
  -2  -3  15   83.19   12.70
   2  -3 -15   66.49   12.20
  -2  -3  15   67.79   11.40
  -2  -3  15   77.29   11.90
  -2   3  15   71.79   10.00
  -2   3  15   66.09   10.40
   2   3 -15   71.79   12.00
   2   3 -15   79.79   10.00
   1  -3 -15  401.86   27.20
   1  -3 -15  425.96   29.70
  -1  -3  15  371.06   29.60
   1  -3 -15  433.56   28.30
  -1  -3  15  386.96   31.90
  -1  -3  15  393.56   29.60
  -1   3  15  379.26   27.90
  -1   3  15  378.06   29.70
   1   3 -15  373.26   27.70
   1   3 -15  390.66   30.90
   0  -3 -15  132.19   14.70
   0  -3  15  118.69   13.70
   0  -3  15  109.59   15.20
   0  -3 -15  116.59   13.40
   0  -3  15  104.99   13.10
   0  -3 -15   96.39   12.80
   0   3 -15  103.79   12.40
   0   3  15  130.69   14.50
   0   3 -15  113.69   16.20
   0   3  15  109.99   13.30
  -1  -3 -15   83.19   10.30
   1  -3  15   81.99   13.20
   1  -3  15   75.49   11.50
   1  -3  15   88.69   11.80
  -1  -3 -15   68.29   11.70
  -1  -3 -15   89.39   11.30
  -1   3 -15   93.69   11.30
   1   3  15   59.39    9.70
   1   3  15   96.69   12.60
   2  -3  15   21.30    9.10
   2  -3  15   41.80   12.10
   2  -3  15   38.40   10.00
  -2  -3 -15   51.19    8.90
  -2  -3 -15   40.10    9.50
  -2  -3 -15   28.00   12.00
   2   3  15   32.80    8.80
  -2   3 -15   14.10   11.30
   2   3  15   39.10   10.10
  -2   3 -15   43.80    9.40
   5   0 -16    4.80   13.50
  -4   0  16    1.40    5.60
  -4   0  16   10.80    8.50
   4   0 -16    2.90    7.30
   4   0 -16    3.60    4.30
   3   0 -16   93.79   14.10
   3   0 -16   89.39   10.30
  -3   0  16   89.09   12.30
  -3   0  16  122.69   13.60
   2   0 -16  105.39   14.90
  -2   0  16  138.99   14.40
  -2   0  16  110.29   14.80
  -2   0  16  104.09   12.70
   2   0 -16  127.49   11.80
  -1   0  16   34.10    9.70
   1   0 -16   43.60    9.10
  -1   0  16   32.70    9.00
   1   0 -16   35.60    7.10
  -1   0  16   39.20    9.10
   0   0 -16  284.17   21.90
   0   0  16  298.37   22.90
   0   0 -16  312.37   24.00
   0   0  16  299.27   24.80
   0   0  16  322.57   22.90
   1   0  16   32.20    7.60
  -1   0 -16   28.30    7.50
  -1   0 -16   28.70    6.70
   1   0  16   28.50    9.60
   1   0  16   22.40    7.30
   2   0  16  657.63   42.60
  -2   0 -16  653.33   43.10
   2   0  16  644.94   42.80
  -2   0 -16  697.53   41.20
   2   0  16  650.03   44.90
  -2   0 -16  642.14   42.50
   3   0  16  219.58   20.70
  -3   0 -16  265.17   20.90
  -3   0 -16  277.87   19.00
   3   0  16  262.27   24.00
   3   0  16  273.67   21.40
  -3   0 -16  255.17   21.00
   4   0  16  212.88   20.40
   4   0  16  223.68   19.10
  -4   0 -16  217.88   17.00
  -4  -1  16  101.59   13.90
   4  -1 -16  137.29   15.80
  -4  -1  16  120.29   15.10
  -4  -1  16  135.39   16.10
   4  -1 -16  104.29   11.30
   4   1 -16  110.89   15.90
   4   1 -16  101.99   11.40
  -4   1  16  124.29   14.90
  -4   1  16  130.09   13.40
  -3  -1  16   37.10    9.40
   3  -1 -16   29.20    5.70
   3  -1 -16   25.40    8.80
  -3  -1  16   33.70    9.30
  -3  -1  16   22.50    7.90
   3   1 -16   26.90    5.90
   3   1 -16   51.89    9.90
  -3   1  16   28.40    8.20
  -3   1  16   31.90    8.70
   2  -1 -16   18.80    5.60
   2  -1 -16   13.00    7.80
   2  -1 -16   20.00    5.30
  -2  -1  16    9.50    7.80
  -2  -1  16   15.00    8.10
  -2  -1  16    2.30    7.10
   2   1 -16    9.40    8.30
  -2   1  16    1.70    6.70
  -2   1  16   22.70    6.60
   2   1 -16   17.40    6.10
   1  -1 -16  482.75   33.70
  -1  -1  16  462.05   33.80
  -1  -1  16  431.66   32.90
   1  -1 -16  527.15   31.10
  -1  -1  16  463.45   32.70
   1  -1 -16  476.05   31.50
  -1   1  16  477.35   32.70
  -1   1  16  481.05   33.40
   1   1 -16  470.45   31.70
   1   1 -16  472.05   33.90
   0  -1 -16  191.98   14.80
   0  -1 -16  184.98   17.20
   0  -1  16  155.58   16.80
   0  -1  16  174.78   19.00
   0  -1  16  136.59   16.70
   0  -1 -16  183.28   15.20
   0   1  16  170.78   16.00
   0   1 -16  164.78   15.80
   0   1 -16  157.88   17.30
   0   1  16  173.18   17.90
  -1  -1 -16   25.60    6.50
  -1  -1 -16   38.10    6.80
   1  -1  16   44.60   10.60
   1  -1  16   37.20    7.70
   1  -1  16   38.20    9.00
  -1  -1 -16   38.70    8.00
  -1   1 -16   23.10    7.50
   1   1  16   36.80    8.40
   1   1  16   27.20   10.00
  -1   1 -16   41.40    8.40
   1   1  16   40.30    7.70
   2  -1  16   -0.10    8.10
  -2  -1 -16   14.20    6.90
  -2  -1 -16    1.00    5.30
   2  -1  16   -2.00    8.90
  -2  -1 -16    4.30    6.40
   2  -1  16   -9.10    6.70
   2   1  16   -0.90    9.50
  -2   1 -16    1.40    7.30
   2   1  16    7.70    6.30
   2   1  16   -1.00    6.80
  -2   1 -16  -12.40    6.90
   3  -1  16   40.60   10.40
   3  -1  16   40.50    8.80
   3  -1  16   40.70    9.50
  -3  -1 -16   48.00    7.60
  -3  -1 -16   44.00    9.10
   3   1  16   36.20   10.70
  -3   1 -16   32.40    9.90
   3   1  16   21.20    7.80
   3   1  16   49.40    8.60
  -3   1 -16   32.90    8.30
   3  -2 -16  155.98   17.70
  -3  -2  16  161.48   18.00
   3  -2 -16  166.98   13.90
  -3  -2  16  162.98   18.60
  -3  -2  16  169.68   18.60
   3  -2 -16  169.98   15.00
  -3   2  16  135.79   16.00
   3   2 -16  164.38   14.60
  -3   2  16  137.79   15.80
   3   2 -16  166.78   18.50
   2  -2 -16   33.10    7.00
  -2  -2  16   24.50    8.70
   2  -2 -16   29.70    9.40
  -2  -2  16   22.90    9.30
  -2  -2  16   25.50    9.40
   2  -2 -16   48.10    7.60
  -2   2  16   29.40    8.20
  -2   2  16   28.00    8.40
   2   2 -16   23.90    8.70
   2   2 -16   13.90    6.00
   1  -2 -16   -7.70    5.70
  -1  -2  16    4.90    8.20
   1  -2 -16    4.40    8.30
  -1  -2  16   -6.10    8.20
   1  -2 -16    3.00    5.90
  -1  -2  16   -4.50    8.50
   1   2 -16    8.80    7.90
   1   2 -16    1.10    5.90
  -1   2  16    9.70    6.90
  -1   2  16    5.40    8.00
   0  -2  16   23.90    9.00
   0  -2  16   -3.00    8.00
   0  -2 -16    7.70    6.20
   0  -2 -16    7.50    6.30
   0  -2 -16   11.10    8.00
   0  -2  16    3.60    8.00
   0   2  16    8.20    7.20
   0   2 -16   -5.30    8.40
   0   2 -16    5.10    6.10
   0   2  16   -5.20    8.40
  -1  -2 -16   -0.30    5.60
   1  -2  16    2.60    8.50
  -1  -2 -16    8.40    6.60
  -1  -2 -16   23.50    7.80
   1  -2  16    8.60    9.20
   1  -2  16    8.30    8.80
   1   2  16   15.60    7.00
  -1   2 -16   -8.20    7.70
  -1   2 -16    9.70    6.90
   1   2  16   -3.80    8.90
   2  -2  16  188.58   17.40
   2  -2  16  184.38   20.00
  -2  -2 -16  132.29   14.80
  -2  -2 -16  161.28   16.20
  -2  -2 -16  138.59   16.70
   2  -2  16  179.18   18.70
  -2   2 -16  178.88   17.10
  -2   2 -16  150.18   17.50
   2   2  16  131.69   15.60
   2   2  16  143.69   16.80
   2   0 -17   -0.70    5.00
   2   0 -17   -5.30    7.60
  -2   0  17    9.00    7.80
  -2   0  17    1.40    9.50
   1   0 -17    7.30    8.30
  -1   0  17   14.10    8.20
  -1   0  17    6.70    8.80
   1   0 -17   -9.20    5.10
   0   0 -17   13.60    7.40
   0   0  17   -9.30    8.10
   0   0 -17   13.00    6.40
   0   0  17    4.80    9.80
   0   0  17   12.80    7.90
  -1   0 -17   17.10    6.80
   1   0  17   -0.50   10.00
   1   0  17   28.10    8.00
   1   0  17   -7.10    6.60
  -1   0 -17    4.60    8.10
   1  -1 -17   -2.00    5.70
  -1  -1  17   -0.80    8.00
  -1  -1  17    4.60    9.10
   1  -1 -17   -4.50    7.80
  -1  -1  17    6.80    9.10
   1   1 -17    3.30    8.50
  -1   1  17   -5.00    9.20
   1   1 -17    5.10    6.20
   0  -1 -17   51.09    7.30
   0  -1  17   25.70   10.80
   0  -1  17   34.90    9.50
   0  -1  17   59.99   10.80
   0  -1 -17   45.50    8.30
   0  -1 -17   54.39    9.90
   0   1  17   37.90   11.20
   0   1  17   35.60   10.30
   0   1 -17   52.69   10.40
   0   1 -17   54.59    8.20

_computing_structure_solution     'SHELXT 2014/4 (Sheldrick, 2014)'
;
_shelx_hkl_checksum              49232
loop_
_symmetry_equiv_pos_as_xyz
'x, y, z'
'-x, y+1/2, -z+1/2'
'-x, -y, -z'
'x, -y-1/2, z-1/2'
loop_
_atom_site_label
_atom_site_type_symbol
_atom_site_fract_x
_atom_site_fract_y
_atom_site_fract_z
_atom_site_U_iso_or_equiv
_atom_site_adp_type
_atom_site_occupancy
_atom_site_site_symmetry_order
_atom_site_calc_flag
_atom_site_refinement_flags_occupancy
Ca1 Ca 0.07532(5) 0.22717(9) 0.91873(4) 0.01074(16) Uani 1 1 d .
Ca2 Ca 0.77479(5) 0.17888(9) 0.74409(3) 0.01049(16) Uani 1 1 d .
Ca3 Ca 0.57485(5) 0.73283(9) 0.90277(4) 0.01168(16) Uani 1 1 d .
Mg Mg 0.25314(7) 0.75648(12) 0.50395(5) 0.0066(2) Uani 1 1 d .
Si1 Si 0.09329(6) 0.22784(11) 0.64126(5) 0.0045(2) Uani 0.982(4) 1 d P
Li1 Li 0.09329(6) 0.22784(11) 0.64126(5) 0.0045(2) Uani 0.018(4) 1 d P
Si2 Si 0.60032(6) 0.72921(11) 0.63311(5) 0.0048(2) Uani 0.979(4) 1 d P
Li2 Li 0.60032(6) 0.72921(11) 0.63311(5) 0.0048(2) Uani 0.021(4) 1 d P
O1 O 0.17516(16) 0.4571(3) 0.58305(12) 0.0119(4) Uani 1 1 d .
O2 O 0.67721(16) 0.4539(3) 0.62521(11) 0.0102(4) Uani 1 1 d .
O3 O 0.69356(16) 0.9205(3) 0.56439(12) 0.0133(4) Uani 1 1 d .
O4 O 0.18465(16) -0.0276(3) 0.62678(11) 0.0099(4) Uani 1 1 d .
O5 O -0.05896(16) 0.2057(3) 0.57696(12) 0.0129(4) Uani 1 1 d .
O6 O 0.06909(17) 0.3135(3) 0.75463(12) 0.0111(4) Uani 1 1 d .
O7 O 0.44529(17) 0.7124(3) 0.57401(13) 0.0147(4) Uani 1 1 d .
O8 O 0.59355(17) 0.8594(3) 0.74151(12) 0.0129(4) Uani 1 1 d .
loop_
_atom_site_aniso_label
_atom_site_aniso_U_11
_atom_site_aniso_U_22
_atom_site_aniso_U_33
_atom_site_aniso_U_23
_atom_site_aniso_U_13
_atom_site_aniso_U_12
Ca1 0.0154(3) 0.0108(3) 0.0061(3) 0.00111(17) 0.00051(19) -0.00314(18)
Ca2 0.0181(3) 0.0052(3) 0.0078(3) -0.00005(17) -0.00497(18) 0.00135(18)
Ca3 0.0135(3) 0.0124(3) 0.0092(3) 0.00193(18) 0.00146(19) -0.00001(18)
Mg 0.0084(4) 0.0064(4) 0.0050(4) 0.0007(3) 0.0000(3) -0.0007(3)
Si1 0.0069(3) 0.0038(4) 0.0027(4) -0.0003(2) -0.0001(2) 0.0002(2)
Li1 0.0069(3) 0.0038(4) 0.0027(4) -0.0003(2) -0.0001(2) 0.0002(2)
Si2 0.0066(3) 0.0040(4) 0.0037(4) 0.0000(2) -0.0006(2) 0.0006(2)
Li2 0.0066(3) 0.0040(4) 0.0037(4) 0.0000(2) -0.0006(2) 0.0006(2)
O1 0.0191(8) 0.0068(8) 0.0097(8) 0.0015(6) 0.0018(6) -0.0037(6)
O2 0.0146(8) 0.0075(8) 0.0084(8) -0.0001(6) -0.0006(6) 0.0044(6)
O3 0.0202(8) 0.0078(8) 0.0120(8) 0.0026(7) 0.0031(6) -0.0037(7)
O4 0.0145(7) 0.0073(8) 0.0080(8) 0.0013(6) 0.0023(6) 0.0047(6)
O5 0.0090(8) 0.0181(9) 0.0114(9) -0.0009(7) -0.0026(6) 0.0010(6)
O6 0.0177(8) 0.0101(8) 0.0055(8) -0.0020(7) 0.0016(6) 0.0006(6)
O7 0.0103(8) 0.0186(10) 0.0150(10) -0.0024(7) -0.0043(7) 0.0022(7)
O8 0.0169(8) 0.0135(9) 0.0084(8) -0.0044(7) 0.0012(6) 0.0009(7)
loop_
_atom_type_symbol
_atom_type_description
_atom_type_scat_dispersion_real
_atom_type_scat_dispersion_imag
_atom_type_scat_source
O O 0.0106 0.0060 'International Tables Vol C Tables 4.2.6.8 and 6.1.1.4'
Mg Mg 0.0486 0.0363 'International Tables Vol C Tables 4.2.6.8 and 6.1.1.4'
Si Si 0.0817 0.0704 'International Tables Vol C Tables 4.2.6.8 and 6.1.1.4'
Ca Ca 0.2262 0.3064 'International Tables Vol C Tables 4.2.6.8 and 6.1.1.4'
Li Li -0.0003 0.0001 'International Tables Vol C Tables 4.2.6.8 and 6.1.1.4'
loop_
_geom_angle_atom_site_label_1
_geom_angle_atom_site_label_2
_geom_angle_atom_site_label_3
_geom_angle
_geom_angle_site_symmetry_1
_geom_angle_site_symmetry_3
O6 Ca1 O3 89.71(6) . 2_646
O6 Ca1 O5 142.58(6) . 4_566
O3 Ca1 O5 109.70(5) 2_646 4_566
O6 Ca1 O1 156.51(6) . 4_566
O3 Ca1 O1 77.43(5) 2_646 4_566
O5 Ca1 O1 60.92(5) 4_566 4_566
O6 Ca1 O5 79.47(6) . 2_556
O3 Ca1 O5 67.98(5) 2_646 2_556
O5 Ca1 O5 78.91(6) 4_566 2_556
O1 Ca1 O5 112.67(6) 4_566 2_556
O6 Ca1 O1 96.15(6) . 2_546
O3 Ca1 O1 172.28(6) 2_646 2_546
O5 Ca1 O1 68.25(5) 4_566 2_546
O1 Ca1 O1 95.33(5) 4_566 2_546
O5 Ca1 O1 118.00(5) 2_556 2_546
O6 Ca1 O5 103.07(6) . 2_546
O3 Ca1 O5 118.42(5) 2_646 2_546
O5 Ca1 O5 95.42(5) 4_566 2_546
O1 Ca1 O5 67.46(5) 4_566 2_546
O5 Ca1 O5 172.86(7) 2_556 2_546
O1 Ca1 O5 55.33(5) 2_546 2_546
O6 Ca1 O4 72.64(5) . 2_556
O3 Ca1 O4 126.39(5) 2_646 2_556
O5 Ca1 O4 70.09(5) 4_566 2_556
O1 Ca1 O4 130.76(5) 4_566 2_556
O5 Ca1 O4 59.28(5) 2_556 2_556
O1 Ca1 O4 60.54(5) 2_546 2_556
O5 Ca1 O4 114.83(5) 2_546 2_556
O6 Ca1 O2 83.97(5) . 2_646
O3 Ca1 O2 59.60(5) 2_646 2_646
O5 Ca1 O2 133.40(5) 4_566 2_646
O1 Ca1 O2 72.57(5) 4_566 2_646
O5 Ca1 O2 124.78(5) 2_556 2_646
O1 Ca1 O2 115.92(5) 2_546 2_646
O5 Ca1 O2 62.32(5) 2_546 2_646
O4 Ca1 O2 155.32(5) 2_556 2_646
O6 Ca1 Li1 163.42(5) . 4_566
O3 Ca1 Li1 81.60(4) 2_646 4_566
O5 Ca1 Li1 33.49(4) 4_566 4_566
O1 Ca1 Li1 33.66(4) 4_566 4_566
O5 Ca1 Li1 84.17(4) 2_556 4_566
O1 Ca1 Li1 93.90(4) 2_546 4_566
O5 Ca1 Li1 93.49(4) 2_546 4_566
O4 Ca1 Li1 101.24(4) 2_556 4_566
O2 Ca1 Li1 103.40(4) 2_646 4_566
O6 Ca1 Si1 163.42(5) . 4_566
O3 Ca1 Si1 81.60(4) 2_646 4_566
O5 Ca1 Si1 33.49(4) 4_566 4_566
O1 Ca1 Si1 33.66(4) 4_566 4_566
O5 Ca1 Si1 84.17(4) 2_556 4_566
O1 Ca1 Si1 93.90(4) 2_546 4_566
O5 Ca1 Si1 93.49(4) 2_546 4_566
O4 Ca1 Si1 101.24(4) 2_556 4_566
O2 Ca1 Si1 103.40(4) 2_646 4_566
Li1 Ca1 Si1 0.0 4_566 4_566
O6 Ca1 Li2 76.99(4) . 2_646
O3 Ca1 Li2 30.95(4) 2_646 2_646
O5 Ca1 Li2 134.44(4) 4_566 2_646
O1 Ca1 Li2 82.09(4) 4_566 2_646
O5 Ca1 Li2 93.49(4) 2_556 2_646
O1 Ca1 Li2 146.28(4) 2_546 2_646
O5 Ca1 Li2 93.58(4) 2_546 2_646
O4 Ca1 Li2 142.09(4) 2_556 2_646
O2 Ca1 Li2 31.30(3) 2_646 2_646
Li1 Ca1 Li2 101.47(2) 4_566 2_646
Si1 Ca1 Li2 101.47(2) 4_566 2_646
O2 Ca2 O4 97.49(6) . 2_656
O2 Ca2 O8 100.12(6) . 1_545
O4 Ca2 O8 125.27(6) 2_656 1_545
O2 Ca2 O6 136.96(6) . 2_646
O4 Ca2 O6 116.47(6) 2_656 2_646
O8 Ca2 O6 81.91(6) 1_545 2_646
O2 Ca2 O1 160.00(6) . 2_646
O4 Ca2 O1 68.60(5) 2_656 2_646
O8 Ca2 O1 78.30(5) 1_545 2_646
O6 Ca2 O1 62.92(5) 2_646 2_646
O2 Ca2 O5 68.73(5) . 1_655
O4 Ca2 O5 118.38(5) 2_656 1_655
O8 Ca2 O5 116.32(5) 1_545 1_655
O6 Ca2 O5 72.00(5) 2_646 1_655
O1 Ca2 O5 130.08(5) 2_646 1_655
O2 Ca2 O3 69.07(5) . 1_545
O4 Ca2 O3 166.48(6) 2_656 1_545
O8 Ca2 O3 58.53(5) 1_545 1_545
O6 Ca2 O3 76.22(5) 2_646 1_545
O1 Ca2 O3 123.91(6) 2_646 1_545
O5 Ca2 O3 59.21(5) 1_655 1_545
O2 Ca2 O6 103.41(5) . 1_655
O4 Ca2 O6 70.45(5) 2_656 1_655
O8 Ca2 O6 149.50(6) 1_545 1_655
O6 Ca2 O6 67.65(3) 2_646 1_655
O1 Ca2 O6 85.86(5) 2_646 1_655
O5 Ca2 O6 56.93(5) 1_655 1_655
O3 Ca2 O6 113.11(5) 1_545 1_655
O2 Ca2 Li1 166.28(5) . 2_646
O4 Ca2 Li1 95.95(4) 2_656 2_646
O8 Ca2 Li1 74.12(4) 1_545 2_646
O6 Ca2 Li1 31.06(4) 2_646 2_646
O1 Ca2 Li1 32.39(4) 2_646 2_646
O5 Ca2 Li1 102.24(4) 1_655 2_646
O3 Ca2 Li1 97.55(4) 1_545 2_646
O6 Ca2 Li1 78.53(4) 1_655 2_646
O2 Ca2 Si1 166.28(5) . 2_646
O4 Ca2 Si1 95.95(4) 2_656 2_646
O8 Ca2 Si1 74.12(4) 1_545 2_646
O6 Ca2 Si1 31.06(4) 2_646 2_646
O1 Ca2 Si1 32.39(4) 2_646 2_646
O5 Ca2 Si1 102.24(4) 1_655 2_646
O3 Ca2 Si1 97.55(4) 1_545 2_646
O6 Ca2 Si1 78.53(4) 1_655 2_646
Li1 Ca2 Si1 0.0 2_646 2_646
O2 Ca2 Li2 88.52(4) . 1_545
O4 Ca2 Li2 153.68(4) 2_656 1_545
O8 Ca2 Li2 28.65(4) 1_545 1_545
O6 Ca2 Li2 72.85(4) 2_646 1_545
O1 Ca2 Li2 98.09(4) 2_646 1_545
O5 Ca2 Li2 87.71(4) 1_655 1_545
O3 Ca2 Li2 30.57(3) 1_545 1_545
O6 Ca2 Li2 133.07(4) 1_655 1_545
Li1 Ca2 Li2 80.62(2) 2_646 1_545
Si1 Ca2 Li2 80.62(2) 2_646 1_545
O2 Ca2 Si2 88.52(4) . 1_545
O4 Ca2 Si2 153.68(4) 2_656 1_545
O8 Ca2 Si2 28.65(4) 1_545 1_545
O6 Ca2 Si2 72.85(4) 2_646 1_545
O1 Ca2 Si2 98.09(4) 2_646 1_545
O5 Ca2 Si2 87.71(4) 1_655 1_545
O3 Ca2 Si2 30.57(3) 1_545 1_545
O6 Ca2 Si2 133.07(4) 1_655 1_545
Li1 Ca2 Si2 80.62(2) 2_646 1_545
Si1 Ca2 Si2 80.62(2) 2_646 1_545
Li2 Ca2 Si2 0.0 1_545 1_545
O8 Ca3 O3 149.21(6) . 4_576
O8 Ca3 O7 80.10(6) . 2_656
O3 Ca3 O7 104.45(6) 4_576 2_656
O8 Ca3 O1 80.43(6) . 2_656
O3 Ca3 O1 73.83(5) 4_576 2_656
O7 Ca3 O1 67.12(5) 2_656 2_656
O8 Ca3 O7 147.28(6) . 4_576
O3 Ca3 O7 60.01(5) 4_576 4_576
O7 Ca3 O7 75.47(6) 2_656 4_576
O1 Ca3 O7 108.93(5) 2_656 4_576
O8 Ca3 O2 80.45(5) . 2_656
O3 Ca3 O2 128.75(5) 4_576 2_656
O7 Ca3 O2 60.62(5) 2_656 2_656
O1 Ca3 O2 126.53(5) 2_656 2_656
O7 Ca3 O2 68.74(5) 4_576 2_656
O8 Ca3 O4 85.41(6) . 2_656
O3 Ca3 O4 67.19(5) 4_576 2_656
O7 Ca3 O4 126.41(5) 2_656 2_656
O1 Ca3 O4 59.65(5) 2_656 2_656
O7 Ca3 O4 126.74(5) 4_576 2_656
O2 Ca3 O4 162.82(6) 2_656 2_656
O8 Ca3 O7 114.06(6) . 2_646
O3 Ca3 O7 67.32(5) 4_576 2_646
O7 Ca3 O7 164.21(8) 2_656 2_646
O1 Ca3 O7 120.36(5) 2_656 2_646
O7 Ca3 O7 88.77(6) 4_576 2_646
O2 Ca3 O7 113.06(5) 2_656 2_646
O4 Ca3 O7 64.24(5) 2_656 2_646
O8 Ca3 O3 112.94(5) . 2_646
O3 Ca3 O3 92.37(5) 4_576 2_646
O7 Ca3 O3 117.15(5) 2_656 2_646
O1 Ca3 O3 166.19(5) 2_656 2_646
O7 Ca3 O3 61.96(5) 4_576 2_646
O2 Ca3 O3 61.87(5) 2_656 2_646
O4 Ca3 O3 116.05(5) 2_656 2_646
O7 Ca3 O3 52.15(5) 2_646 2_646
O8 Ca3 Li2 157.10(5) . 4_576
O3 Ca3 Li2 32.21(4) 4_576 4_576
O7 Ca3 Li2 79.55(4) 2_656 4_576
O1 Ca3 Li2 82.07(4) 2_656 4_576
O7 Ca3 Li2 31.97(4) 4_576 4_576
O2 Ca3 Li2 98.48(4) 2_656 4_576
O4 Ca3 Li2 98.34(4) 2_656 4_576
O7 Ca3 Li2 87.57(4) 2_646 4_576
O3 Ca3 Li2 85.83(3) 2_646 4_576
O8 Ca3 Si2 157.10(5) . 4_576
O3 Ca3 Si2 32.21(4) 4_576 4_576
O7 Ca3 Si2 79.55(4) 2_656 4_576
O1 Ca3 Si2 82.07(4) 2_656 4_576
O7 Ca3 Si2 31.97(4) 4_576 4_576
O2 Ca3 Si2 98.48(4) 2_656 4_576
O4 Ca3 Si2 98.34(4) 2_656 4_576
O7 Ca3 Si2 87.57(4) 2_646 4_576
O3 Ca3 Si2 85.83(3) 2_646 4_576
Li2 Ca3 Si2 0.0 4_576 4_576
O8 Ca3 Li2 70.32(5) . 2_656
O3 Ca3 Li2 127.89(4) 4_576 2_656
O7 Ca3 Li2 31.22(4) 2_656 2_656
O1 Ca3 Li2 95.09(4) 2_656 2_656
O7 Ca3 Li2 77.54(4) 4_576 2_656
O2 Ca3 Li2 31.46(4) 2_656 2_656
O4 Ca3 Li2 148.09(4) 2_656 2_656
O7 Ca3 Li2 144.53(4) 2_646 2_656
O3 Ca3 Li2 92.92(3) 2_646 2_656
Li2 Ca3 Li2 96.77(2) 4_576 2_656
Si2 Ca3 Li2 96.77(2) 4_576 2_656
O7 Mg O3 94.40(7) . 3_676
O7 Mg O1 90.03(7) . .
O3 Mg O1 171.53(7) 3_676 .
O7 Mg O5 176.48(7) . 3_566
O3 Mg O5 84.86(7) 3_676 3_566
O1 Mg O5 91.15(7) . 3_566
O7 Mg O4 89.76(7) . 1_565
O3 Mg O4 88.49(7) 3_676 1_565
O1 Mg O4 84.31(7) . 1_565
O5 Mg O4 93.66(7) 3_566 1_565
O7 Mg O2 91.03(7) . 3_666
O3 Mg O2 89.71(7) 3_676 3_666
O1 Mg O2 97.43(7) . 3_666
O5 Mg O2 85.52(7) 3_566 3_666
O4 Mg O2 178.09(6) 1_565 3_666
O7 Mg Ca3 59.12(5) . 2_656
O3 Mg Ca3 51.41(5) 3_676 2_656
O1 Mg Ca3 126.29(5) . 2_656
O5 Mg Ca3 122.42(6) 3_566 2_656
O4 Mg Ca3 55.79(5) 1_565 2_656
O2 Mg Ca3 123.31(5) 3_666 2_656
O7 Mg Ca1 120.60(6) . 4_565
O3 Mg Ca1 130.53(5) 3_676 4_565
O1 Mg Ca1 51.60(5) . 4_565
O5 Mg Ca1 58.00(5) 3_566 4_565
O4 Mg Ca1 122.26(5) 1_565 4_565
O2 Mg Ca1 58.67(4) 3_666 4_565
Ca3 Mg Ca1 177.76(3) 2_656 4_565
O7 Mg Ca1 133.00(6) . 2_556
O3 Mg Ca1 115.62(5) 3_676 2_556
O1 Mg Ca1 56.54(5) . 2_556
O5 Mg Ca1 50.10(5) 3_566 2_556
O4 Mg Ca1 57.97(5) 1_565 2_556
O2 Mg Ca1 122.40(5) 3_666 2_556
Ca3 Mg Ca1 112.14(2) 2_656 2_556
Ca1 Mg Ca1 66.262(19) 4_565 2_556
O7 Mg Ca2 120.69(6) . 3_666
O3 Mg Ca2 58.30(5) 3_676 3_666
O1 Mg Ca2 124.93(5) . 3_666
O5 Mg Ca2 56.06(5) 3_566 3_666
O4 Mg Ca2 134.20(5) 1_565 3_666
O2 Mg Ca2 44.02(4) 3_666 3_666
Ca3 Mg Ca2 108.77(2) 2_656 3_666
Ca1 Mg Ca2 73.355(18) 4_565 3_666
Ca1 Mg Ca2 106.03(2) 2_556 3_666
O7 Mg Ca3 52.04(5) . 4_575
O3 Mg Ca3 64.03(5) 3_676 4_575
O1 Mg Ca3 124.12(5) . 4_575
O5 Mg Ca3 124.77(5) 3_566 4_575
O4 Mg Ca3 127.20(5) 1_565 4_575
O2 Mg Ca3 52.33(4) 3_666 4_575
Ca3 Mg Ca3 72.39(2) 2_656 4_575
Ca1 Mg Ca3 109.31(2) 4_565 4_575
Ca1 Mg Ca3 174.28(3) 2_556 4_575
Ca2 Mg Ca3 68.725(19) 3_666 4_575
O7 Mg Ca1 132.15(6) . 4_575
O3 Mg Ca1 44.29(5) 3_676 4_575
O1 Mg Ca1 128.30(5) . 4_575
O5 Mg Ca1 48.77(5) 3_566 4_575
O4 Mg Ca1 70.12(5) 1_565 4_575
O2 Mg Ca1 108.09(5) 3_666 4_575
Ca3 Mg Ca1 74.032(19) 2_656 4_575
Ca1 Mg Ca1 106.59(2) 4_565 4_575
Ca1 Mg Ca1 71.857(19) 2_556 4_575
Ca2 Mg Ca1 64.076(16) 3_666 4_575
Ca3 Mg Ca1 106.88(2) 4_575 4_575
O6 Si1 O4 116.38(9) . .
O6 Si1 O5 111.25(9) . .
O4 Si1 O5 109.29(9) . .
O6 Si1 O1 108.49(9) . .
O4 Si1 O1 107.89(9) . .
O5 Si1 O1 102.58(9) . .
O6 Si1 Ca1 155.87(7) . 4_565
O4 Si1 Ca1 87.69(6) . 4_565
O5 Si1 Ca1 57.90(6) . 4_565
O1 Si1 Ca1 58.80(6) . 4_565
O6 Si1 Ca2 51.57(6) . 2_656
O4 Si1 Ca2 120.54(6) . 2_656
O5 Si1 Ca2 129.82(7) . 2_656
O1 Si1 Ca2 58.13(6) . 2_656
Ca1 Si1 Ca2 116.05(3) 4_565 2_656
O6 Si1 Ca1 85.02(6) . 2_556
O4 Si1 Ca1 158.50(7) . 2_556
O5 Si1 Ca1 60.92(6) . 2_556
O1 Si1 Ca1 59.94(6) . 2_556
Ca1 Si1 Ca1 70.87(2) 4_565 2_556
Ca2 Si1 Ca1 70.138(17) 2_656 2_556
O6 Si1 Ca1 112.89(6) . 2_546
O4 Si1 Ca1 61.84(6) . 2_546
O5 Si1 Ca1 52.78(6) . 2_546
O1 Si1 Ca1 137.35(6) . 2_546
Ca1 Si1 Ca1 78.90(2) 4_565 2_546
Ca2 Si1 Ca1 164.37(3) 2_656 2_546
Ca1 Si1 Ca1 113.49(2) 2_556 2_546
O6 Si1 Ca3 110.12(6) . 2_646
O4 Si1 Ca3 57.45(6) . 2_646
O5 Si1 Ca3 137.74(7) . 2_646
O1 Si1 Ca3 55.49(6) . 2_646
Ca1 Si1 Ca3 80.55(2) 4_565 2_646
Ca2 Si1 Ca3 73.023(18) 2_656 2_646
Ca1 Si1 Ca3 115.23(2) 2_556 2_646
Ca1 Si1 Ca3 116.07(2) 2_546 2_646
O6 Si1 Ca2 58.39(6) . 1_455
O4 Si1 Ca2 117.84(6) . 1_455
O5 Si1 Ca2 55.65(6) . 1_455
O1 Si1 Ca2 133.51(6) . 1_455
Ca1 Si1 Ca2 113.36(2) 4_565 1_455
Ca2 Si1 Ca2 101.88(2) 2_656 1_455
Ca1 Si1 Ca2 74.034(17) 2_556 1_455
Ca1 Si1 Ca2 66.114(16) 2_546 1_455
Ca3 Si1 Ca2 165.76(3) 2_646 1_455
O6 Si1 Ca2 83.45(6) . 2_646
O4 Si1 Ca2 34.22(6) . 2_646
O5 Si1 Ca2 117.02(7) . 2_646
O1 Si1 Ca2 131.24(6) . 2_646
Ca1 Si1 Ca2 120.57(2) 4_565 2_646
Ca2 Si1 Ca2 107.74(2) 2_656 2_646
Ca1 Si1 Ca2 166.31(2) 2_556 2_646
Ca1 Si1 Ca2 64.889(16) 2_546 2_646
Ca3 Si1 Ca2 75.867(18) 2_646 2_646
Ca2 Si1 Ca2 93.58(2) 1_455 2_646
O8 Si2 O7 113.25(9) . .
O8 Si2 O2 118.41(9) . .
O7 Si2 O2 107.85(9) . .
O8 Si2 O3 105.88(9) . .
O7 Si2 O3 104.33(9) . .
O2 Si2 O3 105.92(9) . .
O8 Si2 Ca3 149.91(7) . 4_575
O7 Si2 Ca3 59.07(7) . 4_575
O2 Si2 Ca3 90.74(6) . 4_575
O3 Si2 Ca3 55.00(6) . 4_575
O8 Si2 Ca3 117.57(7) . 2_646
O7 Si2 Ca3 55.11(7) . 2_646
O2 Si2 Ca3 57.73(6) . 2_646
O3 Si2 Ca3 136.30(7) . 2_646
Ca3 Si2 Ca3 83.23(2) 4_575 2_646
O8 Si2 Ca1 105.64(6) . 2_656
O7 Si2 Ca1 138.26(7) . 2_656
O2 Si2 Ca1 63.34(6) . 2_656
O3 Si2 Ca1 48.76(6) . 2_656
Ca3 Si2 Ca1 79.71(2) 4_575 2_656
Ca3 Si2 Ca1 117.94(2) 2_646 2_656
O8 Si2 Ca3 74.56(6) . 2_656
O7 Si2 Ca3 61.69(6) . 2_656
O2 Si2 Ca3 166.71(6) . 2_656
O3 Si2 Ca3 71.03(6) . 2_656
Ca3 Si2 Ca3 76.88(2) 4_575 2_656
Ca3 Si2 Ca3 115.06(2) 2_646 2_656
Ca1 Si2 Ca3 118.01(2) 2_656 2_656
O8 Si2 Ca2 45.85(6) . 1_565
O7 Si2 Ca2 133.64(7) . 1_565
O2 Si2 Ca2 118.43(6) . 1_565
O3 Si2 Ca2 61.64(6) . 1_565
Ca3 Si2 Ca2 115.36(2) 4_575 1_565
Ca3 Si2 Ca2 161.41(3) 2_646 1_565
Ca1 Si2 Ca2 67.987(16) 2_656 1_565
Ca3 Si2 Ca2 72.130(18) 2_656 1_565
O8 Si2 Ca3 25.29(6) . .
O7 Si2 Ca3 113.03(7) . .
O2 Si2 Ca3 96.54(6) . .
O3 Si2 Ca3 127.42(6) . .
Ca3 Si2 Ca3 170.81(3) 4_575 .
Ca3 Si2 Ca3 95.91(2) 2_646 .
Ca1 Si2 Ca3 108.57(2) 2_656 .
Ca3 Si2 Ca3 95.34(2) 2_656 .
Ca2 Si2 Ca3 65.828(16) 1_565 .
O8 Si2 Ca2 90.77(6) . .
O7 Si2 Ca2 122.10(7) . .
O2 Si2 Ca2 27.70(6) . .
O3 Si2 Ca2 119.00(6) . .
Ca3 Si2 Ca2 118.38(2) 4_575 .
Ca3 Si2 Ca2 67.016(17) 2_646 .
Ca1 Si2 Ca2 70.296(16) 2_656 .
Ca3 Si2 Ca2 164.48(2) 2_656 .
Ca2 Si2 Ca2 101.40(2) 1_565 .
Ca3 Si2 Ca2 69.206(15) . .
Si1 O1 Mg 173.05(10) . .
Si1 O1 Ca1 87.54(7) . 4_565
Mg O1 Ca1 89.07(6) . 4_565
Si1 O1 Ca2 89.49(7) . 2_656
Mg O1 Ca2 92.65(6) . 2_656
Ca1 O1 Ca2 168.45(7) 4_565 2_656
Si1 O1 Ca3 93.38(7) . 2_646
Mg O1 Ca3 93.21(6) . 2_646
Ca1 O1 Ca3 100.69(6) 4_565 2_646
Ca2 O1 Ca3 90.62(5) 2_656 2_646
Si1 O1 Ca1 88.80(7) . 2_556
Mg O1 Ca1 84.83(6) . 2_556
Ca1 O1 Ca1 84.67(5) 4_565 2_556
Ca2 O1 Ca1 84.12(5) 2_656 2_556
Ca3 O1 Ca1 174.28(7) 2_646 2_556
Si2 O2 Mg 131.09(9) . 3_666
Si2 O2 Ca2 133.14(9) . .
Mg O2 Ca2 95.37(6) 3_666 .
Si2 O2 Ca3 90.81(7) . 2_646
Mg O2 Ca3 87.24(6) 3_666 2_646
Ca2 O2 Ca3 98.22(6) . 2_646
Si2 O2 Ca1 85.36(7) . 2_656
Mg O2 Ca1 80.10(5) 3_666 2_656
Ca2 O2 Ca1 99.24(5) . 2_656
Ca3 O2 Ca1 159.27(6) 2_646 2_656
Si2 O3 Mg 157.79(11) . 3_676
Si2 O3 Ca1 100.29(8) . 2_656
Mg O3 Ca1 99.79(7) 3_676 2_656
Si2 O3 Ca3 92.79(7) . 4_575
Mg O3 Ca3 89.93(6) 3_676 4_575
Ca1 O3 Ca3 108.03(6) 2_656 4_575
Si2 O3 Ca2 87.80(7) . 1_565
Mg O3 Ca2 84.55(6) 3_676 1_565
Ca1 O3 Ca2 85.14(5) 2_656 1_565
Ca3 O3 Ca2 166.45(7) 4_575 1_565
Si2 O3 Ca3 78.46(6) . 2_656
Mg O3 Ca3 79.63(6) 3_676 2_656
Ca1 O3 Ca3 164.34(7) 2_656 2_656
Ca3 O3 Ca3 87.63(5) 4_575 2_656
Ca2 O3 Ca3 79.22(4) 1_565 2_656
Si1 O4 Mg 136.28(9) . 1_545
Si1 O4 Ca2 122.90(8) . 2_646
Mg O4 Ca2 99.22(7) 1_545 2_646
Si1 O4 Ca3 91.97(7) . 2_646
Mg O4 Ca3 83.52(5) 1_545 2_646
Ca2 O4 Ca3 109.68(6) 2_646 2_646
Si1 O4 Ca1 87.57(6) . 2_546
Mg O4 Ca1 82.30(5) 1_545 2_546
Ca2 O4 Ca1 88.00(5) 2_646 2_546
Ca3 O4 Ca1 158.91(6) 2_646 2_546
Si1 O5 Mg 170.37(11) . 3_566
Si1 O5 Ca1 88.61(7) . 4_565
Mg O5 Ca1 90.38(6) 3_566 4_565
Si1 O5 Ca1 96.40(8) . 2_546
Mg O5 Ca1 93.19(6) 3_566 2_546
Ca1 O5 Ca1 101.09(6) 4_565 2_546
Si1 O5 Ca2 95.03(7) . 1_455
Mg O5 Ca2 85.13(6) 3_566 1_455
Ca1 O5 Ca2 173.46(7) 4_565 1_455
Ca1 O5 Ca2 83.94(5) 2_546 1_455
Si1 O5 Ca1 88.01(7) . 2_556
Mg O5 Ca1 82.36(6) 3_566 2_556
Ca1 O5 Ca1 84.57(5) 4_565 2_556
Ca1 O5 Ca1 172.87(7) 2_546 2_556
Ca2 O5 Ca1 90.11(5) 1_455 2_556
Si1 O6 Ca1 149.91(10) . .
Si1 O6 Ca2 97.37(7) . 2_656
Ca1 O6 Ca2 99.40(6) . 2_656
Si1 O6 Ca2 92.98(7) . 1_455
Ca1 O6 Ca2 89.27(5) . 1_455
Ca2 O6 Ca2 141.49(7) 2_656 1_455
Si2 O7 Mg 170.11(11) . .
Si2 O7 Ca3 93.67(8) . 2_646
Mg O7 Ca3 95.90(7) . 2_646
Si2 O7 Ca3 88.96(7) . 4_575
Mg O7 Ca3 91.03(7) . 4_575
Ca3 O7 Ca3 104.53(6) 2_646 4_575
Si2 O7 Ca3 87.41(7) . 2_656
Mg O7 Ca3 82.70(6) . 2_656
Ca3 O7 Ca3 164.21(8) 2_646 2_656
Ca3 O7 Ca3 91.23(6) 4_575 2_656
Si2 O8 Ca3 137.09(10) . .
Si2 O8 Ca2 105.49(8) . 1_565
Ca3 O8 Ca2 106.02(6) . 1_565
loop_
_geom_bond_atom_site_label_1
_geom_bond_atom_site_label_2
_geom_bond_distance
_geom_bond_site_symmetry_2
Ca1 O6 2.2264(17) .
Ca1 O3 2.3933(17) 2_646
Ca1 O5 2.5121(17) 4_566
Ca1 O1 2.5381(16) 4_566
Ca1 O5 2.5439(18) 2_556
Ca1 O1 2.7430(17) 2_546
Ca1 O5 2.7708(18) 2_546
Ca1 O4 2.8014(16) 2_556
Ca1 O2 2.8080(16) 2_646
Ca1 Li1 2.9646(8) 4_566
Ca1 Si1 2.9646(8) 4_566
Ca1 Li2 3.1318(7) 2_646
Ca2 O2 2.3127(16) .
Ca2 O4 2.3373(16) 2_656
Ca2 O8 2.3949(17) 1_545
Ca2 O6 2.4250(17) 2_646
Ca2 O1 2.6073(16) 2_646
Ca2 O5 2.7592(17) 1_655
Ca2 O3 2.8322(17) 1_545
Ca2 O6 2.8390(17) 1_655
Ca2 Li1 3.0701(8) 2_646
Ca2 Si1 3.0701(8) 2_646
Ca2 Li2 3.2163(8) 1_545
Ca2 Si2 3.2163(8) 1_545
Ca3 O8 2.2578(17) .
Ca3 O3 2.5155(17) 4_576
Ca3 O7 2.5705(18) 2_656
Ca3 O1 2.6215(16) 2_656
Ca3 O7 2.6315(19) 4_576
Ca3 O2 2.6445(16) 2_656
Ca3 O4 2.6785(16) 2_656
Ca3 O7 2.7847(18) 2_646
Ca3 O3 3.0499(17) 2_646
Ca3 Li2 3.0672(8) 4_576
Ca3 Si2 3.0672(8) 4_576
Ca3 Li2 3.1274(8) 2_656
Mg O7 2.0052(17) .
Mg O3 2.0102(17) 3_676
Mg O1 2.0526(17) .
Mg O5 2.0841(17) 3_566
Mg O4 2.1118(17) 1_565
Mg O2 2.1665(17) 3_666
Mg Ca3 3.2183(8) 2_656
Mg Ca1 3.2382(8) 4_565
Mg Ca1 3.2747(8) 2_556
Mg Ca2 3.3137(8) 3_666
Mg Ca3 3.3370(9) 4_575
Mg Ca1 3.3773(8) 4_575
Si1 O6 1.5971(16) .
Si1 O4 1.6166(16) .
Si1 O5 1.6364(17) .
Si1 O1 1.6445(17) .
Si1 Ca1 2.9646(8) 4_565
Si1 Ca2 3.0701(8) 2_656
Si1 Ca1 3.1686(7) 2_556
Si1 Ca1 3.1746(7) 2_546
Si1 Ca3 3.1758(8) 2_646
Si1 Ca2 3.3290(8) 1_455
Si1 Ca2 3.4902(8) 2_646
Si2 O8 1.6004(17) .
Si2 O7 1.6245(17) .
Si2 O2 1.6326(16) .
Si2 O3 1.6369(17) .
Si2 Ca3 3.0672(8) 4_575
Si2 Ca3 3.1274(8) 2_646
Si2 Ca1 3.1318(7) 2_656
Si2 Ca3 3.1599(8) 2_656
Si2 Ca2 3.2163(8) 1_565
O1 Ca1 2.5381(16) 4_565
O1 Ca2 2.6073(16) 2_656
O1 Ca3 2.6215(16) 2_646
O1 Ca1 2.7430(16) 2_556
O2 Mg 2.1666(17) 3_666
O2 Ca3 2.6446(16) 2_646
O2 Ca1 2.8080(16) 2_656
O3 Mg 2.0102(17) 3_676
O3 Ca1 2.3934(16) 2_656
O3 Ca3 2.5155(17) 4_575
O3 Ca2 2.8322(17) 1_565
O3 Ca3 3.0499(17) 2_656
O4 Mg 2.1118(17) 1_545
O4 Ca2 2.3373(16) 2_646
O4 Ca3 2.6785(16) 2_646
O4 Ca1 2.8014(16) 2_546
O5 Mg 2.0842(17) 3_566
O5 Ca1 2.5121(17) 4_565
O5 Ca1 2.5440(18) 2_546
O5 Ca2 2.7592(17) 1_455
O5 Ca1 2.7708(18) 2_556
O6 Ca2 2.4250(17) 2_656
O6 Ca2 2.8390(17) 1_455
O7 Ca3 2.5705(18) 2_646
O7 Ca3 2.6315(19) 4_575
O7 Ca3 2.7847(18) 2_656
O8 Ca2 2.3949(17) 1_565
