#------------------------------------------------------------------------------
#$Date: 2020-09-06 11:24:40 +0300 (Sun, 06 Sep 2020) $
#$Revision: 255987 $
#$URL: file:///home/coder/svn-repositories/cod/cif/7/12/68/7126895.cif $
#------------------------------------------------------------------------------
#
# This file is available in the Crystallography Open Database (COD),
# http://www.crystallography.net/
#
# All data on this site have been placed in the public domain by the
# contributors.
#
data_7126895
loop_
_publ_author_name
'Pace, Kristen A.'
'Klepov, Vladislav V.'
'Christian, Matthew S.'
'Morrison, Gregory'
'Deason, Travis K.'
'Kutahyali Aslani, Ceren'
'Besmann, Theodore M.'
'Diprete, David P.'
'Amoroso, Jake W.'
'Zur Loye, Hans-Conrad'
_publ_section_title
;
 Targeting complex plutonium oxides by combining crystal chemical
 reasoning with density-functional theory calculations: the quaternary
 plutonium oxide Cs<sub>2</sub>PuSi<sub>6</sub>O<sub>15</sub>.
;
_journal_issue                   66
_journal_name_full
'Chemical communications (Cambridge, England)'
_journal_page_first              9501
_journal_page_last               9504
_journal_paper_doi               10.1039/d0cc02674c
_journal_volume                  56
_journal_year                    2020
_chemical_formula_moiety         '0.25(Ce4 Cs8 O60 Si24)'
_chemical_formula_sum            'Ce Cs2 O15 Si6'
_chemical_formula_weight         814.48
_space_group_crystal_system      orthorhombic
_space_group_IT_number           36
_space_group_name_Hall           'C 2c -2'
_space_group_name_H-M_alt        'C m c 21'
_audit_creation_date             2020-06-17
_audit_creation_method
;
Olex2 1.2
(compiled 2018.05.29 svn.r3508 for OlexSys, GUI svn.r5506)
;
_audit_update_record
;
2020-06-22 deposited with the CCDC.	2020-07-10 downloaded from the CCDC.
;
_cell_angle_alpha                90
_cell_angle_beta                 90
_cell_angle_gamma                90
_cell_formula_units_Z            4
_cell_length_a                   7.2565(2)
_cell_length_b                   16.2451(4)
_cell_length_c                   13.4354(3)
_cell_measurement_reflns_used    9970
_cell_measurement_temperature    302(2)
_cell_measurement_theta_max      36.25
_cell_measurement_theta_min      2.93
_cell_volume                     1583.80(7)
_computing_molecular_graphics    'Olex2 (Dolomanov et al., 2009)'
_computing_publication_material  'Olex2 (Dolomanov et al., 2009)'
_computing_structure_refinement  'ShelXL (Sheldrick, 2015)'
_diffrn_ambient_temperature      302.05
_diffrn_measured_fraction_theta_full 1.000
_diffrn_measured_fraction_theta_max 1.000
_diffrn_measurement_device_type  'Bruker D8 QUEST'
_diffrn_radiation_type           MoK\a
_diffrn_radiation_wavelength     0.71073
_diffrn_reflns_av_R_equivalents  0.0289
_diffrn_reflns_av_unetI/netI     0.0182
_diffrn_reflns_Laue_measured_fraction_full 1.000
_diffrn_reflns_Laue_measured_fraction_max 1.000
_diffrn_reflns_limit_h_max       9
_diffrn_reflns_limit_h_min       -9
_diffrn_reflns_limit_k_max       20
_diffrn_reflns_limit_k_min       -20
_diffrn_reflns_limit_l_max       17
_diffrn_reflns_limit_l_min       -16
_diffrn_reflns_number            14029
_diffrn_reflns_point_group_measured_fraction_full 1.000
_diffrn_reflns_point_group_measured_fraction_max 1.000
_diffrn_reflns_theta_full        25.242
_diffrn_reflns_theta_max         27.486
_diffrn_reflns_theta_min         2.508
_diffrn_standards_number         0
_exptl_absorpt_coefficient_mu    7.932
_exptl_absorpt_correction_T_max  0.2740
_exptl_absorpt_correction_T_min  0.2089
_exptl_absorpt_correction_type   multi-scan
_exptl_absorpt_process_details
;
SADABS-2016/2 (Bruker,2016/2) was used for absorption correction.
wR2(int) was 0.0975 before and 0.0602 after correction.
The Ratio of minimum to maximum transmission is 0.7624.
The \l/2 correction factor is Not present.
;
_exptl_crystal_colour            colourless
_exptl_crystal_colour_primary    colourless
_exptl_crystal_density_diffrn    3.416
_exptl_crystal_description       block
_exptl_crystal_F_000             1488
_exptl_crystal_size_max          0.04
_exptl_crystal_size_mid          0.02
_exptl_crystal_size_min          0.02
_refine_diff_density_max         2.230
_refine_diff_density_min         -1.996
_refine_diff_density_rms         0.153
_refine_ls_abs_structure_details
;
 Refined as an inversion twin.
;
_refine_ls_abs_structure_Flack   0.45(3)
_refine_ls_extinction_method     none
_refine_ls_goodness_of_fit_ref   1.088
_refine_ls_hydrogen_treatment    undef
_refine_ls_matrix_type           full
_refine_ls_number_parameters     125
_refine_ls_number_reflns         1943
_refine_ls_number_restraints     7
_refine_ls_restrained_S_all      1.115
_refine_ls_R_factor_all          0.0260
_refine_ls_R_factor_gt           0.0258
_refine_ls_shift/su_max          0.001
_refine_ls_shift/su_mean         0.000
_refine_ls_structure_factor_coef Fsqd
_refine_ls_weighting_details
'w=1/[\s^2^(Fo^2^)+(0.0164P)^2^+24.4700P] where P=(Fo^2^+2Fc^2^)/3'
_refine_ls_weighting_scheme      calc
_refine_ls_wR_factor_gt          0.0585
_refine_ls_wR_factor_ref         0.0586
_reflns_Friedel_coverage         0.917
_reflns_Friedel_fraction_full    1.000
_reflns_Friedel_fraction_max     1.000
_reflns_number_gt                1928
_reflns_number_total             1943
_reflns_threshold_expression     'I > 2\s(I)'
_cod_data_source_file            d0cc02674c2.cif
_cod_data_source_block           1
_cod_depositor_comments
'Adding full bibliography for 7126894--7126895.cif.'
_cod_database_code               7126895
_shelx_shelxl_version_number     2014/7
_shelx_space_group_comment
;
The symmetry employed for this shelxl refinement is uniquely defined
by the following loop, which should always be used as a source of
symmetry information in preference to the above space-group names.
They are only intended as comments.
;
_shelx_estimated_absorpt_t_max   0.857
_shelx_estimated_absorpt_t_min   0.742
_olex2_refinement_description
;
1. Twinned data refinement
 Scales: 0.55(3)
 0.45(3)
2. Uiso/Uaniso restraints and constraints
Uanis(O7) \\sim Ueq: with sigma of 0.005 and sigma for terminal atoms of 0.02
;
_shelx_res_file
;
    1.res created by SHELXL-2014/7

TITL 1_a.res in Cmc2(1)
REM Old TITL 1 in Cmc2(1)
REM SHELXT solution in Cmc2(1)
REM R1 0.105, Rweak 0.034, Alpha 0.002, Orientation as input
REM Flack x = 0.455 ( 0.006 ) from Parsons' quotients
REM Formula found by SHELXT: O15 Si6 Cs2 Ce
CELL 0.71073 7.2565 16.2451 13.4354 90 90 90
ZERR 4 0.0002 0.0004 0.0003 0 0 0
LATT -7
SYMM -X,-Y,0.5+Z
SYMM +X,-Y,0.5+Z
SYMM -X,+Y,+Z
SFAC Ce Cs O Si
UNIT 4 8 60 24
ISOR 0.005 0.02 O7

L.S. 10 0 0
PLAN  20
SIZE 0.02 0.02 0.04
TEMP 28.9
list 4
fmap 2 53
acta
TWIN -1 0 0 0 -1 0 0 0 -1 2
OMIT -4 55
REM <olex2.extras>
REM <HklSrc "%.\\1.hkl">
REM </olex2.extras>

WGHT    0.016400   24.469999
BASF   0.44928
FVAR       0.15566
CE1   1    0.500000    0.631591    0.339007    10.50000    0.02360    0.00898 =
         0.00891   -0.00095    0.00000    0.00000
CS1   2    0.500000    0.110225    0.493825    10.50000    0.03168    0.04463 =
         0.02874    0.01083    0.00000    0.00000
CS2   2    0.500000    0.221727    0.189946    10.50000    0.05523    0.06975 =
         0.02130   -0.00927    0.00000    0.00000
SI2   4    0.500000    0.546537    0.592000    10.50000    0.02321    0.01198 =
         0.00848    0.00158    0.00000    0.00000
SI3   4    0.500000    0.356791    0.570736    10.50000    0.01016    0.01218 =
         0.01036   -0.00157    0.00000    0.00000
SI1   4    0.782641    0.542571    0.763664    11.00000    0.03148    0.01819 =
         0.01764    0.00119   -0.00198   -0.01444
SI4   4    0.205572    0.315470    0.415286    11.00000    0.01805    0.02075 =
         0.02615    0.00265   -0.01345   -0.00701
O8    3    0.000000    0.338494    0.452413    10.50000    0.02856    0.02961 =
         0.02093   -0.01316    0.00000    0.00000
O10   3    0.216819    0.226308    0.368453    11.00000    0.01631    0.01951 =
         0.04430    0.00072   -0.00069    0.00078
O5    3    0.500000    0.454395    0.555954    10.50000    0.10891    0.01023 =
         0.03545    0.00412    0.00000    0.00000
O9    3    0.275276    0.383809    0.337512    11.00000    0.02868    0.02946 =
         0.04753    0.01621   -0.00744   -0.01149
O4    3    0.500000    0.606728    0.500770    10.50000    0.07366    0.03236 =
         0.00914    0.00935    0.00000    0.00000
O3    3    0.679862    0.561190    0.658984    11.00000    0.04529    0.06368 =
         0.03450    0.02043   -0.02253   -0.03743
O2    3    1.000000    0.549368    0.738672    10.50000    0.03059    0.02435 =
         0.02493    0.00689    0.00000    0.00000
O6    3    0.500000    0.329229    0.682862    10.50000    0.06465    0.02438 =
         0.00880   -0.00457    0.00000    0.00000
O1    3    0.727142    0.455351    0.808527    11.00000    0.06843    0.02316 =
         0.03162    0.00438    0.00582   -0.02797
O7    3    0.325864    0.319067    0.515954    11.00000    0.06224    0.05863 =
         0.05520    0.01517   -0.03658   -0.03114
HKLF 4

REM  1_a.res in Cmc2(1)
REM R1 =  0.0258 for    1928 Fo > 4sig(Fo)  and  0.0260 for all    1943 data
REM    125 parameters refined using      7 restraints

END

WGHT      0.0163     25.1032

REM Highest difference peak  2.230,  deepest hole -1.996,  1-sigma level  0.153
Q1    1   0.5000  0.1800  0.1934  10.50000  0.05    2.23
Q2    1   0.4339  0.2398  0.1766  11.00000  0.05    1.59
Q3    1   0.5000  0.1816  0.4831  10.50000  0.05    1.13
Q4    1   0.4419  0.0760  0.5013  11.00000  0.05    1.11
Q5    1   0.5000  0.0630  0.4963  10.50000  0.05    1.10
Q6    1   0.4313  0.2392  0.5051  11.00000  0.05    0.92
Q7    1   0.5000  0.1232  0.4491  10.50000  0.05    0.84
Q8    1   0.2784  0.3365  0.5362  11.00000  0.05    0.79
Q9    1   0.5000  0.1361  0.5401  10.50000  0.05    0.76
Q10   1   0.3702  0.3025  0.4872  11.00000  0.05    0.72
Q11   1   0.0000  0.3198  0.2983  10.50000  0.05    0.56
Q12   1   0.5000  0.6640  0.2762  10.50000  0.05    0.56
Q13   1   0.5000  0.2174  0.2401  10.50000  0.05    0.53
Q14   1   0.5000  0.6035  0.2863  10.50000  0.05    0.53
Q15   1   0.5000  0.6563  0.4038  10.50000  0.05    0.52
Q16   1   0.5000  0.2979  0.4907  10.50000  0.05    0.51
Q17   1   0.2677  0.4214  0.3012  11.00000  0.05    0.49
Q18   1   0.0000  0.2616  0.5154  10.50000  0.05    0.47
Q19   1   0.5000  0.1284  0.1391  10.50000  0.05    0.45
Q20   1   0.5000  0.2770  0.1232  10.50000  0.05    0.44
;
_shelx_res_checksum              51947
_shelx_hkl_file
;
  -2   0   0 4201.18   94.19
  -2   0   0 4148.29   92.59
  -2   0   0 4142.59   93.09
   2   0   0 4158.58   92.99
  -4   0   0 9660.23  220.68
  -4   0   0 9829.32  217.78
   4   0   0 9999.00  218.78
  -6   0   0 2440.96   60.59
  -6   0   0 2361.46   58.49
   6   0   0 2337.77   60.99
   6   0   0 2297.67   56.79
   6   0   0 2132.69   57.99
  -6   0   0 2133.59   55.59
  -8   0   0  634.94   25.10
   8   0   0  571.14   20.60
   8   0   0  633.54   25.40
  -8   0   0  588.84   22.60
 -10   0   0  399.36   21.20
  10   0   0  379.56   16.50
  10   0   0  379.06   25.50
 -12   0   0   15.60    5.70
  -1  -1   0  142.29    4.70
  -1   1   0  143.59    4.30
  -1  -1   0  139.69    4.60
  -1  -1   0  139.09    4.50
   1   1   0  137.79    4.50
  -1   1   0  143.59    4.90
   1   1   0  139.69    4.70
   1   1   0  141.49    4.60
  -1  -1   0  140.79    4.50
   1   1   0  134.49    4.50
  -1   1   0  138.49    4.90
   3   1   0    1.30    1.40
   3  -1   0    1.30    1.10
  -3   1   0    2.40    1.10
  -3   1   0    1.50    1.40
   3   1   0    2.70    1.30
   3   1   0    2.00    1.20
   3  -1   0    2.40    1.40
  -3  -1   0    2.80    1.20
  -3   1   0    3.30    1.70
  -3  -1   0    1.90    1.40
  -3  -1   0    1.50    1.30
   3   1   0    1.40    1.10
   3  -1   0    0.80    0.80
  -3  -1   0    0.40    1.10
  -3   1   0    2.00    1.20
  -5  -1   0    6.00    2.10
   5   1   0    4.20    1.90
   5  -1   0    4.50    2.40
  -5  -1   0    3.20    1.80
   5   1   0    6.30    2.70
  -5   1   0    5.20    2.40
  -5   1   0    2.10    1.80
   5   1   0    2.70    1.60
  -5   1   0    3.70    1.40
  -5   1   0    3.70    1.90
  -5  -1   0    4.20    2.60
   5  -1   0    1.40    1.40
  -5  -1   0    4.10    1.60
   7  -1   0   59.79    5.50
  -7   1   0   56.29    6.30
   7   1   0   55.79    6.50
   7  -1   0   53.49    4.70
  -7  -1   0   63.89    6.70
  -7  -1   0   66.99    6.00
   7   1   0   57.39    5.30
  -7   1   0   55.29    5.60
   7   1   0   40.20    4.80
   7  -1   0   70.59    7.40
   9   1   0    1.60    2.00
   9  -1   0   -0.70    1.70
  -9   1   0   -2.80    1.60
  -9  -1   0    2.90    2.10
   9   1   0    0.50    2.50
   9  -1   0    3.50    2.30
  -9   1   0   -0.10    2.10
  11  -1   0    9.30    3.60
  11   1   0    9.00    4.10
  11   1   0    8.40    3.20
 -11   1   0   12.30    5.10
 -11  -1   0    4.80    3.80
   0   2   0  207.18    6.20
   0   2   0  185.58    5.80
   0   2   0  199.68    5.90
   0  -2   0  169.78    5.10
   0  -2   0  189.58    5.90
   0   2   0  190.38    5.50
  -2  -2   0  344.57   10.70
  -2  -2   0  351.76   10.70
   2   2   0  338.27   10.60
  -2   2   0  359.16   10.10
   2  -2   0  343.67   11.40
   2   2   0  343.97   10.80
   2   2   0  358.26   10.70
  -2  -2   0  349.77   10.60
  -2  -2   0  344.27   10.90
   2   2   0  351.36   10.70
  -2   2   0  352.76   11.30
  -2   2   0  356.36   11.40
  -4  -2   0   47.40    3.80
   4   2   0   53.09    4.20
  -4  -2   0   54.99    4.70
  -4   2   0   49.30    4.40
   4   2   0   52.99    4.70
  -4  -2   0   56.69    4.40
  -4   2   0   57.29    4.80
  -4   2   0   51.49    4.00
   4  -2   0   55.69    3.40
   4   2   0   54.99    4.30
  -4  -2   0   49.80    4.30
   4   2   0   56.69    4.50
   4  -2   0   49.40    5.00
  -6   2   0   49.80    5.70
   6  -2   0   52.09    4.20
   6  -2   0   50.19    5.50
   6  -2   0   57.99    6.50
  -6   2   0   50.69    3.60
   6   2   0   52.59    5.10
  -6  -2   0   57.89    6.20
  -6  -2   0   52.39    4.40
   6   2   0   54.89    5.80
  -6  -2   0   49.50    5.00
   6   2   0   50.99    4.90
  -6   2   0   54.29    5.10
  -8  -2   0    0.80    1.90
  -8   2   0   -0.40    1.30
   8  -2   0    2.40    2.00
   8  -2   0    2.20    1.50
   8   2   0    2.50    2.20
  -8   2   0    0.90    1.80
  -8   2   0    0.20    2.50
  -8  -2   0    6.60    2.40
   8   2   0    2.10    2.40
 -10   2   0    5.60    3.10
  10   2   0    2.10    3.20
  10   2   0   11.00    3.40
 -10  -2   0    2.90    3.20
  10  -2   0    5.70    3.70
 -12  -2   0   -0.30    4.50
  12  -2   0    4.30    7.70
 -12   2   0    5.50    3.50
   1   3   0    2.00    1.10
  -1  -3   0    2.50    0.90
  -1   3   0    1.70    1.20
   1  -3   0    4.50    1.80
   1  -3   0    2.00    1.20
  -1  -3   0    1.80    1.10
  -1  -3   0    1.30    1.00
   1   3   0    1.80    1.10
  -1   3   0    3.60    1.50
  -1   3   0    2.50    1.00
  -3   3   0    2.00    1.30
   3   3   0    1.60    1.30
  -3   3   0    2.10    1.50
  -3   3   0    1.30    1.00
   3   3   0   -0.60    1.10
  -3  -3   0    0.50    0.90
  -3  -3   0    2.70    1.40
   3   3   0    3.10    1.40
  -3  -3   0    1.70    1.30
   3   3   0    0.00    1.20
   3  -3   0    0.20    1.60
  -3  -3   0    1.90    1.30
  -5  -3   0    2.90    1.40
   5  -3   0    1.70    1.80
   5   3   0    0.50    1.80
   5   3   0    1.80    1.60
   5   3   0    1.30    1.40
  -5  -3   0    2.40    1.60
   5   3   0    1.00    1.20
  -5  -3   0   -0.10    1.30
  -5   3   0    2.40    1.60
  -5   3   0    0.00    1.30
  -5   3   0    1.10    1.20
  -5   3   0    1.00    1.50
  -7  -3   0   12.30    3.70
  -7   3   0   22.70    5.40
  -7   3   0   12.80    3.30
   7   3   0   15.20    4.50
   7  -3   0   16.70    5.70
  -7  -3   0   12.80    3.50
   7  -3   0   11.30    2.90
   7   3   0   14.80    4.00
   9   3   0   10.80    4.40
  -9  -3   0   22.70    5.50
  -9   3   0   11.10    3.90
  -9   3   0    6.50    3.60
   9   3   0   21.40    4.80
   9  -3   0   14.70    4.90
 -11   3   0   -4.00    1.80
  11  -3   0    2.60    2.80
  11   3   0   -3.30    2.90
   0  -4   0 1524.75   37.70
   0   4   0 1484.15   34.60
   0   4   0 1468.45   34.80
   0  -4   0 1473.35   34.40
   0   4   0 1464.25   34.60
   0   4   0 1502.25   36.00
   0  -4   0 1434.16   34.60
   0  -4   0 1496.95   34.80
  -2   4   0 2143.49   51.99
  -2   4   0 2142.19   51.49
  -2   4   0 2146.89   49.80
   2   4   0 2102.49   51.19
   2   4   0 2124.89   51.19
   2  -4   0 2170.58   52.09
  -2  -4   0 2137.19   51.49
  -2  -4   0 2146.49   50.09
  -2  -4   0 2155.98   51.09
   2  -4   0 2151.38   51.89
  -2  -4   0 2131.09   50.79
  -4  -4   0  810.22   24.10
  -4   4   0  878.51   31.70
  -4  -4   0  838.52   25.30
   4   4   0  839.72   24.20
   4  -4   0  860.81   26.50
  -4  -4   0  823.02   24.30
   4  -4   0  809.72   23.70
  -4   4   0  816.22   23.20
   4   4   0  847.12   26.00
  -4  -4   0  820.52   24.20
   4   4   0  852.31   24.70
  -4   4   0  801.42   25.50
  -6  -4   0  539.35   24.30
  -6  -4   0  519.45   19.50
  -6   4   0  546.45   19.10
  -6   4   0  574.94   20.90
   6   4   0  555.44   20.20
   6  -4   0  560.44   18.30
   6   4   0  536.55   20.10
   6  -4   0  579.34   23.70
  -6  -4   0  560.84   22.00
   8  -4   0  297.07   17.20
  -8   4   0  265.27   13.90
   8  -4   0  274.27   12.90
  -8  -4   0  278.37   15.10
   8   4   0  271.27   14.30
  -8   4   0  300.67   16.10
   8   4   0  271.17   14.80
  -8  -4   0  295.37   16.30
  10  -4   0  115.39   11.30
  10   4   0   86.79    8.20
 -10  -4   0  109.19   10.80
 -10   4   0  108.99   10.80
  -1   5   0  249.38    9.50
   1   5   0  234.58    9.00
  -1   5   0  231.08    8.50
   1  -5   0  227.68    9.40
  -1  -5   0  234.58    8.40
   1  -5   0  229.38    8.60
  -1  -5   0  241.48    8.20
   1   5   0  227.98    7.40
  -1  -5   0  240.58    9.30
  -1  -5   0  236.78    7.60
   1   5   0  236.98    8.60
  -1   5   0  240.08    8.00
  -3  -5   0   28.10    3.50
   3   5   0   24.60    3.30
   3   5   0   28.90    3.20
   3  -5   0   28.80    4.00
  -3  -5   0   27.60    3.20
  -3   5   0   23.90    3.10
  -3  -5   0   27.60    3.10
  -3   5   0   22.00    3.20
  -3  -5   0   25.70    2.90
  -3   5   0   27.70    2.80
   5  -5   0  187.38    8.50
  -5   5   0  190.78    9.90
  -5  -5   0  168.08    9.10
  -5  -5   0  182.68    9.50
  -5   5   0  176.68   11.60
   5  -5   0  188.28   11.30
  -5  -5   0  186.98    9.70
  -5  -5   0  181.28   10.40
  -5   5   0  175.98    8.80
   5   5   0  186.28   10.00
   7  -5   0    1.90    1.40
   7  -5   0    1.00    2.20
   7   5   0    5.00    3.00
  -7   5   0    4.00    2.30
  -7  -5   0    4.70    2.80
  -7  -5   0    2.40    1.70
  -7   5   0    6.70    3.60
  -9  -5   0   18.20    5.30
  -9   5   0   12.60    4.50
   9  -5   0   14.90    3.40
   9   5   0   12.60    3.80
   9  -5   0   11.60    5.00
  11  -5   0   14.20    4.20
 -11   5   0   -4.40    2.20
 -11  -5   0    0.50    2.90
  11   5   0   -4.60    2.40
   0  -6   0   80.09    4.10
   0   6   0   83.09    5.20
   0   6   0   77.09    4.20
   0   6   0   77.09    4.20
   0  -6   0   77.69    4.30
   0  -6   0   81.69    5.40
   0  -6   0   79.99    4.40
   0   6   0   79.89    4.40
  -2  -6   0  118.69    6.30
  -2   6   0  112.49    6.40
   2  -6   0  123.89    7.00
   2  -6   0  124.19    7.30
  -2  -6   0  120.89    6.30
  -2  -6   0  128.69    7.00
  -2  -6   0  129.79    5.50
   2   6   0  125.79    6.70
  -2  -6   0  128.99    6.20
  -2   6   0  119.69    7.00
   2   6   0  120.99    6.60
  -2   6   0  127.49    5.90
  -4  -6   0   39.90    4.10
   4  -6   0   47.30    5.40
  -4  -6   0   49.40    4.20
  -4   6   0   43.20    4.50
  -4  -6   0   49.90    5.10
   4   6   0   45.70    4.40
  -4   6   0   47.00    4.00
  -4   6   0   45.30    4.80
   4  -6   0   49.70    3.80
   4   6   0   42.40    4.60
  -4  -6   0   46.10    4.20
  -6  -6   0    6.90    3.40
   6   6   0    1.40    2.60
   6  -6   0    1.00    2.20
  -6   6   0    0.30    1.50
  -6  -6   0   -0.10    1.40
   6  -6   0    1.00    1.00
  -6   6   0    0.20    1.50
  -6  -6   0    0.60    1.30
  -8  -6   0   15.00    4.70
  -8   6   0   12.00    3.70
   8   6   0   14.00    4.50
   8  -6   0    9.30    2.90
   8  -6   0    9.50    4.10
  -8   6   0   21.20    5.40
 -10   6   0   24.80    6.00
  10  -6   0   22.20    6.80
 -10  -6   0   11.70    4.50
  10   6   0   16.20    5.20
   1   7   0 1577.64   39.10
   1  -7   0 1442.36   37.90
   1   7   0 1561.04   37.50
  -1  -7   0 1574.84   40.50
  -1  -7   0 1577.24   37.60
   1  -7   0 1603.54   41.20
  -1   7   0 1590.34   40.60
   1  -7   0 1489.85   36.20
  -1   7   0 1567.94   38.30
   1  -7   0 1559.64   39.10
  -1   7   0 1545.55   36.70
  -1  -7   0 1591.04   38.50
   1   7   0 1532.65   39.80
  -1   7   0 1520.75   38.70
  -1  -7   0 1508.35   38.50
  -3  -7   0 1350.56   36.70
   3   7   0 1410.36   39.60
  -3  -7   0 1430.16   38.50
   3   7   0 1367.06   37.50
   3  -7   0 1382.76   34.70
  -3  -7   0 1411.46   35.90
  -3  -7   0 1405.76   39.00
  -3   7   0 1400.56   35.70
  -3   7   0 1327.77   37.70
   3  -7   0 1376.26   38.70
   3  -7   0 1390.66   38.50
  -3   7   0 1407.26   38.80
  -3  -7   0 1374.36   34.60
  -5  -7   0  622.24   20.70
   5  -7   0  609.84   23.70
  -5  -7   0  621.84   21.30
  -5  -7   0  619.04   22.70
  -5   7   0  608.54   20.00
   5  -7   0  632.04   19.10
   5   7   0  604.04   22.10
  -7  -7   0  175.28   12.10
  -7  -7   0  166.88   10.40
   7  -7   0  183.08   13.20
   7   7   0  158.48   11.00
  -7   7   0  181.38   11.70
  -7   7   0  161.08    9.90
  -9  -7   0  123.59   12.50
   9   7   0  107.69    9.50
  -9   7   0  111.49   10.20
   9  -7   0  108.59   12.90
  11  -7   0   17.50    6.90
 -11  -7   0   26.30    7.20
 -11   7   0   14.30    5.40
  11   7   0   20.80    5.20
   0   8   0  234.68    9.00
   0   8   0  238.58    9.10
   0  -8   0  221.78    8.50
   0   8   0  233.28    9.30
   0  -8   0  246.98    9.30
   0  -8   0  245.48   11.10
   0  -8   0  235.48    9.10
  -2  -8   0 2304.77   55.59
   2   8   0 2230.88   56.99
  -2   8   0 2260.27   57.89
  -2   8   0 2279.17   55.09
  -2  -8   0 2351.16   58.29
  -2  -8   0 2277.57   56.09
   2   8   0 2322.87   56.79
  -2  -8   0 2212.08   55.99
  -2  -8   0 2298.47   53.99
  -2   8   0 2247.38   56.39
   2  -8   0 2249.77   56.99
   2  -8   0 2310.37   58.69
  -4  -8   0  536.85   16.60
   4  -8   0  538.35   16.60
  -4  -8   0  530.55   17.70
   4  -8   0  547.95   20.80
   4   8   0  532.25   19.60
  -4  -8   0  499.15   18.30
  -4   8   0  512.35   20.10
  -4   8   0  528.35   17.60
   6  -8   0  361.26   18.40
  -6  -8   0  392.46   23.50
  -6   8   0  342.17   14.60
  -6  -8   0  322.07   16.40
   6  -8   0  337.67   13.20
   6   8   0  333.47   16.40
  -6  -8   0  360.16   17.20
   8  -8   0  212.18   15.10
  -8  -8   0  225.98   14.70
   8  -8   0  207.38   10.30
   8   8   0  221.68   14.00
  -8   8   0  230.48   14.30
  -8   8   0  209.68   12.30
  10  -8   0   50.39   10.20
 -10  -8   0   41.00    5.90
  10   8   0   49.00    6.80
 -10   8   0   37.50    7.70
 -10  -8   0   34.40    7.20
   1  -9   0  640.94   19.90
  -1   9   0  651.93   21.50
   1   9   0  618.54   20.70
  -1   9   0  629.64   19.50
  -1  -9   0  664.83   19.60
   1  -9   0  636.04   18.80
   1  -9   0  663.33   22.40
  -1  -9   0  640.64   21.80
  -1  -9   0  623.04   19.20
   1  -9   0  611.94   17.20
  -1   9   0  644.74   18.00
  -1  -9   0  641.34   18.60
   1   9   0  625.04   18.40
   1   9   0  645.94   19.90
  -1   9   0  636.94   19.40
   3  -9   0  727.23   20.80
   3  -9   0  765.32   25.50
   3   9   0  697.83   23.60
  -3  -9   0  743.23   20.90
  -3   9   0  721.33   21.90
   3  -9   0  731.13   24.40
  -3  -9   0  683.13   22.70
  -3   9   0  695.23   23.30
  -3  -9   0  721.43   22.90
  -3  -9   0  742.23   24.70
  -3   9   0  699.23   24.30
   3   9   0  742.13   23.90
  -3  -9   0  748.63   22.50
  -5  -9   0   59.69    6.50
   5  -9   0   49.40    6.60
  -5   9   0   59.99    5.20
   5  -9   0   59.29    4.60
  -5  -9   0   56.49    4.80
  -5  -9   0   55.19    6.60
   5   9   0   62.99    6.60
   7  -9   0  227.58   15.00
  -7  -9   0  228.68   14.50
   7   9   0  206.98   13.30
  -7   9   0  229.68   13.60
  -7   9   0  207.18   11.70
   7  -9   0  200.58    9.80
  -9  -9   0    0.20    2.10
   9   9   0   -2.10    2.20
   9  -9   0    2.90    3.00
  -9  -9   0    0.20    2.20
  -9   9   0    2.10    3.10
 -11  -9   0   11.70    4.30
  11   9   0   16.40    5.30
 -11  -9   0   12.80    7.40
  11  -9   0   17.50    9.30
 -11   9   0   13.70    4.90
   0 -10   0  182.98    8.40
   0 -10   0  176.88   10.40
   0 -10   0  166.78    7.60
   0  10   0  189.58    8.60
   0  10   0  178.78   14.10
   0  10   0  173.38    8.50
   0 -10   0  172.58    8.30
   0  10   0  189.98    8.40
  -2  10   0   -0.70    1.40
   2  10   0    1.30    1.20
  -2 -10   0    3.40    2.20
   2 -10   0    0.40    1.80
  -2 -10   0    2.50    1.40
   2 -10   0    0.80    1.50
  -2  10   0    5.00    1.90
  -2  10   0    0.70    1.30
  -2 -10   0   -1.00    1.10
  -2 -10   0    1.30    1.40
   2  10   0    1.10    1.60
   2  10   0    0.70    1.00
  -2 -10   0    2.80    1.30
  -4 -10   0   91.29    8.70
  -4 -10   0   83.39    9.70
   4 -10   0  100.09    8.60
  -4 -10   0   86.79    6.10
   4  10   0   96.19   10.10
  -4 -10   0   91.09    5.80
  -4  10   0   87.39    6.20
  -4 -10   0   88.79    6.70
   4 -10   0   90.39    8.20
   4 -10   0   89.09    5.60
   6 -10   0    3.10    2.30
   6  10   0    1.70    2.40
  -6  10   0    4.70    2.20
   6 -10   0    0.90    1.60
  -6 -10   0    3.20    2.90
  -6 -10   0    4.80    2.30
  -8 -10   0   16.30    3.30
   8  10   0   16.40    5.60
  -8  10   0   12.40    4.80
  -8  10   0   12.40    3.40
  -8 -10   0    8.40    3.60
   8 -10   0    7.70    3.00
   8 -10   0    7.70    4.00
 -10 -10   0   -0.90    3.20
 -10  10   0    4.70    3.80
  10 -10   0    2.40    3.30
 -10 -10   0    8.70    3.10
  10  10   0    6.30    4.40
  -1 -11   0  412.26   15.40
  -1 -11   0  424.66   17.70
  -1  11   0  434.06   14.00
  -1  11   0  423.86   17.10
   1 -11   0  429.06   14.60
   1 -11   0  434.46   15.80
   1 -11   0  386.06   12.90
  -1 -11   0  423.76   14.50
   1 -11   0  415.46   18.00
  -1  11   0  421.06   15.30
   1  11   0  398.86   16.40
   1  11   0  434.36   15.90
  -1  11   0  416.66   15.20
   1  11   0  411.16   14.20
   1  11   0  409.26   15.20
   3 -11   0  180.88    8.70
  -3 -11   0  192.08   11.80
  -3 -11   0  198.08   10.10
  -3  11   0  201.78    9.80
   3 -11   0  207.38   12.60
  -3 -11   0  210.18   10.80
  -3 -11   0  196.38    8.80
   3  11   0  197.88   11.20
   3 -11   0  218.38   11.80
  -5 -11   0  420.06   14.80
  -5 -11   0  395.66   16.40
  -5 -11   0  381.76   18.40
  -5  11   0  369.86   15.60
   5 -11   0  380.26   18.90
  -5 -11   0  371.36   15.30
   5  11   0  378.66   18.10
   5 -11   0  374.16   13.90
  -7  11   0   64.89    6.50
   7 -11   0   69.69    8.40
  -7 -11   0   70.89    8.20
   7  11   0   59.79    7.60
  -7 -11   0   60.59    5.60
   7 -11   0   70.49    5.40
   9  11   0   94.19    9.80
  -9 -11   0   87.19    7.10
  -9 -11   0  108.59   10.90
   9 -11   0   93.19   10.60
  -9  11   0   97.79   10.10
 -11 -11   0   20.80    6.70
 -11 -11   0   45.00    8.40
 -11  11   0   31.40   10.10
  11 -11   0   29.80    8.70
   0  12   0 2071.99   51.09
   0 -12   0 1922.31   49.60
   0 -12   0 2004.10   51.09
   0 -12   0 2077.99   50.99
   0  12   0 1908.21   50.29
   0 -12   0 2053.79   55.69
   0  12   0 1944.01   51.29
   2  12   0  448.86   15.30
  -2 -12   0  454.75   17.20
  -2 -12   0  450.05   15.50
  -2  12   0  470.65   17.00
   2 -12   0  461.05   18.10
  -2 -12   0  469.25   19.90
   2  12   0  466.95   18.20
  -2 -12   0  479.25   17.20
   2 -12   0  487.95   20.50
   4 -12   0 1042.90   35.70
   4 -12   0 1055.39   29.30
  -4  12   0 1039.10   31.40
  -4 -12   0 1086.29   29.60
  -4 -12   0 1068.99   35.80
  -4 -12   0  975.90   31.50
   4  12   0 1042.20   34.30
   4 -12   0 1067.39   34.90
   6 -12   0  229.88   10.50
   6  12   0  250.87   15.10
  -6  12   0  235.38   12.80
  -6 -12   0  249.48   11.40
  -6 -12   0  262.17   15.80
  -6 -12   0  257.47   13.50
   6 -12   0  236.78   15.40
  -8 -12   0  169.98   13.80
   8 -12   0  189.48   15.10
  -8 -12   0  199.58   12.60
  -8 -12   0  179.78   10.30
  -8  12   0  185.18   13.60
 -10 -12   0   74.89    6.90
 -10 -12   0   78.59    8.20
  10 -12   0   72.19    9.80
 -10  12   0   82.99    9.50
  10  12   0   75.29    9.40
 -10 -12   0   72.39    9.40
   1  13   0    0.90    2.00
  -1  13   0    4.20    1.80
  -1 -13   0    1.10    2.60
  -1 -13   0    7.70    3.00
  -1  13   0    6.60    2.00
   1 -13   0    3.70    3.00
   1 -13   0    3.10    1.10
   1  13   0    0.60    1.20
   1 -13   0    4.60    2.20
  -1 -13   0    4.70    2.30
  -1 -13   0    0.80    1.30
  -1  13   0    5.10    2.50
   1  13   0    4.10    2.50
   1 -13   0    3.40    2.50
  -3 -13   0   70.59    6.30
   3 -13   0   80.19    8.60
  -3 -13   0   83.59    8.40
  -3 -13   0   67.69    5.40
   3 -13   0   74.89    7.40
   3 -13   0   66.79    5.30
   3  13   0   82.59    7.70
  -3  13   0   73.19    6.20
  -5 -13   0   47.00    5.30
   5 -13   0   56.49    7.50
   5  13   0   48.20    6.70
   5 -13   0   54.69    5.00
   5 -13   0   54.89    7.30
  -5 -13   0   48.20    5.40
  -5 -13   0   56.79    4.90
  -5  13   0   64.59    8.90
  -5 -13   0   54.99    7.50
   7  13   0   23.60    6.20
   7 -13   0   21.10    3.80
  -7 -13   0   19.00    3.90
  -7 -13   0   23.40    6.30
  -7 -13   0   28.60    5.80
   7 -13   0   29.20    7.00
  -7  13   0   25.40    5.70
  -9 -13   0   28.60    5.00
   9 -13   0   24.90    6.90
  -9  13   0   13.80    5.30
   9  13   0   21.60    6.60
  -9 -13   0   15.70    4.10
  -9 -13   0   16.40    5.70
   0  14   0  103.49    7.20
   0 -14   0  110.39    7.20
   0  14   0  111.49    7.60
   0 -14   0  112.69    7.70
   0 -14   0   89.29    6.10
   0 -14   0  101.19   10.50
   0  14   0  102.09    6.70
   2  14   0  185.28   10.80
  -2 -14   0  212.68   10.00
   2 -14   0  191.18    9.80
  -2 -14   0  210.88   13.50
   2 -14   0  212.58   13.80
   2  14   0  214.48   14.10
   2 -14   0  204.08   11.80
  -2  14   0  197.28   10.80
  -2 -14   0  210.88   10.90
   4 -14   0    2.40    1.70
  -4 -14   0    5.40    2.50
   4 -14   0    0.90    2.70
   4 -14   0    3.80    2.30
   4  14   0    1.90    2.50
  -4 -14   0    2.70    1.80
  -4 -14   0    3.20    3.10
  -4 -14   0    3.00    1.60
  -4  14   0    3.00    1.90
  -6 -14   0   15.10    5.10
  -6  14   0   10.30    3.50
   6  14   0   18.10    5.30
  -6 -14   0   17.70    3.20
  -6 -14   0   26.70    5.30
   6 -14   0   16.00    2.90
   6 -14   0   14.80    5.30
  -8  14   0   25.70    6.30
  -8 -14   0   39.50    4.40
   8  14   0   29.70    7.40
  -8 -14   0   22.10    5.20
   8 -14   0   26.30    7.40
  -8 -14   0   31.20    8.40
 -10  14   0   -3.60    3.10
 -10 -14   0   -1.60    4.70
  10  14   0    8.40    7.40
  10 -14   0    2.80    4.00
 -10 -14   0    1.50    4.20
   1 -15   0  679.03   27.50
  -1  15   0  644.24   23.00
   1  15   0  701.23   24.20
  -1  15   0  677.43   21.80
  -1 -15   0  699.13   22.50
  -1 -15   0  686.03   27.40
  -1 -15   0  665.23   24.60
   1 -15   0  653.93   23.40
   1  15   0  624.54   22.80
   1  15   0  629.64   21.50
  -3 -15   0  388.76   14.80
   3 -15   0  384.46   14.70
   3 -15   0  373.16   20.00
  -3 -15   0  386.56   16.80
  -3  15   0  379.36   16.60
   3 -15   0  396.06   18.50
  -3 -15   0  403.96   20.30
   3  15   0  395.26   18.50
   5  15   0  309.97   17.40
  -5  15   0  283.67   14.40
  -5 -15   0  304.97   18.10
  -5 -15   0  312.47   15.40
   5 -15   0  311.47   17.60
  -5 -15   0  300.77   12.70
   5 -15   0  272.17   11.90
   5 -15   0  292.87   17.60
  -7 -15   0  161.08   11.10
  -7 -15   0  153.88    8.90
   7  15   0  162.98   13.20
  -7 -15   0  156.68   13.60
   7 -15   0  137.89   12.80
   9 -15   0   27.90    7.30
  -9 -15   0   39.60    4.90
  -9  15   0   32.40    8.10
   9  15   0   46.00    9.60
  -9 -15   0   31.50    6.80
  -9 -15   0   22.70    6.80
   0 -16   0  139.99   11.50
   0 -16   0  128.19    8.20
   0 -16   0  137.69    9.00
   0  16   0  146.39    9.30
   0  16   0  119.79    8.40
  -2  16   0   30.20    6.10
   2 -16   0   24.70    5.60
   2 -16   0   27.30    4.70
   2  16   0   29.40    6.00
   2 -16   0   20.70    5.70
  -2 -16   0   32.10    4.10
  -2 -16   0   21.30    4.60
  -2 -16   0   22.10    5.70
  -4 -16   0   54.89    7.90
   4 -16   0   61.29    5.60
   4 -16   0   66.19    8.70
  -4 -16   0   58.49    6.10
  -4  16   0   52.99    6.20
   4 -16   0   60.99    7.70
  -4 -16   0   59.69    5.30
   4  16   0   59.69    7.10
  -6 -16   0   31.70    6.90
   6  16   0   42.10    8.40
   6 -16   0   35.00    8.20
  -6 -16   0   46.10    5.80
   8  16   0   23.90    6.40
  -8 -16   0   34.10    7.70
  -8 -16   0   38.70    7.40
  -8 -16   0   29.10    4.60
   8 -16   0   26.80    7.10
   1  17   0   41.30    5.80
  -1  17   0   50.89    5.40
  -1 -17   0   51.69    5.40
  -1 -17   0   44.60    5.20
   1 -17   0   37.40    5.00
  -1 -17   0   54.69    7.70
  -1  17   0   48.40    5.30
   1 -17   0   56.99    6.10
   1 -17   0   55.29   10.80
   3  17   0   39.30    7.40
   3 -17   0   33.00    4.60
   3 -17   0   52.79    9.80
  -3 -17   0   39.80    4.40
  -3 -17   0   40.30    7.90
  -3  17   0   38.60    5.30
  -3 -17   0   37.40    5.10
   3 -17   0   34.80    9.00
  -5 -17   0   11.80    3.50
  -5 -17   0   24.30    4.40
   5 -17   0   15.60    5.20
   5 -17   0   17.40    5.90
   5  17   0   24.10    6.60
  -5 -17   0   21.10    6.10
  -5  17   0   17.60    5.30
  -7 -17   0   14.40    6.30
   7  17   0   13.10    5.90
  -7 -17   0   10.40    4.50
  -7 -17   0   19.40    3.50
   7 -17   0   26.40    7.30
  -9  17   0    3.90    3.60
   9  17   0    8.00    5.50
   9 -17   0    2.20    3.20
  -9 -17   0    5.70    4.90
   0 -18   0    9.00    5.40
   0 -18   0   12.50    3.10
   0 -18   0    5.50    2.90
   0  18   0    3.90    2.50
   0  18   0    7.60    2.70
   2 -18   0   -0.70    2.30
  -2 -18   0    2.40    2.40
   2 -18   0    6.80    3.40
   2  18   0    5.80    3.30
  -2  18   0    1.30    1.70
  -2 -18   0    0.60    3.10
   2 -18   0    1.90    2.00
  -2 -18   0    1.80    2.20
   4  18   0   11.00    4.40
  -4  18   0   11.80    3.90
   4 -18   0    9.00    3.60
  -4 -18   0   10.90    3.50
  -4 -18   0   16.40    5.70
  -4 -18   0   10.60    3.20
   4 -18   0    4.10    4.30
   4 -18   0    4.10    2.60
  -6 -18   0   18.30    6.70
  -6 -18   0   17.30    3.90
   6 -18   0   17.80    6.70
  -6 -18   0   10.70    4.30
   6  18   0   14.80    4.90
   8 -18   0    9.40    4.00
  -8 -18   0   -1.70    5.10
  -8 -18   0    8.10    4.20
   8  18   0   -1.80    3.10
  -1  19   0  190.58   12.30
  -1 -19   0  226.88   12.00
  -1  19   0  215.88   11.70
  -1 -19   0  193.28   11.20
   1 -19   0  210.58   11.20
  -1 -19   0  193.48   15.00
   1  19   0  212.98   12.90
   1 -19   0  222.28   12.90
   1 -19   0  212.08   15.90
  -3 -19   0  222.68   13.00
  -3 -19   0  225.28   12.50
   3 -19   0  241.68   17.00
   3  19   0  257.27   15.60
   3 -19   0  229.58   11.70
   3 -19   0  263.57   15.60
  -3 -19   0  239.28   16.90
  -5 -19   0   86.99    8.00
  -5 -19   0   92.79   10.80
   5 -19   0   79.59   16.40
  -5 -19   0   78.49    6.10
   5  19   0   81.29    9.40
  -7 -19   0  110.29   12.20
   7 -19   0  101.39   11.40
   7  19   0  131.09   12.50
  -7 -19   0  120.69   10.40
   0  20   0   42.90    5.40
   0 -20   0   41.20    9.50
   0 -20   0   41.80    5.40
  -2 -20   0   38.30    4.90
   2 -20   0   28.00    5.20
  -2 -20   0   25.90    5.90
   2  20   0   36.50    7.20
   2 -20   0   38.70    7.60
  -2 -20   0   45.00   10.20
   2 -20   0   28.50    7.60
  -4 -20   0    9.30    4.90
   4 -20   0    1.90    3.00
   4 -20   0    7.80    7.30
  -4 -20   0    8.40    2.90
  -4 -20   0   21.20    4.70
   4  20   0    8.20    5.00
   6 -20   0   46.40    9.30
  -6 -20   0   42.40   10.20
   6  20   0   42.70    9.10
   8 -20   0   -5.60    3.10
   8  20   0   10.00    4.80
  -8 -20   0   -3.60    3.80
   1 -21   0   39.30    9.10
  -1 -21   0   49.80    5.50
  -1  21   0   47.00    5.30
   1  21   0   42.30    6.10
  -1 -21   0   27.80    7.60
   1 -21   0   42.30    5.80
   1 -21   0   40.10    5.60
  -1 -21   0   41.10    5.70
  -3 -21   0   90.89    8.50
  -3 -21   0   74.39   10.10
   3 -21   0   87.89   11.10
   3 -21   0   71.79    8.40
   3  21   0   91.39    9.50
  -3 -21   0   81.79    6.80
  -5 -21   0   14.10    6.20
  -5 -21   0    5.10    3.40
   5 -21   0    6.50    4.40
  -5 -21   0    7.00    6.50
   5 -21   0    9.90    4.50
   5  21   0    4.50    3.80
   7 -21   0   53.59   10.70
  -7 -21   0   34.30   12.90
   0 -22   0  327.67   16.30
   0 -22   0  281.07   19.50
   0  22   0  337.87   16.70
  -2 -22   0   46.30   10.70
   2  22   0   21.40    6.10
  -2 -22   0   27.60    8.00
   2 -22   0   25.10    7.10
   2 -22   0   20.40    6.00
  -2 -22   0   34.10    4.60
  -4 -22   0  142.99    8.90
   4 -22   0  164.98   12.80
   4 -22   0  110.59   12.40
   4  22   0  173.88   13.70
  -4 -22   0  139.09   13.90
  -6 -22   0   24.40    6.80
   6 -22   0   25.00    6.30
   6  22   0   35.50    7.70
  -1 -23   0  162.58   15.00
  -1 -23   0  183.28   11.40
  -1  23   0  169.38   10.80
   1 -23   0  186.98   12.50
   1 -23   0  173.18   15.00
   1  23   0  208.38   13.30
  -3 -23   0  202.78   11.00
   3  23   0  206.68   14.90
  -3 -23   0  170.98   15.50
   3 -23   0  188.48   13.70
   3 -23   0  162.98   14.70
   5  23   0  101.69   11.40
   5 -23   0   85.49   10.30
  -5 -23   0  100.29   12.10
   5 -23   0   74.39   10.30
   0  24   0   14.60    4.30
   0 -24   0   10.30    4.80
   0 -24   0   13.90    4.50
   2  24   0   16.90    5.90
   2 -24   0   19.60    6.10
  -2 -24   0   14.40    5.80
   2 -24   0   10.30    4.10
  -2 -24   0   21.80    5.50
   4 -24   0   51.29    7.40
   4  24   0   35.30    6.90
  -1 -25   0    3.80    3.50
  -1 -25   0    8.20    5.00
   1 -25   0   10.80    5.00
   1  25   0    2.30    4.50
   1 -25   0    4.20    4.30
  -1  25   0    4.70    4.10
  -3 -25   0    6.40    5.90
   3 -25   0   18.30    5.20
   3 -25   0   13.90    6.30
   3  25   0    7.90    4.00
   0 -26   0    4.90    5.70
   0  26   0    3.50    3.70
   0 -26   0    2.70    4.70
  -2 -26   0   69.29   16.90
   2  26   0   51.69    9.30
   2 -26   0   51.09    9.10
   2 -26   0   51.49   12.50
  -2 -26   0   38.60   10.90
   2   0  -1    0.20    1.20
   2   0  -1    1.20    1.00
  -2   0   1    1.10    0.90
   2   0  -1    0.30    0.70
  -2   0  -1    0.90    0.90
  -2   0  -1    1.10    1.00
  -2   0  -1    0.30    0.90
  -2   0   1    0.10    0.80
   2   0  -1    0.60    0.90
  -2   0   1    0.50    0.90
   2   0   1    0.20    0.80
   2   0   1   -0.30    0.70
   2   0   1    0.70    1.10
  -2   0   1    0.90    1.30
   2   0   1    0.00    0.80
  -4   0  -1    1.20    0.90
  -4   0   1    0.60    1.00
   4   0  -1   -1.40    1.10
   4   0  -1   -1.30    1.20
   4   0   1    0.80    1.20
   4   0   1    2.00    1.40
  -4   0  -1    0.20    1.30
   4   0   1    0.30    1.10
  -4   0  -1    1.50    1.10
  -4   0   1    0.20    0.90
  -4   0  -1    4.20    2.20
  -4   0   1    0.00    1.10
  -4   0   1   -0.70    1.00
  -6   0  -1    0.50    0.90
  -6   0   1    1.60    1.00
   6   0   1   -0.20    1.20
   6   0  -1    1.20    2.00
   6   0  -1    0.60    1.20
  -6   0  -1   -0.20    1.40
  -6   0  -1   -0.70    1.30
   6   0   1   -0.40    1.50
   6   0  -1    1.90    1.40
  -6   0   1    0.50    2.30
  -6   0   1   -0.40    1.20
   8   0   1    0.50    1.70
   8   0   1    0.10    1.50
   8   0   1    0.40    2.10
   8   0  -1   -2.90    1.40
  -8   0   1   -2.60    1.40
  -8   0  -1    2.20    1.80
  -8   0   1    1.10    2.40
  -8   0  -1   -0.40    1.90
   8   0  -1    0.00    2.00
 -10   0   1    0.80    2.20
  10   0  -1    5.30    3.80
  10   0   1    2.40    2.50
  10   0  -1    4.10    2.40
  10   0   1    1.60    2.00
 -10   0  -1   -0.70    1.90
 -12   0  -1    7.70    4.80
  12   0   1   10.00    3.60
   1  -1   1   39.30    1.80
   1  -1   1   38.00    2.40
  -1  -1  -1   38.10    2.20
  -1   1   1   41.40    2.60
   1   1  -1   40.40    2.30
   1  -1   1   38.10    2.10
  -1  -1  -1   38.40    2.20
  -1   1   1   36.60    2.50
  -1   1   1   39.00    1.60
  -1  -1  -1   40.90    1.90
  -1  -1  -1   39.30    2.20
   1   1  -1   41.80    2.50
  -1   1   1   39.50    1.90
   1  -1  -1   36.80    2.50
   1   1   1   42.80    2.30
   1   1   1   40.10    2.20
   1  -1  -1   38.40    1.90
  -1   1  -1   39.30    2.20
   1   1   1   38.60    2.20
  -1  -1   1   40.20    2.50
  -1   1  -1   41.70    2.50
   1   1   1   38.40    1.90
  -1  -1   1   39.30    2.30
  -1  -1   1   40.70    2.40
  -3   1   1   26.70    3.30
  -3  -1  -1   28.60    3.00
  -3   1   1   28.80    2.30
   3   1  -1   28.00    2.90
  -3  -1  -1   32.70    3.10
   3  -1   1   29.40    3.40
  -3   1   1   25.40    3.10
  -3   1   1   29.80    2.60
  -3  -1  -1   28.60    2.90
   3   1  -1   31.60    3.50
   3   1  -1   31.60    2.90
   3  -1   1   28.90    2.80
  -3  -1  -1   28.30    2.70
  -3   1  -1   29.30    2.80
  -3  -1   1   27.50    2.70
  -3   1  -1   30.30    2.30
  -3   1  -1   25.60    3.00
   3  -1  -1   27.80    2.50
   3   1   1   27.20    2.70
  -3   1  -1   24.90    2.80
  -3  -1   1   26.50    3.10
   3   1   1   30.70    2.80
   3  -1  -1   28.40    3.50
  -3  -1   1   25.70    3.10
   3  -1  -1   29.20    2.50
   3   1   1   27.90    2.90
  -3  -1   1   30.50    2.80
   3   1   1   27.20    3.00
  -5   1   1  132.89    8.30
  -5  -1  -1  132.09    7.50
  -5  -1  -1  121.49    6.50
  -5  -1  -1  130.99    7.90
  -5   1   1  129.19    7.10
   5  -1   1  122.39    7.00
  -5   1   1  128.39    6.20
   5  -1   1  129.49    6.40
   5  -1   1  131.99    8.50
  -5  -1  -1  132.19    7.80
   5   1  -1  129.79    7.20
  -5   1   1  142.49    8.50
   5   1  -1  130.49    8.40
   5   1   1  129.99    7.40
  -5   1  -1  128.49    6.20
  -5  -1   1  136.69    7.50
  -5  -1   1  131.79    8.30
  -5   1  -1  129.49    7.90
  -5  -1   1  125.59    6.60
  -5  -1   1  137.99    8.40
   5  -1  -1  121.49    8.50
   5  -1  -1  134.09    6.90
   5   1   1  132.69    8.10
  -5   1  -1  125.19    7.60
   5  -1  -1  128.69    6.60
   5   1   1  132.69    7.10
   5   1   1  122.69    7.20
   7  -1   1   46.10    8.10
  -7   1   1   39.60    6.50
   7  -1   1   38.20    4.50
   7   1  -1   41.40    5.90
  -7  -1  -1   41.10    5.60
   7  -1   1   38.80    4.00
   7   1  -1   33.90    4.20
  -7  -1  -1   40.70    4.80
  -7  -1   1   37.50    4.80
   7  -1  -1   46.10    8.30
  -7  -1   1   42.70    7.00
  -7   1  -1   42.10    5.00
   7   1   1   47.80    8.00
   7   1   1   34.50    4.50
  -7   1  -1   42.30    5.60
   7  -1  -1   38.80    4.20
  -7   1  -1   37.90    3.60
   7   1   1   38.00    4.40
   9   1  -1   35.90    4.70
   9  -1   1   26.50    5.20
  -9   1   1   34.30    4.80
   9  -1   1   34.10    4.40
   9   1  -1   47.60    8.90
  -9  -1  -1   41.00    7.20
   9  -1   1   48.20    8.90
  -9   1   1   41.90    7.50
   9  -1  -1   44.60    4.70
  -9  -1   1   34.20    4.80
   9  -1  -1   47.20    6.70
  -9   1  -1   35.70    7.10
   9   1   1   43.30    5.10
  -9  -1   1   34.00    6.70
   9   1   1   37.50    7.70
  -9   1  -1   32.80    5.90
 -11   1   1    1.40    3.00
 -11  -1  -1   11.30    3.90
  11   1  -1   14.30    3.20
  11  -1   1   14.20    4.30
  11  -1  -1   10.40    4.60
 -11  -1   1    6.70    4.00
 -11   1  -1   10.90    3.80
  11   1   1    8.50    3.20
  11   1   1    8.20    4.20
   0  -2   1 1010.00   23.40
   0   2  -1  984.70   23.50
   0  -2  -1  976.30   22.60
   0  -2   1 1027.20   23.40
   0   2  -1 1015.50   23.30
   0   2   1  997.00   23.10
   0  -2  -1  997.70   23.00
   0  -2   1  996.40   23.40
   0  -2   1  997.10   23.50
   0   2  -1 1009.20   23.40
   0  -2  -1  968.70   22.70
   0  -2  -1 1008.50   24.10
   0   2   1 1016.60   22.80
   0  -2  -1 1034.30   22.80
   0   2   1 1020.90   24.10
   0   2   1  963.90   22.60
   0   2   1  997.00   22.80
   0   2  -1  977.60   23.50
  -2  -2  -1 4377.06   97.39
  -2   2   1 4320.67   99.29
   2  -2   1 4336.17   97.59
   2   2  -1 4249.88   98.29
  -2   2   1 4500.85   96.99
  -2   2   1 4286.97   98.99
  -2  -2  -1 4313.67   97.99
  -2  -2   1 4393.56   98.79
  -2   2  -1 4375.16   98.69
   2  -2  -1 4318.57   99.39
   2  -2  -1 4375.76   96.49
  -2  -2   1 4337.77   98.19
   2   2   1 4333.47   97.29
  -2  -2   1 4461.35   97.99
  -4   2   1  911.71   24.40
   4  -2   1  910.81   26.90
  -4  -2  -1  889.91   24.60
  -4   2   1  884.71   22.60
  -4   2   1  879.21   26.60
  -4   2   1  930.81   26.10
  -4  -2  -1  861.81   25.10
  -4  -2  -1  922.81   25.90
   4   2  -1  898.71   26.30
   4  -2   1  906.21   24.60
   4   2  -1  855.51   25.40
   4  -2   1  870.11   22.70
  -4  -2  -1  917.21   25.40
   4   2  -1  909.71   25.40
   4  -2  -1  880.81   27.00
  -4   2  -1  864.81   26.10
  -4   2  -1  896.91   24.70
  -4   2  -1  901.41   25.30
  -4  -2   1  898.61   25.00
  -4   2  -1  872.51   22.50
  -4  -2   1  888.61   24.80
   4  -2  -1  889.31   23.70
   4  -2  -1  894.81   23.00
   4   2   1  893.31   25.40
   4   2   1  850.31   25.10
   4   2   1  936.31   25.60
  -4  -2   1  906.71   26.20
   4   2   1  895.11   24.90
  -4  -2   1  866.21   26.10
   6   2  -1  586.24   21.90
  -6   2   1  585.54   21.70
   6  -2   1  623.84   22.90
  -6  -2  -1  555.54   19.10
   6  -2   1  574.04   17.70
   6  -2   1  585.24   19.60
  -6  -2  -1  565.24   20.80
  -6   2   1  562.44   17.10
  -6  -2  -1  588.24   21.40
  -6  -2  -1  603.04   20.60
  -6   2   1  599.14   19.90
   6   2  -1  612.44   20.40
   6   2   1  603.84   21.50
   6  -2  -1  584.04   18.80
  -6   2  -1  606.64   21.30
   6  -2  -1  580.94   18.00
  -6   2  -1  577.84   20.00
  -6  -2   1  560.74   19.20
  -6  -2   1  564.34   22.70
  -6  -2   1  615.24   26.50
  -6   2  -1  544.75   17.00
   6  -2  -1  587.24   22.90
   6   2   1  586.54   19.80
   6   2   1  594.04   20.70
   8   2  -1  278.57   15.60
   8  -2   1  287.07   16.30
  -8   2   1  272.37   13.70
   8   2  -1  274.57   13.70
   8  -2   1  277.37   11.70
  -8   2   1  292.37   15.90
  -8  -2  -1  275.77   14.90
  -8  -2  -1  286.77   15.80
  -8   2  -1  294.07   15.50
   8   2   1  287.57   15.30
   8  -2  -1  267.67   11.70
   8  -2  -1  284.27   16.40
  -8   2  -1  263.67   13.70
   8   2   1  274.57   13.40
  -8  -2   1  270.57   14.00
  -8   2  -1  248.48   10.80
  -8  -2   1  287.57   15.90
 -10   2   1   53.59    7.50
  10   2  -1   45.00    5.40
 -10  -2  -1   44.90    8.30
  10  -2   1   46.80   11.60
 -10  -2   1   47.20    9.30
  10   2   1   47.80    5.40
  10  -2  -1   47.70    9.80
  10   2   1   60.79    7.10
 -10   2  -1   67.39    7.90
 -12  -2  -1   27.50    7.30
 -12   2   1   23.30    5.80
 -12  -2   1   21.50    6.40
 -12   2  -1   34.90    8.10
  12  -2  -1   35.30    7.60
  -1   3   1 1925.41   42.80
   1  -3   1 1940.71   43.80
   1  -3   1 1903.01   44.40
  -1   3   1 1817.02   44.20
  -1  -3  -1 1924.21   44.70
  -1  -3  -1 1857.31   43.70
  -1   3   1 1936.81   45.20
  -1  -3  -1 1870.51   44.00
   1   3  -1 1890.21   44.20
   1   3   1 1911.41   44.50
   1  -3  -1 1906.71   42.50
  -1   3  -1 1931.21   44.30
   1   3   1 1821.32   45.20
  -1   3  -1 1931.81   43.80
   1  -3  -1 1900.01   44.40
  -1  -3   1 1868.81   43.60
  -1  -3   1 1921.91   43.80
  -1  -3   1 1893.31   44.30
  -1   3  -1 1882.51   44.40
  -1  -3   1 1934.81   44.50
   1   3   1 1872.81   43.90
  -3   3   1 1490.15   39.30
  -3   3   1 1485.95   36.50
   3   3  -1 1517.95   38.30
  -3  -3  -1 1519.75   37.30
   3  -3   1 1508.25   39.30
   3   3  -1 1439.56   38.00
  -3  -3  -1 1544.55   38.60
   3   3  -1 1515.75   38.30
  -3   3   1 1510.35   39.20
  -3  -3  -1 1471.05   37.70
   3  -3   1 1554.14   37.20
  -3   3  -1 1474.65   38.70
   3   3   1 1492.55   38.00
  -3   3  -1 1501.45   37.30
  -3   3  -1 1504.25   38.70
  -3  -3   1 1553.14   38.60
  -3  -3   1 1536.85   37.80
  -3  -3   1 1473.85   37.80
   3  -3  -1 1533.25   36.10
   3   3   1 1470.75   38.00
   3  -3  -1 1540.05   39.90
  -3  -3   1 1516.15   38.60
   3   3   1 1596.44   40.10
   3   3   1 1527.55   37.40
   5   3  -1  507.95   17.70
  -5  -3  -1  466.25   18.10
  -5   3   1  495.15   16.50
  -5  -3  -1  499.15   17.40
  -5   3   1  530.45   18.60
  -5   3   1  496.55   19.90
   5   3  -1  484.35   20.70
   5   3  -1  506.05   18.30
  -5  -3  -1  524.55   18.50
   5  -3   1  525.95   16.90
  -5  -3  -1  483.65   17.30
   5  -3   1  502.15   19.40
  -5   3   1  489.85   19.10
   5   3   1  504.15   17.60
  -5  -3   1  486.45   18.20
  -5  -3   1  508.05   17.50
  -5   3  -1  507.45   18.80
   5  -3  -1  498.95   19.50
  -5   3  -1  506.25   17.00
   5   3   1  481.45   17.20
  -5  -3   1  519.15   18.70
  -5   3  -1  481.25   18.30
   5   3   1  499.45   17.60
   5  -3  -1  515.25   15.80
  -5   3  -1  493.05   17.60
   5   3   1  449.26   17.00
  -7  -3  -1  127.69    9.50
   7  -3   1  130.89   10.30
  -7   3   1  132.99    8.50
  -7   3   1  139.49    9.90
  -7  -3  -1  121.19    8.50
   7   3  -1  130.09    8.80
   7   3  -1  123.79    9.30
   7   3   1  122.39    8.50
  -7   3  -1  128.79    8.50
   7   3   1  121.69   10.60
   7  -3  -1  125.29   10.40
  -7   3  -1  134.29    9.50
   7  -3  -1  122.79    7.40
  -7  -3   1  141.69   10.20
  -7  -3   1  129.29    8.70
  -9   3   1   54.99    7.40
   9  -3   1   49.10    6.00
   9  -3   1   63.39    8.00
  -9   3   1   69.59    6.90
   9   3  -1   53.39    6.30
  -9  -3  -1   58.19    7.30
  -9   3  -1   45.30    6.60
  -9  -3   1   47.50    6.80
  -9   3  -1   49.00    6.80
  -9  -3   1   55.19    7.40
   9   3   1   63.09    7.10
   9  -3  -1   59.19    8.10
   9   3   1   66.89    6.70
 -11  -3  -1    6.90    4.00
  11  -3   1    9.20    4.80
 -11   3   1    8.60    4.10
  11   3  -1   14.40    4.00
  11  -3  -1    7.00    4.40
 -11   3  -1   10.30    4.50
 -11  -3   1   10.00    4.00
  11   3   1    2.30    3.60
   0  -4  -1 3821.32   88.49
   0  -4  -1 4100.09   91.19
   0  -4   1 4065.59   89.09
   0   4  -1 4033.30   89.29
   0   4   1 3896.01   88.49
   0   4  -1 3985.70   89.89
   2  -4   1  489.25   14.00
  -2   4   1  500.15   16.00
   2  -4   1  486.35   15.20
   2   4  -1  504.25   15.30
  -2  -4  -1  506.75   15.30
  -2   4   1  471.15   15.10
  -2   4   1  512.95   13.50
   2   4  -1  470.65   14.80
  -2  -4  -1  426.76   18.00
  -2  -4  -1  498.75   13.40
   2  -4   1  493.35   15.50
  -2  -4   1  499.75   15.20
  -2  -4   1  494.75   14.00
  -2  -4   1  511.35   14.80
   2  -4  -1  505.15   13.00
   2   4   1  489.25   15.00
  -2  -4   1  496.15   14.90
   2  -4  -1  468.95   15.70
   2   4   1  493.35   14.70
  -2   4  -1  501.05   14.20
  -2   4  -1  492.75   15.20
  -2   4  -1  490.05   15.20
   2  -4  -1  492.65   15.60
  -4  -4  -1  712.63   22.20
   4  -4   1  714.53   23.20
  -4   4   1  694.93   19.90
   4  -4   1  704.23   20.20
  -4  -4  -1  677.23   20.50
  -4   4   1  667.53   22.70
  -4  -4  -1  658.03   20.90
  -4  -4  -1  689.33   21.10
   4   4  -1  710.93   21.90
   4  -4  -1  700.53   19.20
  -4  -4   1  679.43   22.00
  -4   4  -1  678.03   22.10
   4   4   1  687.03   20.50
  -4   4  -1  721.53   24.10
   4   4   1  665.23   21.30
   4   4   1  697.33   21.50
  -4  -4   1  691.73   21.30
   4  -4  -1  728.43   23.60
  -4  -4   1  692.03   21.10
   4   4   1  720.73   21.60
  -4   4  -1  688.23   20.50
  -4  -4   1  705.03   21.80
   6   4  -1  273.67   13.10
  -6   4   1  290.67   12.30
  -6  -4  -1  274.67   12.70
   6   4  -1  284.27   13.60
  -6  -4  -1  272.77   12.70
   6  -4  -1  277.47   14.90
  -6   4  -1  288.07   13.50
   6   4   1  288.37   13.10
   6   4   1  284.97   13.10
   6  -4  -1  276.87   11.10
   6   4   1  264.87   12.70
  -6  -4   1  273.77   12.80
  -6   4  -1  279.57   12.60
  -6  -4   1  288.37   14.20
   8  -4   1   49.90    7.00
  -8   4   1   51.69    5.60
  -8  -4  -1   52.29    6.80
   8  -4   1   51.49    5.40
  -8  -4  -1   52.19    5.60
   8   4  -1   62.89    6.60
  -8   4   1   47.70    8.10
   8   4   1   46.30    5.80
  -8  -4   1   54.99    7.20
   8  -4  -1   38.50    4.50
   8  -4  -1   57.69    7.60
  -8   4  -1   56.09    5.60
  -8   4  -1   55.09    6.50
   8   4   1   50.09    6.10
  -8  -4   1   47.70    5.60
 -10  -4  -1   38.60    8.20
  10   4  -1   40.40    7.40
 -10   4   1   40.20    8.50
  10  -4   1   31.90    7.30
  10   4   1   37.10    6.80
 -10   4  -1   28.80    6.40
 -10  -4   1   33.30    8.20
  10  -4  -1   32.30    8.30
   1  -5   1 1491.65   34.30
   1   5  -1 1465.15   35.90
   1   5  -1 1518.95   36.80
   1  -5   1 1502.85   37.40
  -1   5   1 1489.45   35.10
  -1   5   1 1500.95   37.80
  -1  -5  -1 1509.25   34.30
  -1  -5  -1 1482.15   35.90
  -1   5   1 1441.56   36.10
  -1  -5  -1 1488.15   37.30
   1  -5   1 1454.15   36.70
   1   5  -1 1490.55   36.60
  -1  -5  -1 1489.25   35.60
   1  -5   1 1483.55   35.80
   1   5  -1 1480.95   35.70
  -1  -5  -1 1417.16   35.90
  -1  -5   1 1450.85   36.80
   1  -5  -1 1465.35   36.40
   1   5   1 1491.75   34.20
  -1  -5   1 1453.95   36.30
   1  -5  -1 1489.35   38.00
  -1   5  -1 1511.35   35.90
  -1  -5   1 1501.65   35.70
   1   5   1 1445.26   36.10
   1  -5  -1 1502.45   34.60
   1   5   1 1487.35   37.10
  -1   5  -1 1471.45   34.60
  -1   5  -1 1522.35   37.10
  -1   5  -1 1476.65   36.60
  -3  -5  -1 1214.48   33.10
  -3   5   1 1285.87   31.60
  -3  -5  -1 1278.17   33.00
  -3   5   1 1236.48   34.10
   3   5  -1 1237.58   33.80
   3  -5   1 1281.17   32.00
  -3  -5  -1 1267.27   31.80
  -3  -5  -1 1269.37   34.00
   3   5  -1 1234.68   33.60
   3  -5   1 1248.98   34.60
  -3   5   1 1281.97   35.10
  -3   5  -1 1281.07   32.40
  -3   5  -1 1274.07   34.30
   3  -5  -1 1295.67   30.80
   3  -5  -1 1315.47   35.10
   3   5   1 1287.17   33.70
  -3   5  -1 1210.18   33.90
  -3  -5   1 1241.28   33.20
   3   5   1 1201.48   33.30
  -3  -5   1 1285.87   33.40
  -3  -5   1 1266.07   34.10
  -3  -5   1 1211.08   33.20
  -5  -5  -1  314.27   12.70
  -5   5   1  327.37   13.90
  -5  -5  -1  283.37   12.50
   5   5  -1  323.27   14.00
  -5  -5  -1  318.67   14.10
  -5  -5  -1  308.07   13.10
  -5   5   1  299.07   11.90
   5  -5   1  298.67   14.70
  -5  -5   1  285.87   12.70
  -5  -5   1  311.27   14.20
   5   5   1  310.07   13.50
   5  -5  -1  324.07   15.30
   5  -5  -1  300.97   11.00
  -5  -5   1  321.57   13.20
  -5   5  -1  298.57   13.80
  -5  -5   1  291.67   13.20
  -5   5  -1  332.37   13.50
  -5   5  -1  301.67   12.30
  -7   5   1  335.07   14.80
  -7  -5  -1  371.26   17.50
   7  -5   1  348.87   18.10
  -7   5   1  366.86   17.20
   7   5  -1  356.16   16.40
  -7  -5  -1  329.47   15.70
   7  -5   1  332.67   14.00
  -7  -5   1  353.76   17.40
  -7   5  -1  325.57   14.90
   7   5   1  345.27   16.00
  -7  -5   1  325.67   15.20
   7  -5  -1  337.87   13.10
  -7   5  -1  343.57   16.30
   7  -5  -1  343.07   18.10
  -9  -5  -1   35.70    7.60
  -9   5   1   19.70    5.40
   9   5  -1   33.30    6.60
  -9   5   1   30.20    6.70
   9  -5   1   34.80    8.40
   9  -5   1   34.10    7.50
  -9  -5   1   36.40    7.50
   9   5   1   34.80    6.70
  -9   5  -1   34.80    6.70
   9  -5  -1   37.20    7.80
 -11   5   1   46.10    9.30
  11   5  -1   21.20    5.80
  11  -5   1   28.30    6.70
 -11   5  -1   28.50    7.00
  11   5   1   38.80    7.40
  11  -5  -1   18.60    5.70
 -11  -5   1   21.20    5.70
   0  -6   1 1567.84   39.50
   0   6  -1 1582.24   39.00
   0   6   1 1594.34   39.80
   0   6  -1 1588.04   37.90
   0  -6   1 1571.74   38.10
   0  -6  -1 1569.74   40.20
   0   6  -1 1585.74   38.20
   0   6   1 1537.55   37.30
   0   6   1 1569.44   37.60
   0  -6   1 1573.34   37.50
   0  -6  -1 1509.75   37.10
   0  -6   1 1523.45   38.00
   0   6  -1 1527.05   38.00
   0   6   1 1525.75   37.10
  -2  -6  -1 1442.86   35.70
  -2  -6  -1 1434.96   33.70
  -2  -6  -1 1414.36   37.40
   2   6  -1 1390.46   36.70
   2   6  -1 1462.85   37.20
   2  -6   1 1424.16   37.40
   2  -6   1 1432.66   35.40
  -2   6   1 1406.46   34.70
  -2   6   1 1440.56   38.20
  -2   6   1 1367.36   36.50
   2  -6   1 1392.46   37.20
  -2   6  -1 1461.95   37.40
  -2   6  -1 1398.16   36.80
   2   6   1 1421.96   36.80
   2  -6  -1 1443.66   38.40
   2  -6  -1 1415.86   34.00
   2   6   1 1396.06   36.90
  -2  -6   1 1462.45   36.00
  -2  -6   1 1410.96   36.60
   2  -6  -1 1420.96   37.20
  -2  -6   1 1461.45   35.30
  -2   6  -1 1434.16   35.70
  -2  -6   1 1419.76   37.30
  -4  -6  -1  600.44   18.30
  -4   6   1  594.44   18.10
  -4  -6  -1  624.34   20.70
   4  -6   1  559.34   18.00
  -4   6   1  583.14   20.50
   4  -6   1  602.64   21.40
  -4   6   1  578.34   21.10
  -4  -6  -1  596.04   19.40
  -4  -6  -1  564.44   19.30
   4   6  -1  606.24   20.50
   4   6  -1  557.14   19.50
  -4  -6   1  572.84   19.50
   4  -6  -1  583.74   21.20
  -4  -6   1  602.24   19.60
  -4   6  -1  593.94   18.60
   4   6   1  593.94   20.10
  -4   6  -1  577.54   20.60
  -4  -6   1  606.14   20.60
  -4   6  -1  589.24   20.50
   4   6   1  562.44   19.60
   4  -6  -1  603.04   17.00
  -4  -6   1  580.44   19.30
  -6  -6  -1  386.96   15.20
  -6  -6  -1  355.86   16.50
   6   6  -1  337.77   17.50
  -6  -6  -1  355.16   15.30
  -6   6   1  364.86   16.40
   6  -6   1  363.46   17.80
  -6   6   1  350.66   14.20
   6  -6   1  332.27   15.90
   6  -6  -1  348.07   17.70
   6   6   1  382.06   17.00
  -6  -6   1  344.57   16.60
  -6   6  -1  363.86   19.30
  -6   6  -1  342.57   14.60
  -6  -6   1  345.77   15.40
   8  -6   1   99.39   10.00
  -8   6   1   91.59    7.70
   8   6  -1   87.29    8.40
  -8   6   1  101.39    9.20
   8  -6   1  102.29    7.20
  -8  -6  -1  101.39    9.40
   8  -6  -1   95.69    9.90
   8  -6  -1   83.49    6.20
  -8  -6   1   99.99    9.40
  -8  -6   1   89.79    7.90
  -8   6  -1  100.49    7.90
   8   6   1  102.49    8.90
  -8   6  -1   95.69    8.70
 -10  -6  -1   89.09   10.00
  10  -6   1   70.49    9.00
  10   6  -1   66.09    7.90
 -10   6   1   65.19    8.40
 -10   6  -1   72.29    8.40
  10   6   1   54.79    7.10
 -10  -6   1   67.29    8.70
  10  -6  -1   74.19    9.50
  -1  -7  -1  181.98    8.90
   1  -7   1  170.38    8.00
   1  -7   1  167.58    8.70
   1  -7   1  181.08    7.60
  -1   7   1  170.88    6.20
   1   7  -1  173.48    8.00
   1   7  -1  172.48    7.20
  -1   7   1  180.78    7.20
  -1  -7  -1  180.38    7.50
  -1   7   1  180.78    9.00
  -1   7   1  166.68    7.40
   1   7  -1  180.98    8.40
   1  -7   1  171.28    6.30
  -1  -7  -1  182.18    7.40
   1   7  -1  176.98    8.70
  -1  -7  -1  173.68    7.50
  -1  -7   1  179.88    7.40
  -1   7  -1  183.98    8.50
   1  -7  -1  172.08    6.00
   1   7   1  170.58    6.50
   1   7   1  170.28    7.30
  -1   7  -1  178.28    7.60
  -1  -7   1  187.08    8.80
  -1  -7   1  168.48    7.50
   1   7   1  172.58    8.40
  -1   7  -1  169.28    7.70
  -1  -7   1  179.08    7.70
   1  -7  -1  172.68    7.80
   1  -7  -1  181.98    9.40
   1  -7  -1  186.78    6.80
   1   7   1  183.18    7.90
  -3   7   1  174.68    9.00
  -3  -7  -1  184.28    7.60
  -3  -7  -1  181.28    7.00
   3  -7   1  179.58    9.60
  -3   7   1  173.28    7.60
  -3  -7  -1  180.48    8.60
   3  -7   1  192.68   10.00
  -3   7   1  183.38   10.00
  -3  -7  -1  168.08    9.30
   3   7  -1  180.18    9.40
   3  -7   1  185.38    7.90
  -3  -7   1  183.08    8.60
   3  -7  -1  189.18   10.00
  -3  -7   1  177.68    7.80
  -3   7  -1  177.88    9.40
  -3   7  -1  185.08    8.30
  -3  -7   1  192.08    9.10
   3  -7  -1  176.38    7.00
   3   7   1  184.08   10.20
   3  -7  -1  188.28   10.30
  -3  -7   1  181.28    9.70
   3   7   1  183.88    9.20
   5  -7   1  283.87   14.60
  -5  -7  -1  259.97   11.40
  -5  -7  -1  269.87   12.50
  -5   7   1  274.97   11.40
   5   7  -1  282.77   13.70
  -5  -7  -1  284.87   13.80
  -5  -7   1  269.47   12.40
  -5  -7   1  269.47   12.50
   5  -7  -1  277.47   14.70
   5  -7  -1  277.77   10.30
  -5   7  -1  270.07   11.90
   5   7   1  261.47   13.10
  -5  -7   1  265.47   13.60
   7   7  -1  112.29    9.20
  -7  -7  -1  125.79    9.90
   7  -7   1  109.19    7.30
  -7   7   1  108.19    7.90
  -7   7   1  107.59    9.10
   7  -7   1  119.19   10.50
  -7   7  -1  105.09    8.80
  -7  -7   1  114.89    8.90
   7  -7  -1  102.49    6.30
   7   7   1  116.39    9.20
  -7   7  -1  106.99    8.00
  -7  -7   1  121.49   10.00
   7  -7  -1  122.49   10.50
  -9  -7  -1   36.80    7.20
   9   7  -1   39.10    7.40
   9  -7   1   33.40    8.30
  -9   7   1   46.90    8.20
  -9   7  -1   42.80    6.10
   9   7   1   50.99    8.80
  11   7  -1   16.70    4.80
 -11  -7  -1   30.70    7.80
  11  -7   1   20.70    6.80
 -11   7   1   17.40    6.80
 -11   7  -1   21.90    5.90
  11   7   1   13.60    4.30
 -11  -7   1   22.30    6.50
  11  -7  -1   14.50    5.00
   0  -8  -1  525.55   15.70
   0   8   1  547.85   16.40
   0  -8   1  529.65   16.00
   0   8  -1  535.05   17.80
   0   8  -1  550.34   16.60
   0  -8  -1  514.95   15.80
   0  -8   1  561.04   18.60
   0  -8  -1  557.14   19.20
   0   8   1  561.14   16.20
   0  -8   1  531.35   16.80
   0   8  -1  543.15   16.60
   0   8   1  536.95   18.30
   0   8   1  541.75   15.90
   0  -8   1  564.64   16.90
   0   8  -1  532.15   16.70
  -2  -8  -1   60.79    5.50
  -2   8   1   52.99    4.30
  -2  -8  -1   49.40    4.20
   2  -8   1   51.99    4.00
   2  -8   1   58.49    5.50
  -2   8   1   53.29    5.10
   2   8  -1   45.50    4.60
  -2  -8  -1   53.69    4.30
  -2  -8  -1   55.59    3.50
   2  -8   1   52.79    4.90
  -2  -8  -1   59.99    4.50
  -2   8   1   55.49    4.00
   2   8  -1   48.10    4.40
  -2   8  -1   53.49    4.60
   2  -8  -1   56.79    3.60
  -2  -8   1   52.39    4.30
  -2   8  -1   44.70    3.90
   2   8   1   49.60    4.60
   2   8   1   56.59    4.80
  -2  -8   1   53.09    5.20
  -2   8  -1   44.50    4.50
   2  -8  -1   51.49    5.60
  -2  -8   1   52.69    4.00
   2  -8  -1   50.39    4.80
  -2  -8   1   42.80    4.00
   4  -8   1  153.28    9.90
  -4  -8  -1  142.59    6.60
   4   8  -1  145.49    9.30
  -4  -8  -1  141.59    8.00
  -4  -8  -1  128.49    6.90
  -4  -8  -1  138.39    9.10
  -4   8   1  141.69    7.40
  -4   8  -1  125.49    7.40
  -4  -8   1  140.49    7.30
  -4  -8   1  133.89    8.20
   4  -8  -1  141.69    6.50
  -4   8  -1  144.39    9.00
   4   8   1  141.89    9.00
  -4  -8   1  137.59    8.00
  -4  -8   1  144.09    9.40
   4  -8  -1  152.28    9.90
   6  -8   1   29.10    6.80
  -6  -8  -1   27.90    5.00
  -6  -8  -1   23.10    3.30
   6   8  -1   28.20    5.90
   6  -8   1   25.10    3.40
  -6   8   1   30.10    3.80
  -6  -8  -1   29.70    6.40
   6  -8  -1   29.60    3.10
   6   8   1   32.90    6.10
  -6  -8   1   25.00    5.20
  -6   8  -1   29.00    5.20
  -6  -8   1   28.40    4.10
   6  -8  -1   33.30    7.20
  -6  -8   1   31.00    4.50
  -8  -8  -1    8.20    3.20
   8   8  -1    6.50    3.30
  -8   8   1   -1.00    2.00
   8  -8   1   10.20    3.30
  -8   8   1    1.00    2.40
   8  -8   1    1.10    2.30
   8   8   1    1.40    2.00
  -8   8  -1    3.90    2.20
  -8  -8   1    5.10    3.10
  -8   8  -1    0.10    1.90
   8  -8  -1    5.10    3.80
 -10   8   1   10.30    4.10
  10  -8   1   19.00    6.00
 -10  -8  -1    5.10    3.10
  10   8  -1   12.50    4.60
 -10  -8   1    5.60    3.70
  10   8   1    3.40    3.40
  10  -8  -1   10.80    5.20
 -10  -8   1    4.20    3.60
 -10   8  -1   13.30    4.10
  -1   9   1  600.54   18.10
   1   9  -1  579.34   17.80
   1   9  -1  596.24   19.00
   1  -9   1  564.84   16.30
  -1  -9  -1  588.84   16.90
  -1   9   1  555.14   20.00
  -1   9   1  563.44   18.00
  -1  -9  -1  578.74   18.00
  -1   9   1  612.94   16.70
   1  -9   1  594.54   19.10
   1  -9   1  607.44   18.30
   1   9  -1  584.84   19.50
  -1  -9  -1  616.64   18.20
   1  -9   1  605.84   20.80
   1   9  -1  568.64   18.30
   1   9   1  596.34   18.70
   1   9   1  578.14   19.80
   1  -9  -1  593.64   21.20
  -1  -9   1  573.84   17.90
   1  -9  -1  584.64   18.60
  -1   9  -1  569.24   18.50
  -1   9  -1  598.34   17.20
  -1  -9   1  576.84   18.20
  -1   9  -1  591.94   19.90
   1   9   1  554.74   16.50
   1  -9  -1  573.34   16.00
  -1  -9   1  612.24   20.50
   1  -9  -1  599.04   17.20
  -1  -9   1  594.54   18.60
  -1   9  -1  598.54   18.60
  -3   9   1  352.56   12.60
  -3  -9  -1  348.27   15.10
  -3   9   1  321.07   14.80
   3  -9   1  354.36   15.10
  -3   9   1  321.47   13.80
  -3  -9  -1  331.57   12.90
  -3  -9  -1  335.57   13.30
  -3  -9  -1  332.07   11.80
   3   9  -1  332.17   14.50
   3  -9   1  316.37   12.10
  -3  -9  -1  348.67   11.20
   3   9  -1  307.07   13.60
  -3  -9  -1  326.07   13.50
   3  -9   1  341.47   15.00
   3   9   1  346.97   14.40
   3   9   1  331.97   14.20
   3  -9  -1  348.37   14.80
  -3   9  -1  329.57   14.50
  -3  -9   1  327.97   13.60
   3  -9  -1  342.77   15.70
  -3  -9   1  347.37   13.30
  -3  -9   1  322.97   14.50
  -3  -9   1  353.66   12.50
  -3   9  -1  313.77   13.70
   3  -9  -1  318.67   11.00
  -3   9  -1  338.17   13.00
  -3  -9   1  321.27   13.60
  -5  -9  -1  253.27   12.20
   5   9  -1  253.77   13.70
  -5  -9  -1  256.87   11.20
  -5   9   1  248.78   11.40
  -5  -9  -1  257.47   10.30
   5  -9   1  254.97   10.90
  -5  -9  -1  250.17   13.70
   5  -9   1  245.08   14.20
  -5  -9   1  256.47   11.20
   5  -9  -1  255.37   10.30
   5   9   1  249.18   13.30
   5  -9  -1  249.18   14.30
  -5  -9   1  255.47   12.50
  -5  -9   1  255.47   14.00
  -5  -9   1  238.98   11.90
   7   9  -1  129.89   10.50
  -7  -9  -1  142.79    8.30
   7  -9   1  139.69    8.40
   7  -9   1  145.49   12.10
  -7   9   1  139.99    9.10
  -7  -9  -1  144.99   11.40
  -7   9   1  150.88   11.10
  -7  -9   1  146.09    9.00
   7   9   1  141.09   10.90
   7  -9  -1  139.99    7.20
  -7  -9   1  118.99   11.20
  -7   9  -1  124.09    9.00
   7  -9  -1  147.89   12.30
  -7  -9   1  142.69   11.20
  -7   9  -1  149.49   10.60
   9  -9   1   46.80    9.80
  -9  -9  -1   44.40    8.70
  -9   9   1   54.89   10.20
  -9  -9  -1   52.99    5.60
   9   9  -1   46.80    8.40
   9   9   1   43.30    8.40
  -9   9  -1   55.59    7.30
   9  -9  -1   64.09   11.60
  -9  -9   1   51.99    5.90
  -9  -9   1   63.79   11.40
  11   9  -1   22.80    6.00
  11  -9   1   12.10    9.20
 -11   9   1   20.00    5.40
 -11  -9  -1   28.70    5.70
 -11  -9  -1    4.70    5.30
  11   9   1   31.10    7.00
 -11   9  -1   23.50    6.40
 -11  -9   1   13.40    4.10
   0 -10  -1 1726.03   43.50
   0  10  -1 1706.53   44.10
   0 -10   1 1656.23   43.00
   0 -10   1 1760.42   47.50
   0 -10  -1 1681.23   42.80
   0  10   1 1798.52   43.90
   0  10   1 1725.03   43.30
   0  10  -1 1690.63   46.10
   0 -10  -1 1798.72   48.30
   0  10   1 1780.22   47.90
   0  10   1 1712.33   44.00
   0 -10   1 1770.92   44.60
   0  10  -1 1709.53   44.50
   0 -10   1 1753.92   44.40
   0  10  -1 1756.72   44.20
  -2 -10  -1  707.53   22.50
  -2 -10  -1  715.83   22.50
  -2  10   1  726.73   21.70
   2 -10   1  712.63   21.60
  -2 -10  -1  738.13   25.00
   2 -10   1  736.33   23.80
   2  10  -1  742.73   23.90
  -2 -10  -1  803.22   28.30
   2 -10   1  750.82   25.30
   2  10  -1  675.03   21.00
   2  10  -1  698.23   23.50
  -2  10   1  697.93   24.60
  -2 -10  -1  732.73   20.20
   2  10   1  728.73   23.30
   2 -10  -1  754.52   26.00
  -2  10  -1  720.23   22.20
  -2 -10   1  727.13   24.60
  -2  10  -1  713.23   23.00
  -2 -10   1  737.43   21.60
   2 -10  -1  720.83   20.40
   2 -10  -1  739.63   23.60
  -2 -10   1  676.03   22.50
  -2 -10   1  754.62   22.70
  -2  10  -1  727.03   24.90
  -4 -10  -1  673.13   19.60
  -4 -10  -1  678.23   28.00
   4 -10   1  668.83   24.80
  -4  10   1  658.43   21.20
   4 -10   1  662.33   26.70
  -4 -10  -1  672.93   22.60
  -4 -10  -1  667.33   22.10
  -4 -10  -1  649.83   20.40
   4 -10  -1  673.93   25.60
  -4 -10   1  671.03   22.20
  -4  10  -1  642.04   22.10
  -4 -10   1  672.83   23.00
   4 -10  -1  689.83   25.00
  -4 -10   1  681.13   21.00
   4 -10  -1  624.84   19.30
   6 -10   1  316.97   17.80
  -6 -10  -1  349.47   13.10
   6  10  -1  339.87   17.30
   6 -10   1  322.87   13.30
  -6 -10  -1  320.07   13.90
  -6  10   1  331.27   14.50
  -6 -10  -1  331.97   17.30
   6  10   1  333.67   17.00
  -6 -10   1  335.77   15.70
   6 -10  -1  332.77   18.20
  -6 -10   1  310.07   17.00
  -6 -10   1  334.27   14.00
   6 -10  -1  332.57   12.10
  -6  10  -1  318.97   14.60
   8 -10   1   93.09   10.10
  -8 -10  -1  109.09    7.40
  -8 -10  -1  102.49   10.00
   8  10  -1  101.89    9.70
  -8  10   1  102.79    9.60
   8 -10   1   84.09    6.50
  -8  10   1   89.99    8.20
  -8  10  -1   70.99    7.80
  -8 -10   1  102.09    7.60
  -8 -10   1   94.59   10.00
  -8  10  -1  107.99    9.60
   8 -10  -1  102.49   10.60
   8  10   1   90.19    9.10
 -10 -10  -1   66.89    8.90
  10 -10   1   66.19    9.60
 -10  10   1   77.09    9.20
 -10 -10  -1   73.39    6.90
  10  10  -1   60.09    8.10
  10  10   1   54.99    7.80
 -10 -10   1   84.09    9.70
 -10 -10   1   57.79    8.40
 -10  10  -1   71.39    8.00
  10 -10  -1   67.09   12.80
   1  11  -1   64.89    5.50
   1  11  -1   59.79    5.10
  -1 -11  -1   54.79    4.30
   1 -11   1   56.29    5.20
  -1  11   1   58.29    4.60
  -1  11   1   58.19    4.80
  -1  11   1   54.29    5.60
   1 -11   1   66.99    6.70
   1 -11   1   64.99    5.10
  -1 -11  -1   61.59    4.90
   1 -11   1   58.39    4.00
  -1 -11  -1   53.69    6.20
  -1  11   1   61.59    4.30
   1  11  -1   63.19    4.80
   1  11  -1   55.69    5.30
  -1 -11   1   56.99    5.10
  -1 -11   1   61.79    5.00
  -1 -11   1   61.49    6.50
   1 -11  -1   56.39    4.30
  -1 -11   1   52.59    5.10
  -1  11  -1   61.79    5.10
  -1  11  -1   55.59    5.50
  -1  11  -1   56.49    5.00
   1 -11  -1   54.69    3.70
   1 -11  -1   62.39    6.70
  -1  11  -1   50.39    4.30
   1  11   1   56.99    5.60
   1  11   1   70.49    8.40
   1 -11  -1   56.09    5.10
   1  11   1   57.09    5.20
   1  11   1   56.39    4.20
   3 -11   1   58.49    6.30
  -3 -11  -1   47.10    4.70
  -3 -11  -1   46.40    5.90
  -3 -11  -1   50.59    4.00
   3 -11   1   50.29    6.20
   3  11  -1   50.19    5.90
  -3  11   1   50.39    4.60
  -3 -11  -1   53.29    5.00
   3 -11  -1   50.79    5.80
  -3 -11   1   45.30    4.90
  -3  11  -1   38.10    5.40
   3  11   1   49.99    5.70
  -3 -11   1   54.19    4.60
  -3 -11   1   48.60    5.00
  -3 -11   1   47.50    6.10
   3 -11  -1   49.99    3.90
   3 -11  -1   51.29    6.40
  -5 -11  -1   15.50    3.60
  -5  11   1   21.20    4.30
   5  11  -1   18.30    5.00
  -5 -11  -1   24.30    6.40
   5 -11   1   21.50    3.90
   5 -11   1   24.40    6.50
  -5 -11  -1   21.10    3.60
  -5 -11  -1   21.50    3.90
  -5  11  -1   13.40    3.30
   5 -11  -1   18.80    2.60
  -5 -11   1   20.60    5.60
  -5 -11   1   27.40    5.50
   5 -11  -1   26.30    6.10
  -5 -11   1   21.40    4.40
   5  11   1   19.70    5.50
  -5 -11   1   29.60    5.20
  -5 -11   1   15.00    4.10
  -7 -11  -1   26.50    6.50
  -7  11   1   29.20    5.30
   7 -11   1   22.60    4.20
  -7 -11  -1   26.60    3.50
   7 -11   1   25.70    6.50
   7  11  -1   28.20    6.40
   7 -11  -1   26.20    6.70
  -7 -11   1   29.40    4.10
  -7  11  -1   23.40    4.50
  -7 -11   1   15.40    4.50
   7  11   1   24.80    6.40
  -7  11  -1   20.90    5.30
  -7 -11   1   25.50    5.30
  -9 -11  -1   -2.50    2.20
  -9  11   1    2.00    2.50
  -9 -11  -1    0.80    1.80
   9 -11   1    1.10    2.90
   9  11  -1    4.40    3.00
  -9 -11   1    8.00    3.50
  -9 -11   1    4.00    1.90
   9 -11  -1    1.20    2.70
   9  11   1    1.10    2.10
  -9  11  -1    4.10    3.00
  11 -11   1    2.90    3.60
 -11 -11  -1    2.00    3.60
 -11  11   1    8.00    4.30
 -11 -11   1    2.60    3.80
 -11 -11   1   -1.80    4.40
 -11 -11   1   -0.80    3.20
  11 -11  -1    7.60    3.70
   0  12   1  476.35   16.70
   0  12  -1  435.06   16.50
   0  12   1  482.75   16.50
   0  12   1  452.15   15.80
   0 -12   1  437.06   15.50
   0 -12  -1  438.16   15.30
   0 -12  -1  478.35   20.10
   0 -12   1  481.65   19.80
   0 -12  -1  459.25   16.10
   0  12  -1  479.55   17.20
   0  12  -1  475.65   16.90
   0  12  -1  460.75   19.90
   0 -12   1  465.55   16.90
   0 -12   1  494.05   19.40
  -2 -12  -1  614.74   23.70
  -2 -12  -1  607.64   18.30
   2 -12   1  591.64   19.50
  -2  12   1  606.14   20.00
   2 -12   1  585.74   21.50
   2  12  -1  632.34   22.10
  -2 -12  -1  572.94   20.20
   2 -12   1  615.14   23.60
   2  12  -1  571.64   18.90
  -2  12   1  556.94   20.10
   2  12   1  568.14   17.70
  -2 -12   1  602.54   20.60
   2 -12  -1  637.44   24.50
   2 -12  -1  630.94   21.70
  -2 -12   1  610.04   19.60
   2 -12  -1  587.34   18.20
  -2 -12   1  615.94   23.20
   2  12   1  576.14   21.00
  -2  12  -1  571.44   20.10
   4 -12   1  242.08   14.20
  -4  12   1  241.88   11.60
  -4 -12  -1  255.37   10.90
  -4 -12  -1  256.57   14.70
  -4 -12  -1  253.77   10.20
   4  12  -1  252.87   14.10
  -4 -12  -1  245.08   12.10
   4 -12   1  251.77   11.10
   4 -12   1  241.98   14.70
  -4 -12   1  250.77   12.20
  -4 -12   1  246.98   12.40
  -4 -12   1  259.27   14.70
  -4 -12   1  265.47   11.40
   4  12   1  265.77   14.10
   4 -12  -1  254.57   14.20
   4 -12  -1  234.18   14.70
  -4  12  -1  250.97   12.10
  -4 -12   1  231.98   12.40
   4 -12  -1  232.98   10.10
  -6 -12  -1   81.59    5.80
   6 -12   1   81.19    5.90
  -6 -12  -1   81.29    7.20
  -6 -12  -1   69.09    6.00
   6  12  -1   89.29    8.90
   6 -12   1   72.99    8.70
  -6 -12  -1   78.49    8.70
  -6  12   1   78.29    6.80
  -6 -12   1   76.69    7.40
   6 -12  -1   86.59    9.10
  -6  12  -1   70.69    6.70
  -6 -12   1   81.29    8.70
  -6 -12   1   80.19    6.70
   6  12   1   82.69    8.50
   6 -12  -1   77.29    5.10
  -8 -12  -1   44.80    9.40
  -8 -12  -1   46.10    8.10
  -8 -12  -1   35.80    4.30
   8 -12   1   42.40    9.30
  -8  12   1   43.40    9.10
  -8 -12   1   37.80    5.40
  -8 -12   1   36.50    4.90
   8 -12  -1   36.70    8.00
  -8 -12   1   28.20    6.80
  -8  12  -1   35.30    7.00
 -10 -12  -1   15.90    7.70
 -10 -12  -1   17.20    6.10
  10  12  -1   15.10    5.90
 -10 -12  -1   16.40    4.00
 -10  12   1   25.90    7.10
  10 -12   1   26.70    7.00
  10 -12  -1   28.10    7.60
 -10 -12   1   16.40    4.40
 -10  12  -1   25.40    6.60
 -10 -12   1   23.70    6.30
 -10 -12   1   25.50    5.10
  10  12   1   19.00    5.40
   1 -13   1  279.77   12.00
  -1  13   1  283.37   11.20
   1  13  -1  285.87   13.20
  -1 -13  -1  280.47   11.40
   1 -13   1  255.87   10.20
  -1 -13  -1  256.67   14.70
  -1  13   1  283.67   12.20
   1 -13   1  293.47   13.30
   1  13  -1  259.77   12.10
   1 -13   1  263.47   14.70
  -1 -13  -1  283.87   12.00
  -1  13   1  251.67   11.60
  -1 -13  -1  248.18   11.60
   1  13  -1  264.97   11.60
   1  13   1  255.67   10.70
  -1 -13   1  262.87   14.40
   1 -13  -1  255.97   14.90
  -1  13  -1  266.37   12.20
   1 -13  -1  277.07   12.50
  -1  13  -1  284.07   11.70
   1 -13  -1  256.67   10.00
   1  13   1  262.37   12.10
   1  13   1  278.77   12.80
  -1 -13   1  278.57   12.40
   1 -13  -1  272.37   11.10
  -1 -13   1  282.77   14.80
  -1 -13   1  263.77   11.90
  -3 -13  -1  309.97   11.80
   3 -13   1  337.17   16.20
  -3 -13  -1  320.57   14.10
   3  13  -1  323.87   15.90
  -3  13   1  311.97   13.60
  -3 -13  -1  315.47   16.70
   3  13   1  327.57   15.60
  -3  13  -1  310.57   14.00
   3 -13  -1  336.67   17.60
  -3 -13   1  334.97   16.90
  -3 -13   1  345.97   13.50
  -3 -13   1  314.07   14.30
   3 -13  -1  319.97   12.00
   5  13  -1  103.39    9.50
  -5 -13  -1  124.59   10.70
  -5 -13  -1  109.89    8.10
   5 -13   1  107.09    9.90
   5 -13   1  101.59    6.80
  -5  13   1  120.59    8.10
  -5 -13  -1  112.59    6.50
   5 -13  -1  101.89    9.40
  -5 -13   1  115.49    7.50
   5  13   1  102.09    9.30
  -5 -13   1  101.19    7.90
  -5  13  -1   98.49    7.70
   5 -13  -1   95.89    5.80
  -5 -13   1  101.09    9.70
   5 -13  -1   97.89    9.80
  -7 -13  -1  111.99   10.80
   7  13  -1  100.69    9.90
  -7 -13  -1   95.19    6.50
   7 -13   1   85.49    9.70
   7 -13   1   93.09    6.50
  -7  13   1  105.09   11.80
  -7 -13   1   96.09    8.40
   7  13   1   93.09    9.50
  -7 -13   1   90.79    9.80
  -7 -13   1   87.99    7.00
   7 -13  -1   91.99   10.20
  -7  13  -1  100.59    8.00
  -9 -13  -1   56.89    7.30
  -9  13   1   32.50    7.00
   9  13  -1   41.60    9.00
  -9 -13  -1   42.40    4.60
  -9 -13  -1   59.89    8.40
   9 -13   1   55.89   11.40
  -9 -13   1   39.50    7.20
  -9  13  -1   42.70    7.50
  -9 -13   1   38.90    8.00
   9 -13  -1   36.30    9.00
   9  13   1   56.19   10.30
  -9 -13   1   42.20    5.40
   0  14  -1  148.29    8.80
   0  14   1  131.59    7.60
   0  14   1  148.29    8.80
   0 -14   1  157.28   13.40
   0  14  -1  140.59    8.60
   0 -14   1  141.09    8.80
   0 -14  -1  133.99   10.80
   0 -14   1  132.39    7.50
   0 -14  -1  131.79    8.10
   0 -14   1   98.19   14.40
   0  14   1  146.49    8.60
   0 -14  -1  128.39    7.20
   2 -14   1  485.65   22.20
  -2 -14  -1  495.75   21.90
   2  14  -1  444.46   16.70
  -2  14   1  472.25   18.10
   2 -14   1  476.05   17.40
  -2 -14  -1  584.74   26.20
   2  14  -1  500.55   20.80
  -2 -14  -1  465.75   16.10
   2 -14  -1  456.65   21.80
  -2  14  -1  475.55   18.50
  -2 -14   1  501.75   17.70
   2  14   1  486.25   21.50
   2  14   1  453.25   15.70
  -2 -14   1  473.05   18.40
   2 -14  -1  471.85   16.20
  -2 -14   1  479.15   21.50
   2 -14  -1  474.65   19.30
   4 -14   1  129.69   11.00
  -4 -14  -1  108.79    7.20
  -4 -14  -1  123.49   10.70
  -4 -14  -1  126.89    8.90
   4 -14   1  146.59   11.00
   4  14  -1  138.59   10.60
  -4 -14  -1  123.49    7.00
  -4  14   1  134.39    8.70
   4 -14   1  122.79    7.70
   4  14   1  126.19    9.90
   4 -14  -1  115.19   10.80
  -4 -14   1  133.19    8.00
  -4 -14   1  139.39   11.20
   4 -14  -1  120.29    6.70
  -4  14  -1  118.19    8.50
   4 -14  -1  140.19   10.70
  -4 -14   1  129.29    8.90
  -6 -14  -1  143.29   12.40
   6 -14   1  128.19    7.90
  -6 -14  -1  144.99    7.80
  -6 -14  -1  142.99   10.00
  -6  14   1  125.19    9.60
   6 -14   1  146.29   12.30
   6  14  -1  136.69   11.60
  -6 -14   1  133.99   14.80
   6  14   1  145.29   11.90
  -6 -14   1  134.19   12.00
  -6 -14   1  146.79    8.80
  -6  14  -1  139.89    9.60
   6 -14  -1  152.68   12.20
  -8  14   1   57.49    8.30
   8 -14   1   57.19    8.00
  -8 -14  -1   56.69    5.00
  -8 -14  -1   64.39    8.70
  -8 -14  -1   47.90    6.80
   8  14  -1   56.49    7.90
   8  14   1   65.49    8.20
  -8 -14   1   68.19    6.00
  -8 -14   1   45.30    6.30
   8 -14  -1   63.79    9.10
  -8 -14   1   66.79    8.70
  -8  14  -1   61.09   10.90
 -10 -14  -1   12.70    6.20
  10 -14   1   12.20    6.90
 -10  14   1    7.30    4.50
 -10 -14  -1   27.40    7.80
 -10  14  -1   25.70    5.90
 -10 -14   1   13.40    4.70
  10 -14  -1   23.70    7.20
 -10 -14   1   21.70    6.50
 -10 -14   1   15.80    6.10
  -1 -15  -1   50.29    5.00
   1 -15   1   49.10    5.10
  -1 -15  -1   48.90    9.10
   1 -15   1   58.99   10.40
   1 -15   1   42.50    4.00
  -1  15   1   44.50    5.10
   1  15  -1   48.30    5.80
   1 -15   1   42.10    5.60
  -1  15   1   45.30    4.60
   1  15  -1   45.40    4.80
  -1 -15  -1   42.10    4.60
   1 -15  -1   47.50    5.50
  -1  15  -1   48.00    4.90
   1  15   1   40.90    5.50
   1  15   1   45.50    4.40
  -1 -15   1   50.49    5.30
   1 -15  -1   41.10    4.40
  -1  15  -1   46.60    5.00
  -1 -15   1   55.19    7.30
   1 -15  -1   33.00    6.80
   1  15   1   51.09    5.30
  -1 -15   1   51.69    5.40
   3 -15   1   46.50    8.40
  -3 -15  -1   26.60    3.50
   3 -15   1   32.00    6.10
  -3 -15  -1   27.80    5.50
  -3  15   1   30.50    4.40
  -3 -15  -1   36.50    8.40
   3  15  -1   29.20    6.50
   3 -15   1   22.60    6.70
  -3 -15   1   30.90    6.00
   3  15   1   27.70    6.10
   3 -15  -1   30.10    4.30
  -3 -15   1   33.80    8.00
   3 -15  -1   36.20    6.90
   3 -15  -1   28.90    7.10
  -3  15  -1   29.20    5.70
  -3 -15   1   33.60    4.30
   5 -15   1   42.30    9.10
  -5 -15  -1   24.30    6.20
   5  15  -1   32.70    7.00
  -5 -15  -1   40.00    7.10
  -5 -15  -1   29.70    3.60
   5 -15   1   27.30    4.60
   5 -15   1   48.70    9.50
  -5 -15  -1   24.50    4.50
  -5  15   1   32.40    5.90
  -5 -15   1   35.80    4.60
   5 -15  -1   30.40    3.30
  -5 -15   1   28.80    5.80
  -5  15  -1   38.60    6.70
   5  15   1   30.90    7.10
   5 -15  -1   39.40    8.90
   5 -15  -1   32.20    7.10
  -5 -15   1   36.50    8.60
   7  15  -1    8.20    4.30
  -7 -15  -1   11.70    3.20
   7 -15   1   10.70    4.80
  -7 -15  -1   11.30    4.70
  -7 -15  -1   11.10    4.30
  -7 -15   1   12.80    3.10
  -7 -15   1   15.30    5.50
   7 -15  -1   16.40    5.90
   7  15   1   12.70    5.00
  -7 -15   1   22.20    4.90
  -9 -15  -1    3.40    3.60
   9 -15   1   10.60    4.90
   9  15  -1    8.00    3.90
  -9 -15  -1    2.40    4.20
  -9  15   1    2.70    3.50
  -9  15  -1    2.60    3.10
   9 -15  -1    3.00    3.60
  -9 -15   1    2.90    3.70
   9  15   1    1.50    3.60
  -9 -15   1   -3.90    3.50
  -9 -15   1   -3.90    2.70
   0 -16   1  168.88   11.00
   0  16   1  196.28   10.80
   0  16   1  183.88   10.50
   0 -16  -1  180.88   10.20
   0 -16   1  196.88   12.60
   0  16  -1  183.08   10.60
   0  16  -1  187.08   10.90
   0 -16   1  204.68   13.90
   0 -16  -1  167.68   13.00
   2  16  -1   68.19    7.40
  -2 -16  -1   75.69    8.80
  -2 -16  -1   78.79    7.00
  -2 -16  -1   67.69    5.60
   2 -16   1   61.69    8.00
  -2  16   1   68.59    6.30
   2 -16   1   46.10    6.20
   2 -16   1   72.59    7.30
   2  16   1   56.39    4.90
  -2 -16   1   63.59    6.20
  -2 -16   1   56.29    7.70
  -2 -16   1   63.49    5.80
   2  16   1   71.59    7.40
  -2  16  -1   60.59    5.20
  -2  16  -1   60.09    6.00
   2 -16  -1   68.19    7.00
   2 -16  -1   73.89    8.90
   2 -16  -1   64.29    5.10
   4 -16   1  109.09    7.60
   4 -16   1  121.79   11.20
   4  16  -1  154.98   11.60
  -4 -16  -1  127.59   11.50
  -4 -16  -1  123.59    7.90
  -4 -16  -1  125.49    7.20
  -4 -16  -1  135.19    9.30
   4 -16   1  126.59   10.70
   4 -16  -1  128.79    7.00
   4  16   1  129.99   10.60
   4 -16  -1  134.69   10.80
  -4 -16   1  146.69    8.80
  -4  16  -1  115.99    8.80
   4 -16  -1  126.49   11.90
  -4 -16   1  140.59    9.80
  -4 -16   1  119.49   11.30
  -6 -16  -1   44.80    5.70
   6 -16   1   31.00    5.80
  -6 -16  -1   45.00    4.40
   6  16  -1   48.20    9.30
  -6 -16  -1   50.59    9.30
  -6  16   1   46.60    6.60
   6 -16   1   42.20    8.60
  -6 -16   1   39.20    9.00
  -6 -16   1   43.80    4.70
   6 -16  -1   48.70   10.20
  -6 -16   1   46.40    8.40
   6  16   1   46.70    8.90
  -8 -16  -1   33.30    8.60
   8  16  -1   48.40    9.80
   8 -16   1   48.70   10.50
  -8 -16  -1   59.59    7.40
  -8 -16   1   43.40    9.60
   8 -16  -1   39.00    8.50
  -8 -16   1   39.10    7.30
   8  16   1   37.90    8.30
  -8  16  -1   49.50    6.90
  -1 -17  -1  319.67   18.50
  -1 -17  -1  300.17   13.60
   1  17  -1  296.67   15.20
   1  17  -1  273.87   14.20
   1 -17   1  285.87   17.50
  -1 -17  -1  319.77   13.60
   1 -17   1  291.17   13.50
  -1  17   1  307.47   14.60
  -1  17   1  310.07   13.30
   1 -17   1  281.17   14.70
  -1 -17   1  307.67   14.40
   1 -17  -1  282.47   12.70
   1  17   1  301.97   15.00
  -1  17  -1  311.27   14.00
   1 -17  -1  304.37   18.30
   1 -17  -1  305.87   14.80
  -1 -17   1  283.47   17.40
  -3 -17  -1  370.66   16.50
  -3  17   1  330.67   15.90
  -3 -17  -1  372.86   14.00
   3 -17   1  352.96   18.10
  -3 -17  -1  338.17   19.70
   3 -17   1  314.87   19.00
   3 -17   1  340.47   14.70
   3  17  -1  356.46   18.40
  -3 -17   1  365.86   17.50
  -3 -17   1  347.47   19.70
   3 -17  -1  326.47   13.20
   3  17   1  361.96   18.30
  -3  17  -1  328.97   16.10
   3 -17  -1  345.07   20.20
   3 -17  -1  365.06   18.00
  -3 -17   1  356.06   16.60
  -5 -17  -1  125.79   12.20
  -5  17   1  108.69    9.10
   5  17  -1  106.49   10.60
   5 -17   1  138.99   12.10
   5 -17   1  103.59    7.70
  -5 -17  -1  122.29    9.30
   5 -17   1  136.89   11.80
  -5 -17   1  148.09   10.30
   5 -17  -1  112.49    7.10
  -5 -17   1  143.89    8.80
   5 -17  -1  127.69   12.20
   5  17   1  141.49   11.60
   5 -17  -1  119.19   11.00
  -5 -17   1  122.49   11.90
  -5  17  -1  104.79    9.00
  -7 -17  -1  140.69   12.90
   7  17  -1  121.09   11.80
  -7 -17  -1  106.79    9.90
   7 -17   1  101.09   10.90
  -7 -17   1  115.39   10.10
  -7 -17   1  117.99    7.80
  -7 -17   1  110.89   11.40
   7 -17  -1  108.19   11.60
   7  17   1  110.99   11.30
   9 -17   1   28.00    7.60
  -9 -17  -1   25.90    8.20
   9  17  -1   27.10    9.50
  -9  17   1   31.90    8.30
  -9 -17   1   29.40    7.40
  -9 -17   1   20.80    7.30
  -9  17  -1   31.10    6.90
   9  17   1   33.00    7.70
   9 -17  -1   22.30    7.60
   0  18  -1  156.78   10.00
   0  18   1  130.99    9.20
   0 -18   1  148.39   10.10
   0 -18  -1  131.99    8.60
   0 -18   1  140.99   12.30
   0  18   1  158.58    9.90
   0 -18   1  140.29    9.40
   0 -18  -1  135.19   12.30
   0  18  -1  135.09    9.30
   0 -18  -1  149.49    9.80
  -2 -18  -1  170.08   13.70
   2 -18   1  150.58   11.10
   2 -18   1  129.89   11.90
  -2 -18  -1  144.59    8.60
   2  18  -1  157.38   11.40
  -2 -18  -1  152.88    9.80
  -2  18   1  150.28   10.10
   2  18   1  155.48   11.10
   2 -18  -1  138.29   12.60
  -2 -18   1  152.18    9.40
   2 -18  -1  151.78   10.70
  -2 -18   1  149.69   10.10
  -2  18  -1  129.19    9.30
  -2 -18   1  136.19   12.40
   2 -18  -1  153.38   10.60
  -4  18   1  100.89    8.60
   4 -18   1  108.29   11.70
   4 -18   1   96.99   10.50
  -4 -18  -1  113.29    9.00
  -4 -18  -1  118.99    7.00
   4  18  -1  105.39   10.20
   4 -18   1  107.99   10.20
  -4 -18  -1  114.39   11.50
  -4 -18   1   93.29   10.30
  -4  18  -1  102.19    8.60
   4  18   1  117.99   10.40
   4 -18  -1  101.89   11.50
   4 -18  -1  111.29   10.00
  -4 -18   1  119.29    9.10
   4 -18  -1   94.29    7.50
  -4 -18   1  100.89    7.40
  -6 -18  -1   37.20    8.70
   6 -18   1   35.40    8.20
   6  18  -1   33.00    7.50
  -6 -18  -1   34.20    6.90
  -6 -18   1   45.60    9.70
  -6 -18   1   32.20    7.10
  -6 -18   1   37.00    4.80
   6  18   1   52.09    7.50
   6 -18  -1   30.90    6.60
  -8 -18  -1   37.60    9.00
   8  18  -1   53.69   11.00
   8 -18   1   37.80    9.40
   8 -18  -1   45.20    9.40
  -8 -18   1   31.70    7.10
   8  18   1   44.00    9.60
  -8 -18   1   46.60    8.80
  -8 -18   1   59.39    6.10
  -1 -19  -1   15.00    4.60
   1 -19   1   21.40    5.30
   1 -19   1   10.20    3.10
  -1 -19  -1   21.70    6.20
   1  19  -1   15.10    4.50
   1 -19   1   19.20    6.80
  -1  19   1   23.90    4.60
  -1  19   1   12.00    3.50
   1 -19  -1   18.20    4.00
  -1  19  -1   11.90    3.40
   1 -19  -1   20.60    4.90
  -1 -19   1   14.80    6.00
   1 -19  -1   10.90    4.40
  -1  19  -1   15.40    5.60
  -1 -19   1   15.00    4.20
   1  19   1   23.50    5.50
  -1 -19   1   16.90    4.80
  -3  19   1   -0.10    3.00
   3 -19   1    7.70    4.20
   3  19  -1    1.90    2.70
   3 -19   1    6.90    3.10
   3 -19   1    4.70    3.00
  -3 -19  -1    6.20    5.00
  -3 -19  -1    4.30    2.90
  -3 -19  -1    3.40    2.70
   3 -19  -1    6.40    3.00
   3 -19  -1    0.50    2.40
   3  19   1   -0.90    2.40
  -3 -19   1    5.00    2.60
  -3 -19   1   -2.10    2.90
   3 -19  -1   -1.50    2.40
  -3 -19   1   10.00    3.70
  -5 -19  -1   25.40    5.30
   5 -19   1   23.60    6.40
  -5 -19  -1   17.60    6.70
   5 -19   1   30.80    7.00
   5  19  -1   17.50    5.60
  -5 -19   1   18.30    4.80
  -5 -19   1   24.40    6.90
   5  19   1   29.60    7.20
  -5 -19   1   28.50    4.10
   5 -19  -1   23.90    6.40
   7  19  -1   19.70    6.20
  -7 -19  -1   -5.50    3.10
   7 -19   1    0.30    2.60
   7 -19  -1    1.30    3.90
  -7 -19   1   -5.00    3.40
  -7 -19   1    9.10    3.60
  -7 -19   1    3.80    4.30
   7  19   1    1.30    2.90
   0 -20  -1   33.60    4.90
   0 -20   1   52.49    5.90
   0  20   1   44.00    5.20
   0  20  -1   45.40    5.50
   0 -20   1   33.70    7.50
   0  20   1   42.80    6.90
   0 -20  -1   47.20    9.70
   0 -20  -1   40.00    5.50
   0 -20   1   34.80    6.00
   2  20  -1  121.99   10.30
   2 -20   1  124.39   11.80
   2 -20   1  108.99    8.50
  -2  20   1  100.09    9.90
   2 -20   1  115.29   10.10
  -2 -20  -1  111.29   11.60
  -2 -20  -1  103.69    7.90
  -2 -20  -1  116.69    8.50
   2 -20  -1  126.49   12.50
   2 -20  -1  111.09    7.70
  -2 -20   1  101.79   11.30
   2  20   1  138.99   10.60
   2 -20  -1  126.49    9.80
  -2 -20   1  114.79    9.10
  -2 -20   1  121.39    8.70
  -4 -20  -1   26.60    7.70
   4 -20   1   28.60    7.10
  -4 -20  -1   29.90    5.00
   4  20  -1   36.20    8.60
  -4 -20  -1   40.40    7.10
   4 -20   1   30.80    7.60
   4 -20  -1   32.30    9.00
  -4 -20   1   33.90    8.40
  -4 -20   1   35.00    4.60
  -4 -20   1   38.20    6.40
   4 -20  -1   36.70    7.90
   4  20   1   39.30    9.20
  -6 -20  -1   12.40    6.70
   6  20  -1   35.90    8.20
   6 -20   1   24.40    6.80
   6 -20  -1   14.40    5.60
  -6 -20   1   33.60    8.70
   6  20   1   24.70    6.00
  -6 -20   1   27.00    6.70
  -6 -20   1   21.30    4.60
  -8 -20  -1   24.10    8.70
   8  20  -1   24.10    6.90
   8 -20   1   17.80    6.90
  -8 -20   1   19.30    6.60
   8  20   1   32.40    9.30
   8 -20  -1   32.90    8.30
  -1 -21  -1  206.58   11.50
   1 -21   1  185.98   15.50
   1  21  -1  180.08   12.40
   1 -21   1  237.58   14.00
  -1 -21  -1  198.78   11.90
  -1  21   1  210.48   11.40
  -1 -21  -1  200.18   16.50
   1 -21  -1  210.28   12.70
  -1 -21   1  210.78   13.30
  -1 -21   1  179.48   15.20
  -1  21  -1  208.68   11.80
   1 -21  -1  182.98   15.70
   1  21   1  205.78   12.90
   1 -21  -1  185.58   15.50
  -1 -21   1  198.18   11.80
   3  21  -1   60.29    8.40
  -3 -21  -1   55.89    5.40
   3 -21   1   62.99    7.80
   3 -21   1   72.59   19.70
  -3 -21   1   61.39    8.90
   3  21   1   70.09    8.30
   3 -21  -1   61.59    8.80
  -3 -21   1   68.49    6.50
  -3 -21   1   58.19    6.90
   3 -21  -1   63.59    7.80
  -5 -21  -1  175.98   15.40
   5  21  -1  196.58   15.40
   5 -21   1  181.98   14.90
   5 -21   1  202.78   15.20
   5  21   1  205.88   15.20
   5 -21  -1  200.58   14.80
   5 -21  -1  167.98   15.10
  -5 -21   1  170.78   15.20
  -5 -21   1  183.08   13.10
  -5 -21   1  187.88   10.40
  -7 -21  -1   17.90    9.10
   7  21  -1    3.20    6.50
   7 -21   1   16.60    7.40
   7 -21  -1   31.00    7.50
  -7 -21   1   26.30    9.80
   0 -22  -1   52.49   11.80
   0 -22   1   42.70    6.00
   0 -22   1   39.40    8.60
   0 -22   1   63.09    7.50
   0 -22  -1   59.99    6.60
   0  22   1   53.99    6.50
   0  22  -1   43.20    6.10
   2 -22   1   50.09    9.20
  -2 -22  -1   43.70    9.30
   2  22  -1   48.00    8.90
  -2 -22  -1   59.29    5.60
   2 -22   1   29.30    7.40
   2 -22  -1   49.40    8.30
  -2 -22   1   42.50    6.80
  -2 -22   1   42.80    5.30
   2 -22  -1   28.40    7.70
  -2 -22   1   38.40    8.10
   2  22   1   35.40    7.20
   4 -22   1   47.40   10.40
   4  22  -1   48.00    9.50
   4 -22   1   44.20    8.60
  -4 -22  -1   60.29   12.00
   4 -22  -1   30.90    7.00
   4  22   1   39.70    8.20
  -4 -22   1   45.90    5.60
  -4 -22   1   35.10    7.40
  -4 -22   1   32.80    8.30
   4 -22  -1   40.50    9.40
   6  22  -1   22.00    6.20
   6 -22   1   10.40    4.60
  -6 -22  -1   18.60    5.90
   6 -22  -1   17.70    5.90
   6  22   1   14.20    6.10
  -6 -22   1   13.10    5.50
  -1 -23  -1    4.00    3.70
   1 -23   1    6.80    3.70
   1 -23   1    0.10    2.70
  -1  23   1    7.30    3.30
   1  23  -1    5.20    3.30
  -1 -23  -1    4.20    2.90
  -1  23  -1    5.50    3.80
  -1 -23   1    7.40    3.30
  -1 -23   1    0.50    3.60
   1  23   1   14.10    4.50
   1 -23  -1    8.40    3.80
   1 -23  -1    4.10    2.80
   3 -23   1    0.30    2.90
  -3 -23  -1    4.90    4.40
  -3 -23  -1    7.10    3.80
   3 -23   1   -3.10    2.60
   3  23  -1   -3.10    2.80
   3 -23  -1   -1.90    3.20
  -3 -23   1    0.90    3.30
   3 -23  -1    3.50    3.90
  -3 -23   1    4.60    4.10
   3  23   1    7.90    3.90
   5 -23   1    8.10    4.50
   5 -23   1   31.60    6.90
   5  23  -1    6.90    5.00
  -5 -23  -1    8.80    5.50
  -5 -23   1    9.20    4.50
  -5 -23   1   19.70    7.40
   5 -23  -1   12.10    5.70
   5 -23  -1   10.20    4.00
   5  23   1    4.80    4.70
   0 -24  -1   48.80    6.60
   0 -24   1   42.20   10.30
   0 -24  -1   60.49   12.40
   0  24  -1   58.19    6.80
   0 -24   1   64.99    7.20
   0  24   1   47.40    6.60
   2 -24   1   47.70   10.90
   2  24  -1   58.59   10.00
  -2 -24  -1   48.80    6.10
   2 -24   1   52.59   10.40
  -2 -24  -1   45.30   10.00
   2  24   1   56.99    8.00
  -2 -24   1   44.90    9.90
   2 -24  -1   40.80    9.10
  -2 -24   1   56.99    6.80
   2 -24  -1   50.39    6.70
   4 -24   1   29.60    7.90
   4 -24   1   31.90    7.90
  -4 -24  -1   25.90    7.30
   4  24  -1   36.30    7.10
   4 -24  -1   43.90    9.30
   4 -24  -1   32.50    8.50
  -4 -24   1   39.30    9.20
  -4 -24   1   43.70    6.60
   1 -25   1   97.39   11.60
  -1  25   1  130.39    8.70
  -1 -25  -1  111.29   12.60
   1 -25   1  104.59    9.80
   1  25  -1   98.99    9.50
  -1 -25  -1  106.79    8.90
   1 -25  -1  127.29   13.10
   1 -25  -1  110.69    9.30
   1  25   1  110.89    9.80
  -1 -25   1   92.99   11.50
  -1  25  -1  110.59    8.70
  -3 -25  -1   87.99   12.30
   3 -25   1  113.69   11.00
   3 -25   1   91.39   11.50
   3  25  -1  141.49   12.60
   3  25   1  125.39   11.40
   3 -25  -1  123.59   10.70
  -3 -25   1  114.19    9.30
  -3 -25   1  111.99   13.10
   3 -25  -1   89.99   11.80
   0  26   1   23.70    5.80
   0 -26  -1   12.40    5.20
   0 -26   1   28.30    7.20
   0 -26   1   27.80    6.90
   0  26  -1   20.20    5.60
   2 -26   1   15.50    6.00
   2 -26   1    2.90    5.00
   2  26  -1    5.50    4.80
  -2 -26  -1   19.00    6.70
   2 -26  -1   12.80    4.80
   2  26   1   12.90    4.60
   2 -26  -1    2.30   10.80
  -2 -26   1   17.90    5.30
   0   0  -2  565.74   13.60
   0   0   2  605.84   13.50
   0   0   2  598.84   14.20
   0   0  -2  582.44   15.00
   0   0   2  582.84   13.70
   0   0  -2  586.64   14.10
  -2   0  -2 1202.18   29.20
  -2   0   2 1200.08   30.20
   2   0  -2 1196.48   29.70
  -2   0  -2 1208.58   29.20
   2   0   2 1241.08   29.90
  -2   0  -2 1223.58   29.70
   2   0   2 1223.78   29.80
  -2   0   2 1213.08   31.10
  -2   0   2 1203.98   29.50
  -2   0   2 1252.97   28.90
  -2   0  -2 1240.58   29.70
   2   0   2 1219.68   29.10
  -4   0  -2  227.88    9.40
  -4   0  -2  223.08    9.60
   4   0  -2  226.88    9.20
   4   0   2  231.38    8.90
   4   0  -2  225.28   10.80
   4   0   2  227.58   10.30
  -4   0   2  217.08    8.50
  -4   0   2  220.88   10.10
  -4   0  -2  227.08    9.50
   4   0   2  212.78    8.90
  -4   0   2  226.08   10.60
  -4   0   2  218.28    8.90
  -4   0  -2  209.88    8.30
   4   0   2  215.88    9.90
   6   0   2   60.79    4.90
   6   0   2   68.09    6.40
  -6   0  -2   69.09    6.30
  -6   0  -2   57.79    4.90
   6   0  -2   53.29    6.20
   6   0  -2   59.09    5.10
  -6   0   2   57.69    4.50
   6   0   2   71.59    6.70
  -6   0  -2   58.79    5.40
  -6   0   2   57.09    5.10
  -8   0  -2    5.30    2.10
   8   0  -2    4.90    2.70
   8   0   2    7.60    3.20
  -8   0  -2    3.40    2.80
  -8   0   2    4.70    2.40
  -8   0   2   10.90    4.50
   8   0   2   10.30    3.20
   8   0  -2    7.70    2.90
   8   0   2   13.50    4.60
  10   0   2   53.79    7.10
  10   0   2   39.70    4.70
 -10   0   2   43.50    8.00
  10   0  -2   39.40    8.40
 -10   0  -2   49.30    9.30
  10   0  -2   29.60    5.40
 -12   0  -2   -7.60    4.80
 -12   0   2   -1.30    3.30
  12   0   2   -0.70    3.00
   1   1  -2  228.28    7.00
   1  -1   2  245.78    7.40
   1  -1   2  240.78    7.30
  -1  -1  -2  234.58    7.20
   1  -1   2  242.38    7.10
   1   1  -2  221.28    7.60
  -1  -1  -2  241.58    6.90
  -1   1   2  236.08    7.80
  -1  -1  -2  234.28    6.90
  -1   1   2  230.88    7.70
  -1   1   2  230.38    7.10
  -1  -1  -2  244.38    6.30
  -1  -1   2  226.18    7.00
   1   1   2  229.18    6.30
  -1   1  -2  244.88    7.30
   1   1   2  231.08    6.90
  -1   1  -2  234.08    7.00
   1   1   2  239.88    6.80
   1  -1  -2  227.58    7.10
  -1   1  -2  237.58    6.10
   1   1   2  229.88    7.20
   1  -1  -2  226.48    7.70
   3   1  -2  369.06   12.20
   3  -1   2  376.86   12.90
   3   1  -2  358.76   13.20
   3  -1   2  352.86   11.00
  -3   1   2  375.16   11.20
  -3  -1  -2  386.96   12.30
  -3   1   2  363.56   13.40
  -3   1   2  372.16   12.70
   3   1  -2  354.56   12.30
  -3  -1  -2  365.06   11.80
   3  -1   2  365.96   12.00
  -3  -1  -2  353.96   11.60
  -3  -1   2  369.26   13.30
  -3  -1   2  379.06   11.70
   3   1   2  364.76   12.10
   3  -1  -2  371.96   11.40
  -3  -1   2  369.06   11.90
   3   1   2  362.96   11.80
   3   1   2  371.46   11.90
   3   1   2  376.76   12.30
  -3   1  -2  372.56   12.00
  -3   1  -2  372.86   12.40
  -3   1  -2  359.66   10.80
  -3  -1   2  355.96   12.50
  -3   1  -2  372.56   11.70
   5   1  -2   78.39    5.60
  -5  -1  -2   68.79    4.80
   5  -1   2   71.29    4.80
  -5   1   2   68.39    6.10
  -5  -1  -2   82.49    5.80
   5   1  -2   78.89    6.70
  -5  -1  -2   81.79    6.10
   5  -1   2   77.29    7.00
  -5   1   2   73.89    6.30
  -5   1   2   73.79    5.20
   5  -1   2   74.69    6.30
  -5   1   2   76.49    4.70
  -5  -1  -2   74.09    5.60
   5   1   2   80.99    6.10
  -5  -1   2   76.09    6.10
  -5   1  -2   69.89    4.40
   5  -1  -2   70.79    6.40
  -5   1  -2   79.49    5.90
  -5  -1   2   78.19    5.20
   5   1   2   78.09    5.70
   5  -1  -2   80.39    5.20
  -5  -1   2   76.69    5.40
  -5   1  -2   76.59    5.60
   5   1   2   72.09    5.30
  -5  -1   2   71.49    6.10
   5   1   2   71.29    5.30
  -5   1  -2   81.59    5.90
  -7  -1  -2  124.59    8.40
   7  -1   2  126.19    8.40
  -7   1   2  124.89    8.20
   7   1  -2  121.99    8.00
   7   1  -2  124.69    9.80
   7  -1   2  118.89    7.10
  -7   1   2  120.09    9.40
   7  -1   2  120.19    9.40
  -7   1   2  108.99    7.30
  -7  -1  -2  118.49    9.00
  -7   1  -2  114.99    6.60
   7  -1  -2  127.69    7.60
   7   1   2  125.29    8.60
  -7   1  -2  125.29    9.20
  -7   1  -2  119.09    8.30
  -7  -1   2  120.79    8.30
   7  -1  -2  130.69   10.30
   7   1   2  124.49    7.90
  -7  -1   2  135.29   10.10
  -9  -1  -2   23.80    5.50
  -9   1   2   14.90    4.80
   9   1  -2    9.30    3.10
  -9   1   2   15.50    3.60
   9  -1   2   22.80    5.80
   9   1  -2   17.40    5.40
   9  -1   2   17.40    3.90
  -9  -1   2   14.60    4.20
  -9   1  -2   29.30    6.50
   9   1   2   13.10    3.30
  -9  -1   2   21.70    6.20
   9   1   2   16.90    4.20
   9  -1  -2   15.30    3.50
   9   1   2   17.70    5.10
   9  -1  -2   18.50    5.60
 -11  -1  -2    9.90    4.60
 -11   1   2   22.00    6.00
  11  -1   2   12.00    4.40
  11   1  -2   20.30    4.30
  11   1   2   10.90    3.10
 -11  -1   2   21.00    6.30
  11  -1  -2   19.30    5.90
 -11   1  -2   11.00    4.70
  11   1   2    9.10    4.10
   0   2   2   14.50    1.60
   0  -2  -2   13.40    1.90
   0  -2   2   15.00    1.50
   0   2   2   16.60    2.00
   0   2  -2   12.40    1.50
   0  -2   2   13.60    1.80
   0  -2   2   14.30    1.40
   0   2  -2   13.80    1.60
   0   2  -2   14.10    2.10
   0  -2  -2   12.50    1.20
   0  -2   2   14.60    1.80
   0   2   2   17.30    1.40
   0   2  -2   13.30    1.20
  -2  -2  -2 2499.35   57.29
  -2   2   2 2496.55   55.49
   2  -2   2 2486.65   57.19
  -2  -2  -2 2475.95   57.09
  -2   2   2 2423.26   58.69
  -2  -2  -2 2451.95   57.29
  -2   2   2 2412.26   55.79
   2  -2   2 2485.55   55.79
  -2   2   2 2433.06   58.39
   2   2  -2 2395.06   57.39
   2   2  -2 2469.55   58.09
   2  -2   2 2479.55   58.09
  -2  -2  -2 2505.05   55.99
   2  -2  -2 2488.15   58.69
   2   2   2 2507.55   57.39
  -2  -2   2 2487.65   58.49
   2   2   2 2533.55   57.29
  -2   2  -2 2540.15   57.29
  -2  -2   2 2411.26   57.69
   2  -2  -2 2366.96   55.79
  -2   2  -2 2546.55   57.99
  -2   2  -2 2494.95   57.09
  -2  -2   2 2394.86   57.69
   2   2   2 2464.65   57.49
   2   2   2 2473.45   56.09
   4  -2   2  113.89    7.10
  -4   2   2  110.59    5.60
  -4   2   2  104.69    7.10
  -4  -2  -2  109.39    6.20
   4   2  -2   91.39    6.00
  -4  -2  -2  106.49    5.90
   4   2  -2  106.89    7.00
  -4  -2  -2  106.09    6.40
   4  -2   2  104.39    5.00
  -4  -2  -2  111.49    6.20
  -4   2   2  110.09    5.00
   4   2  -2  111.59    6.50
  -4   2   2  112.69    6.90
   4  -2   2  112.99    6.20
   4   2   2  112.19    6.50
  -4   2  -2  109.79    6.20
   4   2   2  101.49    6.00
  -4  -2   2  105.99    6.00
   4  -2  -2  105.89    5.30
  -4  -2   2  107.29    6.80
   4  -2  -2  104.49    7.30
  -4   2  -2  102.69    7.40
   4   2   2  105.69    6.20
   4   2   2  112.29    6.20
  -4  -2   2  110.49    6.90
  -4  -2   2  110.89    6.10
  -4   2  -2  110.49    6.70
  -4   2  -2  106.29    4.90
   4  -2  -2  113.29    5.20
  -6  -2  -2   89.29    6.10
  -6  -2  -2   91.09    7.30
  -6   2   2   89.69    5.10
   6  -2   2   94.89    6.60
   6   2  -2   95.79    7.90
  -6   2   2   89.29    6.30
   6  -2   2   88.59    5.50
   6  -2   2   92.59    7.80
  -6  -2  -2   92.79    6.70
  -6  -2  -2   90.79    6.70
   6   2  -2   92.99    6.90
   6   2   2   84.89    6.70
  -6   2  -2   85.69    5.10
  -6  -2   2   97.19    6.90
  -6   2  -2   93.59    7.10
   6   2   2   96.29    7.30
  -6   2  -2   92.79    6.70
   6   2   2   94.09    6.60
  -6  -2   2   90.19    6.20
   6  -2  -2   88.49    5.70
  -6  -2   2   94.19    7.90
   8  -2   2   41.30    6.00
   8   2  -2   52.69    6.70
  -8  -2  -2   48.50    6.20
   8  -2   2   44.80    4.20
  -8   2   2   44.90    8.40
  -8   2   2   33.90    3.60
  -8   2   2   46.60    8.90
   8   2  -2   35.80    5.00
   8  -2   2   35.20    4.90
  -8  -2  -2   38.30    4.90
  -8   2  -2   44.60    6.10
   8   2   2   36.10    5.00
  -8  -2   2   44.10    6.40
  -8  -2   2   37.50    6.10
   8   2   2   46.80    5.30
   8   2   2   42.10    5.60
   8  -2  -2   37.20    7.60
  10   2  -2    9.80    3.50
 -10  -2  -2    7.40    3.20
 -10   2   2   10.90    4.20
  10   2   2    1.70    2.30
 -10  -2   2    7.70    2.80
 -10   2  -2    3.60    3.40
  10   2   2    4.70    2.40
  10  -2  -2    8.60    3.90
 -12   2   2    8.90    4.30
  12  -2   2   12.90    6.80
 -12  -2  -2    3.10    3.90
 -12  -2   2    4.20    3.90
 -12   2  -2    3.80    4.90
  12  -2  -2    8.50    3.60
   1   3  -2  983.90   25.60
  -1  -3  -2 1011.90   25.00
   1  -3   2 1002.20   25.40
   1  -3   2  994.40   24.30
  -1  -3  -2 1010.60   26.70
  -1   3   2 1014.40   24.10
   1   3  -2  963.90   24.70
  -1  -3  -2  990.00   24.20
   1  -3   2  989.40   24.50
   1  -3   2 1043.80   25.00
  -1   3   2  963.50   25.00
   1  -3  -2  981.60   25.20
  -1  -3   2 1041.60   26.20
   1  -3  -2  988.80   26.10
  -1   3  -2 1022.00   24.50
  -1  -3   2 1004.70   25.50
  -1   3  -2 1021.00   25.50
  -1  -3   2 1002.80   25.00
  -1   3  -2 1025.30   24.60
   1   3   2 1010.70   25.20
  -1  -3   2 1008.60   24.50
  -1   3  -2 1034.90   24.90
   1   3   2 1017.90   25.10
   1   3   2 1011.00   24.50
  -3   3   2  763.02   19.30
  -3   3   2  712.63   22.00
  -3  -3  -2  744.23   20.00
   3  -3   2  726.93   18.30
  -3  -3  -2  710.43   20.60
  -3  -3  -2  748.63   21.30
   3  -3   2  733.33   20.50
   3   3  -2  744.93   21.50
   3  -3   2  731.53   21.90
  -3   3   2  709.23   22.10
  -3  -3  -2  737.43   20.70
   3   3  -2  690.33   20.90
   3  -3  -2  749.73   22.60
   3  -3  -2  737.23   18.30
  -3   3  -2  757.22   21.70
  -3  -3   2  724.73   21.00
  -3  -3   2  757.02   20.80
   3   3   2  730.93   20.80
   3   3   2  731.23   21.10
  -3   3  -2  737.13   20.50
   3   3   2  737.43   19.70
  -3  -3   2  731.33   21.80
  -3  -3   2  711.73   21.40
  -3   3  -2  727.23   21.00
   3   3   2  728.03   20.90
  -5  -3  -2  369.16   14.10
   5   3  -2  377.86   15.70
  -5   3   2  400.86   13.80
   5  -3   2  406.06   14.50
  -5  -3  -2  387.26   14.70
  -5  -3  -2  399.96   15.50
  -5  -3  -2  387.46   14.40
   5  -3   2  365.56   16.00
   5   3  -2  399.96   15.30
  -5   3   2  387.76   15.70
  -5   3  -2  385.46   15.50
  -5  -3   2  411.36   16.30
   5  -3  -2  399.26   12.60
  -5   3  -2  364.16   15.30
  -5  -3   2  363.16   14.20
   5   3   2  411.86   15.30
   5   3   2  357.36   14.40
   5  -3  -2  402.76   17.10
   5   3   2  377.36   14.60
  -5  -3   2  374.56   14.40
  -5   3  -2  383.36   14.40
  -5  -3   2  381.86   15.70
  -5   3  -2  404.06   15.00
   5   3   2  382.66   14.50
   7   3  -2  142.59    9.60
   7  -3   2  137.59    7.10
  -7   3   2  136.69   10.10
   7  -3   2  151.68   10.90
   7   3  -2  140.09   10.10
  -7  -3  -2  140.39   10.00
   7  -3   2  129.39    8.30
  -7  -3  -2  151.98   10.40
  -7   3   2  136.29    8.60
   7  -3  -2  132.29   10.70
   7   3   2  143.99    9.60
   7   3   2  126.59    9.00
  -7   3  -2  147.89    9.80
  -7  -3   2  132.79    8.90
  -7   3  -2  135.39    8.90
  -7  -3   2  133.79   10.10
  -9   3   2   63.79    6.90
   9  -3   2   64.29    8.30
   9   3  -2   68.59    6.90
  -9  -3  -2   59.59    7.70
  -9   3   2   68.19    8.10
   9  -3   2   76.29    8.50
  -9  -3   2   52.29    8.90
   9  -3  -2   70.59    8.50
  -9   3  -2   68.39    7.70
   9   3   2   67.69    6.60
  -9  -3   2   78.19    8.80
   9   3   2   71.49    7.40
 -11  -3  -2   11.10    4.60
  11  -3   2   13.80    4.40
 -11   3   2    9.60    4.30
  11   3  -2   13.80    4.20
 -11  -3   2    7.80    3.80
  11   3   2    5.40    3.70
  11  -3  -2    8.30    3.50
 -11   3  -2    5.80    3.00
   0  -4   2 3350.46   74.69
   0  -4   2 3184.68   73.99
   0  -4   2 3329.77   74.29
   0  -4  -2 3333.07   72.59
   0   4  -2 3227.98   74.09
   0   4   2 3352.76   75.59
   0  -4   2 3320.07   74.49
   0   4  -2 3322.17   73.99
   0   4  -2 3226.78   74.39
   0  -4  -2 3330.27   75.69
   0   4   2 3240.38   73.59
   0  -4  -2 3104.19   73.29
   0   4   2 3198.58   72.69
   0  -4  -2 3177.78   72.79
  -2   4   2 2101.99   51.19
   2  -4   2 2074.79   48.90
   2   4  -2 2005.70   49.30
  -2  -4  -2 2066.29   49.80
  -2  -4  -2 1985.50   49.10
  -2  -4  -2 2047.30   48.80
  -2   4   2 2079.99   47.10
   2  -4   2 2037.30   50.19
   2  -4   2 2129.99   49.40
  -2   4   2 2025.10   49.99
  -2  -4   2 1966.30   49.40
   2   4   2 2060.49   49.60
   2   4   2 2034.50   49.10
   2  -4  -2 2025.30   50.99
   2   4   2 2075.39   49.60
  -2   4  -2 2108.39   49.30
  -2  -4   2 2091.39   49.00
  -2  -4   2 2072.49   49.90
  -2   4  -2 2088.79   49.00
   2  -4  -2 2070.29   50.39
  -4   4   2 1220.68   31.00
  -4  -4  -2 1264.07   33.70
  -4   4   2 1176.78   34.40
  -4   4   2 1194.98   35.10
  -4  -4  -2 1196.98   32.60
   4  -4   2 1183.68   34.50
   4  -4   2 1238.28   32.20
   4   4  -2 1192.58   33.50
  -4  -4  -2 1181.98   31.30
  -4  -4  -2 1131.29   32.20
   4   4  -2 1162.78   33.00
   4  -4  -2 1206.68   29.60
  -4  -4   2 1168.28   33.70
   4   4   2 1247.08   31.70
  -4  -4   2 1224.88   34.00
  -4   4  -2 1264.17   32.40
  -4   4  -2 1150.08   33.20
   4  -4  -2 1220.08   35.20
   4   4   2 1212.28   33.10
  -4  -4   2 1197.78   32.60
   4   4   2 1219.48   33.10
   4   4   2 1150.48   32.60
  -4  -4   2 1179.98   32.90
  -4   4  -2 1315.97   43.30
  -6   4   2  429.16   18.00
   6   4  -2  423.66   17.30
   6  -4   2  419.46   16.10
  -6  -4  -2  435.46   18.30
  -6  -4  -2  417.56   16.20
  -6  -4  -2  417.96   16.60
  -6   4   2  417.66   15.60
  -6   4  -2  419.26   16.50
  -6  -4   2  424.76   18.30
   6  -4  -2  428.76   14.10
  -6   4  -2  448.76   17.30
   6   4   2  440.66   16.70
   6  -4  -2  424.36   19.30
   6   4   2  442.56   17.40
  -6  -4   2  419.56   16.80
   6   4   2  407.06   16.70
   8   4  -2  121.39    9.40
  -8  -4  -2  125.29   10.20
  -8   4   2  127.89   10.40
   8  -4   2  123.19   10.50
  -8   4   2  128.19    9.00
  -8  -4   2  117.59    8.60
  -8   4  -2  116.49    8.90
   8   4   2  140.49    9.70
   8  -4  -2  104.99   10.10
  -8   4  -2  123.99    9.60
  -8  -4   2  104.99    9.90
   8   4   2  131.99    9.50
  10   4  -2   49.50    6.00
 -10  -4  -2   38.40    7.80
 -10   4   2   39.20    8.10
  10  -4   2   51.79    7.40
  10   4   2   43.20    5.50
 -10   4  -2   50.29    8.80
 -10  -4   2   39.00    8.30
  10  -4  -2   49.70    9.70
   1  -5   2 1724.33   41.30
   1  -5   2 1684.43   39.50
  -1  -5  -2 1713.13   42.10
  -1  -5  -2 1643.24   39.80
   1  -5   2 1681.73   41.40
   1   5  -2 1664.23   40.50
   1   5  -2 1672.83   40.30
  -1   5   2 1652.03   40.40
  -1  -5  -2 1672.93   40.60
  -1   5   2 1670.63   42.40
  -1   5   2 1673.53   38.70
   1   5  -2 1646.64   40.80
   1  -5   2 1714.43   40.80
  -1   5   2 1707.63   39.10
   1   5  -2 1679.43   41.40
   1  -5  -2 1680.33   40.80
   1  -5  -2 1718.13   42.90
  -1   5  -2 1644.44   41.10
   1   5   2 1644.14   41.60
  -1  -5   2 1688.93   40.80
  -1   5  -2 1695.73   42.40
  -1   5  -2 1670.03   39.80
  -1  -5   2 1730.43   40.70
   1   5   2 1638.44   40.70
  -1  -5   2 1684.13   41.10
  -1  -5   2 1699.23   41.30
  -1   5  -2 1720.23   40.70
   3   5  -2  805.22   23.80
  -3  -5  -2  859.61   24.70
   3  -5   2  843.52   25.10
  -3   5   2  811.02   25.40
  -3  -5  -2  822.82   23.30
  -3  -5  -2  826.22   22.30
  -3   5   2  789.62   24.40
  -3  -5  -2  822.62   23.60
   3  -5   2  838.32   23.00
   3   5  -2  820.72   24.50
  -3   5   2  823.22   21.60
  -3  -5   2  782.82   23.70
   3   5   2  825.52   24.10
   3   5   2  807.82   23.70
  -3  -5   2  836.42   24.60
  -3   5  -2  822.32   24.40
   3  -5  -2  815.92   25.20
  -3  -5   2  833.72   23.70
  -3  -5   2  848.02   24.40
  -3   5  -2  829.12   23.10
  -3   5  -2  816.82   24.00
   3   5   2  834.12   23.80
   5   5  -2  531.55   19.50
  -5  -5  -2  503.45   17.20
  -5  -5  -2  510.45   18.30
   5  -5   2  508.15   20.40
  -5   5   2  520.35   17.00
   5  -5   2  510.55   17.50
  -5  -5  -2  529.25   19.50
  -5   5  -2  532.35   18.30
  -5  -5   2  534.95   20.00
   5   5   2  543.65   19.20
   5  -5  -2  543.65   21.20
  -5   5  -2  537.15   19.60
  -5  -5   2  492.35   20.30
  -5  -5   2  492.05   19.10
   5   5   2  533.05   17.50
   5  -5  -2  571.34   15.80
   5   5   2  533.45   19.10
  -5   5  -2  540.25   18.50
   7   5  -2  229.18   12.90
  -7  -5  -2  229.98   13.40
  -7   5   2  243.08   11.70
   7  -5   2  212.28   13.80
  -7   5   2  241.78   13.90
  -7  -5  -2  215.78   12.00
   7  -5   2  234.98   11.60
  -7  -5   2  225.18   12.30
  -7  -5   2  273.27   15.00
   7  -5  -2  249.48   15.30
   7   5   2  245.58   12.30
  -7   5  -2  260.77   13.40
   7   5   2  227.88   12.50
  -7   5  -2  228.58   12.10
  -9  -5  -2   79.29    8.70
   9  -5   2   78.39    9.00
  -9   5   2   57.09    7.20
  -9   5   2   74.49    8.60
   9  -5   2   66.29    6.40
   9   5  -2   73.79    7.70
  -9  -5   2   80.69    9.30
   9  -5  -2   77.29    9.30
  -9   5  -2   65.19    7.50
   9   5   2   74.49    7.60
 -11   5   2   11.30    4.70
 -11  -5  -2   25.70    6.10
  11   5  -2   19.70    5.40
  11  -5   2   21.10    6.10
  11  -5  -2   15.80    4.20
  11   5   2   14.80    4.20
 -11  -5   2   14.90    6.20
 -11   5  -2   19.50    5.30
   0  -6   2  229.68    8.80
   0  -6  -2  220.38    7.80
   0   6   2  236.08    7.50
   0   6  -2  221.18    8.60
   0   6  -2  218.88    8.50
   0   6  -2  218.38    8.60
   0   6   2  218.28    7.80
   0  -6  -2  234.78    7.60
   0  -6  -2  209.68    7.40
   0  -6  -2  225.48    9.90
   0  -6   2  244.18    9.00
   0   6  -2  222.88    8.60
   0  -6   2  212.68    8.20
   0   6   2  218.18    7.90
   0  -6  -2  223.58    7.50
   0  -6   2  227.98    9.10
   2   6  -2  298.47   11.30
  -2  -6  -2  304.67   10.70
   2  -6   2  304.87   12.00
   2   6  -2  294.07   11.80
  -2  -6  -2  308.17   12.00
  -2  -6  -2  289.37   10.90
  -2   6   2  300.57   12.60
   2  -6   2  301.47   10.70
  -2   6   2  282.87   11.20
  -2   6   2  305.97    9.60
  -2  -6  -2  313.87   10.60
   2  -6   2  299.37   11.50
   2   6   2  322.87   11.80
   2  -6  -2  315.97   12.90
   2   6   2  298.37   11.50
  -2   6  -2  301.97   11.60
  -2  -6   2  304.47   10.80
  -2   6  -2  292.17   10.70
  -2  -6   2  280.87   11.10
  -2  -6   2  302.97   10.80
  -2   6  -2  306.17   11.40
   2  -6  -2  299.57    8.60
   2  -6  -2  303.97   11.80
  -2  -6   2  306.47   11.90
  -4  -6  -2   29.40    3.00
  -4  -6  -2   28.20    3.20
  -4   6   2   26.70    3.80
   4   6  -2   25.00    3.20
  -4   6   2   34.00    3.10
   4   6  -2   29.40    4.00
  -4   6   2   31.50    4.20
  -4  -6  -2   29.50    3.40
   4  -6   2   28.20    3.30
   4  -6   2   33.00    5.50
  -4  -6  -2   28.80    4.10
   4  -6  -2   36.80    6.50
  -4  -6   2   40.00    8.00
   4  -6  -2   31.00    2.60
  -4  -6   2   29.70    4.10
   4   6   2   28.60    3.60
  -4   6  -2   34.80    6.80
   4   6   2   26.80    3.80
  -4  -6   2   27.70    3.80
  -4  -6   2   29.80    3.50
  -4   6  -2   31.30    3.90
   4   6   2   32.20    4.00
  -4   6  -2   29.10    3.80
  -6  -6  -2   48.50    4.60
   6   6  -2   53.19    5.90
   6  -6   2   57.79    6.70
   6  -6   2   47.10    4.60
  -6  -6  -2   48.90    5.20
  -6  -6  -2   49.30    5.90
  -6   6   2   54.59    5.00
  -6   6   2   54.49    6.40
   6  -6  -2   47.50    6.30
  -6   6  -2   48.80    4.90
  -6  -6   2   55.29    5.50
  -6   6  -2   48.40    5.60
   6  -6  -2   48.00    3.80
   6   6   2   54.09    6.00
  -6  -6   2   49.60    6.20
   8  -6   2   12.70    4.50
  -8  -6  -2    7.50    3.30
  -8   6   2    9.20    3.60
   8   6  -2   10.30    4.10
   8  -6   2    9.90    3.30
  -8   6   2   12.60    4.40
   8   6   2    9.60    3.10
  -8   6  -2   11.50    2.90
  -8   6  -2   11.70    4.20
  -8  -6   2   14.00    3.50
   8  -6  -2   10.50    4.20
  -8  -6   2   11.30    3.70
 -10  -6  -2    3.60    2.60
  10  -6   2    6.90    3.40
  10   6  -2   -0.30    3.20
 -10   6   2    4.90    2.90
  10   6   2    9.40    4.70
 -10   6  -2    6.30    3.20
 -10  -6   2    0.10    2.60
  10  -6  -2    4.10    3.10
  -1   7   2  837.22   21.50
   1  -7   2  846.32   24.30
  -1  -7  -2  817.02   23.00
  -1   7   2  817.12   22.90
   1   7  -2  808.02   23.10
   1   7  -2  875.31   23.50
  -1  -7  -2  825.22   20.90
   1  -7   2  833.62   22.00
  -1   7   2  847.72   25.50
  -1  -7  -2  828.22   22.60
   1   7  -2  815.32   23.70
   1   7  -2  854.71   24.30
   1  -7   2  861.01   24.90
  -1   7   2  859.81   22.30
   1  -7   2  854.01   23.60
  -1   7  -2  909.51   24.50
   1   7   2  849.61   24.90
   1   7   2  839.42   23.60
  -1   7  -2  862.01   23.60
  -1   7  -2  848.82   24.00
   1   7   2  828.52   20.80
  -1  -7   2  862.71   24.70
  -1   7  -2  854.01   22.50
   1  -7  -2  850.81   23.40
   1  -7  -2  870.41   26.20
   1  -7  -2  868.91   21.30
  -1  -7   2  888.51   23.70
  -1  -7   2  839.32   23.60
  -3  -7  -2  532.75   17.20
  -3  -7  -2  577.14   19.20
  -3   7   2  526.25   15.90
   3   7  -2  552.04   19.00
  -3  -7  -2  507.15   17.70
   3  -7   2  532.55   16.90
   3  -7   2  495.85   18.60
  -3   7   2  518.15   24.40
   3  -7   2  526.95   18.40
  -3   7   2  489.75   18.00
  -3  -7  -2  557.34   14.90
  -3  -7   2  503.15   18.10
  -3  -7   2  541.45   17.30
   3  -7  -2  537.75   19.90
   3  -7  -2  556.64   15.80
   3  -7  -2  547.45   19.30
   3   7   2  524.25   18.20
   3   7   2  573.44   20.30
  -3   7  -2  535.55   18.30
  -3  -7   2  537.95   18.70
  -3  -7   2  533.55   18.00
  -3   7  -2  551.14   17.50
  -3  -7   2  519.75   16.80
   5  -7   2  252.37   14.10
  -5  -7  -2  258.17   10.60
   5   7  -2  238.18   12.70
  -5  -7  -2  254.67   13.20
  -5   7   2  245.58   10.60
   5  -7   2  241.48   10.90
   5  -7  -2  269.87   15.80
   5   7   2  252.77   12.70
  -5  -7   2  249.97   12.10
  -5   7  -2  241.38   14.20
  -5  -7   2  243.28   12.20
  -5   7  -2  243.68   11.40
  -5  -7   2  266.27   15.60
   5  -7  -2  244.88    8.90
   7   7  -2   91.89    8.40
  -7   7   2  102.59    8.90
  -7   7   2   91.99    7.10
   7  -7   2  103.29   10.00
  -7  -7  -2   98.49    8.80
   7   7   2   98.99    8.40
   7  -7  -2  103.69    9.90
  -7  -7   2  103.19    9.30
  -7  -7   2   85.29    7.60
  -7   7  -2   94.39    7.30
  -7   7  -2   95.69    8.10
   9  -7   2   46.60    9.40
   9   7  -2   46.50    6.30
  -9  -7  -2   48.00    6.90
  -9   7   2   52.69    9.80
  -9  -7   2   37.30    8.90
   9   7   2   47.20    6.10
  -9   7  -2   41.80    7.50
   9  -7  -2   43.40   12.00
 -11  -7  -2    6.70    4.40
 -11   7   2   13.70    5.60
  11  -7   2   11.30    5.10
  11   7  -2    9.30    3.20
 -11  -7   2    3.30    4.30
  11   7   2   13.80    4.10
  11  -7  -2   13.70    5.20
 -11  -7   2    9.80    3.40
 -11   7  -2   10.90    5.10
   0  -8  -2  513.35   15.20
   0   8   2  521.95   18.20
   0   8   2  537.85   15.90
   0  -8  -2  517.15   15.40
   0  -8  -2  518.75   15.30
   0  -8   2  523.75   16.60
   0   8   2  519.75   15.70
   0   8  -2  510.55   17.00
   0  -8   2  544.65   18.00
   0   8   2  504.85   15.00
   0   8  -2  509.25   16.40
   0  -8   2  534.25   16.90
   0  -8  -2  534.65   15.20
   0  -8   2  520.25   15.90
   0   8  -2  514.35   16.50
   0  -8  -2  538.05   18.90
   0   8  -2  528.85   16.60
   2   8  -2  559.14   18.50
  -2  -8  -2  525.95   17.60
  -2   8   2  551.74   18.00
   2  -8   2  558.04   17.50
  -2  -8  -2  556.54   17.10
   2   8  -2  583.44   19.20
  -2   8   2  559.64   16.50
  -2  -8  -2  564.34   19.60
  -2  -8  -2  551.64   17.40
   2  -8   2  582.44   19.40
   2  -8   2  584.54   19.30
   2   8   2  567.34   18.50
  -2   8  -2  482.45   19.60
  -2  -8   2  534.25   18.00
  -2   8  -2  558.44   18.70
  -2  -8   2  578.54   19.30
  -2   8  -2  535.65   18.30
  -2  -8   2  567.64   17.50
   2  -8  -2  563.44   15.10
   2  -8  -2  562.34   18.70
   2   8   2  527.25   18.60
   2  -8  -2  596.34   21.00
   4   8  -2  259.27   12.90
  -4  -8  -2  247.08    8.90
   4  -8   2  243.18   10.60
  -4  -8  -2  262.87   11.70
  -4  -8  -2  260.67   13.00
   4  -8   2  264.37   13.30
  -4   8   2  238.28   10.10
  -4  -8  -2  244.48    9.60
  -4  -8   2  265.27   12.20
   4  -8  -2  266.67   13.50
  -4  -8   2  258.47   11.00
  -4   8  -2  261.47   12.60
   4   8   2  258.97   12.50
   4  -8  -2  247.38    8.70
  -4   8  -2  261.27   11.30
  -4  -8   2  264.07   13.00
  -6   8   2  157.98    8.90
  -6  -8  -2  185.28   12.00
   6   8  -2  176.78   11.60
   6  -8   2  170.98   12.10
  -6  -8   2  182.48   10.00
  -6   8  -2  166.98    9.90
   6   8   2  166.68   11.00
   6  -8  -2  169.68   12.40
  -6   8  -2  169.18   10.30
  -6  -8   2  162.88   10.20
  -6  -8   2  192.68   12.20
  -8   8   2   94.89    7.60
   8  -8   2  102.99   10.40
   8  -8   2   98.79    7.40
  -8   8   2  105.69    9.80
  -8  -8  -2   85.79    9.10
   8   8  -2  101.89    9.50
  -8  -8   2   79.79    8.50
   8   8   2  107.29    9.50
  -8   8  -2   79.89    9.10
  -8   8  -2  110.39    9.30
  -8  -8   2  105.19    8.30
  -8  -8   2  104.09   10.00
   8  -8  -2   89.39    9.80
 -10   8   2   16.30    4.80
 -10  -8  -2   17.00    5.50
  10  -8   2   23.40    7.00
  10   8  -2   10.40    4.30
 -10   8  -2   21.90    5.80
 -10  -8   2   14.10    4.70
 -10  -8   2   20.00    6.60
  10  -8  -2   10.60    4.90
  10   8   2   21.10    5.60
   1   9  -2 1017.50   28.70
   1  -9   2 1039.00   27.00
   1   9  -2 1029.40   28.60
   1  -9   2 1090.59   31.20
  -1  -9  -2  993.70   28.10
  -1   9   2 1053.99   27.90
  -1  -9  -2 1023.70   26.30
   1   9  -2 1096.09   30.00
   1  -9   2 1073.69   29.90
  -1  -9  -2  939.41   27.70
  -1  -9  -2 1053.69   31.50
  -1   9   2  996.30   28.00
  -1   9   2 1036.20   26.80
  -1   9   2 1012.40   31.20
  -1  -9  -2 1030.00   28.00
   1   9  -2 1052.79   29.90
   1   9   2 1070.19   28.50
   1  -9  -2 1056.89   28.80
   1   9   2 1026.60   26.20
  -1  -9   2 1037.30   28.70
  -1   9  -2 1065.09   28.00
  -1  -9   2 1020.00   28.80
  -1   9  -2 1033.40   29.30
   1  -9  -2 1054.69   32.30
  -1   9  -2 1059.49   29.10
   1   9   2 1050.19   29.00
   1  -9  -2 1015.20   26.30
  -1  -9   2 1080.99   29.30
  -1   9  -2 1060.59   30.00
  -1  -9   2 1064.79   30.80
   1  -9  -2 1086.69   26.70
   1   9   2 1036.00   30.70
  -3   9   2  214.48   11.80
   3   9  -2  224.68   11.60
  -3   9   2  226.18    9.30
   3  -9   2  222.48    9.90
  -3  -9  -2  224.88   11.20
  -3  -9  -2  215.28    8.20
   3  -9   2  219.08   11.70
  -3  -9  -2  212.68   10.40
   3   9  -2  211.58   10.70
  -3  -9  -2  225.48   12.00
   3  -9   2  231.68   11.70
  -3   9   2  210.28   10.50
  -3  -9  -2  221.48    7.80
  -3  -9  -2  228.48   10.00
  -3  -9   2  209.78   11.10
   3   9   2  210.18   10.90
  -3  -9   2  238.48   10.10
   3  -9  -2  216.78    8.90
   3  -9  -2  226.58   12.60
  -3  -9   2  234.98   10.60
   3   9   2  222.28   11.00
   3  -9  -2  226.88   11.60
  -3   9  -2  215.38   11.00
  -3   9  -2  222.58   10.20
  -3   9  -2  217.18   12.40
  -3  -9   2  227.88   11.70
   5   9  -2  643.84   24.10
  -5  -9  -2  604.94   22.10
  -5  -9  -2  631.54   18.60
   5  -9   2  614.14   20.60
   5  -9   2  641.44   25.00
  -5  -9  -2  601.44   19.40
  -5  -9  -2  652.83   24.40
  -5   9   2  624.94   20.50
  -5  -9   2  644.34   21.10
  -5   9  -2  614.54   21.50
  -5  -9   2  645.04   24.40
   5  -9  -2  632.44   25.10
   5   9   2  653.33   23.80
  -5  -9   2  618.34   22.50
   7   9  -2   30.80    6.40
  -7  -9  -2   38.00    7.00
  -7   9   2   47.30    6.30
   7  -9   2   42.40    8.40
   7  -9   2   31.60    4.40
  -7   9   2   30.90    4.30
  -7  -9  -2   41.10    4.20
  -7   9  -2   37.60    4.40
  -7  -9   2   36.10    7.00
  -7  -9   2   45.70    5.60
  -7  -9   2   35.90    4.90
   7  -9  -2   46.90    9.20
   7   9   2   35.40    7.10
  -7   9  -2   40.80    6.90
   9   9  -2   96.09   10.30
   9  -9   2  105.99   11.20
  -9   9   2  112.89   10.70
  -9  -9  -2  113.39    7.90
  -9  -9  -2  111.99   10.70
  -9  -9   2  108.29   10.80
  -9   9  -2  116.49   10.00
  -9  -9   2  112.69    8.90
   9  -9  -2  112.49   11.40
 -11  -9  -2    3.40    4.20
  11   9  -2    8.50    4.20
 -11  -9  -2   12.90    3.70
 -11   9   2   11.80    5.30
  11   9   2    5.40    3.50
 -11  -9   2    2.40    4.50
 -11   9  -2    0.40    2.70
 -11  -9   2   11.90    3.90
  11  -9  -2    6.40    4.90
   0  10  -2  692.23   21.40
   0  10  -2  694.03   22.30
   0 -10   2  671.93   20.40
   0  10  -2  700.23   21.60
   0  10   2  654.33   23.10
   0 -10  -2  703.53   20.00
   0 -10  -2  676.23   19.90
   0  10  -2  725.43   21.70
   0 -10  -2  684.73   20.10
   0  10   2  686.53   20.50
   0 -10   2  711.53   21.90
   0 -10  -2  734.83   24.80
   0 -10   2  683.23   23.30
   0 -10   2  703.03   21.40
   0  10   2  692.13   20.80
   0  10   2  666.93   19.70
   2 -10   2   13.00    4.40
  -2 -10  -2    7.70    1.70
  -2  10   2   13.80    3.60
   2  10  -2    8.20    2.20
  -2 -10  -2    8.10    2.40
  -2 -10  -2   10.60    2.80
   2 -10   2   19.20    4.70
   2  10  -2   10.00    2.70
  -2  10   2    8.00    2.50
  -2 -10  -2    5.60    2.70
   2 -10   2   11.10    2.70
  -2  10   2   14.70    3.00
  -2 -10  -2    9.40    2.40
   2  10  -2    7.70    2.80
  -2  10  -2   13.10    3.00
   2 -10  -2   11.10    3.60
   2  10   2   15.90    3.50
  -2  10  -2   14.50    2.60
   2 -10  -2    9.20    1.90
  -2 -10   2   13.70    3.20
  -2  10  -2    8.60    2.60
  -2 -10   2   15.30    3.40
   2  10   2    8.40    2.60
   2 -10  -2    7.90    2.80
  -2 -10   2   10.10    3.20
  -2 -10   2   11.70    3.00
  -2  10  -2    9.10    2.30
  -4 -10  -2  181.78    9.60
   4 -10   2  166.48    8.80
  -4 -10  -2  163.98    9.20
  -4  10   2  171.58    8.60
  -4 -10  -2  183.48   14.30
  -4 -10  -2  173.58    7.20
   4  10  -2  156.58   13.40
   4 -10   2  176.28   10.80
  -4 -10  -2  170.68    7.70
  -4  10  -2  175.38    9.60
  -4 -10   2  181.68   10.30
   4 -10  -2  172.88    6.90
   4 -10  -2  177.58   11.40
   4 -10  -2  184.58   14.20
  -4 -10   2  160.98    9.40
   4  10   2  161.18   13.10
  -4 -10   2  175.78    9.20
  -4 -10   2  174.18    9.90
   6 -10   2   10.00    4.30
  -6  10   2   13.10    3.20
  -6 -10  -2   18.10    5.10
  -6 -10  -2   17.40    3.30
   6  10  -2   10.80    4.40
  -6 -10  -2   13.30    3.90
  -6 -10   2    7.40    2.40
   6  10   2   18.40    5.40
  -6  10  -2   17.40    3.70
  -6 -10   2   19.60    5.50
   6 -10  -2   18.20    6.10
   8 -10   2   10.40    4.00
  -8  10   2    9.10    4.30
   8  10  -2   11.60    4.40
  -8 -10  -2   15.30    3.50
  -8 -10  -2   15.80    4.90
   8 -10   2   15.30    4.70
  -8  10   2    8.60    3.30
   8 -10  -2   14.40    5.60
  -8 -10   2   11.50    3.30
   8  10   2   15.10    5.10
  -8  10  -2   12.00    4.00
  -8 -10   2    6.80    3.90
 -10 -10  -2    6.30    3.70
  10  10  -2    4.70    3.30
 -10 -10  -2    3.10    2.50
 -10  10   2   10.70    3.90
 -10  10  -2    4.90    3.40
 -10 -10   2    8.00    3.00
  10  10   2    3.20    3.40
  10 -10  -2   10.60    4.70
  -1 -11  -2  490.85   18.50
   1  11  -2  571.74   19.40
  -1 -11  -2  553.34   18.60
  -1  11   2  583.24   18.70
   1  11  -2  575.64   19.30
   1  11  -2  606.54   20.40
  -1  11   2  616.14   19.10
  -1 -11  -2  590.84   18.80
   1  11  -2  575.44   20.50
  -1  11   2  604.64   17.80
   1 -11   2  625.54   22.30
  -1  11   2  575.94   22.30
  -1 -11  -2  608.34   22.60
  -1 -11  -2  583.64   17.30
   1 -11   2  592.44   20.50
   1 -11   2  576.64   17.60
   1 -11   2  589.54   21.30
   1 -11  -2  564.94   16.90
   1  11   2  604.54   23.00
  -1 -11   2  612.64   19.70
   1 -11  -2  566.74   22.60
   1 -11  -2  597.74   17.40
  -1 -11   2  612.04   22.00
  -1  11  -2  586.74   20.60
  -1  11  -2  595.54   19.80
  -1  11  -2  562.04   19.70
  -1  11  -2  598.84   18.80
   1  11   2  608.04   19.30
   1  11   2  585.44   19.60
  -1 -11   2  600.74   19.90
  -1 -11   2  574.24   19.20
   1 -11  -2  603.04   19.50
   1  11   2  565.14   17.00
  -3 -11  -2  109.29    5.40
  -3 -11  -2  107.89    5.80
  -3  11   2  114.59    6.70
   3 -11   2  116.39    8.90
   3  11  -2  108.69    8.50
   3 -11   2  119.19    9.00
  -3 -11  -2  121.59    7.50
  -3 -11  -2  117.39    8.10
   3 -11   2  109.99    7.00
  -3 -11  -2  120.49    9.30
  -3 -11   2  116.19    7.30
  -3 -11   2  115.29    9.00
  -3  11  -2  121.49    7.60
   3 -11  -2  113.09    5.50
   3 -11  -2  118.49    9.80
   3  11   2  104.99    8.10
  -3 -11   2  115.59    7.70
  -3  11  -2   99.69    7.70
   3 -11  -2  113.59    8.50
  -5 -11  -2  402.76   16.60
  -5  11   2  389.16   15.50
   5 -11   2  389.56   19.20
  -5 -11  -2  410.66   19.30
  -5 -11  -2  368.06   13.80
   5  11  -2  408.66   19.10
  -5 -11  -2  398.86   13.40
   5 -11  -2  426.66   19.80
  -5 -11   2  376.06   17.40
  -5 -11   2  409.66   16.00
   5  11   2  388.16   18.20
  -5  11  -2  401.96   16.70
  -5 -11   2  400.86   19.00
  -5 -11   2  408.96   16.90
   7 -11   2   18.70    4.00
  -7  11   2   23.10    4.70
  -7 -11  -2   24.60    4.20
   7 -11   2   24.40    6.40
   7  11  -2   16.80    5.30
  -7 -11  -2   18.40    5.30
  -7  11  -2   17.00    4.30
  -7 -11   2   19.40    4.30
  -7 -11   2   22.50    6.50
   7  11   2   26.20    6.20
  -7 -11   2   18.60    4.70
   7 -11  -2   22.90    6.90
  -7  11  -2   27.80    6.10
  -9 -11  -2   47.30    4.90
  -9  11   2   44.40    9.20
  -9 -11  -2   53.59    7.70
   9  11  -2   36.00    7.70
   9 -11   2   32.50    8.30
   9  11   2   50.19    7.10
  -9 -11   2   46.40    6.10
  -9 -11   2   49.30    5.50
   9 -11  -2   49.50   10.00
  -9  11  -2   49.99    7.00
 -11  11   2    1.40    3.40
  11  11  -2    4.40    6.50
 -11 -11  -2    1.80    4.20
  11  11   2   13.20    7.10
 -11  11  -2    2.20    4.00
   0  12   2  402.66   14.10
   0  12   2  423.96   15.00
   0  12  -2  389.56   16.20
   0 -12  -2  378.46   13.80
   0  12   2  408.56   15.00
   0 -12   2  433.66   15.80
   0 -12   2  371.16   14.10
   0  12  -2  416.66   15.70
   0  12  -2  396.26   15.30
   0 -12  -2  415.46   14.20
   0 -12  -2  433.06   14.80
   0 -12   2  388.76   15.70
   0 -12   2  401.66   17.80
   2 -12   2   74.19    5.90
  -2 -12  -2   71.39    7.40
  -2  12   2   60.79    5.30
  -2 -12  -2   65.99    5.40
   2 -12   2   60.89    6.80
  -2  12   2   63.59    5.30
  -2 -12  -2   67.19    4.40
   2 -12   2   70.89    6.60
   2  12  -2   78.59    7.10
   2  12  -2   61.79    5.20
  -2 -12   2   67.49    5.90
   2 -12  -2   62.39    7.40
   2  12   2   68.99    6.30
  -2  12  -2   66.79    7.00
  -2  12  -2   70.09    5.90
   2 -12  -2   69.69    4.50
  -2 -12   2   78.59    6.00
  -2 -12   2   79.69    7.40
   2 -12  -2   61.59    6.00
  -4  12   2  146.19    8.50
   4 -12   2  157.78   11.10
  -4 -12  -2  149.29    6.90
  -4 -12  -2  152.38   11.10
  -4 -12  -2  158.08    9.20
   4 -12   2  147.49   11.30
   4  12  -2  152.48   10.90
  -4 -12  -2  130.49    7.00
   4 -12   2  157.18    8.70
  -4 -12   2  161.28    9.70
  -4 -12   2  159.68    9.00
   4 -12  -2  141.69   10.60
   4 -12  -2  150.28   11.80
  -4  12  -2  150.08    9.20
  -4 -12   2  156.78   10.00
  -4 -12   2  163.48   11.40
   4  12   2  163.38   10.80
  -6 -12  -2   17.70    2.50
  -6 -12  -2   18.70    4.50
  -6  12   2   14.30    3.70
   6 -12   2   24.30    6.70
  -6 -12  -2   16.50    5.20
   6  12  -2   19.10    5.40
  -6 -12  -2   18.90    5.60
   6 -12   2   16.30    3.70
  -6 -12   2   24.70    6.40
  -6 -12   2   22.50    5.00
  -6 -12   2   17.80    4.00
   6 -12  -2   11.20    4.60
  -6  12  -2   16.70    4.10
   6  12   2   13.90    4.80
  -8 -12  -2   24.40    5.30
   8 -12   2   28.20    7.80
  -8 -12  -2   23.90    7.40
  -8 -12   2   29.50    7.50
  -8 -12   2   27.40    5.50
   8  12   2   12.90    8.10
  -8 -12   2   27.70    5.80
  -8  12  -2   27.40    6.00
   8 -12  -2   24.50    6.90
  10  12  -2   18.30    6.50
 -10  12   2    9.10    4.30
 -10 -12  -2    9.00    5.10
 -10 -12  -2   19.40    4.30
 -10 -12  -2    5.20    4.00
  10 -12   2   19.40    6.00
 -10 -12   2   15.70    5.10
 -10 -12   2   16.20    4.70
  10 -12  -2    0.80    3.00
 -10 -12   2    8.00    3.60
  10  12   2    9.70    4.30
 -10  12  -2    8.70    4.60
   1 -13   2  147.79   10.70
  -1  13   2  145.39    7.60
   1 -13   2  144.19    7.30
   1  13  -2  140.09    8.30
  -1  13   2  145.59    8.10
  -1 -13  -2  163.08   14.60
  -1  13   2  155.68    8.50
   1  13  -2  167.48   10.00
   1 -13   2  150.68    9.60
   1 -13   2  145.59    9.20
  -1 -13  -2  151.78    7.50
   1  13  -2  139.99    8.60
  -1 -13   2  144.49   10.40
  -1 -13   2  158.28    9.20
   1  13   2  151.88    9.10
  -1  13  -2  155.98    8.60
   1  13   2  146.39    7.30
  -1  13  -2  142.09    8.60
   1 -13  -2  157.68    8.90
   1 -13  -2  156.08   12.20
  -1 -13   2  151.48    8.90
   1 -13  -2  141.99    6.90
   1 -13  -2  146.39    7.40
   1  13   2  143.29    9.10
   3 -13   2  175.38    9.70
   3 -13   2  186.08   12.40
  -3  13   2  186.88    9.80
  -3 -13  -2  200.98   10.70
   3 -13   2  183.38   11.90
  -3 -13  -2  189.18    8.10
  -3 -13  -2  201.98   13.10
   3  13  -2  203.48   12.40
   3  13   2  204.08   11.80
   3 -13  -2  202.28   13.70
   3 -13  -2  200.48   13.10
  -3 -13   2  200.88   11.00
  -3 -13   2  194.48   12.50
  -3  13  -2  185.68   10.40
   3 -13  -2  187.78    8.00
  -3 -13   2  198.48   10.20
  -5 -13  -2   85.79    9.00
  -5 -13  -2   92.69    7.30
  -5  13   2   86.89    6.80
   5 -13   2   72.69    7.40
  -5 -13  -2   86.39    5.70
   5 -13   2   83.59    8.70
   5  13  -2  103.59    9.50
  -5 -13   2   88.49    7.10
   5 -13  -2   94.69    9.20
  -5  13  -2   88.79    7.30
  -5 -13   2   80.59    7.30
   5 -13  -2   91.69    9.40
  -5 -13   2   84.19    9.00
   5  13   2   87.19    8.50
   7 -13   2   61.69    8.30
   7  13  -2   66.09    8.20
  -7 -13  -2   57.19    9.80
  -7 -13  -2   55.99    4.60
  -7  13   2   55.69    6.00
  -7 -13  -2   70.49    7.00
   7 -13  -2   53.99    7.70
   7  13   2   63.89    7.90
  -7 -13   2   60.19    8.00
  -7 -13   2   61.19    5.80
  -7 -13   2   64.09    6.90
   9 -13   2   22.80    6.90
  -9  13   2   18.40    5.50
  -9 -13  -2   22.20    4.80
  -9 -13  -2   18.00    5.70
   9  13  -2   24.90    6.80
  -9 -13  -2   24.40    4.00
  -9  13  -2   16.40    5.30
  -9 -13   2   14.50    5.20
  -9 -13   2   21.10    4.70
   9 -13  -2   17.20    7.10
  -9 -13   2   21.50    5.40
   9  13   2   16.30    5.70
   0 -14   2  214.08   11.30
   0  14   2  204.88   10.70
   0 -14   2  209.18   13.30
   0 -14  -2  221.58   10.30
   0 -14   2  201.48    9.90
   0  14   2  189.18   10.70
   0 -14   2  216.18   11.10
   0 -14  -2  231.08   10.10
   0  14  -2  204.48   10.80
   0 -14  -2  226.58   14.10
   0 -14  -2  193.08    9.30
   0  14   2  215.98   10.50
   0  14  -2  219.98   11.30
  -2  14   2  445.76   17.30
   2 -14   2  438.96   19.00
  -2 -14  -2  476.35   21.50
   2 -14   2  457.85   17.40
  -2 -14  -2  465.25   15.20
   2  14  -2  482.55   19.60
  -2 -14  -2  437.66   16.90
  -2 -14   2  434.36   20.40
   2 -14  -2  476.05   17.90
  -2 -14   2  459.45   17.40
   2 -14  -2  465.55   18.60
   2  14   2  419.76   14.40
  -2 -14   2  456.55   18.20
   2 -14  -2  458.15   21.80
   2  14   2  474.85   18.90
  -2  14  -2  418.16   17.60
   4 -14   2   97.09    9.10
  -4  14   2   86.79    6.90
   4  14  -2   97.99    9.10
  -4 -14  -2  101.69    7.80
  -4 -14  -2  105.49   10.10
   4 -14   2  105.09    9.50
  -4 -14   2   96.49    7.30
   4 -14  -2   94.09    9.80
  -4 -14   2  102.99    8.20
  -4 -14   2   96.89    9.30
  -4  14  -2  105.79    7.80
   4 -14  -2   98.89    9.20
   4  14   2  107.59    8.90
  -6 -14  -2  108.69    8.40
  -6  14   2   95.99    7.70
  -6 -14  -2  106.99   10.70
   6 -14   2   92.59    7.10
   6  14  -2  105.09   10.30
   6 -14   2  113.49   10.90
   6  14   2   99.59    9.80
   6 -14  -2  106.49   10.50
  -6 -14   2  112.19   10.90
  -6 -14   2  106.59    7.80
  -6 -14   2  121.59    9.10
  -6  14  -2   93.19    8.10
  -8 -14  -2   27.40    7.70
   8  14  -2   43.30    9.00
  -8  14   2   47.60    9.30
   8 -14   2   45.70    9.30
  -8 -14  -2   29.10    6.00
  -8 -14   2   37.40    6.20
  -8 -14   2   24.50    5.60
   8 -14  -2   29.30    7.40
  -8 -14   2   32.10    7.30
   8  14   2   41.30    8.30
  10 -14   2   18.10    6.00
 -10  14  -2    9.60    3.90
 -10 -14   2    3.70    4.10
  10 -14  -2   15.90    5.40
 -10 -14   2   13.20    4.40
 -10 -14   2   10.50    5.50
   1 -15   2  173.88    8.70
   1 -15   2  195.08   12.40
   1  15  -2  186.68   10.70
  -1  15   2  192.78   10.60
   1 -15   2  198.98   13.30
   1 -15   2  211.18   12.10
   1  15  -2  194.28   13.60
  -1 -15  -2  193.58   13.70
  -1  15   2  195.28    9.80
  -1 -15  -2  198.98    9.40
   1 -15  -2  185.08    8.60
  -1 -15   2  193.38   10.90
  -1  15  -2  205.68   10.60
   1 -15  -2  199.38    9.20
   1  15   2  208.08   11.40
   1 -15  -2  209.78   11.10
   1 -15  -2  201.68   14.20
  -1 -15   2  195.68   13.30
   1  15   2  177.38    8.70
  -1 -15   2  194.08   10.90
  -1  15  -2  196.38   10.90
  -3 -15  -2  186.78   13.50
   3 -15   2  187.88   10.40
   3  15  -2  201.18   12.80
   3 -15   2  185.68   12.40
  -3  15   2  194.78   10.80
   3 -15   2  200.48   13.70
  -3  15  -2  177.78   10.80
  -3 -15   2  185.88   13.10
   3  15   2  181.08   11.80
  -3 -15   2  215.18   12.00
   3 -15  -2  179.68    8.10
   3 -15  -2  207.38   12.50
  -3 -15   2  209.48   11.00
   3 -15  -2  176.28   13.50
  -5 -15  -2  104.19   10.30
   5 -15   2   99.99    9.80
   5 -15   2   95.99    7.20
   5 -15   2   92.59    9.80
  -5  15   2  107.09    7.90
   5  15  -2  103.69   10.00
  -5 -15  -2  110.09    8.60
   5 -15  -2   98.99   10.60
  -5 -15   2  111.29   10.70
  -5  15  -2   98.69    8.10
  -5 -15   2  111.39    7.90
   5 -15  -2  129.59   11.10
   5  15   2  118.89   10.30
  -5 -15   2  111.29    8.90
   7  15  -2   74.09    9.20
  -7 -15  -2   69.39    8.80
  -7 -15  -2   90.89    8.20
   7 -15   2   76.79    9.70
  -7 -15   2   67.09    6.50
   7 -15  -2   69.39    8.70
  -7 -15   2   76.79    9.20
   7  15   2   73.79    9.00
  -7 -15   2   84.29    7.80
   9  15  -2   28.60    7.30
  -9 -15  -2   25.90    5.60
  -9  15   2   22.90    5.70
   9 -15   2   26.10    6.40
  -9 -15  -2   20.90    6.60
  -9  15  -2   31.50    6.90
   9  15   2   19.60    6.30
  -9 -15   2   24.60    5.30
  -9 -15   2   25.70    6.00
  -9 -15   2   20.80    5.80
   9 -15  -2   28.50    7.90
   0 -16   2  302.67   14.70
   0  16   2  292.87   13.60
   0 -16   2  292.27   16.70
   0  16   2  285.17   13.50
   0  16  -2  281.87   16.60
   0 -16  -2  286.37   12.30
   0  16  -2  306.57   14.30
   0 -16  -2  281.97   12.80
   0 -16  -2  270.67   16.90
   0 -16   2  300.67   13.90
   0  16   2  255.47   12.20
  -2  16   2  152.58    9.60
   2 -16   2  172.78   11.60
   2 -16   2  157.88   12.30
  -2 -16  -2  159.68    9.40
  -2 -16  -2  164.88   12.90
  -2 -16  -2  167.38    8.30
   2 -16   2  163.38    9.70
   2  16  -2  153.28   11.10
   2 -16  -2  175.08   13.50
  -2 -16   2  159.88   12.40
  -2 -16   2  169.38   12.10
  -2  16  -2  157.48   10.00
   2 -16  -2  167.38    8.20
   2  16   2  145.69    7.60
  -2 -16   2  173.08   10.50
   2 -16  -2  177.78   11.00
   2  16   2  162.88   10.90
   4 -16   2  173.28   13.00
   4  16  -2  176.98   12.70
   4 -16   2  159.08   11.40
  -4 -16  -2  167.48   13.50
  -4 -16  -2  169.88   10.60
  -4  16   2  142.49    9.90
   4 -16   2  179.18   12.90
  -4  16  -2  156.38   10.40
  -4 -16   2  181.28   11.40
  -4 -16   2  160.78   12.90
  -4 -16   2  180.38   10.20
   4 -16  -2  166.88   13.90
   4 -16  -2  172.78   12.30
   4  16   2  185.98   12.70
   6 -16   2   46.20    7.80
  -6 -16  -2   52.99    9.40
   6 -16   2   76.69    9.30
   6  16  -2   69.09    9.30
  -6  16   2   62.39    6.90
  -6 -16  -2   54.39    6.20
   6  16   2   62.79    8.90
  -6 -16   2   56.89    5.80
  -6 -16   2   54.69    6.70
  -6 -16   2   69.79    9.60
   6 -16  -2   61.79    8.20
   8  16  -2   50.29   10.20
  -8 -16  -2   56.89    7.40
   8 -16   2   37.60    9.20
  -8 -16  -2   41.80    8.90
   8 -16  -2   41.70    9.10
  -8 -16   2   39.30    5.00
  -8 -16   2   35.50    8.30
  -8 -16   2   55.89    6.80
   8  16   2   42.30    9.10
  -8  16  -2   44.80    8.60
  -1 -17  -2   40.00    5.00
  -1 -17  -2   44.20    4.60
   1  17  -2   45.10    6.20
   1 -17   2   50.99   10.00
  -1  17   2   42.60    4.80
  -1 -17  -2   42.70    9.30
  -1  17   2   42.40    5.30
   1 -17   2   44.90    5.90
   1 -17  -2   40.70    5.50
   1 -17  -2   40.60    8.60
  -1  17  -2   43.80    5.30
   1  17   2   37.60    4.20
  -1 -17   2   44.80    5.40
   1  17   2   47.90    6.00
  -1  17  -2   49.40    5.40
  -1 -17   2   50.09    5.90
  -1 -17   2   46.50    9.40
   3  17  -2   25.60    6.20
  -3  17   2   22.90    5.30
  -3 -17  -2   21.00    5.70
  -3 -17  -2   27.30    5.50
   3 -17   2   19.00    6.70
   3 -17   2   26.20    6.60
   3 -17   2   32.20    6.60
  -3 -17  -2   25.80    3.30
  -3  17  -2   32.00    6.30
   3  17   2   25.90    6.40
  -3 -17   2   27.70    5.50
  -3 -17   2   36.10    6.60
   3 -17  -2   23.40    6.00
   3 -17  -2   26.00    6.30
  -3 -17   2   29.60    6.90
   3 -17  -2   28.20    3.40
   5  17  -2   45.80    9.00
   5 -17   2   38.40    5.40
  -5 -17  -2   56.19   10.80
   5 -17   2   44.30    8.70
  -5 -17  -2   47.30    5.90
   5 -17   2   52.29    7.20
  -5  17   2   44.10    5.80
   5  17   2   43.80    8.40
   5 -17  -2   47.20    9.10
  -5 -17   2   49.99    5.40
  -5 -17   2   53.79    7.70
   5 -17  -2   33.50    7.70
  -5 -17   2   51.99   11.80
  -7 -17  -2    8.00    4.50
  -7 -17  -2   14.70    4.80
   7 -17   2   14.00    5.70
   7  17  -2    7.80    4.80
  -7 -17   2    9.40    4.50
  -7 -17   2    6.90    4.50
   7  17   2    7.00    4.80
  -7 -17   2    6.60    3.10
   7 -17  -2   17.90    5.60
   9  17  -2   11.90    5.00
  -9 -17  -2   17.50    6.30
  -9  17   2   15.40    8.00
   9 -17   2   17.20    5.90
  -9  17  -2   -0.50    4.10
  -9 -17   2    9.60    4.90
   9 -17  -2   17.70    5.90
   9  17   2   11.90    5.10
  -9 -17   2   12.70    4.30
  -9 -17   2   10.70    5.90
   0  18  -2  133.09    9.50
   0  18   2  126.19    8.80
   0  18   2  112.49    8.80
   0 -18  -2  141.29    8.90
   0 -18   2  123.19    9.50
   0 -18   2  130.69    9.20
   0 -18   2  118.89   11.40
   0 -18  -2  117.89    7.90
   0 -18  -2  122.69   11.90
  -2 -18  -2  189.28   14.60
   2 -18   2  174.08   10.40
   2 -18   2  203.38   13.00
   2  18  -2  192.08   13.00
   2 -18   2  182.48   13.90
  -2  18   2  176.98   11.10
  -2 -18  -2  194.98    9.60
  -2 -18  -2  176.48   10.40
  -2 -18   2  166.58   13.60
   2  18   2  198.78   12.70
   2 -18  -2  157.68   13.70
   2 -18  -2  206.78   12.40
  -2 -18   2  191.18   11.50
   2 -18  -2  171.78    8.80
  -2  18  -2  184.58   11.30
  -2 -18   2  213.78   11.80
   4 -18   2   67.89    6.70
   4 -18   2   80.79    9.30
  -4 -18  -2   61.79    6.60
  -4 -18  -2   66.19    8.80
   4  18  -2   66.99    8.50
  -4  18   2   66.59   12.80
   4 -18   2   73.79    8.60
  -4 -18   2   58.39   10.30
   4 -18  -2   68.79    9.30
  -4  18  -2   45.20    6.50
  -4 -18   2   67.99    7.10
  -4 -18   2   65.69    6.30
   4 -18  -2   60.39    7.70
   4  18   2   60.59    7.70
   6  18  -2   75.99    9.50
  -6 -18  -2   92.29   10.70
   6 -18   2   99.59   10.60
   6 -18  -2   91.39    9.90
  -6 -18   2   82.59    8.30
  -6 -18   2   83.39    7.00
   6  18   2   71.09    8.90
  -6 -18   2   81.39   10.10
   8 -18   2   13.80    6.50
  -8 -18  -2   17.60    6.20
  -8 -18   2    4.70    5.50
   8 -18  -2   12.80    4.90
  -8  18  -2    8.20    3.10
  -8 -18   2   13.40    4.70
   8  18   2    9.50    5.20
  -8 -18   2   17.70    5.40
   1 -19   2  218.48   13.30
   1 -19   2  208.08   15.30
   1  19  -2  233.78   13.80
  -1 -19  -2  239.98   11.50
  -1  19   2  249.08   13.40
  -1  19   2  204.08   12.40
  -1 -19  -2  204.38   11.30
   1 -19   2  193.38   11.90
  -1 -19  -2  225.18   16.30
  -1  19  -2  215.68   13.60
   1 -19  -2  206.88   15.90
   1 -19  -2  235.38   12.90
  -1 -19   2  204.18   12.30
  -1 -19   2  196.58   15.00
   1  19   2  232.08   13.30
   1 -19  -2  224.38   10.60
  -1 -19   2  197.58   12.30
   3 -19   2  237.88   15.30
  -3 -19  -2  213.98   12.30
  -3  19   2  216.58   12.90
   3 -19   2  220.48   15.20
   3  19  -2  247.48   15.70
  -3 -19  -2  216.18   16.40
   3 -19   2  219.18   15.80
  -3 -19  -2  237.78   10.40
  -3 -19   2  253.67   14.10
   3  19   2  226.18   14.50
  -3 -19   2  221.38   16.30
   3 -19  -2  197.88   10.00
   3 -19  -2  254.47   17.40
   3 -19  -2  246.88   14.80
  -3 -19   2  239.98   12.70
   5 -19   2   93.19   10.20
   5  19  -2   87.09   10.00
  -5 -19  -2   91.49    8.50
  -5 -19  -2  102.49   11.50
   5 -19   2   87.49    9.90
   5 -19  -2   95.19   10.80
  -5 -19   2   84.59   10.40
  -5 -19   2  109.99    9.40
   5 -19  -2   87.19   12.00
  -5 -19   2   89.39    7.30
   5  19   2   87.29    9.60
  -7 -19  -2   70.59   10.00
   7  19  -2   84.29   10.50
   7 -19   2   69.39    9.40
   7 -19  -2   80.39    9.50
  -7 -19   2   74.19    7.00
  -7 -19   2   86.49    8.70
   7  19   2   86.69    9.90
  -7 -19   2   74.29   10.20
   0  20  -2  147.89   10.50
   0 -20  -2  144.29    9.50
   0 -20  -2  144.89   13.30
   0  20   2  138.69    9.80
   0  20   2  159.28   10.20
   0 -20   2  128.19    9.50
   0 -20   2  133.39   12.40
   0 -20   2  147.79   10.70
   2 -20   2  150.78   13.40
  -2  20   2  151.58   11.20
  -2 -20  -2  186.88    9.60
  -2 -20  -2  156.28   14.10
   2  20  -2  187.88   12.90
   2 -20   2  152.58   10.60
   2 -20   2  198.38   13.20
   2 -20  -2  167.88   14.50
  -2 -20   2  160.48   11.00
  -2 -20   2  150.18   13.50
   2 -20  -2  154.38   10.20
   2  20   2  176.48   12.20
  -2 -20   2  187.38   11.30
   2 -20  -2  178.48   11.90
  -4 -20  -2   68.29    7.80
  -4 -20  -2   71.59   10.00
   4 -20   2   78.49    9.90
   4  20  -2   79.39    9.50
   4 -20  -2   87.99   10.20
  -4 -20   2   66.59    6.60
  -4 -20   2   72.29    9.50
   4  20   2   65.99    8.80
   4 -20  -2   68.39    8.20
  -4 -20   2   73.79    8.00
   6  20  -2   97.89   10.50
  -6 -20  -2   66.59   12.60
   6 -20   2   92.19   10.20
   6 -20  -2   95.59    9.70
  -6 -20   2   83.09    9.40
   6  20   2   77.99    9.60
  -6 -20   2   74.49    7.00
   8  20  -2   11.90    5.00
  -8 -20  -2   18.90    5.30
   8 -20   2   14.10    5.00
   8  20   2   12.20    4.70
   8 -20  -2   16.40    5.60
  -8 -20   2   16.70    5.90
  -1 -21  -2   50.99    5.20
   1 -21   2   45.90    6.40
  -1  21   2   40.80    5.10
   1 -21   2   39.40    5.40
  -1 -21  -2   42.40    6.10
   1 -21   2   35.30    7.90
   1  21  -2   29.00    6.70
   1 -21  -2   44.00   15.20
  -1 -21   2   45.90    9.60
   1  21   2   38.30    5.40
   1 -21  -2   47.60    5.70
  -1 -21   2   38.70    7.00
  -1 -21   2   51.99    6.10
  -1  21  -2   45.60    5.60
   3 -21   2   16.90    6.30
  -3 -21  -2   16.80    5.70
  -3 -21  -2   17.70    6.10
   3 -21   2   19.60    6.50
   3  21  -2   12.90    6.30
   3 -21  -2   11.90    4.60
  -3 -21   2   14.80    4.30
   3  21   2   24.60    5.70
  -3 -21   2   19.40    4.50
   3 -21  -2    8.60    3.50
  -3 -21   2   16.90    5.10
   5 -21   2   30.20    6.90
   5 -21   2   14.40    4.70
  -5 -21  -2   28.70    7.70
   5  21  -2   28.40    7.10
   5  21   2   35.50    7.80
   5 -21  -2   28.80    7.50
  -5 -21   2   30.50    5.90
  -5 -21   2   26.30    6.90
   5 -21  -2   27.10    7.70
  -7 -21  -2    9.60    5.40
   7  21  -2   -3.10    4.20
   7 -21  -2   11.00    5.30
  -7 -21   2   10.70    5.10
   7  21   2    8.30    5.60
   0 -22  -2  101.99   11.90
   0 -22  -2  130.39    9.00
   0 -22   2  127.69   10.10
   0 -22   2  141.69   15.20
   0  22   2  133.29    9.80
   0 -22   2  131.79   13.30
   0  22  -2  125.79    9.90
   2  22  -2   35.00    7.80
  -2 -22  -2   31.30    8.50
   2 -22   2   26.00    6.20
  -2 -22  -2   37.00    4.50
   2 -22   2   26.80    6.90
  -2 -22   2   22.20    7.10
   2 -22  -2   13.00    5.80
   2 -22  -2   31.70    6.30
   2  22   2   30.20    7.00
  -2 -22   2   18.50    4.80
  -2 -22   2   27.50    5.60
  -4 -22  -2   93.09   11.10
   4 -22   2   78.89    9.10
   4  22  -2   75.39    9.00
   4 -22   2   73.79    9.30
  -4 -22   2   76.19    8.70
   4 -22  -2   65.79    9.40
   4  22   2   88.19    9.60
  -4 -22   2   76.69    7.40
  -4 -22   2   81.29   10.50
   4 -22  -2   88.69    9.10
   6  22  -2   15.10    5.50
  -6 -22  -2   30.20   10.00
   6 -22   2   12.60    5.00
  -6 -22   2   19.90    4.20
  -6 -22   2   10.60    5.60
   6  22   2    9.60    5.20
   6 -22  -2    5.30    4.10
   1 -23   2   76.49   16.10
   1 -23   2   65.59    9.10
  -1 -23  -2   65.69    6.30
  -1  23   2   82.89    7.00
  -1 -23  -2   80.49   14.70
   1  23  -2   60.39    7.90
  -1 -23   2   74.49    7.40
   1 -23  -2   65.69    7.00
  -1  23  -2   88.79    7.40
   1 -23  -2   49.40   10.90
  -1 -23   2   71.49   12.90
   1  23   2   68.49    7.60
   3 -23   2   68.79    9.00
   3  23  -2   61.09    8.30
   3 -23   2   60.49    7.60
  -3 -23  -2   73.09   13.40
   3 -23  -2   67.79   13.10
  -3 -23   2   49.90   10.30
   3 -23  -2   61.09    7.70
  -3 -23   2   62.79    7.00
   3  23   2   59.09    7.80
   5  23  -2   46.60    9.60
   5 -23   2   62.49    9.10
  -5 -23  -2   48.90   10.00
   5 -23   2   48.70    9.90
   5  23   2   49.00    9.50
  -5 -23   2   48.40    8.00
  -5 -23   2   46.10   10.30
   5 -23  -2   51.29   11.30
   5 -23  -2   45.90    9.00
   0 -24   2   48.00    9.80
   0 -24  -2   63.19   12.30
   0  24  -2   75.19    7.80
   0  24   2   58.69    6.90
   0 -24   2   47.50    9.80
   0 -24  -2   55.59    6.80
   2 -24   2   53.39   11.20
   2 -24   2   34.50    7.90
  -2 -24  -2   47.00   11.30
  -2 -24  -2   46.80    5.80
   2  24  -2   42.30    8.00
   2 -24  -2   24.60    7.80
  -2 -24   2   31.80    8.00
   2 -24  -2   37.20    9.70
   2  24   2   43.20    8.40
  -2 -24   2   47.40    6.70
   4 -24   2   24.60    7.40
   4  24  -2   31.30    7.50
   4 -24   2   28.40    7.70
  -4 -24  -2   19.00    6.60
   4 -24  -2   13.30    5.40
   4 -24  -2   31.80    7.30
  -4 -24   2   41.40    7.30
  -4 -24   2   21.60    8.40
   4  24   2   39.00    7.80
   1 -25   2   -2.30    3.30
   1  25  -2    8.20    3.50
  -1 -25  -2   -0.80    3.30
  -1  25   2   11.10    3.70
  -1 -25  -2    5.80    4.40
   1 -25   2    3.20    5.20
  -1 -25   2    1.10    3.80
  -1  25  -2    1.50    3.90
  -1 -25   2   10.00    5.10
   1 -25  -2    2.80    3.20
   1  25   2   -4.30    3.40
   3 -25   2   15.70    4.50
  -3 -25  -2   15.00    8.10
   3  25  -2   20.90    6.40
   3 -25   2   14.50    5.70
   3 -25  -2   17.30    4.80
  -3 -25   2   10.90    6.30
   3  25   2   24.50    6.30
   3 -25  -2   10.00    4.40
  -3 -25   2    9.30    4.40
   0 -26  -2   44.80   13.80
   0 -26   2   45.80    6.70
   0 -26   2   60.89   12.00
   0 -26  -2   49.70    8.40
   0  26   2   45.20    8.00
   0  26  -2   49.40    8.50
  -2 -26  -2   76.89   11.30
   2  26  -2   90.49   10.40
   2 -26   2  110.59   12.70
   2 -26   2  119.19   10.60
   2 -26  -2  112.99   10.00
  -2 -26   2   98.19    9.60
   2  26   2  123.89   10.80
   2 -26  -2  113.29   13.90
   0   0  -3   -0.50    0.70
   0   0   3    0.90    0.70
   0   0  -3   -0.30    1.20
   0   0   3   -0.20    1.00
   0   0   3    3.30    1.00
   2   0  -3    0.00    1.10
   2   0  -3    0.30    1.40
  -2   0   3   -0.10    1.30
  -2   0  -3    1.50    0.90
  -2   0   3   -0.10    1.00
   2   0   3    0.40    0.80
  -2   0  -3    0.00    0.60
  -2   0  -3    0.10    0.80
   2   0   3    0.00    0.90
   2   0   3    0.90    0.80
  -2   0   3    0.30    0.80
   4   0   3    0.50    1.00
   4   0   3   -0.40    0.90
  -4   0  -3    1.00    1.00
  -4   0   3   -1.40    0.80
  -4   0  -3    2.50    1.20
   4   0   3    1.10    1.20
   4   0  -3    0.60    1.20
  -4   0  -3    0.00    1.10
  -4   0  -3    0.30    1.00
   4   0   3   -0.20    0.80
  -4   0   3   -0.10    0.90
   4   0  -3    0.30    1.40
  -4   0   3    1.00    1.70
  -4   0   3    1.40    0.90
  -6   0   3    0.30    1.60
   6   0   3    0.50    1.50
   6   0  -3    1.00    1.70
  -6   0   3    1.50    1.20
  -6   0   3   -0.40    1.40
   6   0   3   -1.40    1.30
  -6   0  -3    0.00    1.20
   6   0   3   -0.40    1.00
  -6   0  -3    1.00    1.00
  -6   0  -3    2.20    1.90
   8   0  -3    1.20    2.10
   8   0   3   -0.40    1.30
   8   0   3    0.40    1.50
   8   0   3    0.20    1.70
  -8   0   3   -2.50    1.80
  -8   0  -3    0.90    1.80
  -8   0   3    1.20    1.80
   8   0  -3    1.10    1.90
  10   0  -3    4.80    3.80
  10   0   3   -3.60    1.80
 -10   0   3   -1.70    1.70
  10   0  -3    2.70    2.20
  10   0   3    1.30    2.80
   1  -1   3 4490.55  102.49
  -1   1   3 4571.74  102.29
  -1   1   3 4580.04  102.39
   1  -1  -3 4591.64  102.39
  -3   1   3 1551.84   38.00
  -3  -1  -3 1559.94   38.70
  -3   1   3 1525.55   39.60
   3  -1   3 1557.34   39.40
  -3  -1  -3 1605.14   38.50
   3  -1   3 1561.44   38.90
  -3   1   3 1597.74   37.20
   3   1  -3 1606.74   39.60
  -3  -1  -3 1527.75   38.40
   3  -1   3 1544.85   37.80
   3   1  -3 1542.55   40.50
  -3  -1  -3 1584.54   38.10
  -3   1   3 1517.25   40.60
   3   1   3 1590.34   38.80
  -3   1  -3 1557.34   37.80
   3   1   3 1574.14   38.50
  -3   1  -3 1615.74   39.20
   3   1   3 1517.45   38.00
  -3   1  -3 1558.94   38.70
   3   1   3 1563.54   39.00
   3  -1  -3 1523.85   40.70
  -3  -1   3 1586.24   39.80
  -3  -1   3 1546.25   39.00
  -3  -1   3 1586.54   38.00
   3  -1  -3 1525.25   38.20
  -3  -1   3 1543.95   40.70
   5  -1   3 1595.34   43.40
  -5  -1  -3 1577.44   42.00
  -5   1   3 1571.44   40.00
  -5   1   3 1638.84   43.90
  -5  -1  -3 1484.95   40.40
  -5  -1  -3 1586.34   41.90
   5   1  -3 1595.34   44.60
   5  -1   3 1619.64   40.40
   5   1  -3 1596.94   41.90
   5  -1   3 1634.14   42.20
  -5  -1  -3 1549.34   41.80
  -5   1   3 1620.44   40.80
  -5  -1   3 1608.04   43.70
  -5  -1   3 1603.44   41.20
  -5   1  -3 1659.93   42.10
  -5   1  -3 1589.24   41.90
   5   1   3 1590.84   42.40
  -5  -1   3 1531.75   40.90
  -5   1  -3 1546.45   39.80
   5  -1  -3 1566.54   44.70
   5   1   3 1509.65   41.50
   5   1   3 1613.74   41.50
   5  -1  -3 1615.14   41.00
  -5   1  -3 1556.14   42.40
   5   1   3 1649.44   42.50
  -5  -1   3 1508.75   44.30
  -7   1   3  331.97   13.40
   7  -1   3  401.06   18.00
   7  -1   3  375.16   16.10
   7  -1   3  372.46   14.40
  -7  -1  -3  405.26   17.40
  -7   1   3  395.96   18.20
  -7  -1  -3  374.66   16.10
   7   1  -3  386.86   16.10
   7   1  -3  379.26   18.40
  -7   1   3  384.16   15.70
  -7   1  -3  402.36   17.10
  -7   1  -3  338.97   13.60
   7   1   3  380.96   15.40
   7   1   3  368.96   17.20
  -7   1  -3  372.86   19.40
  -7  -1   3  377.16   15.70
  -7  -1   3  404.86   18.60
   7  -1  -3  375.76   18.70
   7   1   3  380.66   16.50
   7  -1  -3  383.86   15.00
   9  -1   3  153.38   11.20
   9   1  -3  177.28   13.10
  -9   1   3  173.68   11.20
   9  -1   3  191.28   10.10
   9  -1   3  199.58   13.40
   9   1  -3  173.98   10.80
  -9   1   3  180.28   13.40
  -9  -1  -3  163.48   12.10
  -9  -1   3  166.48   11.20
   9  -1  -3  176.58   13.40
   9  -1  -3  161.88   10.10
   9   1   3  151.98   10.90
  -9   1  -3  174.38   12.20
   9   1   3  165.08   10.40
   9   1   3  178.28   12.40
  -9  -1   3  187.58   13.90
  11  -1   3   18.10    4.50
  11   1  -3   22.80    4.60
 -11  -1  -3   33.50    6.50
 -11   1   3   23.90    6.60
  11  -1  -3   33.00    7.70
 -11  -1   3   26.90    6.30
  11   1   3   28.10    5.80
 -11   1  -3   27.10    6.50
  11   1   3   30.20    5.30
   0   2   3    5.10    1.10
   0  -2   3    4.20    1.20
   0  -2   3    4.60    1.70
   0  -2  -3    7.50    1.80
   0   2  -3    5.90    1.30
   0   2   3    3.90    1.40
   0   2  -3    4.30    1.40
  -2  -2  -3  113.39    5.10
   2   2  -3  102.69    5.70
   2   2  -3  105.29    5.10
  -2   2   3  107.19    4.80
  -2   2   3  115.29    6.10
  -2   2   3  107.49    5.90
  -2  -2  -3  105.19    5.20
   2  -2   3  112.79    4.70
   2  -2   3  112.69    5.70
  -2  -2  -3  112.89    4.20
   2  -2   3  111.69    5.20
  -2  -2  -3  110.19    5.00
   2  -2  -3  105.79    5.90
   2   2   3  112.29    5.00
  -2   2  -3  107.29    4.20
   2   2   3  102.49    5.30
   2   2   3  109.89    4.30
  -2  -2   3  104.19    5.50
  -2  -2   3  107.99    5.40
   2  -2  -3  104.49    4.90
  -2   2  -3  114.39    4.80
   2   2   3  112.39    5.20
  -2  -2   3  114.89    6.10
  -2   2  -3  104.39    5.30
  -4  -2  -3   51.79    4.00
   4  -2   3   55.39    3.70
  -4  -2  -3   57.79    4.60
  -4  -2  -3   52.49    4.00
   4   2  -3   58.59    5.30
   4  -2   3   59.79    4.60
  -4   2   3   50.39    3.70
  -4  -2  -3   48.60    4.20
   4   2  -3   50.29    4.60
  -4   2   3   53.89    3.50
   4  -2   3   57.39    5.10
  -4   2   3   56.59    4.90
   4  -2  -3   50.49    3.80
   4   2   3   49.30    4.00
   4  -2  -3   54.19    5.30
   4   2   3   51.49    4.30
  -4  -2   3   51.79    4.30
  -4   2  -3   53.29    4.30
  -4   2  -3   49.20    4.10
  -4  -2   3   53.49    4.90
   4   2   3   53.49    4.20
  -4  -2   3   55.49    4.20
  -4   2  -3   52.79    4.50
   4   2   3   58.69    4.70
  -4  -2   3   56.99    5.10
  -6  -2  -3   29.30    4.90
  -6   2   3   23.70    5.50
   6  -2   3   24.00    4.60
   6  -2   3   29.80    6.20
  -6  -2  -3   29.20    5.70
  -6  -2  -3   16.40    3.30
   6   2  -3   19.80    5.00
   6  -2   3   23.70    3.90
  -6  -2  -3   22.50    4.40
  -6   2   3   17.00    2.40
  -6   2   3   23.90    4.00
   6   2  -3   25.20    4.90
  -6   2  -3   30.80    5.30
   6  -2  -3   24.40    6.10
  -6  -2   3   24.60    5.00
   6   2   3   19.60    4.30
   6  -2  -3   22.50    3.20
   6   2   3   27.50    5.10
   6   2   3   19.90    4.30
  -6  -2   3   18.20    3.50
  -6  -2   3   16.00    3.60
  -6   2  -3   20.40    4.00
   8   2  -3   25.20    4.90
   8  -2   3   19.70    3.70
  -8  -2  -3   17.00    4.70
  -8   2   3   19.90    2.70
  -8   2   3   15.50    3.80
   8  -2   3   25.50    6.00
   8   2  -3   27.80    6.50
  -8   2   3   18.90    5.00
  -8   2  -3   20.00    4.10
   8   2   3   19.80    4.40
  -8  -2   3   18.30    4.10
  -8  -2   3   10.60    3.60
   8  -2  -3   17.30    5.10
   8   2   3   23.00    5.00
  -8   2  -3   23.70    5.30
   8  -2  -3   22.90    3.90
   8   2   3   15.30    4.10
  10   2  -3   10.80    3.20
 -10   2   3    1.80    3.00
 -10  -2  -3    7.90    3.20
  10  -2  -3   -0.10    2.70
  10   2   3   13.60    4.20
 -10  -2   3    7.80    4.40
  10   2   3    1.50    2.40
   1   3  -3  695.63   18.50
  -1   3   3  722.73   20.20
   1  -3   3  733.73   19.80
  -1  -3  -3  717.23   18.00
   1  -3   3  726.43   17.80
   1  -3   3  739.33   19.10
  -1   3   3  738.03   19.00
  -1  -3  -3  718.53   19.10
  -1   3   3  721.33   20.10
   1  -3   3  697.33   18.90
   1   3  -3  708.63   20.10
  -1  -3   3  716.83   19.30
   1  -3  -3  706.03   20.20
  -1   3  -3  707.13   19.30
   1   3   3  700.33   18.30
   1   3   3  716.33   19.30
  -1   3  -3  742.53   19.00
  -1   3  -3  759.22   17.90
  -1  -3   3  718.33   18.50
  -1  -3   3  700.33   19.70
   1  -3  -3  727.23   20.20
   1   3   3  736.73   19.30
  -3  -3  -3  258.17   10.10
   3   3  -3  286.47   11.30
  -3  -3  -3  274.57    8.90
   3  -3   3  266.07    8.80
  -3   3   3  273.97   11.60
   3  -3   3  259.37    9.30
  -3  -3  -3  270.37   10.10
   3  -3   3  279.17   10.30
  -3  -3  -3  290.07   10.60
   3   3  -3  265.77   10.40
  -3   3   3  272.77   11.50
   3  -3   3  275.77   11.20
  -3   3   3  279.27    8.60
  -3  -3   3  268.17   10.60
  -3   3  -3  275.37   10.10
  -3   3  -3  261.97   10.00
  -3   3  -3  254.07   10.50
  -3  -3   3  282.67   11.00
   3  -3  -3  275.27   11.80
   3   3   3  282.07   10.50
   3   3   3  270.47   10.10
   3   3   3  274.17   10.60
  -3  -3   3  279.67   11.40
  -3   3  -3  287.17    9.60
   5  -3   3  443.66   13.80
  -5  -3  -3  402.36   15.30
  -5   3   3  463.45   15.10
   5  -3   3  437.16   17.60
  -5   3   3  422.76   13.30
   5   3  -3  464.45   17.20
  -5  -3  -3  437.96   16.10
  -5  -3  -3  432.56   15.30
   5  -3   3  456.85   16.20
  -5   3   3  447.16   17.40
  -5  -3  -3  465.85   17.00
   5   3   3  451.45   16.70
  -5  -3   3  434.86   16.00
   5   3   3  440.06   16.20
  -5  -3   3  450.55   17.60
   5   3   3  440.36   15.60
   5   3   3  401.86   15.60
  -5  -3   3  466.65   16.20
  -5  -3   3  414.46   17.30
  -5   3  -3  436.16   16.90
  -5   3  -3  440.46   15.80
   5  -3  -3  455.15   18.60
  -5   3  -3  431.66   15.90
  -7   3   3  168.68    9.60
  -7  -3  -3  172.68   11.10
  -7  -3  -3  168.08   10.20
   7  -3   3  192.58   12.30
  -7   3   3  167.78   11.50
   7  -3   3  175.08    8.20
   7   3   3  173.08   10.40
  -7   3  -3  172.18   10.10
  -7  -3   3  153.38   12.30
   7   3   3  179.78   10.90
  -7  -3   3  188.78   12.30
  -7   3  -3  189.68   11.00
   7  -3  -3  164.78   12.30
   7   3   3  174.18   10.50
   9  -3   3   70.89    8.20
   9   3  -3   66.79    6.90
  -9   3   3   58.89    7.90
   9  -3   3   63.99    6.40
  -9   3   3   63.79    7.80
  -9  -3  -3   58.99    7.30
  -9  -3   3   61.99    9.00
  -9  -3   3   73.09    8.80
   9   3   3   64.69    6.80
   9   3   3   54.29    6.90
   9   3   3   69.69    6.80
   9  -3  -3   75.39    8.90
  -9   3  -3   73.99    7.80
 -11   3   3   43.20    8.10
 -11  -3  -3   48.00    7.00
  11   3  -3   33.10    7.20
  11  -3   3   55.99   10.10
 -11   3  -3   41.80    7.80
 -11  -3   3   33.10    7.70
  11  -3  -3   56.89    8.20
   0  -4   3  571.74   16.00
   0  -4   3  579.64   15.50
   0  -4  -3  561.84   14.60
   0   4  -3  590.74   15.30
   0   4  -3  572.84   16.70
   0  -4   3  565.14   16.30
   0   4   3  584.94   17.10
   0   4  -3  577.24   16.40
   0   4   3  562.54   14.50
   0   4  -3  586.94   17.00
   0   4   3  561.14   14.50
   0   4   3  604.44   14.60
   0   4   3  578.14   15.70
   0  -4  -3  578.94   17.20
   0  -4  -3  581.54   15.60
   2  -4   3   15.80    2.10
  -2  -4  -3   16.20    2.10
   2   4  -3   16.40    3.10
  -2  -4  -3   16.50    3.20
   2  -4   3   17.30    3.20
  -2   4   3   13.50    1.40
  -2  -4  -3   18.50    3.20
   2   4  -3   13.50    2.50
   2  -4   3   18.30    3.10
   2  -4   3   15.40    2.60
  -2   4   3   17.90    3.20
  -2   4   3   14.40    3.00
  -2  -4   3   16.90    3.20
   2  -4  -3   20.90    4.10
  -2   4  -3   17.30    4.50
  -2  -4   3   17.70    2.50
   2  -4  -3   14.20    2.80
  -2  -4   3   18.10    3.10
   2   4   3   17.80    3.10
  -2   4  -3   21.90    3.70
   2   4   3   19.00    3.00
   2   4   3   14.60    2.60
  -2   4  -3   19.60    2.70
  -4   4   3  100.49    7.10
   4   4  -3   99.19    6.40
   4   4  -3  108.69    7.20
   4  -4   3  106.99    7.40
  -4   4   3   95.99    7.10
   4  -4   3   91.99    5.00
  -4  -4  -3   93.99    6.40
  -4  -4  -3  104.39    5.40
  -4   4   3  106.19    5.30
   4  -4   3   99.09    6.20
  -4  -4  -3  110.29    6.30
  -4  -4   3  105.69    7.00
   4  -4  -3  100.09    7.50
   4   4   3  104.59    6.70
  -4  -4   3  107.99    6.50
  -4   4  -3   92.99    6.10
   4   4   3  107.79    6.80
  -4   4  -3  105.19    6.00
  -4  -4   3   91.89    6.40
   4   4   3  100.99    5.50
   4   4   3   96.49    6.10
  -4   4  -3   99.79    6.10
  -4  -4   3  105.59    8.00
   6  -4   3    3.90    2.30
  -6  -4  -3    0.80    1.60
  -6   4   3    1.70    1.30
  -6  -4  -3    1.00    1.20
  -6   4   3   -1.60    1.70
  -6  -4  -3    2.80    2.20
   6   4  -3   -1.00    1.60
   6  -4  -3    0.80    2.10
   6   4   3    2.80    1.70
  -6   4  -3    0.40    1.90
   6   4   3    0.30    1.80
   6   4   3   -1.80    1.20
  -6  -4   3    1.40    2.00
  -6  -4   3    0.40    1.90
  -6   4  -3    2.10    1.30
   8   4  -3    8.20    3.10
   8  -4   3    6.00    2.50
   8  -4   3   13.40    4.70
  -8   4   3    4.00    2.90
  -8   4   3    9.10    3.20
  -8  -4  -3   13.20    4.00
  -8   4  -3    8.00    3.00
   8   4   3   13.80    3.80
   8  -4  -3    9.10    4.50
   8   4   3   10.70    3.20
  -8  -4   3    2.30    2.80
  -8  -4   3    8.50    4.10
   8   4   3    8.30    3.20
  -8   4  -3   13.40    3.60
  10  -4   3   13.70    5.40
 -10   4   3    6.00    3.20
  10   4  -3    9.50    3.30
  10  -4  -3    7.00    3.50
  10   4   3    7.90    3.30
 -10   4  -3    8.00    5.20
  -1  -5  -3  236.78    8.10
  -1   5   3  269.07    7.60
   1  -5   3  255.97    8.90
   1   5  -3  256.97    8.90
  -1  -5  -3  259.67   10.30
  -1  -5  -3  256.77    8.20
  -1   5   3  257.07    9.00
  -1  -5  -3  242.68    9.10
   1   5  -3  242.68    9.00
   1  -5   3  267.47    9.50
  -1   5   3  267.07   10.70
   1   5  -3  245.58    9.30
  -1  -5   3  269.87    9.70
  -1   5  -3  257.77    9.20
   1   5   3  253.37    8.80
  -1   5  -3  261.37    9.00
   1   5   3  270.57    9.50
   1  -5  -3  245.38   10.60
  -1   5  -3  249.48    9.30
   1   5   3  262.77   10.00
  -1  -5   3  256.27    9.80
  -1  -5   3  261.77    9.20
  -1  -5   3  262.57    9.40
   1  -5  -3  240.58    9.10
  -3   5   3  365.66   11.00
   3   5  -3  356.76   13.20
   3  -5   3  380.56   13.00
  -3   5   3  373.56   15.00
  -3  -5  -3  364.66   12.70
   3  -5   3  379.26   14.50
  -3  -5  -3  349.07   13.00
   3   5  -3  365.66   14.30
  -3   5   3  358.86   13.90
  -3  -5  -3  359.96   13.60
  -3   5  -3  380.16   13.20
  -3  -5   3  364.66   13.60
   3   5   3  362.86   13.60
   3   5   3  364.96   13.20
  -3  -5   3  384.16   14.30
   3  -5  -3  371.76   14.60
  -3   5  -3  361.26   12.90
   3   5   3  376.56   13.40
  -3  -5   3  382.26   13.20
  -3   5  -3  359.06   13.70
  -3  -5   3  381.96   14.00
  -5  -5  -3  316.67   14.00
   5   5  -3  331.47   14.60
   5  -5   3  309.57   14.90
  -5   5   3  303.27   11.60
  -5  -5  -3  300.67   12.80
  -5  -5  -3  296.07   11.50
   5   5   3  309.47   13.60
  -5   5  -3  302.57   12.80
  -5  -5   3  309.27   13.20
  -5   5  -3  308.97   12.70
  -5   5  -3  303.47   13.50
   5  -5  -3  303.07   15.20
   5   5   3  324.77   12.10
   5   5   3  312.07   13.60
  -5  -5   3  307.27   14.30
   7  -5   3  176.08   12.30
   7  -5   3  161.38    9.80
   7   5  -3  164.98   11.00
  -7   5   3  165.88    9.20
  -7   5   3  190.18   12.20
  -7  -5  -3  172.98   11.40
  -7   5  -3  174.38   10.70
   7   5   3  161.88   10.60
  -7  -5   3  166.58   10.50
   7  -5  -3  169.98   12.50
  -7  -5   3  181.68   12.40
  -7   5  -3  160.88    9.90
   7   5   3  176.08   10.00
   7   5   3  172.98   11.00
   9   5  -3   97.19    8.80
  -9   5   3   79.49    8.20
  -9  -5  -3  104.39    9.80
  -9   5   3  112.79   10.40
   9  -5   3   80.69    9.00
   9  -5  -3   67.79    9.00
  -9  -5   3   84.59   10.20
   9   5   3   87.19    8.40
  -9   5  -3   88.59    8.60
 -11   5   3   45.50    9.30
 -11  -5  -3   52.79    9.50
  11   5  -3   46.60    6.60
  11  -5   3   65.79   11.60
 -11  -5   3   35.40    7.90
  11   5   3   38.20    7.50
  11  -5  -3   49.40    9.10
 -11   5  -3   49.00    8.50
   0   6  -3  146.89    6.70
   0   6   3  155.28    5.90
   0   6  -3  143.59    6.50
   0  -6   3  138.89    6.60
   0  -6   3  157.48    7.00
   0  -6  -3  143.29    5.20
   0   6  -3  150.88    7.20
   0  -6  -3  142.09    5.60
   0   6   3  150.88    6.40
   0  -6  -3  146.99    5.20
   0  -6  -3  158.08    8.20
   0  -6   3  151.28    7.00
   0  -6   3  148.19    7.20
   0   6   3  147.99    5.50
   0  -6  -3  146.29    6.20
  -2  -6  -3 1356.86   35.80
   2   6  -3 1354.86   36.20
   2  -6   3 1346.07   35.90
  -2   6   3 1289.27   34.80
  -2   6   3 1331.67   36.90
   2   6  -3 1263.27   34.40
  -2  -6  -3 1269.27   34.40
  -2  -6  -3 1337.97   33.50
  -2  -6  -3 1341.47   33.70
  -2   6   3 1363.46   32.00
   2  -6   3 1344.77   34.50
   2  -6   3 1368.06   34.50
  -2  -6   3 1339.07   34.10
  -2  -6   3 1350.86   35.30
   2   6   3 1299.47   35.00
   2   6   3 1388.66   34.70
   2  -6  -3 1329.27   35.50
  -2   6  -3 1329.77   33.10
  -2  -6   3 1343.67   34.70
  -2  -6   3 1273.17   35.00
   2  -6  -3 1401.56   37.40
   2   6   3 1317.67   35.00
  -2   6  -3 1364.66   34.50
  -2   6  -3 1335.37   34.40
  -2   6  -3 1243.58   35.00
   4   6  -3  252.87   12.00
   4   6  -3  216.68   10.60
   4  -6   3  232.18   12.00
  -4  -6  -3  231.88   11.30
  -4   6   3  220.68   11.30
  -4  -6  -3  229.08   10.60
  -4   6   3  232.78    9.00
  -4  -6  -3  227.78   10.30
  -4  -6  -3  235.08    8.60
  -4   6   3  228.58   12.10
   4  -6   3  253.87   12.90
  -4   6  -3  214.98   10.10
  -4   6  -3  217.48   11.00
  -4   6  -3  227.68   10.80
  -4  -6   3  242.78   11.00
   4   6   3  218.58   10.50
  -4  -6   3  238.98   10.50
  -4  -6   3  235.88   11.60
   4   6   3  228.48   11.10
  -4  -6   3  218.18   10.70
   4   6   3  257.37   11.40
  -4  -6   3  242.18   11.60
   4  -6  -3  249.08   12.60
   6  -6   3  227.68   11.20
  -6   6   3  218.98   10.40
   6   6  -3  227.68   12.80
  -6  -6  -3  211.78   10.00
  -6  -6  -3  205.98   11.20
   6  -6   3  220.58   13.50
  -6  -6  -3  220.78   12.40
  -6   6   3  228.08   12.80
  -6  -6   3  217.78   11.70
   6  -6  -3  219.48   13.80
   6   6   3  238.88   12.60
   6   6   3  245.08   12.60
  -6  -6   3  243.78   13.40
  -6   6  -3  234.08   11.70
  -6   6  -3  211.58   11.00
  -8  -6  -3   80.99    8.20
  -8   6   3   51.99    6.00
  -8   6   3   75.69    8.30
   8  -6   3   66.29    6.30
   8  -6   3   70.39    8.40
   8   6  -3   75.39    7.80
   8  -6  -3   71.29    8.70
  -8   6  -3   70.59    6.50
  -8  -6   3   64.29    6.70
  -8  -6   3   75.59    8.70
   8   6   3   71.89    7.30
  -8   6  -3   78.49    7.50
 -10  -6  -3   17.30    5.00
 -10   6   3   18.20    5.80
  10   6  -3   20.50    9.00
  10  -6   3   28.20    7.60
  10  -6  -3   22.90    6.20
 -10   6  -3   23.30    6.00
 -10  -6   3   24.80    5.80
  10   6   3   12.40    5.90
  -1   7   3 1088.69   31.60
  -1  -7  -3 1116.29   31.30
   1   7  -3 1084.09   29.30
  -1   7   3 1134.99   27.60
   1   7  -3 1116.59   30.50
   1  -7   3 1095.49   29.50
  -1   7   3 1069.19   28.40
  -1  -7  -3 1123.09   28.00
  -1  -7  -3 1082.39   27.80
   1   7  -3 1065.09   28.90
   1  -7   3 1095.09   28.20
   1  -7   3 1116.59   30.50
  -1  -7  -3 1071.99   28.90
   1   7  -3 1086.09   29.30
   1  -7   3 1124.49   30.20
  -1   7   3 1094.79   27.50
   1   7   3 1136.89   31.10
  -1  -7   3 1142.69   30.40
  -1  -7   3 1092.09   29.70
   1  -7  -3 1067.89   28.90
  -1   7  -3 1123.09   29.10
  -1   7  -3 1097.79   29.90
  -1   7  -3 1104.69   29.50
   1   7   3 1071.49   29.30
  -1   7  -3 1120.69   29.40
  -1  -7   3 1104.59   29.40
  -1  -7   3 1111.69   29.70
  -3   7   3 1431.46   40.70
   3  -7   3 1411.86   37.60
  -3   7   3 1422.16   40.70
  -3  -7  -3 1476.75   39.50
   3   7  -3 1324.67   39.60
   3   7  -3 1465.85   39.70
  -3  -7  -3 1413.16   37.10
   3  -7   3 1431.06   39.70
  -3  -7  -3 1357.86   37.90
   3  -7   3 1425.56   38.30
  -3   7   3 1424.86   35.20
   3   7   3 1454.55   41.20
   3  -7  -3 1442.66   41.00
  -3  -7   3 1485.95   37.60
   3   7   3 1453.75   38.30
  -3   7  -3 1404.56   38.10
  -3  -7   3 1405.26   38.90
  -3   7  -3 1433.76   37.60
   3  -7  -3 1441.06   39.80
   3   7   3 1418.16   38.80
  -3  -7   3 1428.76   37.50
  -3   7  -3 1422.16   39.00
  -3  -7   3 1330.27   38.20
  -5  -7  -3  287.37   12.90
   5   7  -3  301.27   14.60
  -5  -7  -3  292.27   14.30
  -5   7   3  306.07   11.70
   5  -7   3  289.07   12.60
  -5  -7  -3  314.77   11.30
   5   7   3  322.17   14.80
  -5  -7   3  300.57   13.00
   5   7   3  290.87   13.70
  -5   7  -3  290.27   13.70
  -5   7  -3  287.57   12.90
  -5  -7   3  301.47   13.60
   7  -7   3  270.17   13.00
   7   7  -3  271.07   15.20
  -7  -7  -3  275.47   15.30
  -7  -7  -3  242.38   11.90
  -7   7   3  248.88   12.20
  -7   7   3  275.57   15.40
   7  -7   3  267.47   15.90
  -7  -7   3  277.57   15.80
  -7  -7   3  279.87   14.30
  -7   7  -3  262.17   13.40
   7  -7  -3  267.77   16.50
  -7   7  -3  288.57   14.20
   7   7   3  275.67   14.70
  -9  -7  -3   38.60    7.90
   9  -7   3   53.79    5.90
  -9   7   3   49.90    9.20
   9   7  -3   49.10    6.50
   9  -7   3   53.89   11.80
   9   7   3   44.40    6.30
   9  -7  -3   53.69    7.70
  -9  -7   3   39.60    7.60
  -9   7  -3   49.20    6.30
  11   7  -3   30.40    5.20
 -11  -7  -3   24.80    7.70
  11  -7   3   21.10    6.70
 -11   7   3   18.40    5.70
  11   7   3   23.60    5.90
 -11  -7   3   31.00    8.60
 -11   7  -3   25.40    5.90
 -11  -7   3   26.50    5.60
  11  -7  -3   20.00    6.70
   0  -8  -3 1803.42   43.90
   0  -8   3 1836.52   47.40
   0   8   3 1844.62   44.20
   0  -8   3 1876.91   46.10
   0   8   3 1846.72   48.70
   0  -8   3 1884.91   46.70
   0   8  -3 1895.31   47.10
   0   8   3 1890.91   45.20
   0  -8  -3 1934.11   49.60
   0   8  -3 1876.41   46.90
   0  -8   3 1861.41   47.20
   0   8  -3 1843.52   46.40
   0  -8  -3 1773.52   44.90
   0  -8  -3 1908.01   44.10
   0   8   3 1866.31   45.60
   0  -8  -3 1836.82   44.40
   0   8  -3 1845.42   46.50
   2   8  -3 1270.07   35.70
  -2  -8  -3 1211.28   32.60
   2  -8   3 1257.07   35.40
   2  -8   3 1252.07   34.70
  -2  -8  -3 1220.88   34.30
  -2   8   3 1253.87   33.90
  -2  -8  -3 1267.97   32.70
  -2  -8  -3 1281.87   36.00
  -2   8   3 1271.77   31.80
   2   8  -3 1198.38   34.10
   2  -8   3 1229.48   31.10
   2  -8   3 1269.07   33.90
  -2   8  -3 1260.67   34.20
  -2   8  -3 1316.27   32.40
  -2  -8   3 1319.07   34.20
   2   8   3 1187.38   34.90
  -2  -8   3 1291.47   34.00
  -2   8  -3 1210.18   33.50
   2  -8  -3 1307.57   37.50
  -2  -8   3 1305.87   35.30
  -2  -8   3 1263.97   36.80
   2  -8  -3 1288.07   34.90
   2   8   3 1250.37   34.60
   4   8  -3  831.12   27.50
  -4  -8  -3  858.31   27.60
  -4   8   3  827.12   23.40
   4  -8   3  817.62   27.90
   4  -8   3  800.42   26.60
  -4  -8  -3  828.52   25.40
  -4  -8   3  830.92   25.20
  -4  -8   3  798.32   26.80
  -4  -8   3  841.12   25.40
  -4  -8   3  853.51   26.60
  -4  -8   3  817.32   27.10
   4  -8  -3  848.62   28.30
   4   8   3  844.62   27.00
  -4   8  -3  804.62   25.30
  -6  -8  -3  279.47   11.50
  -6   8   3  287.87   12.40
   6  -8   3  286.37   16.10
   6  -8   3  279.27   12.90
   6   8  -3  303.57   15.70
  -6  -8  -3  284.47   15.20
  -6  -8   3  292.97   15.60
   6  -8  -3  281.47   16.20
  -6   8  -3  271.57   13.20
  -6  -8   3  292.87   13.50
   6   8   3  294.47   15.00
  -6  -8   3  295.97   14.40
  -8   8   3  103.89    8.10
  -8   8   3   96.89    9.60
   8  -8   3   89.19    9.90
   8   8  -3  102.79    9.60
  -8  -8  -3   99.69    9.50
   8   8   3   94.39    8.90
  -8  -8   3  106.89    8.80
  -8  -8   3  114.09   10.60
  -8   8  -3  101.09    8.70
   8  -8  -3  104.49   10.70
  -8   8  -3   88.39    7.70
 -10   8   3   32.40    6.70
  10   8  -3   14.10    4.90
  10  -8   3   19.80    6.00
 -10  -8  -3   19.00    5.30
 -10  -8   3   24.20    6.80
  10  -8  -3   22.70    6.90
 -10   8  -3   33.60    7.20
 -10  -8   3   28.20    6.00
  10   8   3   25.60    6.20
  -1  -9  -3  468.75   17.80
   1  -9   3  438.56   14.00
   1   9  -3  448.76   16.30
  -1   9   3  437.56   19.30
  -1  -9  -3  450.45   14.10
  -1  -9  -3  416.46   13.80
  -1  -9  -3  423.36   13.20
   1  -9   3  445.06   16.30
  -1   9   3  439.16   13.60
  -1   9   3  461.75   14.30
  -1   9   3  415.36   14.20
   1   9  -3  419.66   14.90
   1   9  -3  448.06   15.40
   1  -9   3  430.46   16.30
  -1  -9  -3  420.56   14.60
   1   9  -3  418.86   15.30
   1  -9   3  460.15   15.70
   1   9   3  442.86   12.40
  -1  -9   3  458.55   15.70
  -1   9  -3  448.16   15.00
  -1  -9   3  420.06   16.10
   1   9   3  449.16   15.50
   1  -9  -3  437.66   14.90
  -1   9  -3  426.16   16.40
  -1  -9   3  471.65   15.90
  -1   9  -3  426.76   15.30
   1  -9  -3  449.26   12.50
   1  -9  -3  456.05   18.20
   1  -9  -3  433.46   13.30
   1  -9  -3  430.06   12.60
  -1   9  -3  434.76   15.50
  -1  -9   3  415.06   15.10
  -3  -9  -3  573.54   18.50
  -3  -9  -3  547.75   18.50
   3  -9   3  610.74   20.70
   3  -9   3  570.04   21.00
   3   9  -3  564.54   20.90
  -3   9   3  581.24   17.50
   3  -9   3  604.84   21.20
  -3  -9  -3  566.24   21.10
  -3   9   3  544.65   19.60
   3  -9  -3  591.24   22.60
   3   9   3  585.34   20.40
  -3  -9   3  572.34   19.20
   3   9   3  534.55   20.10
  -3  -9   3  607.44   19.40
   3  -9  -3  596.24   21.00
  -3   9  -3  550.64   19.70
  -3   9  -3  553.34   19.00
  -3  -9   3  573.54   20.80
   5   9  -3  271.97   14.60
  -5  -9  -3  294.87   14.90
   5  -9   3  277.37   12.50
  -5   9   3  272.87   11.60
   5  -9   3  277.97   15.20
  -5  -9   3  278.97   12.70
   5  -9  -3  299.97   15.80
  -5  -9   3  284.87   13.10
  -5  -9   3  281.87   13.80
  -5  -9   3  281.07   14.70
  -5   9  -3  263.57   12.70
   5   9   3  276.87   14.20
  -7   9   3  141.39   11.20
   7  -9   3  140.89   11.80
   7   9  -3  150.08   11.50
  -7   9   3  145.19    8.80
   7  -9   3  145.59    9.50
  -7  -9  -3  120.89    7.60
  -7  -9  -3  138.49    7.40
  -7  -9  -3  135.49   10.90
   7  -9  -3  148.09   12.30
  -7  -9   3  146.29   11.50
  -7  -9   3  138.09    9.40
   7   9   3  134.39   10.50
  -7   9  -3  141.59   10.00
  -7  -9   3  123.59   11.50
   9  -9   3   50.09    9.80
  -9  -9  -3   54.59    5.40
  -9  -9  -3   57.49   10.10
  -9   9   3   55.19    7.70
  -9   9  -3   57.89    6.90
  -9  -9   3   47.00    6.30
   9  -9  -3   57.59   11.00
   9   9   3   49.10   11.30
  -9  -9   3   60.29    7.90
 -11  -9  -3   11.30    5.60
  11   9  -3   24.70    6.20
 -11   9   3   23.80   11.10
  11   9   3   26.30    6.50
 -11   9  -3   26.40    6.20
 -11  -9   3   24.00    6.90
  11  -9  -3   25.10    6.60
 -11  -9   3   13.10    4.40
   0  10  -3  163.58    8.50
   0 -10  -3  155.38    6.80
   0 -10  -3  145.19    7.00
   0  10   3  149.88    9.20
   0 -10   3  149.88    7.60
   0  10   3  150.78    7.40
   0 -10  -3  149.69    6.70
   0 -10   3  158.78    9.40
   0  10  -3  152.08    8.20
   0  10  -3  163.08    8.70
   0  10   3  159.98    7.80
   0 -10   3  159.08    8.40
   0 -10  -3  152.58    7.10
   0 -10  -3  153.48   10.00
   0 -10   3  164.28    8.80
   0  10   3  152.68    6.80
   2  10  -3   90.19    6.50
  -2  10   3   98.09    9.50
   2 -10   3   99.39    7.50
  -2  10   3   99.79    5.70
  -2 -10  -3   86.99    5.60
  -2 -10  -3   93.59    6.20
   2 -10   3   93.49    6.40
   2 -10   3   88.39    4.80
   2 -10   3   86.99    7.00
   2  10  -3   97.69    7.50
   2  10  -3   84.89    7.00
  -2 -10  -3   91.69    5.80
  -2 -10  -3   92.69    7.80
  -2  10   3   85.39    6.00
   2  10   3   97.29    6.90
   2 -10  -3   90.79    4.20
  -2  10  -3   89.59    6.20
   2 -10  -3   92.39    6.80
  -2 -10   3   94.79    6.50
   2  10   3   92.49    7.00
  -2  10  -3   99.99    6.80
   2 -10  -3  101.59    8.60
  -2  10  -3   93.49    6.60
  -2 -10   3   84.09    6.10
  -2 -10   3   94.09    6.60
  -2  10  -3   96.99    5.80
  -2 -10   3   88.99    7.30
  -4  10   3   25.20    3.10
  -4 -10  -3   32.70    5.40
   4 -10   3   26.80    3.70
   4 -10   3   40.40    7.60
   4 -10   3   29.50    6.00
   4  10  -3   30.70    6.20
  -4 -10   3   25.90    4.70
   4 -10  -3   25.40    5.90
  -4 -10   3   29.50    4.10
  -4 -10   3   26.80    3.90
   4  10   3   31.50    5.80
  -4 -10   3   36.70    8.70
  -4  10  -3   25.40    5.10
  -4  10  -3   26.60    3.90
   4 -10  -3   28.20    5.60
  -6 -10  -3    3.60    1.60
   6 -10   3    7.40    3.20
  -6  10   3    5.50    2.00
   6  10  -3    4.10    3.10
  -6 -10  -3    4.10    1.50
  -6 -10  -3    8.90    3.60
   6 -10   3    5.60    2.10
  -6  10  -3    3.90    2.40
  -6 -10   3    5.00    2.20
   6 -10  -3    6.80    3.10
  -6 -10   3    6.10    2.90
  -6 -10   3    5.70    2.30
  -6 -10   3    0.50    2.10
   6  10   3    7.30    3.00
   8  10  -3   14.10    4.70
   8 -10   3   14.20    4.20
  -8  10   3   20.60    6.20
  -8 -10  -3   21.00    5.80
  -8  10   3   15.30    4.60
  -8 -10  -3   19.80    3.60
   8 -10   3   19.00    5.80
   8  10   3   15.60    4.60
  -8  10  -3   22.40    5.40
  -8 -10   3   26.40    5.40
   8 -10  -3   17.70    5.40
  -8 -10   3   13.20    4.60
 -10 -10  -3   20.70    5.70
  10  10  -3   14.10    5.40
  10 -10   3   27.70    7.40
 -10 -10  -3   23.30    4.90
 -10  10   3   18.80    6.30
  10 -10  -3   24.10    7.20
 -10  10  -3   22.10    6.10
 -10 -10   3   21.00    6.00
  10  10   3   19.90    5.10
 -10 -10   3   26.00    5.60
   1 -11   3  494.85   15.90
  -1  11   3  475.85   16.30
   1 -11   3  511.55   18.70
   1  11  -3  499.95   18.60
  -1  11   3  519.65   15.90
  -1 -11  -3  456.15   16.50
  -1 -11  -3  483.15   14.70
   1  11  -3  477.95   17.80
   1  11  -3  509.35   17.60
  -1 -11  -3  471.75   15.90
  -1 -11  -3  518.05   16.30
   1 -11   3  507.75   17.80
   1 -11   3  532.65   19.80
  -1  11   3  513.75   16.60
   1  11  -3  466.45   17.20
  -1 -11  -3  497.65   20.30
   1 -11  -3  507.85   21.00
  -1 -11   3  482.95   17.30
   1 -11  -3  477.15   15.10
  -1  11  -3  509.25   17.20
   1 -11  -3  507.05   17.20
   1  11   3  539.85   18.00
  -1  11  -3  455.45   17.60
  -1 -11   3  528.75   18.20
   1 -11  -3  478.35   15.80
  -1  11  -3  495.75   20.30
  -1  11  -3  490.55   17.70
   1 -11  -3  494.95   14.90
  -1 -11   3  509.15   19.50
   1  11   3  495.15   14.60
  -1 -11   3  505.75   18.00
   3 -11   3  523.25   21.30
  -3  11   3  450.55   15.70
   3  11  -3  468.55   19.20
  -3 -11  -3  468.25   19.80
   3 -11   3  450.55   18.60
  -3 -11  -3  442.46   16.40
  -3 -11   3  458.95   17.10
   3 -11  -3  464.65   18.90
  -3 -11   3  461.85   19.30
   3 -11  -3  443.26   21.40
  -3 -11   3  475.85   17.70
  -3  11  -3  416.66   16.60
   3  11   3  455.65   18.20
  -3  11  -3  442.16   17.80
   5  11  -3  190.38   12.80
  -5 -11  -3  202.28   11.00
   5 -11   3  199.28   10.40
   5 -11   3  210.38   13.60
  -5  11   3  208.28   10.10
  -5 -11  -3  187.68   12.80
  -5 -11   3  203.68   11.40
  -5 -11   3  191.38   11.50
  -5 -11   3  199.18   12.90
  -5  11  -3  204.08   11.20
   5 -11  -3  200.58   13.10
   5  11   3  197.88   12.50
  -5 -11   3  196.28   11.20
  -7 -11  -3  123.09    7.40
  -7  11   3  121.99    8.40
   7  11  -3  117.19   10.80
  -7 -11  -3  136.29   11.50
   7 -11   3  123.29   11.50
  -7 -11  -3  134.39    6.90
  -7  11  -3  138.09   10.00
   7 -11  -3  146.69   12.20
  -7 -11   3  123.09   11.10
  -7 -11   3  126.39    9.10
   7  11   3  131.39   10.60
  -7  11  -3  126.49    9.30
  -7 -11   3  134.39    9.80
  -9 -11  -3   47.20    4.60
   9  11  -3   52.19    9.70
  -9 -11  -3   35.00    7.70
  -9  11   3   39.80    8.60
   9 -11   3   41.60    9.30
  -9 -11   3   27.60    8.00
   9 -11  -3   58.09    7.80
   9  11   3   38.90    8.10
  -9 -11   3   45.70    8.40
  -9 -11   3   52.99    6.20
   0  12  -3  479.05   17.90
   0  12   3  479.75   16.70
   0  12  -3  466.45   17.90
   0  12   3  464.75   15.30
   0 -12  -3  435.26   16.70
   0  12   3  486.75   16.70
   0  12  -3  457.65   17.30
   0 -12   3  509.75   18.00
   0 -12   3  459.45   16.40
   0 -12  -3  485.35   16.00
   0 -12  -3  479.95   15.30
   0 -12  -3  498.05   20.90
   0 -12   3  492.25   18.30
   0 -12   3  461.05   19.30
   0  12  -3  492.55   18.00
   2 -12   3  186.18   11.10
   2  12  -3  186.68   11.30
   2 -12   3  194.08   10.10
  -2 -12  -3  177.28   11.60
  -2  12   3  160.88    9.00
   2 -12   3  177.48    7.60
  -2 -12  -3  190.28    9.30
   2 -12   3  185.18   11.40
  -2  12   3  181.38    9.00
   2  12  -3  171.48    9.30
   2  12   3  187.28   10.30
  -2  12  -3  175.68    9.80
  -2  12  -3  182.78   10.30
  -2  12  -3  181.98    8.80
  -2 -12   3  184.28   11.30
   2 -12  -3  192.18   13.00
  -2 -12   3  196.48   10.20
  -2 -12   3  186.08   10.30
   2 -12  -3  181.98   10.20
   2 -12  -3  178.38    7.00
   4  12  -3  284.07   15.30
  -4 -12  -3  261.67   12.50
  -4 -12  -3  284.37   15.80
  -4  12   3  281.87   12.20
   4 -12   3  299.97   15.20
   4 -12   3  263.37   12.50
   4 -12   3  275.67   15.40
  -4 -12   3  283.27   15.50
  -4 -12   3  294.67   13.80
  -4 -12   3  294.17   13.30
   4 -12  -3  289.17   16.80
   4 -12  -3  290.77   15.20
  -4  12  -3  254.17   12.70
   4  12   3  282.67   14.80
  -6 -12  -3   77.59    6.80
   6  12  -3   74.19    8.60
   6 -12   3   76.99    9.10
   6 -12   3   76.49    7.70
  -6 -12  -3   84.29    8.90
  -6  12   3   70.29    6.10
   6 -12  -3   72.69    8.50
  -6  12  -3   81.89    6.90
  -6 -12   3   78.09    7.50
   6  12   3   68.19    7.60
  -6 -12   3   75.89    6.80
  -6 -12   3   78.09    8.60
   8  12  -3   56.99   10.80
   8 -12   3   69.19   11.80
  -8 -12  -3   52.49   11.60
  -8 -12  -3   38.20    8.30
  -8  12   3   54.19    9.80
  -8 -12   3   54.19    6.30
  -8 -12   3   55.59    6.60
   8 -12  -3   54.99   10.50
  -8 -12   3   53.99    7.40
  -8  12  -3   59.19    6.80
   8  12   3   53.29    9.60
  10 -12   3   25.80    7.10
 -10 -12  -3   29.40    7.10
  10  12  -3   29.40    7.40
 -10 -12  -3   31.00    7.10
 -10  12   3   28.00    6.80
 -10 -12   3   41.30    5.90
  10  12   3   20.60    6.40
 -10  12  -3   31.40    7.00
  10 -12  -3   41.60    9.40
 -10 -12   3   37.70    6.80
 -10 -12   3   28.90    8.20
  -1 -13  -3  485.95   16.40
   1 -13   3  434.06   15.70
  -1 -13  -3  485.45   15.40
   1  13  -3  482.65   19.10
   1 -13   3  455.75   19.90
  -1  13   3  495.15   16.30
   1 -13   3  507.35   19.50
  -1 -13  -3  444.46   23.60
   1 -13   3  477.35   17.90
  -1  13   3  465.05   17.00
  -1 -13   3  481.25   20.20
   1  13   3  438.26   14.70
   1 -13  -3  512.05   25.20
  -1  13  -3  465.15   17.30
   1 -13  -3  556.64   20.50
  -1 -13   3  484.25   18.30
   1 -13  -3  437.86   15.00
  -1 -13   3  495.05   18.40
   1  13   3  481.75   18.00
  -1  13  -3  460.25   17.80
   1 -13  -3  489.35   17.50
  -3 -13  -3  388.66   15.60
   3  13  -3  411.46   18.80
   3 -13   3  416.46   18.90
   3 -13   3  395.86   18.30
  -3  13   3  398.46   15.40
  -3 -13  -3  404.76   19.50
  -3 -13   3  414.86   19.10
   3 -13  -3  392.06   17.70
  -3 -13   3  431.86   16.80
  -3 -13   3  408.56   16.90
   3  13   3  401.56   17.70
  -3  13  -3  379.06   16.30
   3 -13  -3  392.26   20.00
  -5 -13  -3  231.38   12.10
  -5 -13  -3  206.48   14.10
   5 -13   3  215.48   14.50
   5 -13   3  216.18   11.40
   5  13  -3  220.78   14.40
  -5  13   3  217.48   11.10
   5 -13  -3  223.88   14.30
   5  13   3  208.98   13.40
   5 -13  -3  242.88   15.80
  -5  13  -3  206.68   11.80
  -5 -13   3  235.78   14.80
  -5 -13   3  221.38   11.70
   7 -13   3  127.59   11.80
   7  13  -3  135.09   12.20
  -7 -13  -3  128.09    9.50
  -7  13   3  104.09    8.20
   7 -13   3  118.39    8.70
  -7 -13  -3  128.49   11.90
  -7 -13   3  134.29    9.90
  -7 -13   3  121.09    8.80
  -7 -13   3  129.79   11.80
   7  13   3  122.49   11.10
   7 -13  -3  115.59   11.20
   9 -13   3   47.40    9.40
  -9  13   3   36.20    8.00
   9  13  -3   50.29    9.30
  -9 -13  -3   45.40    8.80
  -9 -13  -3   55.79    7.40
  -9 -13   3   57.49    8.20
  -9 -13   3   49.50    9.20
   9 -13  -3   46.30   10.30
  -9  13  -3   49.90    8.70
  -9 -13   3   44.00    8.20
   9  13   3   38.90    8.60
   0 -14  -3  269.57   10.90
   0  14   3  247.28   10.70
   0  14   3  265.67   12.10
   0 -14   3  277.47   13.50
   0  14   3  278.87   12.30
   0 -14  -3  232.28   10.70
   0  14  -3  268.77   13.10
   0  14  -3  262.17   14.20
   0 -14   3  268.27   12.90
   0 -14  -3  260.37   15.60
   0 -14  -3  268.67   11.40
   0 -14   3  261.37   14.70
   2 -14   3  374.16   17.20
  -2 -14  -3  350.66   18.30
   2  14  -3  366.56   17.20
  -2  14   3  328.97   14.20
   2 -14   3  371.76   17.90
   2 -14   3  361.86   15.30
   2 -14   3  320.17   12.00
  -2 -14   3  369.16   15.50
   2  14   3  349.47   15.90
   2 -14  -3  362.06   15.90
  -2  14  -3  333.27   15.20
  -2 -14   3  350.76   17.70
   2 -14  -3  327.77   11.50
  -2 -14   3  384.96   16.20
   2 -14  -3  366.46   19.20
  -2  14  -3  346.97   14.00
  -4 -14  -3  110.09   10.40
   4 -14   3  118.09   10.20
   4  14  -3  138.49   10.90
  -4 -14  -3  120.09    8.20
   4 -14   3  116.99    8.00
   4 -14   3  127.09   10.30
  -4  14   3  118.19    7.70
   4 -14  -3  120.39   10.00
   4  14   3  114.09    9.50
  -4 -14   3  110.39   10.10
  -4 -14   3  117.79    8.50
   4 -14  -3  124.89   11.20
  -4 -14   3  113.49    8.70
  -4  14  -3  102.99    7.80
   6 -14   3   89.49    8.80
   6  14  -3   93.39   10.10
   6 -14   3   95.19   10.20
  -6 -14  -3   93.59    9.90
  -6 -14  -3   91.09    7.50
  -6  14   3   81.09    6.70
   6  14   3   96.79    9.60
  -6 -14   3   96.99    7.70
  -6 -14   3  102.59    8.60
  -6  14  -3   72.99    7.10
   6 -14  -3  103.79   10.30
  -6 -14   3   88.29    9.70
  -8 -14  -3   28.30    6.50
  -8 -14  -3   20.60    6.70
   8 -14   3   30.50    8.10
  -8  14   3   29.70    7.00
   8  14  -3   21.90    6.20
  -8 -14   3   28.90    6.10
   8  14   3   26.00    6.90
  -8 -14   3   30.30    5.80
   8 -14  -3   21.10    6.10
  -8 -14   3   29.60    7.40
  -8  14  -3   32.70    7.10
 -10  14   3   11.10    5.80
 -10 -14  -3    6.50    4.00
  10  14  -3    9.30    6.70
  10 -14   3    0.40    4.30
 -10 -14   3    3.10    4.80
 -10 -14   3    1.00    3.90
  10 -14  -3   11.90    5.60
  10  14   3    4.40    3.90
 -10 -14   3    9.50    3.50
 -10  14  -3   14.60    4.50
  -1  15   3   93.89    7.00
   1 -15   3   85.99    5.90
   1 -15   3   86.29    7.20
   1 -15   3   90.89    8.30
  -1  15   3   87.29    6.30
   1 -15   3   91.99    9.00
  -1 -15  -3   83.39    9.10
  -1 -15  -3   90.59    6.00
  -1 -15  -3   89.79    6.30
  -1  15   3   94.69    6.40
   1  15  -3   90.79    8.90
   1  15  -3   93.99    7.20
  -1 -15   3   92.89    7.50
   1 -15  -3   91.09    5.60
   1 -15  -3   98.89    7.10
  -1  15  -3   88.39    7.10
   1  15   3   81.89    5.40
   1 -15  -3   82.59    5.40
  -1 -15   3   94.79    9.20
  -1  15  -3   82.99    9.50
   1 -15  -3  103.69   10.10
   3 -15   3  109.09    8.50
   3 -15   3  116.79    9.70
  -3  15   3  104.09    7.50
  -3 -15  -3  102.69   10.10
   3  15  -3  109.49    9.90
   3 -15   3  113.39    9.90
  -3 -15  -3   99.29    7.40
  -3  15  -3  100.39    7.90
   3 -15  -3  115.39   10.90
   3  15   3  109.89    9.20
   3 -15  -3  106.39    8.90
  -3 -15   3  119.49    8.50
  -3 -15   3  113.39    8.70
  -3 -15   3  105.49   10.00
  -5 -15  -3   34.10    8.20
   5  15  -3   34.30    7.80
  -5  15   3   38.00    4.60
   5 -15   3   40.50    8.50
   5 -15   3   41.90    9.20
  -5 -15  -3   39.30    5.40
  -5 -15   3   42.60    7.60
   5  15   3   36.70    7.30
  -5  15  -3   35.00    5.10
  -5 -15   3   39.10    7.70
   5 -15  -3   30.40    6.70
  -5 -15   3   48.90    5.60
   5 -15  -3   49.50    9.60
  -7 -15  -3   33.80    6.70
   7 -15   3   42.90    9.40
   7  15  -3   38.20    8.40
  -7 -15  -3   39.40    8.70
  -7 -15   3   35.20    8.40
   7  15   3   39.00    8.40
  -7 -15   3   34.00    4.70
  -7 -15   3   45.70    5.70
   7 -15  -3   41.40    8.80
   9 -15   3   23.40    6.40
  -9  15   3   24.50    5.90
  -9 -15  -3   27.00    6.60
   9  15  -3   13.20    4.50
  -9 -15   3   22.60    5.00
  -9 -15   3   13.70    5.30
   9  15   3   21.20    6.90
   9 -15  -3   25.40    7.80
  -9  15  -3   28.90    6.30
  -9 -15   3   12.20    3.60
   0  16   3  391.56   15.10
   0 -16   3  409.36   20.20
   0 -16  -3  404.26   15.80
   0  16   3  407.66   17.90
   0 -16   3  430.86   18.40
   0  16  -3  414.16   17.90
   0  16  -3  399.86   17.40
   0 -16  -3  389.86   14.90
   0 -16   3  423.96   17.60
   0  16   3  431.86   16.90
   0 -16  -3  402.76   21.20
  -2 -16  -3  437.56   22.20
   2 -16   3  460.95   18.40
   2 -16   3  461.95   20.60
  -2  16   3  439.16   17.70
   2  16  -3  481.35   20.90
   2 -16   3  452.35   21.40
  -2  16  -3  391.76   18.00
   2 -16  -3  452.75   23.00
  -2 -16   3  434.96   21.20
   2 -16  -3  427.36   14.20
  -2 -16   3  453.05   18.90
   2 -16  -3  445.56   19.00
   2  16   3  455.25   19.40
  -2 -16   3  480.75   19.00
   4 -16   3  215.48   14.10
   4 -16   3  200.98   11.30
   4  16  -3  219.28   14.70
  -4 -16  -3  211.68   15.40
   4 -16   3  226.68   14.80
  -4  16   3  180.78   11.00
  -4 -16   3  232.38   13.20
  -4 -16   3  221.28   15.00
   4  16   3  205.68   13.50
  -4  16  -3  187.98   11.70
   4 -16  -3  229.98   14.10
  -4 -16   3  240.08   12.50
   4 -16  -3  208.18   15.70
   6 -16   3  148.59    9.50
  -6  16   3  156.58   10.20
  -6 -16  -3  150.88   10.60
  -6 -16  -3  142.39   13.80
   6 -16   3  157.08   20.80
   6 -16  -3  136.29   12.10
  -6 -16   3  162.38   10.20
  -6 -16   3  135.19   14.60
  -6 -16   3  149.88   10.90
  -8 -16  -3   83.79   11.20
  -8 -16  -3   75.09    9.70
   8  16  -3   52.59   10.20
   8 -16   3   61.39   11.40
   8 -16  -3   58.59   11.70
  -8 -16   3   60.29    8.80
  -8  16  -3   56.99   10.00
  -8 -16   3   54.39    7.50
   8  16   3   63.49   11.40
  -8 -16   3   68.89    6.50
  -1 -17  -3  105.59   10.80
  -1 -17  -3  107.39    6.80
   1 -17   3  114.19    9.40
   1 -17   3   93.19    9.70
  -1 -17  -3  108.39    7.20
   1  17  -3  111.99    9.30
   1 -17   3  105.29    8.10
  -1  17   3  104.09    7.80
  -1  17   3  112.69    7.60
   1  17   3  117.79    8.80
   1 -17  -3  104.49    6.30
  -1  17  -3  103.09    8.00
   1 -17  -3  103.29    7.90
  -1  17  -3   95.59    8.50
  -1 -17   3   92.29    9.60
  -1 -17   3  124.39    9.10
   1 -17  -3   85.09   10.00
  -1 -17   3  105.49    8.10
   1  17   3   87.29    6.10
   3 -17   3   80.89    8.80
  -3 -17  -3   71.29    6.60
   3  17  -3   86.39    9.00
   3 -17   3   83.89    8.80
   3 -17   3   74.39    7.00
  -3  17   3   77.39    6.70
  -3 -17  -3   77.69    9.50
  -3 -17   3   75.29    9.00
  -3 -17   3   69.39    7.10
  -3  17  -3   78.59    7.30
  -3 -17   3   82.29    7.30
   3 -17  -3   78.99    9.80
   3 -17  -3   66.79    7.30
   3  17   3   81.19    8.10
  -5  17   3   90.29    7.90
   5  17  -3   91.59    9.70
  -5 -17  -3   92.09   10.70
   5 -17   3   85.79    9.30
   5 -17   3   98.59   10.50
  -5 -17  -3   95.39    8.10
   5 -17   3   81.49    7.40
  -5 -17   3  105.79    8.10
   5 -17  -3  105.89   10.10
   5  17   3   86.89    9.30
  -5 -17   3   94.79    8.60
  -5 -17   3   84.69    9.90
   5 -17  -3  101.19   10.90
  -7 -17  -3   63.69    9.90
   7  17  -3   61.19    8.60
   7 -17   3   63.79   12.50
  -7 -17  -3   69.09   11.80
   7 -17  -3   58.79    8.50
  -7 -17   3   57.59    9.80
   7  17   3   57.29    8.20
  -7 -17   3   65.39    9.10
  -7 -17   3   62.39    6.40
  -9  17   3   22.40    6.90
   9  17  -3   33.80    8.50
   9 -17   3   19.50    6.60
  -9 -17  -3   28.70    7.70
   9  17   3   45.40    9.20
  -9 -17   3   27.20    5.40
   9 -17  -3   29.10    8.10
  -9  17  -3   25.30    6.50
  -9 -17   3   34.90    8.20
  -9 -17   3   33.90    7.70
   0 -18   3  109.99    8.50
   0 -18  -3  119.89   11.80
   0  18   3  123.79    8.80
   0 -18   3  115.49    9.40
   0 -18  -3  109.29    7.10
   0  18   3  104.99    8.40
   0 -18  -3  127.19    8.20
   0 -18   3  106.69   10.50
   0  18  -3  108.49    9.00
   2 -18   3  108.69    9.60
   2  18  -3   98.79    9.20
  -2  18   3   93.19    7.90
  -2 -18  -3   92.89    7.40
   2 -18   3  111.29   10.60
  -2 -18  -3   99.19   10.60
   2 -18   3   86.99    9.00
  -2 -18  -3  101.89    6.20
  -2 -18   3  101.59    8.20
  -2  18  -3   93.19    7.10
   2  18   3   91.49    8.40
   2 -18  -3   87.09   10.20
  -2 -18   3  110.69    8.70
   2 -18  -3   97.59    8.40
  -2 -18   3   98.99   10.50
   4  18  -3   41.70    8.50
  -4  18   3   29.40    5.70
   4 -18   3   35.70    8.10
  -4 -18  -3   37.30    6.70
  -4 -18  -3   55.29   10.60
   4 -18   3   53.39    7.40
   4 -18  -3   49.10   10.50
  -4 -18   3   46.90    5.60
  -4 -18   3   59.39   11.50
   4 -18  -3   44.00    6.40
   4  18   3   45.20    6.50
  -4 -18   3   44.10    6.10
   6  18  -3   34.00    8.00
  -6 -18  -3   30.30    7.60
  -6 -18  -3   34.90    6.40
   6 -18   3   29.20    7.00
  -6 -18   3   33.00    6.40
  -6 -18   3   49.80    9.10
  -6 -18   3   39.40    5.00
   6 -18  -3   42.90    9.30
   6  18   3   40.90    8.30
   8 -18   3   16.70    5.50
  -8 -18  -3   20.50    7.50
   8  18  -3   24.80    7.60
  -8 -18   3   14.00    5.90
  -8 -18   3   17.30    5.40
  -8 -18   3   10.20    5.50
   8 -18  -3   12.50    5.50
  -8  18  -3   19.00    5.10
   8  18   3   22.90    7.20
  -1 -19  -3   17.50    7.50
   1 -19   3    5.90    3.20
  -1  19   3   15.60    5.30
   1 -19   3   20.30    5.40
   1 -19   3   11.00    4.90
  -1 -19  -3   11.60    2.80
   1  19  -3   16.50    4.60
  -1 -19  -3   11.30    3.50
  -1 -19   3   10.40    4.70
   1 -19  -3   17.00    4.50
  -1 -19   3   12.00    3.50
   1 -19  -3   18.00    3.20
   1 -19  -3    8.80    4.20
  -1 -19   3   17.10    4.70
   1  19   3   14.20    4.00
  -1  19  -3   20.80    4.70
  -3 -19  -3   25.70    7.50
   3 -19   3   25.50    6.60
   3  19  -3   33.60    7.30
   3 -19   3   20.50    4.30
   3 -19   3   44.20    6.40
  -3  19   3   40.70    5.40
  -3 -19   3   21.20    4.50
  -3 -19   3   31.50    7.90
   3 -19  -3   29.10    6.70
   3 -19  -3   32.60    8.70
  -3 -19   3   30.60    6.10
   3  19   3   20.40    5.70
   5 -19   3   17.70    5.90
   5  19  -3   20.60    6.20
   5 -19   3   10.70    4.70
  -5 -19  -3   20.00    6.10
  -5 -19  -3   11.60    4.10
   5 -19  -3   18.00    6.30
  -5 -19   3   15.70    3.80
  -5 -19   3   11.60    5.60
  -5 -19   3   21.10    5.10
   5 -19  -3   13.20    5.20
   5  19   3   23.70    6.50
  -7 -19  -3   14.20    4.70
   7  19  -3   11.20    5.20
   7 -19   3   16.10    5.00
  -7 -19   3    7.80    5.00
   7  19   3   12.90    4.40
   7 -19  -3   10.30    5.60
  -7 -19   3    7.90    3.90
  -7 -19   3   18.40    4.30
   0 -20  -3  231.58   17.20
   0  20   3  213.98   12.50
   0 -20  -3  220.88   10.80
   0  20   3  253.27   13.30
   0 -20   3  225.68   16.10
   0 -20   3  212.18   12.80
   0  20  -3  221.78   13.40
   0 -20  -3  225.88   11.90
   0 -20   3  255.07   14.60
   2  20  -3  188.38   13.20
   2 -20   3  150.68   13.20
   2 -20   3  169.38   12.80
   2 -20   3  149.69   11.10
  -2 -20  -3  164.88   10.30
  -2 -20  -3  143.99   13.70
  -2  20   3  172.28   11.50
  -2 -20   3  184.38   11.70
   2 -20  -3  186.08   11.80
   2  20   3  193.88   12.90
   2 -20  -3  156.78   14.30
  -2 -20   3  175.48   11.60
  -2 -20   3  166.78   14.00
  -2  20  -3  188.48   10.40
   4 -20   3  119.59   11.30
   4  20  -3  155.88   12.70
  -4 -20  -3  121.89   12.60
  -4 -20  -3  134.59   10.80
   4 -20   3  152.08   12.60
   4 -20  -3  137.69   11.10
   4  20   3  116.59   11.00
  -4 -20   3  139.79   12.90
   4 -20  -3  123.49   12.70
  -4 -20   3  139.69    9.90
  -4 -20   3  142.19   12.90
  -6 -20  -3   79.09   10.80
   6  20  -3   76.79    9.60
   6 -20   3   66.89    9.50
   6 -20  -3   76.29    9.50
  -6 -20   3   77.59    7.30
   6  20   3   80.19    9.90
  -6 -20   3   84.69   10.70
  -6 -20   3   82.79    8.90
  -1 -21  -3  141.29   14.20
   1  21  -3  147.79   11.40
  -1  21   3  137.89    9.10
   1 -21   3  136.09   12.80
   1 -21   3  138.79   11.00
   1 -21   3  135.49    9.70
   1 -21  -3  142.79   16.10
  -1 -21   3  128.49   12.30
   1 -21  -3  140.09    9.80
  -1  21  -3  139.19    9.90
   1  21   3  135.19   10.20
  -1 -21   3  149.59   11.00
  -1 -21   3  132.79   10.00
   3  21  -3   94.09   18.20
   3 -21   3   75.29    9.70
  -3 -21  -3   72.99    9.90
   3 -21   3   67.29    9.10
  -3 -21   3   80.39   10.10
   3 -21  -3   73.19    9.90
   3 -21  -3   85.59    8.20
  -3 -21   3   74.99    7.40
  -3 -21   3   89.99    8.40
   5 -21   3   93.89   10.50
   5  21  -3   78.79    9.50
  -5 -21  -3   85.19   10.80
   5 -21   3   98.79   10.00
   5 -21  -3   94.99   10.00
   5 -21  -3   91.19   11.20
  -5 -21   3   86.59    7.90
  -5 -21   3   82.99    9.50
  -5 -21   3  108.69   11.70
   5  21   3   93.89   10.10
  -7 -21  -3   31.60    9.00
   7  21  -3   19.30    7.00
   7 -21   3   10.30    5.90
  -7 -21   3   22.40    4.70
   7 -21  -3   23.00    6.40
  -7 -21   3   30.40    8.20
   0 -22   3   49.70   16.00
   0 -22  -3   59.99    6.00
   0  22  -3   49.70    6.50
   0 -22  -3   47.00    9.90
   0 -22   3   59.29    7.00
   0  22   3   52.89    6.20
   0 -22   3   43.30    6.80
   2 -22   3   60.99    8.20
  -2 -22  -3   66.89   12.20
   2 -22   3   61.89    8.90
   2  22  -3   60.29    8.50
   2 -22  -3   49.60    9.90
  -2 -22   3   68.89    7.40
  -2 -22   3   43.30    9.60
   2 -22  -3   73.99    7.50
   2  22   3   71.39    8.00
  -2 -22   3   77.59    8.20
  -4 -22  -3   31.40    8.60
   4 -22   3   38.20    8.10
   4 -22   3   39.20    8.30
   4  22  -3   43.10    8.90
   4  22   3   53.19    7.60
   4 -22  -3   26.50    6.70
  -4 -22   3   30.20    6.20
  -4 -22   3   31.50    6.50
   4 -22  -3   29.10    7.40
  -4 -22   3   46.90   10.40
   6 -22   3   33.50    7.90
  -6 -22  -3   37.30   11.00
   6  22  -3   24.40    7.10
   6  22   3   23.20    6.90
   6 -22  -3   31.70    7.60
  -6 -22   3   16.50    4.80
  -6 -22   3   14.90    7.40
   1 -23   3    9.80    3.80
  -1 -23  -3   15.10    5.50
   1  23  -3   17.00    5.80
  -1  23   3   17.30    3.80
   1 -23   3   12.30    4.30
  -1 -23  -3   23.40    4.90
  -1 -23   3   13.80    5.10
  -1  23  -3   17.90    4.70
  -1 -23   3    5.60    4.00
   1 -23  -3    5.00    4.10
   1 -23  -3   15.70    4.70
   1  23   3   14.70    5.00
   3  23  -3   20.70    4.50
   3 -23   3    9.40    4.30
  -3 -23  -3   13.70    5.20
   3 -23   3   17.30    5.30
   3  23   3   13.70    4.70
   3 -23  -3   12.00    4.20
   3 -23  -3    8.70    6.40
  -3 -23   3    7.20    4.20
   5 -23   3   11.60    6.00
  -5 -23  -3   26.30    7.90
   5 -23   3   12.80    5.50
   5  23  -3   24.40    7.50
   5  23   3   22.30    6.70
  -5 -23   3   16.20    6.10
   5 -23  -3   31.40    7.30
  -5 -23   3   22.40    5.90
   5 -23  -3   12.30    5.00
   0 -24  -3  123.89    9.20
   0 -24   3  132.49   10.90
   0 -24   3  100.49   11.70
   0  24   3  127.39   10.10
   0  24  -3  139.49   10.40
   0 -24  -3  124.59   12.90
  -2 -24  -3   77.29   10.80
   2 -24   3   70.39    9.90
   2 -24   3   93.59    9.60
   2  24  -3   88.19    9.50
   2  24   3   82.19    8.70
   2 -24  -3   97.89   10.00
  -2 -24   3   89.69    8.80
  -2 -24   3   77.39   14.30
   2 -24  -3  104.09   11.90
   4 -24   3   69.89    9.60
   4 -24   3   93.89   10.80
   4  24  -3   96.09   10.70
  -4 -24  -3  100.09   12.20
   4 -24  -3  102.79    9.40
   4 -24  -3   86.39   11.30
  -4 -24   3   99.89    8.70
   4  24   3   92.29   10.00
  -4 -24   3   85.79   11.40
   1  25  -3   46.20    8.30
   1 -25   3   43.20    9.60
  -1 -25  -3   25.00    7.10
   1 -25   3   48.90    6.70
  -1  25   3   40.80    6.60
  -1 -25   3   47.90    6.60
   1  25   3   46.00    8.40
  -1  25  -3   45.30    6.50
  -1 -25   3   26.70    7.40
   1 -25  -3   41.80    6.80
   1 -25  -3   33.60    9.50
   3 -25   3   43.30    8.20
   3 -25   3   73.99    8.60
   3  25  -3   38.20    8.40
   3  25   3   46.20    8.90
   3 -25  -3   49.90   15.10
  -3 -25   3   56.49    7.20
  -3 -25   3   45.30   10.50
   3 -25  -3   50.09    8.30
   0  26   3   36.40    6.60
   0  26  -3   28.30    7.30
   0 -26   3   40.00    8.90
   0 -26   3   30.70    6.70
   0 -26  -3   23.50   10.80
   2 -26   3   43.70    9.10
  -2 -26  -3   42.30   10.30
   2 -26   3   54.59   12.20
   2  26  -3   45.90    9.00
   2 -26  -3   38.70    7.30
   2 -26  -3   56.59   12.30
  -2 -26   3   37.10    6.60
  -2 -26   3   43.90   15.90
   2  26   3   65.39    7.90
   0   0  -4  113.89    5.80
   0   0  -4  110.69    4.60
   0   0   4  113.69    4.20
   0   0   4  119.59    4.90
   0   0   4  120.19    4.00
  -2   0   4  331.87   12.10
  -2   0   4  322.17   11.00
  -2   0  -4  332.37   10.60
   2   0   4  333.47   10.50
   2   0   4  326.27    9.30
  -2   0  -4  332.97    9.50
   2   0   4  345.47   10.90
  -2   0   4  340.17   11.60
   2   0  -4  328.27   11.50
  -2   0  -4  349.87   11.40
   2   0   4  345.97   11.00
  -4   0  -4   84.69    5.30
  -4   0   4   86.59    5.40
  -4   0   4   91.49    6.50
   4   0   4   79.29    5.70
  -4   0   4   85.49    6.50
   4   0  -4   93.69    6.00
  -4   0   4   91.89    5.10
  -4   0  -4   85.49    5.00
  -4   0  -4   88.69    5.50
   4   0   4   95.89    6.10
   4   0  -4  100.09    7.20
   4   0   4   89.09    5.50
  -4   0  -4   74.99    5.30
   4   0   4   81.89    4.90
  -6   0  -4    8.00    3.00
  -6   0  -4   13.20    3.50
   6   0  -4   10.40    3.60
  -6   0  -4   13.10    2.70
   6   0   4   18.20    4.20
  -6   0   4   11.60    2.50
  -6   0   4   11.40    3.00
   6   0   4   11.30    2.80
  -6   0   4   11.30    3.90
   6   0   4   13.10    3.80
   6   0  -4   17.50    4.00
  -6   0  -4   11.70    3.30
   8   0  -4  100.29    7.60
  -8   0   4   83.69    7.20
   8   0   4   88.79    8.30
   8   0  -4   85.29    8.90
  -8   0   4   79.59    8.60
  -8   0  -4   91.49    8.10
   8   0   4   82.49    6.70
   8   0   4   88.99    7.80
 -10   0  -4   17.90    7.90
 -10   0   4   19.50    5.70
  10   0  -4   23.90    4.40
  10   0   4   25.20    6.20
  10   0   4   13.50    3.60
   1  -1   4 3169.28   69.99
  -1  -1  -4 3151.48   69.09
   1  -1   4 2993.10   71.49
  -1   1   4 3042.30   71.39
  -1  -1  -4 3107.99   68.89
   1  -1   4 3107.09   70.39
  -1   1   4 3106.79   71.29
  -1   1   4 3042.10   72.09
  -1  -1  -4 3061.89   68.99
  -1   1  -4 3170.48   69.69
   1   1   4 3137.29   69.19
  -1  -1   4 3021.80   70.69
   1   1   4 3083.29   69.49
   1   1   4 3077.19   70.69
   1   1   4 3158.08   68.89
  -1  -1   4 2931.91   69.39
   1  -1  -4 2959.20   71.19
   3   1  -4 1420.76   36.90
  -3   1   4 1485.35   33.90
   3  -1   4 1383.96   36.10
  -3   1   4 1368.46   35.60
   3  -1   4 1388.76   35.10
  -3  -1  -4 1449.46   34.80
  -3   1   4 1392.16   36.70
  -3  -1  -4 1454.95   35.20
  -3  -1  -4 1376.86   35.50
   3  -1   4 1435.86   36.10
  -3  -1  -4 1390.06   35.50
   3  -1  -4 1463.75   38.30
  -3   1  -4 1410.96   35.70
   3   1   4 1406.16   35.10
  -3   1  -4 1432.26   34.40
   3  -1  -4 1413.06   35.90
  -3   1  -4 1411.96   35.70
  -3  -1   4 1399.66   36.60
  -3  -1   4 1356.06   37.70
   3   1   4 1451.95   36.20
   3   1   4 1404.06   35.90
   3   1   4 1364.46   34.50
  -3  -1   4 1384.96   36.20
  -5  -1  -4 1258.07   35.80
  -5   1   4 1359.16   38.20
  -5   1   4 1281.47   34.40
  -5  -1  -4 1283.87   35.40
   5   1  -4 1302.67   38.60
  -5  -1  -4 1230.18   36.50
   5  -1   4 1312.17   37.30
   5  -1   4 1341.77   36.50
   5  -1   4 1307.07   34.60
  -5   1   4 1338.77   34.50
  -5  -1  -4 1323.87   36.00
   5   1  -4 1340.17   36.80
  -5   1  -4 1313.17   36.10
   5   1   4 1341.17   36.60
   5   1   4 1353.56   35.80
  -5  -1   4 1313.37   35.00
  -5   1  -4 1293.37   36.40
  -5  -1   4 1315.37   37.80
  -5   1  -4 1335.57   35.50
  -5  -1   4 1244.88   35.30
   5   1   4 1290.97   36.00
   5  -1  -4 1310.97   35.30
   5  -1  -4 1356.86   39.50
  -7  -1  -4  260.07   13.30
   7  -1   4  251.57   13.80
  -7   1   4  267.17   14.70
  -7   1   4  249.38   11.80
  -7   1   4  234.08   10.60
   7   1  -4  247.78   12.50
   7   1  -4  230.98   14.00
   7  -1   4  243.48   12.70
   7  -1   4  234.58   10.90
   7  -1  -4  241.98   14.80
  -7   1  -4  232.88   12.40
   7   1   4  252.57   13.10
  -7   1  -4  262.77   13.20
   7  -1  -4  248.88   11.70
  -7  -1   4  250.57   14.30
  -7  -1   4  250.47   12.20
   7   1   4  243.38   13.10
   7   1   4  242.98   11.90
   9  -1   4  191.48   10.40
  -9  -1  -4  204.58   13.40
  -9   1   4  177.78   11.40
   9   1  -4  189.58   11.30
  -9   1   4  211.08   14.80
   9  -1   4  186.88   12.10
   9  -1   4  189.68   13.00
   9   1   4  166.88   12.00
   9   1   4  179.98   10.80
   9  -1  -4  191.18   14.90
  -9  -1   4  193.88   14.30
   9   1   4  178.18   12.20
  -9   1  -4  183.58   12.40
   9  -1  -4  185.48   13.90
  -9  -1   4  180.68   12.00
 -11  -1  -4   37.90    7.20
  11  -1   4   40.20    8.00
  11   1  -4   51.49    6.60
 -11   1   4   28.80    6.20
 -11  -1   4   37.70    8.00
 -11   1  -4   32.80    6.50
  11   1   4   43.20    5.70
  11   1   4   43.20    5.80
   0   2   4 2094.79   51.19
   0  -2  -4 2133.19   49.99
   0   2  -4 2117.19   50.09
   0   2   4 2183.28   49.20
   0   2  -4 2075.89   51.19
   0   2   4 2181.28   50.09
   0   2  -4 2157.18   48.80
   0  -2   4 2214.58   49.40
   0  -2   4 2197.78   50.59
   0  -2   4 2045.30   50.89
  -2  -2  -4  334.97   11.30
   2  -2   4  351.06   11.40
  -2  -2  -4  346.47   10.80
  -2   2   4  330.57   12.20
  -2   2   4  332.47   11.20
  -2  -2  -4  339.47   10.70
   2  -2   4  316.67   11.30
   2   2  -4  349.17   12.50
   2  -2   4  355.16   11.90
   2   2  -4  324.67   10.90
  -2   2   4  337.57   12.30
  -2  -2  -4  350.66    9.50
   2  -2  -4  338.77   11.30
  -2  -2   4  355.86   12.70
   2   2   4  354.66   11.20
   2   2   4  339.07   11.50
  -2   2  -4  340.37    9.70
  -2   2  -4  337.47   11.10
  -2  -2   4  343.97   11.30
   2   2   4  345.97    9.70
   2  -2  -4  334.17   12.30
   2   2   4  359.66   11.60
  -2   2  -4  333.67   11.30
  -2  -2   4  351.56   12.20
  -4  -2  -4  644.84   20.00
   4  -2   4  661.73   21.30
  -4   2   4  671.53   19.10
   4  -2   4  674.73   20.60
   4   2  -4  674.93   21.40
  -4  -2  -4  660.63   19.00
  -4  -2  -4  627.14   19.80
  -4   2   4  630.64   22.10
  -4   2   4  605.94   21.80
   4   2  -4  621.74   20.30
  -4  -2  -4  673.93   20.30
   4  -2   4  668.13   19.00
  -4   2   4  690.33   21.70
  -4   2   4  669.63   18.40
  -4   2  -4  666.53   19.20
  -4  -2   4  659.23   19.70
  -4  -2   4  650.13   22.30
  -4  -2   4  679.43   21.60
   4   2   4  676.93   19.60
   4   2   4  681.23   20.60
  -4   2  -4  643.64   20.50
   4   2   4  673.63   20.80
  -4   2  -4  648.24   20.20
   4  -2  -4  652.83   22.50
  -4  -2   4  624.34   20.30
   4   2   4  646.14   19.50
   4  -2  -4  645.24   19.20
  -6  -2  -4   45.90    4.60
  -6  -2  -4   54.29    4.80
  -6   2   4   53.69    6.10
  -6   2   4   48.90    4.00
  -6   2   4   54.29    4.70
  -6  -2  -4   48.50    5.40
   6  -2   4   54.49    4.50
   6   2  -4   47.00    5.90
   6   2  -4   52.49    5.60
   6  -2   4   57.09    6.10
   6  -2   4   49.70    5.20
  -6   2  -4   52.89    5.10
   6   2   4   45.70    5.20
   6  -2  -4   62.69    7.00
   6   2   4   50.09    5.20
  -6   2  -4   50.89    5.20
   6   2   4   56.89    5.40
   6  -2  -4   51.99    4.60
  -6  -2   4   49.99    4.90
  -6  -2   4   57.19    6.40
   8  -2   4    6.30    2.30
   8  -2   4    6.50    2.90
  -8   2   4    4.60    3.10
   8   2  -4    7.10    2.90
   8  -2   4    5.80    3.10
  -8   2   4    6.10    2.30
  -8   2   4    4.80    2.30
  -8  -2  -4    6.50    3.20
   8  -2  -4    6.50    3.30
  -8   2  -4   10.90    3.80
  -8  -2   4    9.80    3.40
   8   2   4    8.80    3.40
   8  -2  -4    8.50    2.80
   8   2   4   11.30    3.90
  -8  -2   4    8.30    4.00
   8   2   4   10.00    3.20
 -10  -2  -4    5.80    3.40
 -10   2   4    6.00    4.10
  10   2  -4    8.10    3.00
  10   2   4    8.40    3.20
 -10   2  -4    3.20    2.50
 -10  -2   4   12.40    4.30
  10   2   4   10.00    3.90
  10   2   4    4.00    2.60
  10  -2  -4    5.80    3.80
   1  -3   4 1605.94   38.80
  -1  -3  -4 1614.24   39.00
  -1   3   4 1595.64   39.00
   1  -3   4 1604.94   39.40
  -1   3   4 1574.84   40.00
   1  -3   4 1645.74   39.70
   1   3  -4 1533.45   40.20
  -1  -3  -4 1581.24   37.00
  -1   3   4 1635.34   39.40
  -1  -3   4 1560.24   40.00
   1   3   4 1595.04   37.70
   1  -3  -4 1612.14   40.00
   1   3   4 1635.84   39.20
  -1  -3   4 1613.14   39.50
  -1   3  -4 1614.04   39.80
  -1   3  -4 1604.94   38.50
  -1   3  -4 1594.54   39.20
  -1  -3   4 1605.44   37.90
   1  -3  -4 1611.04   39.10
  -1  -3   4 1612.04   38.30
  -3   3   4 1164.98   27.50
  -3   3   4 1119.89   32.30
   3  -3   4 1180.28   31.70
  -3   3   4 1150.28   29.20
   3   3  -4 1079.29   30.20
  -3  -3  -4 1149.98   30.00
  -3  -3  -4 1180.48   30.50
   3  -3   4 1141.49   30.40
  -3  -3  -4 1123.49   30.40
  -3   3   4 1097.69   31.90
   3   3  -4 1170.18   32.10
   3  -3   4 1180.88   29.00
  -3  -3  -4 1180.78   28.00
   3  -3   4 1117.79   29.70
  -3  -3   4 1133.99   31.00
   3   3   4 1147.79   29.90
  -3   3  -4 1147.09   28.50
   3   3   4 1155.78   28.30
  -3  -3   4 1107.19   32.30
  -3  -3   4 1109.49   31.00
   3   3   4 1182.78   30.70
  -3   3  -4 1137.19   29.40
   3  -3  -4 1180.18   29.50
   3   3   4 1138.99   30.80
  -3   3  -4 1149.78   30.20
  -3   3  -4 1140.79   30.90
   3  -3  -4 1097.99   32.00
   5   3  -4  887.41   27.90
   5  -3   4  887.61   26.70
   5  -3   4  882.31   24.20
   5  -3   4  900.81   28.40
  -5   3   4  900.81   28.30
  -5  -3  -4  854.41   26.30
  -5   3   4  917.81   24.70
  -5  -3  -4  809.42   25.70
  -5   3   4  853.81   23.70
  -5  -3  -4  863.01   25.00
  -5  -3  -4  909.01   27.10
  -5  -3   4  867.81   26.10
  -5   3  -4  865.51   27.30
   5   3   4  880.41   26.90
   5   3   4  834.02   25.90
   5   3   4  916.01   25.80
  -5  -3   4  796.62   26.10
  -5   3  -4  949.11   26.10
  -5  -3   4  921.31   28.50
   5   3   4  896.71   27.20
   5  -3  -4  849.02   24.20
  -5   3  -4  854.11   26.50
   5  -3  -4  920.81   29.80
  -5   3  -4  877.21   26.90
   7  -3   4  243.28   14.30
  -7  -3  -4  260.07   13.70
  -7   3   4  252.87   14.50
   7  -3   4  257.27   12.90
  -7   3   4  265.97   12.10
   7   3  -4  256.67   13.60
   7  -3   4  245.58   10.40
   7   3   4  247.68   12.80
  -7   3  -4  267.67   13.20
  -7   3  -4  233.48   12.50
   7   3   4  266.97   13.70
   7   3   4  243.98   12.50
  -7  -3   4  259.77   12.80
   7  -3  -4  231.88   14.80
  -7  -3   4  257.67   14.80
  -9  -3  -4  125.19   10.30
  -9   3   4  125.59    9.30
   9   3  -4  114.09    9.20
   9  -3   4  124.29   10.90
   9  -3   4  119.59    9.20
  -9   3   4  116.59   11.10
   9   3   4   99.99    9.20
  -9  -3   4  129.69   11.50
   9   3   4  130.59    9.70
   9   3   4  127.59    9.40
   9  -3  -4  114.49   11.30
  -9   3  -4  135.69   10.50
 -11   3   4   37.60    8.00
 -11  -3  -4   41.20    7.70
  11  -3   4   45.00    8.60
  11   3   4   49.99    6.00
 -11  -3   4   43.30    8.60
  11  -3  -4   35.80    8.60
 -11   3  -4   37.20    7.80
   0   4   4 1221.58   29.50
   0  -4   4 1272.87   31.20
   0   4  -4 1257.27   29.60
   0   4   4 1254.27   32.30
   0   4  -4 1226.88   30.70
   0  -4   4 1220.58   32.00
   0  -4  -4 1246.68   29.60
   0   4  -4 1251.17   31.80
   0   4   4 1223.08   29.00
   0  -4  -4 1282.37   32.60
   0   4   4 1270.67   29.00
   0   4   4 1254.87   31.10
   0  -4   4 1290.77   30.20
   0   4  -4 1207.18   32.30
   2  -4   4 1152.68   29.30
  -2  -4  -4 1073.59   29.10
  -2  -4  -4 1149.29   29.60
  -2   4   4 1038.10   30.60
   2  -4   4 1118.99   28.70
   2  -4   4 1130.49   30.20
   2   4  -4 1061.09   30.50
  -2   4   4 1100.29   28.40
   2   4  -4 1073.19   28.60
  -2   4   4 1087.89   29.80
  -2  -4  -4 1105.09   28.00
   2  -4  -4 1095.29   30.90
  -2   4  -4 1127.89   27.60
   2   4   4 1093.89   29.40
  -2   4  -4 1127.89   28.90
  -2  -4   4 1096.89   29.20
  -2  -4   4 1139.09   28.20
  -2  -4   4 1074.29   29.90
  -2   4  -4 1087.69   29.40
   2   4   4 1125.59   28.70
  -2  -4   4 1136.19   29.60
   2   4   4 1132.49   29.00
   2  -4  -4 1090.59   30.00
  -4   4   4  623.54   22.50
  -4  -4  -4  661.63   18.40
   4  -4   4  679.03   20.90
   4   4  -4  679.83   22.30
  -4   4   4  601.74   22.00
   4  -4   4  663.03   19.30
  -4  -4  -4  617.34   20.30
   4  -4   4  659.03   22.30
  -4  -4  -4  667.53   20.50
  -4  -4  -4  667.23   21.10
   4  -4   4  664.53   18.40
   4   4  -4  608.24   20.60
   4  -4  -4  672.63   18.60
   4   4   4  679.23   18.70
  -4  -4   4  630.24   22.40
  -4   4  -4  668.33   20.70
  -4   4  -4  652.23   20.40
  -4   4  -4  670.13   21.60
  -4  -4   4  651.13   21.20
  -4  -4   4  668.03   21.80
   4  -4  -4  645.44   22.80
   4   4   4  640.24   20.30
  -4   4  -4  693.13   19.60
   4   4   4  690.43   21.30
  -4  -4   4  684.73   20.90
   4   4   4  689.93   21.50
  -6   4   4  257.37   11.00
  -6   4   4  251.77   13.60
  -6  -4  -4  264.77   13.10
   6   4  -4  255.17   13.30
  -6  -4  -4  239.78   12.00
   6  -4   4  253.97    9.90
   6  -4   4  268.17   12.50
  -6  -4  -4  258.27   11.20
   6  -4   4  264.77   16.30
   6  -4  -4  255.87   14.70
  -6   4  -4  235.98   11.80
  -6  -4   4  249.08   12.20
   6   4   4  266.97   11.70
   6   4   4  261.77   13.10
  -6   4  -4  260.57   12.00
   6   4   4  263.97   13.00
  -6  -4   4  266.37   13.90
   8   4  -4  120.49    9.50
  -8   4   4  126.19   10.60
  -8   4   4  114.89    8.00
  -8  -4  -4  125.89   10.10
   8  -4   4  123.09    8.90
   8  -4   4  116.19   10.40
  -8  -4   4  114.39    8.90
   8   4   4  119.79    8.70
   8  -4  -4  101.29   10.10
  -8  -4   4  118.79   10.60
  -8   4  -4  125.79    9.30
   8   4   4  128.29    9.40
   8   4   4  123.09    9.50
  10   4  -4   41.10    5.50
 -10   4   4   33.90    7.40
 -10  -4  -4   38.90    8.00
  10  -4   4   37.20    7.70
  10   4   4   41.20    7.20
  10  -4  -4   26.00    6.80
 -10  -4   4   32.70    7.90
  -1  -5  -4  778.72   19.70
  -1   5   4  781.02   23.30
   1   5  -4  774.52   20.80
  -1  -5  -4  770.62   21.60
  -1   5   4  752.62   20.30
  -1  -5  -4  801.82   19.80
   1  -5   4  814.92   22.00
   1   5  -4  754.12   21.80
   1  -5   4  814.02   20.80
   1   5  -4  763.32   20.80
  -1  -5  -4  780.12   22.60
   1  -5   4  802.62   22.70
  -1   5   4  762.22   21.10
   1   5  -4  756.62   22.90
   1  -5   4  758.12   21.40
  -1  -5   4  802.12   21.60
  -1   5  -4  778.02   22.30
   1   5   4  774.52   20.60
  -1   5  -4  796.92   20.20
  -1  -5   4  755.02   22.30
   1   5   4  795.32   21.90
  -1   5  -4  787.62   22.10
   1  -5  -4  753.22   21.30
   1  -5  -4  783.92   23.50
  -1  -5   4  811.42   21.40
  -1   5  -4  799.32   21.60
   1   5   4  786.52   22.50
  -3   5   4  350.26   10.20
  -3   5   4  350.86   14.80
  -3  -5  -4  347.47   12.20
  -3  -5  -4  342.67   12.90
   3   5  -4  336.37   12.70
  -3   5   4  328.37   13.60
  -3  -5  -4  354.56   13.30
   3  -5   4  354.16   14.00
   3  -5   4  340.77   11.60
   3  -5   4  359.76   13.00
  -3   5  -4  345.07   12.60
  -3  -5   4  356.56   14.20
  -3  -5   4  373.86   13.30
   3   5   4  327.77   12.60
   3   5   4  346.87   13.40
  -3  -5   4  331.77   13.30
  -3   5  -4  343.87   12.20
  -3  -5   4  356.96   13.60
   3  -5  -4  359.66   14.40
  -3   5  -4  355.36   13.60
   3   5   4  353.66   13.00
   5  -5   4  328.77   13.50
  -5   5   4  305.17   11.50
  -5  -5  -4  301.27   13.10
   5   5  -4  315.37   14.60
   5  -5   4  312.57   15.00
  -5  -5  -4  319.17   14.10
  -5  -5  -4  293.57   11.20
  -5  -5   4  327.97   13.60
  -5  -5   4  316.47   14.60
  -5   5  -4  303.27   13.10
   5  -5  -4  338.27   16.10
   5   5   4  321.67   14.10
   5   5   4  320.07   14.00
   5   5   4  306.97   11.60
  -5   5  -4  332.67   12.90
  -7  -5  -4  121.09    8.10
  -7  -5  -4  147.29   10.30
   7  -5   4  153.28   11.20
   7  -5   4  135.89    9.00
  -7   5   4  143.39    8.40
  -7   5   4  148.49   10.80
   7   5  -4  133.29   10.00
   7   5   4  127.19    9.40
   7   5   4  139.59    9.70
  -7   5  -4  147.39    9.50
  -7  -5   4  137.99   10.70
   7   5   4  127.09    8.20
  -7  -5   4  125.79    9.20
   7  -5  -4  143.99   11.60
  -7   5  -4  116.19    8.30
  -9  -5  -4   66.79    7.70
   9   5  -4   59.89    7.00
   9  -5   4   58.19    6.20
  -9   5   4   60.19    6.70
   9  -5   4   56.19    7.40
   9   5   4   57.89    6.50
  -9   5  -4   59.69    6.80
  -9  -5   4   52.19   14.50
 -11   5   4   15.80    5.60
  11  -5   4   19.30    5.90
  11   5  -4   23.20    5.50
 -11  -5  -4   23.60    6.70
  11  -5  -4   15.10    5.40
 -11   5  -4   20.30    5.50
 -11  -5   4   11.60    4.50
  11   5   4    8.30    3.90
   0   6  -4  202.88    8.80
   0  -6   4  207.98    9.20
   0   6   4  210.68    9.70
   0   6  -4  211.58    9.30
   0   6  -4  208.08    7.90
   0  -6   4  205.28    8.80
   0   6   4  214.18    7.50
   0   6   4  214.88    7.00
   0  -6   4  210.68    8.50
   0  -6  -4  200.18    7.90
   0   6   4  215.78    7.30
   0  -6   4  216.78    8.80
   0  -6  -4  216.48   10.00
   0   6   4  210.48    8.30
   0  -6  -4  207.98    7.20
   0   6  -4  214.18    8.50
  -2  -6  -4  673.93   21.00
   2  -6   4  640.14   18.60
   2  -6   4  675.13   19.20
  -2   6   4  638.04   20.00
   2   6  -4  635.04   19.50
   2  -6   4  666.63   20.00
  -2   6   4  657.13   17.40
  -2   6   4  670.73   22.20
  -2   6   4  675.03   17.00
  -2   6   4  679.73   18.80
  -2  -6  -4  642.44   18.50
   2   6  -4  691.43   21.90
   2  -6  -4  652.93   20.50
  -2   6  -4  682.13   19.60
  -2  -6   4  620.74   20.50
  -2   6  -4  656.53   20.60
  -2  -6   4  681.73   20.50
   2  -6  -4  686.63   22.40
   2   6   4  652.13   19.60
   2   6   4  657.83   20.40
  -2  -6   4  682.83   20.40
  -2   6  -4  639.74   19.60
  -2   6  -4  668.93   19.10
  -2  -6   4  679.13   19.60
   2   6   4  668.93   20.50
  -4  -6  -4  219.98   10.90
  -4   6   4  207.78   11.60
   4  -6   4  200.48    9.70
   4  -6   4  205.68    8.10
   4   6  -4  215.68   11.40
   4  -6   4  208.68   11.40
   4   6  -4  191.98    9.90
  -4  -6  -4  199.68    9.80
  -4  -6   4  204.18   11.10
  -4   6  -4  221.18   11.80
  -4  -6   4  207.18   11.20
  -4   6  -4  212.38    9.90
   4  -6  -4  208.28   11.60
  -4  -6   4  212.58   10.40
   4   6   4  198.48    9.90
  -4  -6   4  207.68   10.90
   4   6   4  214.18   10.50
   4   6   4  204.98   10.60
  -4  -6   4  208.78   10.10
  -4   6  -4  203.88    9.80
  -6   6   4  109.39    6.70
  -6  -6  -4  105.79    6.30
  -6  -6  -4  105.59    8.60
   6  -6   4  102.89    7.40
   6  -6   4  107.89    9.30
   6   6  -4  109.09    8.90
  -6   6   4  108.89    9.00
  -6  -6   4  109.59    9.00
  -6   6  -4  114.89    7.80
  -6   6  -4  110.99    7.70
   6   6   4  106.09    8.20
   6  -6  -4   97.29    9.30
   6   6   4  109.99    8.50
   8  -6   4   51.49    9.40
  -8   6   4   53.89    5.40
   8  -6   4   53.89    7.40
  -8  -6  -4   59.99    7.00
  -8   6   4   55.79    7.30
   8   6  -4   56.99    7.00
   8   6   4   55.79    6.50
   8   6   4   53.19    6.50
   8  -6  -4   59.49   10.70
  -8   6  -4   58.59    6.30
  -8  -6   4   52.09    7.40
  -8  -6   4   53.79    6.30
 -10   6   4    3.50    3.10
 -10  -6  -4    8.60    4.50
  10  -6   4   10.80    4.90
  10   6  -4   11.00    4.90
  10  -6  -4    8.60    4.50
 -10   6  -4   12.20    3.80
 -10  -6   4    8.70    4.90
  10   6   4    5.70    3.10
   1   7  -4  168.28    7.50
  -1  -7  -4  161.08    8.80
  -1  -7  -4  153.78    7.30
  -1   7   4  159.98    6.10
   1   7  -4  156.68    7.70
  -1   7   4  151.58    8.70
   1  -7   4  163.88    7.80
   1  -7   4  157.88    7.20
   1  -7   4  151.18    8.30
  -1  -7  -4  159.28    6.30
  -1   7   4  149.09    6.50
   1  -7   4  158.48    7.80
  -1   7   4  139.79    6.70
  -1  -7  -4  151.58    6.10
   1   7  -4  164.28    8.70
   1   7  -4  150.08    7.10
  -1  -7   4  162.98    7.80
  -1   7  -4  158.88    7.00
  -1  -7   4  157.28    8.10
   1  -7  -4  153.68    9.00
   1  -7  -4  155.58    7.30
  -1  -7   4  158.18    7.90
  -1  -7   4  156.08    7.90
  -1   7  -4  156.88    7.90
   1   7   4  158.68    7.20
  -1   7  -4  157.48    7.60
   1   7   4  163.38    7.80
   1   7   4  157.18    8.40
  -1   7  -4  153.28    7.70
  -3  -7  -4  193.08    9.50
   3  -7   4  215.08    9.80
  -3  -7  -4  217.68   10.80
  -3   7   4  199.28   11.10
   3  -7   4  202.28   10.80
   3  -7   4  214.28    9.60
   3  -7   4  199.68    7.90
   3   7  -4  209.78   11.00
   3   7  -4  199.18    9.60
  -3   7   4  212.28    7.70
  -3  -7   4  218.48    9.60
   3  -7  -4  196.88   11.30
  -3   7  -4  202.18    9.50
  -3  -7   4  215.18   10.00
  -3   7  -4  205.78   10.20
   3   7   4  217.58   10.10
  -3  -7   4  207.58   10.40
  -3  -7   4  189.38    9.80
   3   7   4  210.78   10.30
  -3   7  -4  210.68    9.50
   3  -7  -4  219.68   11.00
   5  -7   4   71.89    7.80
  -5   7   4   66.59    4.70
  -5  -7  -4   65.79    6.60
  -5  -7  -4   62.49    4.20
   5  -7   4   66.19    5.70
  -5  -7   4   67.29    9.70
  -5   7  -4   65.99    5.60
  -5   7  -4   70.69    6.10
   5  -7  -4   64.19    7.20
  -5  -7   4   71.29    6.30
   5   7   4   62.89    6.20
  -5  -7   4   65.79    6.60
  -5   7  -4   69.89    5.60
   5   7   4   61.99    6.90
  -7  -7  -4  103.19    9.30
  -7  -7  -4   87.89    6.40
  -7   7   4  101.49    9.30
  -7   7   4  105.79    7.20
   7   7  -4  115.39    9.70
   7  -7   4  112.79   10.30
   7  -7   4  118.29    9.90
  -7  -7   4  115.19    9.00
  -7  -7   4  103.19    9.60
  -7   7  -4  109.19    8.30
   7   7   4  108.49    8.90
   7   7   4  123.29    9.30
   7  -7  -4  110.29   10.30
  -7   7  -4  107.19    7.90
  -9   7   4   38.80    8.50
  -9  -7  -4   36.10    7.60
   9   7  -4   30.90    6.60
   9  -7   4   44.30   13.00
   9  -7   4   45.20    5.30
   9   7   4   33.10    6.30
   9  -7  -4   37.40    8.40
  -9  -7   4   35.70    7.70
  -9   7  -4   39.60    5.60
 -11  -7  -4   30.60    7.40
  11  -7   4   24.80    6.30
  11   7  -4   36.20    6.80
 -11   7   4   35.30    8.70
 -11  -7   4   30.80    6.20
  11  -7  -4   42.90   13.00
 -11   7  -4   26.10    5.50
  11   7   4   16.70    5.70
   0   8  -4  584.44   19.00
   0  -8   4  622.34   19.80
   0   8  -4  623.34   19.70
   0   8  -4  574.84   18.40
   0  -8  -4  576.34   16.50
   0  -8   4  595.84   18.80
   0   8   4  578.84   17.20
   0  -8   4  602.04   19.10
   0   8   4  607.54   17.20
   0  -8  -4  575.94   17.50
   0  -8  -4  586.14   15.50
   0  -8  -4  608.64   15.80
   0   8   4  605.64   20.60
   0  -8   4  590.64   18.50
   0   8   4  615.24   18.20
   0   8  -4  579.64   18.00
   2   8  -4   88.79    5.80
  -2   8   4   82.19    5.60
  -2   8   4   77.29    4.20
   2  -8   4   82.19    4.80
  -2  -8  -4   81.79    5.50
   2  -8   4   80.79    5.80
   2  -8   4   85.59    6.00
   2  -8   4   87.19    6.70
  -2  -8  -4   85.09    6.80
  -2   8   4   71.89    6.30
   2   8  -4   83.19    6.60
  -2   8   4   87.59    5.10
  -2   8   4   76.59    4.80
  -2  -8   4   86.99    5.80
  -2  -8   4   79.69    6.10
  -2   8  -4   96.39    5.90
   2  -8  -4   81.29    7.20
  -2   8  -4   85.19    5.70
  -2   8  -4   85.99    6.10
   2   8   4   92.79    7.10
  -2  -8   4   90.49    6.30
   2   8   4   80.49    6.00
  -2  -8   4   87.49    6.10
   2  -8  -4   86.39    6.30
  -2   8  -4   87.89    5.70
  -4  -8  -4  173.98    9.20
   4   8  -4  186.18   11.30
   4  -8   4  190.88   11.40
   4  -8   4  182.48    9.50
  -4  -8  -4  192.88   11.00
  -4   8   4  177.78    8.90
   4   8   4  182.88   10.20
  -4  -8   4  181.48    9.60
  -4  -8   4  190.78   10.80
  -4   8  -4  187.48    9.70
  -4  -8   4  186.68    9.80
  -4   8  -4  198.38   10.10
   4  -8  -4  184.58   11.20
   4   8   4  194.08   10.80
  -6   8   4  139.09    8.00
  -6  -8  -4  150.98   10.70
   6  -8   4  140.19   11.00
   6  -8   4  135.19    8.80
   6   8  -4  149.09   10.90
  -6  -8  -4  130.09    6.80
  -6   8  -4  139.39    9.10
  -6   8  -4  168.98    9.70
  -6  -8   4  144.99    9.90
   6  -8  -4  147.59   11.40
  -6  -8   4  143.79   10.70
  -6  -8   4  151.48    9.60
   6   8   4  136.79    9.80
   8  -8   4   21.70    4.40
   8   8  -4   26.50    6.30
  -8   8   4   31.90    4.30
  -8   8   4   38.40    8.20
   8  -8   4   34.10    8.30
  -8  -8  -4   31.30    6.50
  -8   8  -4   25.80    5.30
  -8  -8   4   30.90    6.40
  -8  -8   4   25.50    5.20
   8  -8  -4   19.70    6.40
   8   8   4   27.70    6.30
  -8  -8   4   31.00    6.40
 -10   8   4   46.00    8.50
  10  -8   4   56.49   10.90
 -10  -8  -4   59.79   10.90
  10   8  -4   51.19    7.00
 -10  -8   4   53.69   10.20
  10  -8  -4   61.29    8.70
  10   8   4   57.59    9.40
 -10  -8   4   62.09    7.20
 -10   8  -4   54.99    6.90
  -1   9   4  514.55   19.70
   1  -9   4  554.44   18.30
  -1  -9  -4  530.85   15.90
  -1   9   4  529.35   16.60
  -1  -9  -4  567.04   20.50
  -1   9   4  534.35   16.20
  -1   9   4  554.84   16.30
   1  -9   4  544.95   18.70
   1   9  -4  519.25   17.60
  -1  -9  -4  522.15   17.20
   1  -9   4  517.85   16.70
  -1  -9  -4  539.65   16.00
   1   9  -4  495.95   17.20
   1   9  -4  569.54   19.60
  -1   9  -4  549.05   17.70
   1   9   4  542.25   17.90
  -1   9  -4  549.05   18.00
  -1   9  -4  533.45   18.00
  -1  -9   4  509.95   21.00
   1  -9  -4  568.24   21.10
  -1  -9   4  542.55   18.10
  -1  -9   4  555.24   18.70
  -1   9  -4  523.55   18.40
   1  -9  -4  544.95   17.30
   1   9   4  536.55   19.70
  -1  -9   4  547.45   18.80
  -3   9   4  338.87   14.50
   3  -9   4  363.46   14.70
  -3   9   4  351.66   12.40
   3   9  -4  384.26   16.50
   3   9  -4  345.07   15.30
   3  -9   4  370.46   14.60
  -3  -9  -4  383.56   16.20
  -3  -9  -4  353.86   13.40
  -3  -9  -4  354.36   13.30
   3  -9   4  358.26   15.90
   3   9   4  371.96   15.40
  -3   9  -4  344.87   14.10
  -3   9  -4  381.66   14.70
  -3  -9   4  357.66   14.40
  -3  -9   4  371.96   14.40
   3  -9  -4  380.26   17.50
   3   9   4  368.16   17.00
  -3  -9   4  348.97   15.30
   3  -9  -4  372.66   15.70
  -5  -9  -4  228.58   13.20
   5  -9   4  227.48   13.60
   5   9  -4  232.38   13.50
  -5   9   4  223.28    9.90
   5  -9   4  217.58   11.10
  -5  -9   4  231.48   13.10
   5  -9  -4  223.08   13.50
  -5  -9   4  226.68   12.50
  -5  -9   4  235.08   17.00
   5   9   4  211.78   12.50
  -5  -9   4  226.78   13.60
  -5   9  -4  208.38   11.20
   7  -9   4   75.69    8.90
  -7   9   4   79.09    6.10
   7   9  -4   80.29    8.60
   7  -9   4   71.99    6.60
  -7   9   4   75.49    8.40
  -7  -9  -4   69.19    4.80
  -7  -9  -4   78.49    8.30
  -7   9  -4   65.29    6.40
  -7  -9   4   75.09    7.10
  -7  -9   4   80.39    8.60
   7  -9  -4   77.29    8.90
  -7  -9   4   87.09    7.50
   7   9   4   79.09    8.10
  -7   9  -4   69.99    6.70
  -9   9   4   32.40    7.10
   9   9  -4   37.50    8.60
   9  -9   4   39.30    9.50
  -9  -9  -4   43.40    4.40
  -9  -9  -4   47.90    8.60
  -9   9  -4   37.60    6.80
   9   9   4   39.20    8.00
   9  -9  -4   52.09   10.20
  -9  -9   4   37.30    7.30
  -9  -9   4   36.00    7.00
  11   9  -4   -1.60    3.80
  11  -9   4   19.00    8.40
 -11   9   4   -3.40    2.90
 -11  -9  -4   12.10    8.40
 -11  -9   4    9.30    4.50
 -11   9  -4    5.90    3.50
  11   9   4    7.00    4.50
 -11  -9   4    6.20    3.40
  11  -9  -4    6.30    4.80
   0 -10  -4  787.12   21.70
   0 -10  -4  831.02   27.60
   0  10  -4  786.42   24.30
   0 -10   4  774.22   23.70
   0  10  -4  824.32   25.20
   0 -10  -4  786.12   21.00
   0 -10   4  809.32   25.40
   0  10   4  816.32   23.60
   0  10  -4  818.92   24.30
   0 -10  -4  765.72   22.70
   0 -10   4  837.82   24.80
   0  10   4  769.82   26.40
   0 -10  -4  815.12   22.20
   0 -10   4  808.52   25.60
   0  10   4  811.32   21.70
   0  10  -4  769.62   24.60
   0  10   4  808.42   22.90
  -2  10   4  894.51   24.60
  -2  10   4  836.32   26.10
   2 -10   4  911.71   28.90
   2 -10   4  917.91   27.90
   2 -10   4  854.01   24.10
  -2 -10  -4  857.01   25.10
   2  10  -4  857.51   26.90
   2  10  -4  844.82   26.50
  -2 -10  -4  844.92   27.90
  -2 -10  -4  875.51   29.30
   2 -10   4  935.71   27.40
   2  10  -4  932.41   29.00
  -2  10   4  883.71   23.40
  -2  10  -4  904.51   25.90
  -2  10  -4  875.01   26.70
  -2  10  -4  866.01   26.60
   2 -10  -4  900.81   30.70
   2  10   4  900.11   27.70
  -2 -10   4  904.01   27.00
  -2 -10   4  932.41   27.50
   2  10   4  895.71   32.50
  -2 -10   4  908.41   28.60
   2 -10  -4  906.31   27.30
   4  10  -4  433.06   18.90
  -4 -10  -4  473.95   22.10
   4 -10   4  393.46   15.80
   4 -10   4  397.56   18.30
  -4  10   4  411.76   14.30
   4  10   4  414.86   17.60
  -4 -10   4  402.86   16.30
  -4  10  -4  371.76   15.80
   4 -10  -4  421.76   18.70
  -4 -10   4  408.66   16.40
  -4 -10   4  378.96   17.70
   4 -10  -4  414.36   19.60
  -4  10  -4  373.06   16.10
  -6 -10  -4  291.97   16.10
  -6  10   4  279.57   12.30
   6  10  -4  265.97   15.70
   6 -10   4  286.17   16.70
  -6 -10   4  275.47   14.60
  -6  10  -4  267.07   13.90
   6 -10  -4  279.27   16.50
   6  10   4  289.17   15.60
  -6 -10   4  282.37   14.00
  -6 -10   4  262.77   15.50
  -6 -10   4  275.27   13.70
  -8  10   4   94.09    7.50
   8 -10   4   91.59    8.00
   8  10  -4   94.49    9.70
   8 -10   4   98.39   10.40
  -8  10   4   93.59    9.80
  -8 -10  -4   94.99    9.60
  -8 -10   4  104.49   12.50
  -8 -10   4  101.59    8.40
   8 -10  -4   97.09   12.10
   8  10   4   79.99    8.50
  -8  10  -4   96.29    8.40
  10  10  -4   42.60    8.80
 -10  10   4   47.50    9.60
 -10 -10  -4   28.70    7.20
  10 -10   4   39.90    9.70
 -10  10  -4   47.70    6.40
 -10 -10   4   47.30    7.80
  10  10   4   39.10    8.30
 -10 -10   4   40.00    9.00
  10 -10  -4   38.50    9.20
   1 -11   4 1326.97   37.50
  -1  11   4 1301.47   33.70
  -1  11   4 1174.38   33.50
  -1 -11  -4 1178.18   34.30
   1  11  -4 1285.47   37.80
   1  11  -4 1314.77   37.70
  -1 -11  -4 1299.97   33.30
   1 -11   4 1302.97   36.20
  -1 -11  -4 1320.07   39.70
   1  11  -4 1208.38   35.50
  -1  11   4 1264.37   33.80
   1 -11   4 1227.78   33.80
   1 -11   4 1285.57   37.40
   1  11  -4 1191.88   35.40
   1 -11  -4 1217.48   32.70
   1  11   4 1323.67   36.10
  -1 -11   4 1341.87   36.90
  -1 -11   4 1332.37   36.50
  -1 -11   4 1221.08   35.50
  -1 -11   4 1320.57   37.80
   1 -11  -4 1288.37   34.90
   1 -11  -4 1348.37   40.40
  -1  11  -4 1274.37   36.10
  -1  11  -4 1330.37   35.80
  -1  11  -4 1249.28   35.80
  -3  11   4 1066.59   29.70
   3 -11   4 1119.19   33.40
   3 -11   4 1096.99   35.20
  -3 -11  -4 1093.39   35.50
   3 -11   4 1047.50   31.90
   3  11  -4 1059.89   38.10
  -3 -11  -4 1075.09   30.80
  -3 -11   4 1108.09   34.50
   3 -11  -4 1140.39   37.30
  -3 -11   4 1069.69   32.20
  -3 -11   4 1090.79   32.40
  -3  11  -4 1019.70   31.70
  -3  11  -4 1051.79   32.30
   3 -11  -4 1108.19   34.10
  -5  11   4  552.34   19.00
   5  11  -4  584.54   24.40
  -5 -11  -4  575.44   20.80
   5 -11   4  566.54   24.30
   5 -11   4  552.84   20.90
  -5 -11  -4  575.94   23.90
  -5  11  -4  522.45   21.10
   5 -11  -4  591.24   24.50
  -5 -11   4  575.64   21.50
   5  11   4  576.24   23.10
  -5 -11   4  535.55   22.00
  -5 -11   4  582.74   21.30
  -5 -11   4  552.34   23.30
  -7  11   4  266.97   13.00
  -7 -11  -4  302.87   17.40
   7 -11   4  257.87   13.40
   7  11  -4  294.77   17.20
   7 -11   4  273.67   17.50
  -7 -11   4  279.67   17.30
   7 -11  -4  278.07   17.70
  -7 -11   4  287.27   15.00
   7  11   4  275.87   16.10
  -7 -11   4  242.88   14.70
  -7 -11   4  282.67   14.70
  -7  11  -4  298.27   15.00
  -9 -11  -4  131.69   12.10
   9 -11   4  124.09   12.40
  -9  11   4  127.29   12.20
   9  11  -4   95.69   10.70
   9  11   4  114.29   10.90
  -9 -11   4  130.89   15.70
   9 -11  -4  112.39   11.90
  -9  11  -4  116.79   10.20
  -9 -11   4  125.99   10.10
  -9 -11   4  116.09   11.90
   0  12  -4  551.84   19.80
   0 -12   4  591.84   21.10
   0  12   4  539.65   17.00
   0 -12  -4  582.94   17.90
   0  12  -4  529.45   19.50
   0  12  -4  595.94   20.80
   0  12   4  583.04   18.80
   0 -12  -4  565.94   23.20
   0 -12   4  548.85   18.90
   0 -12   4  586.24   20.30
   0 -12  -4  528.35   17.90
   0  12   4  569.24   18.90
   0 -12   4  590.84   21.90
  -2  12   4  166.78    7.40
  -2 -12  -4  167.28    8.60
  -2  12   4  170.78    8.50
   2 -12   4  170.68    9.70
   2 -12   4  163.68    7.60
   2 -12   4  174.38   10.70
   2 -12   4  187.48   16.70
  -2  12   4  154.58    8.60
  -2 -12  -4  174.48   13.70
   2  12  -4  186.08   11.20
  -2 -12   4  176.98   11.00
  -2 -12   4  177.38   10.10
   2 -12  -4  176.68   13.70
  -2  12  -4  176.28    9.10
  -2  12  -4  163.48    9.40
   2  12   4  164.38    9.90
   2 -12  -4  171.78    9.90
  -2  12  -4  170.38    9.60
  -2 -12   4  163.78    9.80
  -4 -12  -4  213.58   13.50
   4 -12   4  206.78   13.30
  -4 -12  -4  208.08   10.70
   4 -12   4  229.68   12.80
   4  12  -4  208.08   13.30
   4 -12   4  214.48   11.30
  -4  12   4  217.18   10.20
   4  12   4  217.38   12.60
  -4 -12   4  222.08   11.90
  -4  12  -4  196.78   11.10
   4 -12  -4  202.98   14.20
  -4 -12   4  217.28   13.20
   4 -12  -4  219.78   13.00
  -6 -12  -4   83.49    9.00
   6 -12   4   93.69   10.00
   6  12  -4   81.69    9.20
  -6 -12  -4   87.09    7.50
  -6  12   4   81.99    6.40
   6 -12   4   71.89    6.70
  -6 -12   4   85.29    7.40
  -6 -12   4   95.59    9.40
   6  12   4   90.79    8.90
  -6  12  -4   65.39    6.60
  -6 -12   4   84.29    7.40
   6 -12  -4  101.69    9.60
  -6 -12   4   85.49    7.90
   8  12  -4   32.40    7.50
  -8 -12  -4   35.10    7.80
  -8  12   4   47.20    9.60
   8 -12   4   35.50    7.80
  -8 -12  -4   40.00    7.70
  -8  12  -4   40.90    7.20
  -8 -12   4   30.10    5.70
  -8 -12   4   39.70    5.50
   8  12   4   25.20    6.60
   8 -12  -4   37.00    8.80
  -8 -12   4   35.40    7.50
  10  12  -4   11.80    5.40
 -10 -12  -4   17.80    5.60
  10 -12   4   26.00    6.60
 -10  12   4   24.10    7.10
  10  12   4   33.90    8.10
 -10 -12   4   12.40    4.50
 -10 -12   4   22.00    6.50
  10 -12  -4   39.70   10.30
 -10  12  -4   14.60    4.90
 -10 -12   4   16.70    6.30
   1  13  -4  160.18    9.30
  -1 -13  -4  175.68   12.20
  -1 -13  -4  164.98    8.00
  -1  13   4  165.38    8.70
   1 -13   4  175.98   10.00
  -1  13   4  163.78    8.50
   1  13  -4  153.78   10.30
   1 -13   4  159.18    8.20
   1 -13   4  164.08   15.10
   1 -13   4  166.88   11.00
  -1  13   4  167.98    8.40
   1  13   4  180.28   10.00
   1 -13  -4  143.29    7.40
  -1  13  -4  161.28    9.70
  -1 -13   4  163.78   10.90
   1 -13  -4  147.19   11.60
  -1 -13   4  162.48   10.00
  -1 -13   4  171.38    9.90
  -1  13  -4  157.48    9.40
   1 -13  -4  172.08    9.20
   3 -13   4  167.28   11.50
   3 -13   4  166.28    9.70
  -3  13   4  161.98    8.70
  -3 -13  -4  142.39   11.30
  -3 -13  -4  154.98    8.80
   3  13  -4  167.58   11.60
   3 -13   4  158.28   10.70
  -3  13  -4  150.88    9.50
   3  13   4  159.28   10.50
  -3 -13   4  157.78   11.40
   3 -13  -4  168.38   10.80
  -3 -13   4  158.08   11.30
  -3 -13   4  162.68   10.00
   3 -13  -4  147.39   12.20
  -5  13   4  106.79    7.40
   5 -13   4  116.09   10.60
  -5 -13  -4  117.89   10.50
  -5 -13  -4  112.19    8.10
   5 -13   4  101.49    9.70
   5  13  -4  125.79   10.90
  -5 -13   4  107.69    9.90
  -5 -13   4  122.09    8.90
  -5  13  -4  102.09    8.10
   5 -13  -4  116.19   10.20
   5  13   4  128.09   10.20
  -5 -13   4  130.59    9.50
  -5 -13   4  109.69    9.00
   7 -13   4   33.10    7.50
  -7 -13  -4   29.80    6.10
   7  13  -4   25.40    6.30
  -7  13   4   29.70    4.10
  -7 -13  -4   32.50    7.60
  -7 -13   4   40.20    9.10
  -7 -13   4   33.60    4.90
   7 -13  -4   34.60    8.20
  -7 -13   4   28.50    6.00
  -7  13  -4   37.70    6.80
   7  13   4   37.80    7.80
  -9 -13  -4   22.50    5.60
  -9 -13  -4   30.60    7.50
  -9  13   4   25.90    7.80
   9  13  -4   23.60    6.60
   9 -13   4   38.90    8.70
  -9 -13   4   26.00    5.80
  -9  13  -4   26.00    5.60
   9 -13  -4   22.30    6.90
  -9 -13   4   28.40    6.90
   9  13   4   19.70    6.70
  -9 -13   4   13.00    4.40
   0 -14  -4  398.96   14.60
   0 -14   4  393.36   17.60
   0 -14   4  395.66   18.40
   0 -14  -4  398.46   19.90
   0  14   4  413.56   15.80
   0  14  -4  367.06   15.90
   0  14   4  397.46   15.50
   0 -14   4  405.96   16.80
   0  14  -4  416.26   17.20
   0 -14  -4  390.36   13.40
   0  14   4  366.06   13.60
   2 -14   4  175.88   11.80
  -2  14   4  173.98    8.10
   2  14  -4  181.98   12.00
   2 -14   4  171.58    8.10
  -2 -14  -4  178.28    9.30
   2 -14   4  177.08   10.50
  -2 -14  -4  197.18   13.50
  -2  14   4  189.48    9.70
   2 -14   4  183.78   11.90
   2 -14  -4  191.48   11.00
  -2  14  -4  191.48    9.90
  -2  14  -4  164.68   11.50
  -2 -14   4  180.98   10.90
  -2 -14   4  182.78   12.30
   2 -14  -4  170.78   13.00
  -2 -14   4  223.68   18.10
   2  14   4  173.28   10.70
   4 -14   4  157.58   12.00
  -4  14   4  162.08    9.20
   4  14  -4  177.48   12.70
  -4 -14  -4  156.48   12.30
   4 -14   4  154.88   11.20
   4 -14   4  166.08   10.20
  -4 -14  -4  160.48    9.60
  -4  14  -4  169.58   10.40
   4 -14  -4  162.68   13.00
   4  14   4  170.48   11.70
   4 -14  -4  159.78   11.50
  -4 -14   4  170.08   10.90
  -4 -14   4  181.88   10.80
  -4 -14   4  178.68   12.80
   6 -14   4  104.19   10.70
   6 -14   4  102.39    8.20
   6  14  -4  110.39   10.80
  -6  14   4   95.09    7.40
  -6 -14  -4  118.09    8.80
  -6 -14  -4  122.29   11.30
  -6 -14   4  118.89    9.40
   6  14   4  122.19   10.70
   6 -14  -4  120.99   10.90
  -6 -14   4  114.09    8.70
  -6 -14   4  105.89   10.40
  -8  14   4   31.60    8.00
  -8 -14  -4   28.40    6.90
  -8 -14  -4   32.00    6.30
   8 -14   4   34.20    8.20
   8  14  -4   34.80    8.40
  -8 -14   4   25.60    5.10
   8  14   4   16.70    5.50
  -8  14  -4   36.70    6.70
  -8 -14   4   16.50    5.80
   8 -14  -4   43.40   10.40
  -8 -14   4   34.10    6.20
 -10 -14  -4   28.70    7.30
  10 -14   4   34.80    8.00
 -10  14   4   27.20    7.20
  10  14  -4   39.20    9.60
 -10 -14   4   30.10    6.30
  10  14   4   33.90    8.40
 -10 -14   4   41.80    9.70
 -10 -14   4   25.00    6.10
  10 -14  -4   27.80    8.60
 -10  14  -4   44.00    8.40
  -1  15   4   79.69    6.50
   1  15  -4   84.29    8.00
   1 -15   4   91.49    8.40
   1 -15   4   76.49    6.40
  -1 -15  -4   90.69    9.60
   1 -15   4   88.19    7.40
  -1 -15  -4   88.39    6.00
  -1  15   4   75.89    6.00
   1 -15   4   73.29    8.20
  -1  15   4   94.59    6.40
   1 -15  -4   85.89    6.80
   1  15   4   81.49    5.00
   1  15   4   80.99    7.00
  -1  15  -4   76.89    6.90
   1 -15  -4   87.09    4.80
  -1 -15   4   94.39    7.90
   1 -15  -4   95.89    9.90
  -1 -15   4  102.89    7.90
  -1 -15   4   88.69    8.70
  -1  15  -4   92.89    7.30
   1 -15  -4   70.39    5.40
   3 -15   4  138.89    9.30
  -3  15   4  132.89    8.50
   3 -15   4  144.29   10.90
  -3 -15  -4  138.09   11.70
   3  15  -4  157.88   11.70
   3 -15   4  163.28   11.70
   3 -15  -4  148.29   10.40
  -3 -15   4  142.39   11.30
  -3 -15   4  149.99    9.90
  -3 -15   4  151.48   10.20
  -3  15  -4  128.59    9.10
   3 -15  -4  133.19   12.10
   3  15   4  154.38   10.80
   5  15  -4   54.49    7.70
  -5 -15  -4   55.29    5.90
  -5 -15  -4   62.09    8.30
   5 -15   4   58.09    8.00
   5 -15   4   45.40    5.10
  -5  15   4   54.99    5.30
   5 -15  -4   75.59    8.30
   5  15   4   58.49    7.50
  -5 -15   4   56.69    6.50
   5 -15  -4   62.59    8.70
  -5 -15   4   59.89    8.00
  -5 -15   4   58.69    6.20
   7 -15   4   75.49    9.80
   7  15  -4   60.89    8.70
  -7 -15  -4   61.09    8.40
  -7 -15  -4   73.89    7.20
   7  15   4   76.99    9.00
  -7 -15   4   73.19    7.40
  -7 -15   4   59.59    6.60
  -7 -15   4   69.39    9.20
   7 -15  -4   76.99    9.20
   9  15  -4   29.10    7.80
  -9 -15  -4   28.60    7.80
   9 -15   4   19.50    6.00
  -9  15   4   30.00    7.70
  -9  15  -4   27.20    5.80
   9 -15  -4   26.30    7.10
   9  15   4   36.40    8.30
  -9 -15   4   16.80    4.90
  -9 -15   4   26.30    5.40
  -9 -15   4   39.50    9.10
   0  16   4  188.38   10.70
   0 -16   4  202.58   11.60
   0 -16  -4  192.88    8.90
   0 -16   4  202.38   12.40
   0 -16   4  198.48   13.30
   0  16  -4  202.08   13.90
   0 -16  -4  212.18   10.10
   0  16   4  182.68    9.40
   0 -16  -4  201.38   14.40
   0  16   4  188.98   10.70
   2 -16   4  262.67   11.30
   2 -16   4  294.57   14.50
   2 -16   4  278.97   16.20
  -2 -16  -4  283.47   12.60
   2  16  -4  311.47   16.60
  -2  16   4  278.37   13.40
  -2 -16  -4  317.67   18.40
  -2  16   4  298.07   11.90
   2 -16   4  319.87   16.60
   2 -16  -4  292.27   18.10
   2  16   4  311.77   15.50
  -2 -16   4  304.37   15.00
  -2 -16   4  298.77   16.90
  -2  16  -4  251.27   16.80
  -2  16  -4  310.27   13.60
  -2 -16   4  307.47   15.10
  -4 -16  -4  132.79    9.00
   4 -16   4  144.69   12.00
  -4 -16  -4  141.69   12.40
  -4  16   4  132.09    8.80
   4  16  -4  129.99   11.30
   4 -16   4  136.19   11.10
   4 -16  -4  126.19   11.90
   4 -16  -4  153.08   11.50
  -4 -16   4  147.19    9.90
   4  16   4  143.79   11.30
  -4 -16   4  153.98   12.30
  -4 -16   4  142.39   10.90
   6 -16   4   58.49   10.30
  -6  16   4   54.09    5.50
  -6 -16  -4   55.49    6.80
   6  16  -4   60.99    8.60
   6 -16  -4   64.79    8.70
  -6 -16   4   66.19    6.80
  -6 -16   4   64.29    7.20
   6  16   4   63.59    8.00
  -8 -16  -4   66.19    9.20
   8  16  -4   49.10    9.40
   8 -16   4   46.20   10.20
  -8 -16   4   49.70   11.30
  -8  16  -4   43.90    6.40
   8  16   4   40.60    8.40
   8 -16  -4   52.99   10.20
  -8 -16   4   35.70    8.20
   1 -17   4   19.40    4.40
  -1 -17  -4   29.70    5.20
   1 -17   4   29.70    7.20
   1 -17   4   29.80    6.20
  -1 -17  -4   24.50    6.20
  -1  17   4   29.60    3.80
  -1  17   4   29.30    5.50
   1  17  -4   30.90    6.10
   1  17   4   21.10    2.90
   1 -17  -4   32.10    5.90
   1  17   4   25.20    5.20
  -1 -17   4   29.60    5.90
  -1 -17   4   14.50    4.80
   1 -17  -4   28.90    3.10
  -1  17  -4   37.10    4.90
  -1 -17   4   26.20    5.10
   1 -17  -4   24.80    7.60
   3 -17   4   53.19    5.80
  -3 -17  -4   43.60    8.60
  -3  17   4   45.60    5.20
   3 -17   4   47.50    9.30
  -3 -17  -4   36.20    5.20
   3  17  -4   46.80    8.70
   3 -17   4   49.50    9.50
  -3 -17   4   42.10    6.00
  -3 -17   4   49.10    6.00
   3 -17  -4   48.80    5.90
  -3 -17   4   43.80    9.10
   3 -17  -4   48.70   11.10
   3  17   4   44.70    6.30
  -5 -17  -4   13.50    5.40
   5 -17   4    4.10    3.50
  -5  17   4    9.60    3.00
   5 -17   4    9.80    3.20
   5  17  -4   11.60    4.80
   5  17   4    5.70    3.60
  -5 -17   4   14.60    5.40
  -5 -17   4   12.00    4.30
  -5 -17   4   12.60    3.90
   5 -17  -4   14.70    5.10
   5 -17  -4   13.80    5.90
   7 -17   4   22.50    7.70
  -7 -17  -4   12.30    5.40
   7  17  -4   13.90    5.20
   7 -17  -4   11.90    4.30
  -7 -17   4   21.00    5.10
   7  17   4   18.00    5.30
  -7 -17   4   18.70    6.50
  -7 -17   4   24.60    5.90
  -9 -17  -4   11.20    4.30
   9 -17   4    3.80    3.90
   9  17  -4    7.10    4.30
  -9  17   4    1.60    3.80
  -9 -17   4   23.10    5.70
  -9 -17   4    4.20    4.10
   9  17   4   -1.70    4.00
   9 -17  -4   15.00    5.40
  -9 -17   4    0.40    3.20
  -9  17  -4    4.70    4.00
   0  18   4  217.88   14.70
   0 -18  -4  230.38   11.40
   0 -18   4  227.68   15.20
   0 -18   4  240.78   13.20
   0 -18   4  243.48   14.20
   0  18  -4  234.68   13.60
   0 -18  -4  226.28   10.00
   0 -18  -4  213.88   15.90
   0  18   4  234.68   12.40
   2  18  -4  392.86   19.80
   2 -18   4  381.16   19.50
  -2  18   4  329.47   15.90
   2 -18   4  361.26   17.00
  -2 -18  -4  357.96   21.10
  -2 -18  -4  367.86   15.20
   2 -18   4  396.76   20.30
  -2 -18   4  371.96   17.70
   2 -18  -4  402.06   17.90
  -2 -18   4  344.77   19.90
   2 -18  -4  358.66   21.40
  -2 -18   4  382.26   18.00
   2  18   4  400.16   18.50
  -2  18  -4  379.56   16.30
  -4  18   4  164.38   10.90
   4 -18   4  182.58   14.00
  -4 -18  -4  170.68   14.50
   4 -18   4  188.28   13.60
   4 -18   4  170.48   11.00
  -4 -18  -4  154.08   12.70
   4  18  -4  188.18   13.90
   4 -18  -4  185.48   15.00
   4 -18  -4  213.88   13.80
   4  18   4  190.68   13.50
  -4 -18   4  174.18   14.20
  -4 -18   4  189.78   12.30
  -4 -18   4  206.08   12.30
   6 -18   4  119.59   12.20
   6  18  -4  139.69   12.60
  -6 -18  -4  145.49   13.50
  -6 -18   4  131.79   12.30
   6  18   4  137.99   12.30
   6 -18  -4  125.39   11.90
  -6 -18   4  118.29    9.10
  -6 -18   4  130.59   10.70
   8  18  -4   55.79   10.80
  -8 -18  -4   36.30    8.00
   8 -18   4   58.89   11.70
  -8  18  -4   46.00    8.30
   8  18   4   70.79   10.10
   8 -18  -4   57.19   10.60
  -8 -18   4   58.29   11.60
  -8 -18   4   62.49    6.90
  -8 -18   4   59.09    9.80
   1 -19   4   80.79    7.70
   1 -19   4   80.29    9.50
  -1 -19  -4   82.59    5.90
   1  19  -4   93.19    9.00
  -1 -19  -4   89.99    6.50
  -1  19   4   68.19    6.40
  -1 -19  -4   75.79    9.80
  -1  19   4   82.69    8.30
   1 -19   4   91.29    9.00
  -1 -19   4   96.29    8.00
  -1  19  -4   97.09    8.00
   1 -19  -4   73.09    6.00
  -1 -19   4   66.79    8.70
   1  19   4   98.69    8.20
   1 -19  -4   94.59    7.40
   1 -19  -4   85.09   10.00
  -1 -19   4   79.99    7.80
  -3 -19  -4   36.70    8.30
   3  19  -4   39.00    7.90
  -3  19   4   33.00    5.80
   3 -19   4   45.10    8.80
   3 -19   4   43.20    7.00
   3 -19   4   35.80    8.10
  -3 -19  -4   51.19    6.50
  -3 -19   4   47.30    6.20
   3 -19  -4   46.90    6.00
  -3 -19   4   60.19   11.60
   3  19   4   46.90    6.40
  -3 -19   4   39.30    5.40
   3 -19  -4   41.70    9.20
   5 -19   4   80.29    9.90
   5  19  -4   81.39    9.40
   5 -19   4   75.09    8.30
  -5 -19  -4   80.79   10.10
   5  19   4   86.49    9.40
  -5 -19   4   67.69   12.70
  -5 -19   4   67.79    7.00
   5 -19  -4   75.99   10.30
  -5 -19   4   86.29    8.50
   5 -19  -4   83.59   10.20
  -7 -19  -4    5.10    5.30
   7  19  -4   19.70    7.10
   7 -19   4   22.40    6.90
  -7 -19   4   28.30    4.80
  -7 -19   4   20.90    6.60
   7  19   4   13.00    5.70
   7 -19  -4   16.70    6.10
  -7 -19   4   21.80    6.60
   0 -20  -4   73.99    7.40
   0  20  -4   81.19    7.90
   0  20   4   91.79    7.70
   0 -20   4   74.79    7.60
   0 -20   4   87.69   10.00
   0 -20   4   94.59    9.00
   0 -20  -4   78.69   10.40
  -2 -20  -4    8.10    4.70
   2  20  -4   24.10    6.10
   2 -20   4   24.60    6.20
  -2  20   4   14.90    3.90
   2 -20   4   12.70    5.10
   2 -20   4   14.70    4.10
  -2 -20  -4    9.90    5.90
  -2 -20   4    7.70    3.80
   2 -20  -4   12.30    5.20
   2  20   4   15.00    4.60
  -2 -20   4   17.90    4.90
  -2 -20   4   11.40    4.50
   2 -20  -4   16.50    4.40
  -4 -20  -4   36.80    9.20
   4  20  -4   33.80    8.00
   4 -20   4   32.40    7.90
   4 -20   4   42.70    8.50
  -4 -20   4   41.50    6.80
   4 -20  -4   22.60    6.50
   4 -20  -4   47.40    6.40
  -4 -20   4   42.10    9.10
  -4 -20   4   50.89    7.00
   4  20   4   38.60    8.00
  -6 -20  -4    1.10    3.70
   6 -20   4   -0.60    3.70
   6  20  -4    2.30    4.70
  -6 -20   4    9.90    5.40
   6 -20  -4   11.80    5.20
  -6 -20   4   12.40    4.00
  -6 -20   4   14.90    4.00
   6  20   4    5.00    3.80
  -1  21   4   31.90    4.50
   1  21  -4   42.50    5.70
   1 -21   4   49.99    6.80
  -1 -21  -4   30.40    7.60
   1 -21   4   35.00    7.30
   1 -21   4   37.80    8.20
  -1 -21   4   34.00    7.10
  -1  21  -4   41.70    5.40
  -1 -21   4   39.00    8.80
   1 -21  -4   17.40    5.70
  -1 -21   4   38.10    5.50
   1  21   4   30.20    5.70
   1 -21  -4   33.30    6.10
   3 -21   4   16.00    5.50
   3 -21   4   14.40    5.30
  -3 -21  -4    9.20    4.30
   3  21  -4   18.20    5.20
   3 -21  -4   24.00    5.90
  -3 -21   4    7.10    4.70
   3 -21  -4   27.80    7.80
  -3 -21   4   10.00    4.00
  -3 -21   4   24.50    6.50
   3  21   4   18.50    5.80
  -5 -21  -4   21.20    6.70
   5  21  -4   11.40    5.10
   5 -21   4    9.00    5.10
   5 -21   4   16.40    5.20
  -5 -21   4   17.80    5.60
   5  21   4   12.10    5.20
  -5 -21   4   13.80    4.50
   5 -21  -4   21.60    6.40
   5 -21  -4   15.20    5.60
  -5 -21   4   26.90    7.10
   7  21  -4   18.80    5.30
   7 -21   4   11.70    4.60
  -7 -21  -4   11.30    5.20
   7 -21  -4    0.40    5.00
  -7 -21   4   10.50    4.30
  -7 -21   4    3.10    5.00
   7  21   4    3.40    4.30
   0 -22  -4  137.99   14.00
   0 -22   4  151.38   11.90
   0 -22  -4  138.69    9.20
   0  22   4  154.58   10.50
   0 -22   4  132.69   10.40
   0  22  -4  162.98   11.30
   2 -22   4  154.88   17.00
   2 -22   4  183.88   13.70
  -2 -22  -4  163.88   14.80
   2  22  -4  199.68   18.50
   2  22   4  185.48   19.00
  -2 -22   4  190.58   12.50
  -2 -22   4  177.98   15.10
   2 -22  -4  190.38   12.10
  -2 -22   4  172.28   12.00
   2 -22  -4  149.79   14.60
   4  22  -4  120.19   11.60
  -4 -22  -4  107.69   12.30
   4 -22   4  108.09   11.10
   4 -22   4   99.49   10.40
   4 -22  -4  107.69   12.50
  -4 -22   4  104.09   11.90
   4 -22  -4  110.59   10.00
   4  22   4  125.19   11.20
  -4 -22   4  124.99    9.70
  -4 -22   4  100.19   10.40
   6 -22   4   69.99   14.70
   6  22   4  100.79   23.70
   6 -22  -4   61.39    8.60
  -6 -22   4   71.99   17.70
  -6 -22   4   61.59    7.10
   1  23  -4  107.49   12.90
  -1 -23  -4  103.59   12.00
   1 -23   4  124.19   10.90
   1 -23   4  111.69   11.10
  -1  23   4  115.79    8.40
   1 -23  -4  119.89    8.80
   1 -23  -4   90.79   11.60
  -1 -23   4  115.79   10.00
  -1  23  -4  104.89    9.00
   1  23   4  111.39    9.60
  -1 -23   4  110.89   11.40
  -1 -23   4   88.79   11.00
   3  23  -4   70.19    8.10
  -3 -23  -4   66.79   13.30
   3 -23   4   63.59    8.60
   3 -23   4   63.39    8.60
  -3 -23   4   57.89    9.60
  -3 -23   4   63.89   12.70
   3  23   4   76.39    8.90
  -3 -23   4   50.99    9.50
   3 -23  -4   40.90    9.30
   5  23  -4   60.69   11.30
   5 -23   4   54.99   10.00
   5 -23   4   79.69   10.50
  -5 -23  -4   77.29   16.90
   5  23   4   66.09    9.10
  -5 -23   4   91.49    7.90
   5 -23  -4   66.09   13.50
  -5 -23   4   89.09   11.10
   5 -23  -4   70.69    8.90
   0 -24   4   83.39    8.80
   0 -24   4   52.79    9.80
   0  24  -4   63.49    9.90
   0 -24  -4   73.09   13.30
   0  24   4   65.39    6.80
   2 -24   4   77.79    8.70
   2 -24   4   61.99   11.60
   2  24  -4   81.19    9.10
   2 -24  -4   46.80   10.20
  -2 -24   4   58.09   11.10
   2  24   4   83.69    8.30
  -2 -24   4   79.09    8.20
   2 -24  -4   75.59    8.20
   4 -24   4   37.70    7.70
   4 -24   4   33.40    8.30
   4  24  -4   46.70    9.20
  -4 -24   4   37.70    9.90
   4 -24  -4   25.40    9.20
   4  24   4   29.50    7.40
  -4 -24   4   27.60    6.50
   4 -24  -4   23.50    6.70
   1 -25   4    3.50    4.00
   1 -25   4   10.30    5.00
   1  25  -4    9.30    4.30
  -1  25   4   10.10    4.30
  -1  25  -4    0.20    3.70
   1 -25  -4   10.20    4.50
  -1 -25   4    8.30    4.80
   1  25   4    9.70    3.70
   1 -25  -4   10.60    6.60
   3  25  -4   20.80    5.00
   3 -25   4    6.60    4.20
  -3 -25  -4   -6.10    3.60
   3 -25   4    4.20    4.00
  -3 -25   4    8.10    4.20
  -3 -25   4    3.70    5.10
   3 -25  -4   -3.50    4.10
   3  25   4   11.10    4.40
   3 -25  -4   -0.20    4.30
   0 -26  -4   66.79   11.60
   0  26  -4   67.29    8.40
   0 -26   4   58.29    8.10
   0  26   4   72.59    7.90
   0 -26   4   74.89   10.10
   2 -26   4   92.79   10.20
   2  26  -4   59.99   11.10
  -2 -26  -4   62.39   11.60
   2 -26   4   58.69   11.70
  -2 -26   4   91.39   20.20
   2 -26  -4   46.60    9.90
   2 -26  -4   67.89    9.20
   0   0  -5    2.40    1.80
   0   0   5   -0.90    0.90
   0   0   5    0.80    0.70
   0   0   5   -0.30    1.00
   2   0   5    2.60    1.50
  -2   0  -5    0.60    0.90
  -2   0   5    1.60    1.50
  -2   0   5   -0.70    1.00
   2   0   5    1.40    1.20
   2   0   5    0.30    0.80
  -2   0  -5    1.20    0.90
   2   0  -5    1.30    1.60
  -2   0   5    0.00    0.70
  -4   0  -5    1.40    1.00
   4   0   5    0.20    1.50
  -4   0   5    0.60    1.00
   4   0   5    1.10    1.00
   4   0  -5    0.90    1.50
  -4   0   5    1.90    1.50
  -4   0   5    3.20    1.60
   4   0   5    1.10    1.20
  -4   0   5   -1.20    1.20
   4   0  -5    0.30    1.30
  -4   0  -5    0.40    1.00
   4   0   5   -0.40    1.10
  -4   0  -5    1.30    1.30
   6   0   5    1.90    1.70
   6   0  -5    2.20    2.00
  -6   0   5   -1.00    1.40
  -6   0   5    2.40    1.40
  -6   0   5    1.10    1.50
   6   0  -5    1.20    2.30
  -6   0  -5   -0.40    1.60
   6   0   5    0.30    1.70
  -6   0  -5   -0.30    1.40
   6   0   5    2.90    1.60
   8   0   5    2.70    2.20
   8   0   5   -1.40    1.60
   8   0  -5    3.30    2.10
  -8   0   5   -0.80    1.80
  -8   0   5   -1.00    1.70
   8   0  -5    1.10    2.60
   8   0   5    0.00    1.60
  -8   0  -5    0.90    2.00
 -10   0  -5    1.70    2.60
 -10   0   5   -2.40    2.30
  10   0   5   -1.70    3.00
  10   0   5   -0.70    1.90
  10   0  -5    3.10    2.40
  10   0   5    0.00    1.80
  -1   1   5  122.79    5.90
   1  -1   5  123.49    5.40
  -1  -1  -5  126.59    4.70
  -1   1   5  127.99    6.40
  -1   1   5  131.49    6.70
   1   1  -5  121.79    6.70
  -1  -1  -5  126.49    4.90
   1  -1   5  121.39    5.80
   1  -1   5  121.29    6.50
   1  -1  -5  119.99    6.50
  -1  -1   5  119.99    6.50
  -1   1  -5  133.39    5.20
  -1  -1   5  126.79    4.40
  -1   1  -5  128.29    5.60
   1   1   5  130.79    5.20
  -1  -1   5  125.69    6.00
   1   1   5  126.59    5.20
   3   1  -5  636.54   20.30
  -3  -1  -5  631.34   18.70
  -3  -1  -5  647.14   18.00
  -3   1   5  621.64   19.20
   3  -1   5  653.93   18.90
  -3   1   5  657.83   20.00
  -3  -1  -5  653.83   17.90
   3  -1   5  656.23   19.50
  -3   1   5  614.14   20.90
  -3   1   5  628.04   20.60
   3  -1   5  659.73   19.50
   3   1   5  652.13   19.50
   3   1   5  633.94   17.60
  -3  -1   5  626.14   19.80
   3   1   5  670.63   19.50
   3  -1  -5  643.34   21.10
  -3   1  -5  641.74   18.80
  -3  -1   5  614.24   19.60
  -3  -1   5  636.14   21.10
  -3   1  -5  630.34   18.80
  -3   1  -5  650.33   17.30
   3  -1  -5  654.23   19.70
   3   1   5  657.53   18.40
   5   1  -5    0.80    1.80
  -5  -1  -5    1.00    1.00
  -5  -1  -5    2.40    1.30
   5  -1   5    2.20    1.70
  -5   1   5    3.00    1.70
   5  -1   5    4.20    2.20
  -5   1   5    5.40    1.80
  -5   1   5    3.60    2.30
  -5  -1  -5    3.00    1.90
   5  -1   5    4.50    2.40
   5   1  -5    3.40    2.20
  -5   1  -5    0.60    1.50
   5   1   5    4.40    1.80
   5   1   5    2.30    1.50
  -5  -1   5    5.00    1.80
   5  -1  -5    3.00    2.10
  -5  -1   5    4.30    2.20
   5   1   5    1.50    1.90
  -5  -1   5    5.40    2.00
   5  -1  -5    2.40    2.20
  -5   1  -5    4.00    1.40
  -5   1  -5    1.40    1.10
   5   1   5    6.40    2.40
  -7  -1  -5  136.39    9.40
   7  -1   5  126.19    9.50
  -7   1   5  130.39    8.00
  -7   1   5  104.19    6.90
   7  -1   5  133.29    9.30
   7   1  -5  134.69    9.10
   7  -1   5  131.29    8.10
  -7   1   5  154.38   11.20
   7   1  -5  136.69   10.80
  -7  -1   5  132.79    8.30
   7   1   5  132.89    9.30
   7  -1  -5  133.29   10.70
  -7  -1   5  125.79   10.30
   7   1   5  131.99    9.30
   7  -1  -5  134.89    8.50
   9   1  -5   17.40    4.40
   9  -1   5   17.80    3.90
   9  -1   5   23.60    5.60
  -9  -1  -5   12.80    4.10
  -9   1   5   18.10    6.50
   9  -1   5   20.00    5.10
  -9   1   5    7.60    3.20
  -9  -1   5   18.40    5.20
   9  -1  -5   12.80    4.70
   9  -1  -5   27.30    3.80
   9   1   5   17.00    4.00
   9   1   5   12.70    4.70
   9   1   5   15.40    4.80
  -9  -1   5   19.50    5.10
  -9   1  -5   14.60    4.70
 -11  -1  -5    8.70    3.60
  11   1  -5    8.00    3.60
 -11   1   5    4.30    3.70
  11  -1   5    4.90    3.00
  11  -1   5    8.70    3.60
 -11   1  -5   16.00    4.10
 -11  -1   5    9.40    3.70
  11   1   5    8.00    3.20
  11   1   5    5.70    3.10
   0   2   5 1430.46   34.30
   0   2  -5 1404.86   36.30
   0   2   5 1395.26   34.20
   0   2  -5 1388.76   34.50
   0   2   5 1411.96   33.80
   0   2  -5 1397.66   32.80
   0   2   5 1363.86   35.90
   0  -2   5 1408.56   33.60
   0  -2   5 1452.55   35.20
   0  -2   5 1358.66   35.80
   0  -2  -5 1351.36   34.20
  -2   2   5  977.30   27.50
   2   2  -5  945.91   25.40
   2  -2   5  970.10   27.00
   2  -2   5 1017.60   26.30
   2  -2   5 1026.60   26.80
  -2   2   5  953.90   26.60
  -2  -2  -5 1003.20   25.30
   2   2  -5  963.30   27.80
  -2  -2  -5 1004.50   23.80
  -2   2   5  974.10   27.50
  -2  -2  -5  988.10   25.10
   2   2   5 1011.40   25.80
  -2   2  -5  999.10   26.20
  -2  -2   5  997.90   28.00
  -2  -2   5  947.01   27.20
  -2  -2   5  985.80   26.00
  -2   2  -5  987.20   25.70
   2   2   5  973.50   26.50
   2   2   5  979.00   24.00
   2  -2  -5  968.10   26.60
   2  -2  -5  968.10   27.40
   4  -2   5  769.82   23.70
  -4  -2  -5  801.62   22.50
   4   2  -5  777.22   24.30
  -4   2   5  710.13   24.60
  -4  -2  -5  749.13   21.00
  -4   2   5  700.53   24.60
   4  -2   5  749.33   21.60
   4  -2   5  786.12   23.30
  -4   2   5  722.53   21.70
  -4  -2  -5  746.93   22.40
  -4   2   5  753.22   20.20
  -4   2   5  761.72   23.90
   4   2   5  747.43   21.50
   4   2   5  734.83   21.50
   4   2   5  777.52   23.30
   4  -2  -5  757.12   22.30
  -4   2  -5  736.23   22.50
   4   2   5  754.12   23.00
  -4   2  -5  768.72   21.10
  -4  -2   5  759.72   23.80
  -4  -2   5  716.43   23.10
  -4  -2   5  793.62   22.10
  -4  -2   5  679.43   24.40
   4  -2  -5  757.42   25.20
  -4   2  -5  740.13   22.70
  -6   2   5  285.07   11.70
  -6  -2  -5  315.67   14.00
  -6   2   5  324.17   15.60
   6  -2   5  320.17   14.30
   6  -2   5  307.47   14.90
   6  -2   5  299.57   12.20
   6   2  -5  319.07   14.60
  -6   2   5  311.47   12.40
  -6  -2  -5  280.97   12.40
  -6   2  -5  323.47   13.40
  -6  -2   5  318.17   13.30
   6   2   5  302.67   13.70
   6  -2  -5  297.67   12.50
   6   2   5  320.47   13.50
   6   2   5  318.57   14.30
  -6  -2   5  311.07   15.40
  -6   2  -5  271.77   13.10
   8  -2   5   97.39    8.30
  -8  -2  -5   97.59    8.50
  -8   2   5   97.29    9.30
  -8   2   5  103.09    7.60
   8  -2   5  100.39    6.80
   8  -2   5   91.79    8.70
   8   2  -5   95.39    8.30
   8   2   5  103.09    8.40
   8   2   5  100.09    7.90
   8  -2  -5  106.09    7.00
  -8  -2   5  100.19    9.60
   8  -2  -5   97.59    9.60
  -8   2  -5  103.69    8.20
   8   2   5  108.39    8.50
  -8  -2   5   96.79    8.00
  10   2  -5   76.79    7.30
 -10   2   5   78.49    9.40
  10   2   5   78.99    7.90
 -10  -2   5   70.79    8.80
  10  -2  -5   65.59    8.40
  10   2   5   68.89    7.20
  10   2   5   62.59    7.20
 -10   2  -5   69.09    8.00
  -1   3   5 1113.09   30.00
  -1   3   5 1137.79   29.20
  -1  -3  -5 1124.19   28.80
   1   3  -5 1122.99   28.50
   1  -3   5 1127.59   28.80
  -1  -3  -5 1088.19   26.50
   1   3  -5 1107.99   30.70
   1  -3   5 1166.28   29.90
  -1   3   5 1111.09   29.80
   1  -3   5 1095.79   29.80
   1   3   5 1138.39   27.50
  -1  -3   5 1123.29   29.70
  -1   3  -5 1108.59   29.20
  -1   3  -5 1131.49   30.40
   1   3   5 1127.29   29.30
  -1  -3   5 1072.59   27.70
   1   3   5 1139.49   28.60
  -1   3  -5 1130.59   28.30
   1  -3  -5 1109.89   28.90
   1  -3  -5 1127.59   29.90
  -1  -3   5 1155.28   27.90
  -3   3   5 1731.13   47.20
  -3  -3  -5 1790.92   44.50
   3  -3   5 1774.22   46.30
   3  -3   5 1806.02   45.50
   3  -3   5 1902.51   45.90
   3   3  -5 1870.51   47.70
  -3  -3  -5 1790.62   45.70
  -3   3   5 1754.92   44.70
   3   3  -5 1665.23   44.90
  -3  -3  -5 1847.52   45.00
   3  -3   5 1879.01   44.50
  -3   3   5 1762.32   47.50
   3  -3  -5 1807.62   44.90
   3  -3  -5 1820.22   47.60
  -3  -3   5 1817.92   46.00
   3   3   5 1883.21   45.70
  -3   3  -5 1815.62   42.60
  -3   3  -5 1801.22   45.20
  -3   3  -5 1846.12   45.90
  -3  -3   5 1750.62   47.80
  -3   3  -5 1866.81   43.70
   3   3   5 1829.12   46.00
   3   3   5 1870.91   42.80
  -3  -3   5 1767.92   46.40
   3   3   5 1778.52   44.30
  -5   3   5  207.58    8.90
  -5  -3  -5  207.68   10.00
   5  -3   5  216.98   10.60
  -5   3   5  224.38   11.70
  -5  -3  -5  206.38   10.30
  -5  -3  -5  200.28    8.80
   5  -3   5  215.18    9.20
   5   3  -5  217.28   11.60
   5  -3   5  220.88   11.60
  -5   3   5  220.68   10.00
  -5   3  -5  202.98   10.00
   5  -3  -5  207.58   12.20
   5  -3  -5  202.68    9.20
  -5  -3   5  225.48   11.80
  -5  -3   5  204.28   10.50
  -5  -3   5  214.48   10.10
   5   3   5  213.08   10.70
   5   3   5  204.08    9.30
  -5   3  -5  195.48    9.90
   5   3   5  200.48    9.70
   5   3   5  216.38   10.90
  -5   3  -5  211.38    9.50
  -5   3  -5  198.68   10.40
   7  -3   5  334.27   17.10
  -7   3   5  333.57   17.10
   7   3  -5  330.77   16.00
   7  -3   5  337.57   13.10
  -7   3   5  266.97   11.90
  -7  -3  -5  349.47   16.00
  -7   3   5  333.77   13.90
   7  -3   5  327.37   15.40
   7   3   5  340.97   16.00
  -7  -3   5  347.97   17.70
   7  -3  -5  352.56   18.50
   7   3   5  322.87   14.40
   7   3   5  334.07   15.30
   7  -3  -5  306.17   12.80
  -7  -3   5  322.57   14.80
   9  -3   5   14.10    4.20
   9   3  -5   11.80    3.80
  -9  -3  -5   17.40    4.40
   9  -3   5   20.30    5.00
   9  -3   5   22.80    5.80
  -9   3   5   10.30    3.50
   9  -3  -5    9.50    6.90
  -9   3  -5   20.50    5.10
   9   3   5   20.20    4.30
   9   3   5   20.20    4.90
   9   3   5   24.80    5.40
  11   3  -5    5.20    4.00
  11  -3   5   29.70    7.80
 -11  -3  -5   25.60    5.50
 -11   3   5   12.20    4.60
 -11   3  -5   14.80    4.80
  11  -3  -5   28.50    7.20
  11   3   5   24.30    5.40
 -11  -3   5   17.40    5.40
   0  -4  -5  624.04   18.80
   0   4  -5  606.34   18.30
   0   4   5  619.34   15.30
   0   4  -5  594.74   15.70
   0   4   5  610.04   16.40
   0  -4   5  615.44   18.70
   0  -4   5  596.84   18.70
   0   4  -5  622.04   19.40
   0   4  -5  626.24   17.10
   0  -4   5  646.74   17.80
   0   4   5  636.14   18.00
   0   4   5  621.64   18.60
  -2   4   5  502.15   17.60
  -2  -4  -5  513.75   16.10
   2  -4   5  533.65   16.30
  -2   4   5  508.85   16.90
  -2  -4  -5  504.35   16.20
   2   4  -5  514.05   17.80
   2  -4   5  489.05   16.80
   2  -4   5  497.95   16.20
  -2  -4  -5  495.35   14.60
   2   4  -5  496.85   15.40
  -2   4   5  510.65   16.10
   2  -4  -5  526.05   17.80
  -2   4  -5  515.45   16.50
  -2  -4   5  535.25   15.30
   2   4   5  517.25   16.60
   2   4   5  492.75   15.50
  -2  -4   5  500.45   15.90
  -2  -4   5  531.55   16.90
   2  -4  -5  509.95   16.90
  -2   4  -5  506.25   15.80
   2   4   5  540.65   15.80
  -2  -4   5  491.05   17.00
  -4   4   5   54.39    5.30
   4  -4   5   48.90    5.20
  -4  -4  -5   44.80    4.20
   4  -4   5   50.89    4.30
  -4  -4  -5   56.29    5.00
  -4  -4  -5   49.90    5.20
   4   4  -5   53.59    5.50
  -4   4   5   50.49    3.40
   4  -4   5   56.09    4.10
  -4   4   5   56.19    5.50
  -4   4   5   50.19    3.90
   4   4  -5   45.20    4.30
   4  -4   5   51.79    4.80
   4  -4  -5   51.39    4.10
  -4  -4   5   45.90    4.50
  -4   4  -5   53.19    4.00
  -4  -4   5   55.59    5.60
  -4   4  -5   48.00    4.60
  -4  -4   5   50.69    5.00
   4   4   5   49.80    4.30
  -4   4  -5   52.39    4.40
   4   4   5   54.89    3.60
   4   4   5   51.49    5.00
   4   4   5   64.89    5.30
   4  -4  -5   47.90    5.60
  -4   4  -5   52.99    4.30
  -6  -4  -5   86.49    5.80
   6  -4   5   81.39    5.90
   6  -4   5  100.79    8.50
   6  -4   5   93.39    7.20
  -6   4   5   95.49    8.20
   6  -4   5   86.69    5.50
  -6  -4  -5   88.99    7.20
  -6   4   5   82.29    5.80
  -6   4  -5   99.39    6.80
  -6  -4   5   85.39    7.90
   6  -4  -5   88.19    8.70
  -6   4  -5   93.89    6.90
   6   4   5   91.39    6.20
   6   4   5   95.09    7.60
  -6  -4   5   89.09    7.00
  -6   4  -5   85.49    6.90
   6   4   5   90.29    7.50
  -8   4   5   11.50    4.70
  -8   4   5   12.70    3.10
   8   4  -5   21.70    5.00
   8  -4   5   17.30    4.60
  -8  -4  -5   16.70    4.80
   8  -4   5   23.90    6.10
   8   4   5   18.70    4.90
   8   4   5   24.60    5.30
  -8   4  -5   19.80    5.10
  -8  -4   5   15.00    5.00
   8   4   5   22.30    5.00
   8  -4  -5   17.10    5.70
 -10   4   5    9.10    4.20
  10   4  -5    2.80    2.70
  10  -4   5    9.30    3.20
 -10  -4  -5   11.40    4.00
 -10  -4   5    6.60    4.00
 -10   4  -5    6.00    4.10
  10   4   5    4.80    3.00
  10  -4  -5   12.00    4.30
  -1   5   5  680.93   18.50
  -1  -5  -5  667.93   20.20
   1  -5   5  641.34   19.40
   1   5  -5  632.84   17.90
  -1   5   5  640.04   18.70
   1   5  -5  615.44   19.30
   1  -5   5  673.83   19.40
  -1   5   5  637.64   20.50
  -1  -5  -5  643.14   16.60
   1  -5   5  669.03   20.30
  -1  -5  -5  659.03   16.70
  -1   5   5  659.73   19.70
   1  -5  -5  647.74   20.90
   1  -5  -5  606.84   18.50
   1   5   5  655.43   17.90
  -1   5  -5  649.64   19.70
  -1  -5   5  673.83   18.70
  -1   5  -5  666.23   19.00
   1   5   5  653.53   19.80
   1   5   5  660.23   19.50
  -1  -5   5  659.03   18.80
  -1   5  -5  668.83   20.30
  -1  -5   5  621.34   20.00
  -1  -5   5  680.93   20.20
   3  -5   5  302.87   12.00
   3   5  -5  303.97   13.50
   3   5  -5  296.07   11.70
   3  -5   5  296.57   11.20
  -3  -5  -5  295.47   11.00
  -3   5   5  306.27   10.80
  -3  -5  -5  330.27   12.60
  -3   5   5  289.77   13.40
   3  -5   5  289.47   12.80
  -3   5   5  281.67   12.50
  -3  -5  -5  268.97   11.50
  -3   5  -5  309.77   10.90
  -3  -5   5  298.17   12.30
  -3  -5   5  291.97   12.50
  -3   5  -5  285.07   11.50
   3   5   5  296.07   12.40
  -3  -5   5  303.87   12.30
   3  -5  -5  308.47   13.20
   3   5   5  319.67   12.10
  -3  -5   5  309.97   13.40
   3   5   5  284.57   11.50
   5  -5   5  214.38   10.90
   5  -5   5  212.18    8.60
  -5  -5  -5  203.18   11.00
   5  -5   5  230.18   12.50
  -5   5   5  209.68    8.70
   5  -5   5  203.38    9.10
  -5  -5  -5  207.08    8.30
   5   5  -5  215.58   12.20
  -5  -5   5  226.28   11.20
   5   5   5  195.88   11.20
   5   5   5  212.38    8.70
  -5   5  -5  218.08    9.70
  -5   5  -5  203.68   10.40
   5   5   5  209.98   11.10
  -5   5  -5  209.58   10.40
   5   5   5  224.28   11.60
  -5  -5   5  232.18   12.40
   7   5  -5   73.19    7.60
  -7  -5  -5   66.19    5.40
  -7   5   5   75.89    7.90
  -7   5   5   70.39    5.70
   7  -5   5   75.39    8.00
   7  -5   5   72.59    6.70
  -7  -5  -5   76.09    7.40
  -7   5  -5   81.79    6.90
   7   5   5   80.39    7.40
  -7  -5   5   70.09    7.80
   7  -5  -5   69.29    8.30
  -7  -5   5   74.49    6.80
   7   5   5   65.99    5.60
   7   5   5   84.29    7.70
  -9  -5  -5   10.40    3.20
   9  -5   5   24.80    4.80
  -9   5   5   35.50    7.60
   9   5  -5   31.20    6.40
   9  -5   5   17.80    5.00
  -9   5   5   17.20    3.70
  -9  -5   5   16.90    4.80
   9  -5  -5   34.70    8.30
  -9   5  -5   21.30    5.00
   9   5   5   18.70    5.30
   9   5   5   18.30    4.40
 -11   5   5    8.70    4.80
  11  -5   5    5.90    4.80
  11   5  -5   12.40    4.10
 -11  -5  -5   10.20    4.30
  11   5   5    6.20    3.70
 -11  -5   5    2.50    3.50
  11  -5  -5    5.00    3.90
 -11   5  -5    8.30    3.90
   0   6   5 2075.59   47.10
   0   6   5 1979.60   46.90
   0  -6   5 1939.41   50.09
   0  -6   5 2137.79   51.29
   0  -6  -5 2050.99   47.20
   0  -6  -5 2043.80   51.69
   0   6  -5 1957.30   48.90
   0   6  -5 2007.20   50.29
   0   6   5 1872.21   50.79
   0   6   5 2001.70   49.10
   0   6  -5 2051.99   51.29
   0  -6   5 2097.69   49.90
   0  -6   5 2035.80   48.60
   0   6  -5 2049.99   47.80
   0   6   5 2032.20   47.20
   2  -6   5 2942.11   70.89
  -2   6   5 3108.39   69.49
  -2   6   5 2930.21   74.39
   2  -6   5 3027.50   69.79
  -2  -6  -5 2954.00   69.59
   2  -6   5 3018.30   71.99
  -2   6   5 3046.10   71.19
   2   6  -5 2952.40   70.99
  -2  -6  -5 3045.00   69.69
  -2   6   5 2889.51   71.79
   2   6  -5 3011.60   74.19
  -2  -6  -5 2999.60   72.89
  -2  -6   5 3079.99   72.79
   2  -6  -5 3127.59   74.99
  -2   6  -5 2957.70   72.49
   2   6   5 2992.00   71.09
   2  -6  -5 3013.20   72.49
  -2   6  -5 2922.11   71.29
  -2   6  -5 3045.40   71.99
  -2   6  -5 2986.80   69.49
  -2  -6   5 2850.61   72.79
  -2  -6   5 3016.40   70.99
   2   6   5 2989.60   72.29
  -2  -6   5 3017.10   71.79
   2   6   5 3080.99   72.59
   4  -6   5 1041.30   29.80
   4  -6   5 1015.60   26.40
   4  -6   5 1005.40   31.60
   4   6  -5  998.40   31.90
   4  -6   5 1006.90   27.40
  -4  -6  -5  962.20   28.50
  -4   6   5 1004.50   25.90
  -4  -6  -5 1034.40   30.40
  -4  -6   5 1036.60   30.10
   4   6   5 1006.00   30.50
  -4   6  -5  971.70   29.10
   4  -6  -5  986.70   31.80
   4   6   5  922.71   29.00
  -4  -6   5 1012.00   30.70
  -4   6  -5  993.00   28.60
  -4   6  -5 1073.39   27.50
   4   6   5 1014.10   30.00
  -6   6   5  678.33   23.10
   6  -6   5  667.83   23.30
  -6   6   5  705.53   25.80
  -6  -6  -5  632.04   19.70
  -6  -6  -5  651.63   24.30
   6  -6   5  628.54   25.60
   6   6  -5  665.03   25.60
   6   6   5  670.83   24.40
  -6   6  -5  695.43   22.40
  -6   6  -5  613.94   22.90
   6  -6  -5  680.43   26.80
  -6  -6   5  647.54   25.30
  -6  -6   5  654.23   23.60
   6   6   5  666.13   24.30
   8  -6   5  231.88   13.20
  -8   6   5  262.67   12.70
  -8  -6  -5  258.07   15.20
   8   6  -5  239.98   14.90
   8  -6   5  240.68   15.80
  -8   6   5  241.08   15.50
   8   6   5  238.28   14.20
   8   6   5  221.98   13.90
   8  -6  -5  260.07   17.00
  -8  -6   5  230.98   15.30
  -8  -6   5  215.38   13.60
  -8   6  -5  254.87   13.60
  10   6  -5   47.10    6.50
 -10  -6  -5   67.29    8.20
 -10   6   5   47.40    9.80
  10  -6   5   57.39    7.90
 -10  -6   5   59.69    8.40
  10   6   5   65.59    7.60
  10  -6  -5   43.80    8.80
   1  -7   5  356.56   12.40
   1   7  -5  347.27   13.20
  -1   7   5  368.76   10.60
   1   7  -5  359.76   14.50
  -1   7   5  343.17   14.50
  -1   7   5  346.07   11.70
  -1  -7  -5  378.26   14.70
   1  -7   5  369.46   13.40
  -1   7   5  350.66   12.00
   1  -7   5  333.27   12.50
   1   7  -5  326.37   11.90
  -1  -7  -5  333.57   12.60
  -1  -7  -5  348.77   10.50
   1   7  -5  342.97   12.10
  -1  -7  -5  355.76   10.70
  -1   7  -5  350.76   13.40
   1  -7  -5  344.87   12.30
  -1  -7   5  357.26   12.90
   1   7   5  352.16   14.00
   1   7   5  362.46   12.20
  -1  -7   5  365.56   13.90
   1  -7  -5  381.36   15.30
  -1  -7   5  338.67   13.40
  -1   7  -5  360.76   13.70
  -1   7  -5  360.76   11.60
  -1  -7   5  360.96   13.00
  -1   7  -5  338.47   12.70
   1   7   5  352.66   13.00
  -3   7   5   34.70    3.30
   3  -7   5   34.80    3.40
  -3   7   5   36.60    4.50
  -3   7   5   32.30    3.80
  -3   7   5   34.50    2.60
  -3  -7  -5   34.00    3.30
   3  -7   5   31.40    4.00
   3   7  -5   34.80    3.70
   3  -7   5   36.90    6.30
  -3  -7  -5   36.80    4.40
   3   7  -5   38.90    5.00
  -3  -7  -5   32.00    3.50
  -3   7  -5   33.90    4.00
  -3  -7   5   38.00    3.80
   3   7   5   32.00    4.20
  -3  -7   5   33.10    4.20
   3  -7  -5   33.40    4.40
   3   7   5   32.50    3.90
  -3  -7   5   31.90    3.90
  -3  -7   5   29.60    4.00
  -3   7  -5   32.30    3.50
   3  -7  -5   39.70    5.20
  -3   7  -5   31.00    3.40
  -5  -7  -5  349.57   15.60
   5  -7   5  316.57   14.10
   5  -7   5  316.07   16.10
   5   7  -5  330.27   16.20
  -5   7   5  323.77   11.80
   5   7   5  321.17   15.20
  -5   7  -5  339.07   13.10
  -5  -7   5  311.37   15.30
   5  -7  -5  338.87   16.80
  -5  -7   5  338.27   15.10
  -5   7  -5  309.97   14.10
   5   7   5  311.77   14.70
  -5   7  -5  319.97   14.10
  -7   7   5   12.00    3.10
  -7  -7  -5    9.10    3.70
   7  -7   5    6.50    2.90
   7   7  -5   14.30    4.50
   7  -7   5    9.70    4.00
  -7   7   5   10.30    4.90
  -7  -7  -5    6.50    3.00
   7   7   5   14.50    4.40
  -7  -7   5    9.00    3.60
  -7  -7   5    6.80    3.50
   7  -7  -5   12.70    4.80
  -7   7  -5   12.10    3.40
   7   7   5   11.30    4.00
  -7  -7   5   10.20    3.50
   9  -7   5   47.60   13.10
  -9  -7  -5   50.79    7.00
  -9   7   5   43.70    8.20
   9   7  -5   41.80    7.90
  -9   7  -5   41.20    5.60
   9  -7  -5   53.99   10.60
   9   7   5   39.80    7.30
  -9  -7   5   40.20    7.40
  -9  -7   5   39.20    8.70
  11   7  -5    8.40    5.30
 -11  -7  -5   13.20    4.60
 -11   7   5    2.10    5.00
  11  -7   5    9.30    5.00
  11  -7  -5    9.20    6.00
 -11  -7   5    6.50    4.40
 -11   7  -5    2.30    3.20
 -11  -7   5   11.20    4.70
  11   7   5    8.30    3.90
   0  -8  -5  166.38    9.90
   0   8   5  166.38    6.90
   0  -8   5  153.98    7.90
   0  -8   5  176.18    8.50
   0   8  -5  160.28    8.90
   0  -8   5  157.08    8.00
   0   8  -5  156.88    7.80
   0  -8   5  167.68    9.00
   0   8  -5  158.08    7.30
   0   8   5  162.68    9.20
   0   8   5  155.58    7.60
   0  -8  -5  162.58    6.60
   0   8  -5  142.49    9.20
  -2   8   5    2.20    1.20
  -2  -8  -5    1.20    1.10
  -2  -8  -5    2.60    1.00
   2   8  -5    3.50    1.50
  -2   8   5    4.40    1.90
   2  -8   5    1.40    1.40
  -2  -8  -5    4.10    2.30
   2  -8   5    3.20    1.80
   2  -8   5    2.40    1.60
  -2   8   5    2.20    1.10
  -2  -8  -5    1.70    1.20
  -2   8   5    3.10    1.80
   2   8  -5    7.70    3.00
   2  -8   5    0.90    1.90
   2  -8  -5    1.70    1.30
   2  -8  -5    3.20    2.30
  -2  -8   5    3.40    2.00
  -2   8  -5    3.10    1.90
  -2  -8   5    1.20    1.20
  -2  -8   5    3.00    1.70
   2   8   5    1.50    1.60
   2   8   5    2.20    1.70
  -2   8  -5    2.00    1.30
  -2  -8   5    2.80    2.00
  -2   8  -5    1.60    1.20
  -2   8  -5    1.90    1.30
  -4   8   5   49.60    3.80
   4  -8   5   51.89    5.20
  -4  -8  -5   52.59    6.00
   4  -8   5   55.49    6.30
   4   8  -5   57.59    7.20
  -4  -8   5   50.99    5.60
  -4   8  -5   52.69    4.70
   4  -8  -5   49.40    6.00
  -4  -8   5   43.40    5.00
  -4  -8   5   48.90    4.90
   4   8   5   51.79    5.50
  -4   8  -5   51.19    4.80
   4   8   5   43.50    8.00
   6   8  -5   10.90    4.30
  -6   8   5   18.30    3.60
   6  -8   5   19.60    4.60
   6  -8   5   14.20    4.60
  -6  -8  -5   11.70    3.50
  -6   8  -5   15.10    3.40
   6   8   5   10.70    3.90
   6  -8  -5   21.00    6.20
  -6   8  -5   10.90    2.90
   6   8   5   16.40    4.30
  -6  -8   5   16.10    5.00
  -6  -8   5   12.80    3.30
  -6  -8   5   16.50    4.30
   8  -8   5   11.20    4.40
   8   8  -5    7.80    3.50
   8  -8   5    3.20    2.40
  -8   8   5    6.60    2.80
  -8   8   5    7.30    2.60
  -8  -8  -5    3.30    2.50
  -8   8  -5    4.80    2.00
   8  -8  -5   -0.80    3.30
  -8  -8   5    7.90    3.00
  -8  -8   5    1.60    2.50
   8   8   5    7.90    3.60
  -8  -8   5    7.80    3.90
  10  -8   5   -0.20    3.50
 -10   8   5   -0.60    3.10
 -10  -8  -5    2.40    3.50
 -10  -8  -5    8.30    2.80
  10   8  -5    6.60    3.40
  10   8   5    1.30    2.90
 -10   8  -5    3.00    3.10
 -10  -8   5    1.60    2.50
 -10  -8   5    9.60    3.70
  10  -8  -5    0.60    2.70
   1  -9   5  237.88   10.80
  -1  -9  -5  230.18   10.10
   1  -9   5  243.18   11.80
  -1   9   5  217.38   11.70
   1   9  -5  216.88   10.40
   1   9  -5  244.38   11.90
  -1   9   5  226.28    9.30
  -1  -9  -5  247.58    8.70
  -1   9   5  239.48    9.20
   1  -9   5  227.98    9.80
  -1  -9  -5  248.28   12.60
   1   9  -5  232.68   10.10
   1  -9   5  249.58   11.10
  -1   9   5  239.28    9.50
  -1  -9  -5  219.68    8.10
   1   9  -5  229.28   10.50
  -1   9  -5  236.68   11.10
  -1  -9   5  252.17   11.10
  -1   9  -5  217.38   10.30
  -1  -9   5  235.78   11.30
   1  -9  -5  238.58   12.70
  -1  -9   5  225.98   10.70
   1  -9  -5  244.88   10.10
  -1  -9   5  247.78   11.20
   1   9   5  225.78   10.50
  -1   9  -5  240.08   11.00
  -1   9  -5  239.58    9.80
   1   9   5  212.88   11.30
  -3   9   5   99.19    5.30
   3  -9   5   90.59    5.20
   3  -9   5   99.89    6.80
   3  -9   5   96.59    8.00
  -3   9   5   85.29    6.50
  -3  -9  -5  101.59    8.00
   3  -9   5   95.09    7.00
   3   9  -5   90.89    8.00
   3   9   5   92.79    6.90
  -3  -9   5   90.49    6.80
  -3  -9   5   94.89    6.80
   3   9   5   95.59    7.40
   3  -9  -5  103.59    8.90
  -3  -9   5   98.89    7.50
  -3   9  -5   89.29    6.50
   3  -9  -5   91.69    7.30
  -3   9  -5   96.19    6.30
  -5   9   5  154.48    7.70
   5  -9   5  170.38    9.90
  -5  -9  -5  147.59   10.60
   5   9  -5  161.88   11.50
   5  -9   5  159.58   11.60
  -5   9  -5  159.08    9.60
   5  -9  -5  171.98   11.90
  -5   9  -5  144.69    9.30
   5   9   5  152.68   10.50
  -5  -9   5  154.78    9.70
  -5  -9   5  154.78   10.30
  -5  -9   5  172.38    9.90
  -5  -9   5  150.48   10.60
   5   9   5  161.38   10.40
  -7  -9  -5   58.49    7.20
  -7   9   5   53.59    7.30
   7   9  -5   56.19    7.70
   7  -9   5   66.09    6.40
   7  -9   5   59.39    8.00
  -7   9   5   49.60    4.90
  -7  -9   5   68.29    6.90
   7  -9  -5   65.09    8.20
  -7  -9   5   63.69    7.70
  -7   9  -5   67.29    6.40
   7   9   5   58.39    7.00
  -7  -9   5   68.29    6.90
  -9   9   5   26.10    6.90
   9   9  -5   31.20    7.00
  -9  -9  -5   25.10    6.00
   9  -9   5   24.30    6.60
  -9   9  -5   36.40    6.50
   9   9   5   18.90    5.70
  -9  -9   5   22.40    6.40
   9  -9  -5   25.10    7.40
 -11  -9  -5    9.00    7.80
  11   9  -5    8.20    4.40
  11  -9   5    8.20    4.90
 -11   9   5   13.60    5.40
 -11   9  -5   10.40    4.20
 -11  -9   5   14.10    4.40
  11   9   5   10.70    4.30
  11  -9  -5    7.60    5.20
 -11  -9   5   14.90    4.20
   0 -10   5  505.85   17.60
   0 -10  -5  446.86   15.60
   0  10   5  466.35   16.30
   0 -10  -5  485.15   14.70
   0 -10   5  497.35   17.80
   0  10  -5  467.15   16.20
   0  10   5  444.56   18.50
   0  10  -5  448.16   16.50
   0 -10  -5  481.15   19.80
   0  10  -5  442.96   17.20
   0  10   5  483.75   15.40
   0 -10   5  480.35   18.10
   0 -10   5  476.65   17.60
   0  10   5  475.45   14.10
   0  10  -5  503.25   18.20
   2 -10   5  373.36   15.00
   2 -10   5  358.86   14.60
   2  10  -5  355.56   14.30
  -2  10   5  339.17   12.50
  -2  10   5  343.27   13.60
  -2  10   5  360.56   12.10
  -2 -10  -5  356.16   16.30
   2  10  -5  359.96   16.30
  -2 -10  -5  367.96   12.80
  -2  10   5  357.66   13.30
   2 -10   5  352.46   12.80
   2 -10   5  380.06   16.40
   2 -10  -5  365.26   17.50
   2 -10  -5  357.26   14.70
  -2 -10   5  380.66   15.00
  -2  10  -5  370.66   14.50
  -2  10  -5  369.76   13.90
  -2  10  -5  349.47   14.40
   2  10   5  374.46   15.20
  -2 -10   5  365.36   15.50
  -2 -10   5  386.96   15.50
  -4 -10  -5  200.08   10.10
  -4  10   5  197.68    8.90
   4 -10   5  210.28   11.20
  -4 -10  -5  214.58   14.50
   4 -10   5  213.78   13.00
   4  10  -5  208.48   13.00
  -4 -10   5  222.68   12.70
   4  10   5  214.18   12.10
  -4 -10   5  201.38   13.70
  -4  10  -5  210.68   10.80
  -4  10  -5  198.48   13.30
  -4 -10   5  208.88   11.00
   4 -10  -5  204.28   13.50
  -6  10   5  139.29    8.10
   6  10  -5  141.79   11.40
   6 -10   5  132.89   11.30
   6 -10   5  137.59    9.30
  -6 -10  -5  144.29   11.20
  -6 -10   5  138.29    9.70
  -6 -10   5  135.69    9.90
  -6 -10   5  150.08   11.10
   6  10   5  135.99   10.50
  -6 -10   5  142.79    9.60
  -6  10  -5  139.79   10.40
   6 -10  -5  147.59   11.90
   8  10  -5   88.59    9.70
  -8  10   5   69.69    6.40
   8 -10   5   70.69    7.10
   8 -10   5   69.49    9.90
  -8 -10  -5   76.49    8.90
  -8  10   5   76.29   15.70
  -8 -10   5   69.69   14.40
  -8 -10   5   78.39    7.70
   8  10   5   73.79    8.20
  -8 -10   5   85.29    7.80
   8 -10  -5   83.59   18.00
  -8  10  -5   70.79    7.20
  10  10  -5   16.00    5.70
 -10  10   5   33.00    7.80
 -10 -10  -5   22.00    6.20
  10 -10   5   24.00    6.40
  10  10   5   15.90    5.50
 -10 -10   5   25.80    6.40
 -10 -10   5   15.00    4.80
 -10  10  -5   19.30    4.20
 -10 -10   5   27.60    5.80
  10 -10  -5   26.10    6.50
  -1  11   5  125.49    6.80
   1 -11   5  154.98    9.00
  -1  11   5  150.38    7.60
   1  11  -5  150.68    9.80
   1  11  -5  134.19    8.00
  -1 -11  -5  152.18    7.30
   1 -11   5  138.89    9.00
  -1 -11  -5  153.78   10.60
   1  11  -5  151.08    8.40
  -1  11   5  152.58    7.40
   1 -11   5  137.19    7.70
  -1 -11  -5  145.09    8.10
   1 -11   5  157.18    9.90
  -1 -11   5  144.49    9.10
  -1  11  -5  147.09    8.00
   1  11   5  138.99    8.40
  -1 -11   5  142.39    9.20
  -1  11  -5  144.49    8.70
   1 -11  -5  150.08   10.80
  -1 -11   5  160.58    9.10
   1 -11  -5  151.38    8.10
  -1  11  -5  141.69    8.70
   3 -11   5  108.79    5.80
   3  11  -5  125.79    9.80
   3 -11   5  121.99    8.20
  -3  11   5  110.29    6.40
   3 -11   5  117.39    9.40
   3 -11   5  124.89    8.40
   3 -11  -5  134.49   10.80
   3 -11  -5  129.59    9.10
  -3 -11   5  117.59    8.10
  -3  11  -5  112.59    7.50
  -3 -11   5  112.79    8.80
  -3  11  -5  111.19    7.00
  -3 -11   5  134.29    8.90
   3  11   5  124.39    8.90
  -3  11  -5   98.29    8.40
   5  11  -5   56.49    7.40
  -5  11   5   49.40    4.30
   5 -11   5   56.09    7.30
   5 -11   5   46.70    5.40
  -5 -11  -5   54.29    5.50
  -5 -11  -5   50.19    6.90
  -5 -11   5   49.99    5.70
  -5 -11   5   42.50    5.30
  -5  11  -5   52.99    5.50
  -5 -11   5   54.29    6.00
  -5 -11   5   49.20    6.60
   5  11   5   53.69    6.50
   5 -11  -5   51.59    6.90
   7 -11   5   57.59    8.00
   7 -11   5   51.49    5.90
   7  11  -5   52.39    7.60
  -7  11   5   50.09    5.20
  -7 -11  -5   59.59    7.80
  -7 -11   5   41.60    8.00
   7 -11  -5   56.69    7.80
  -7  11  -5   71.69    6.70
  -7 -11   5   48.80    6.60
  -7 -11   5   62.59    7.00
   7  11   5   52.69    7.10
  -7 -11   5   48.50    6.20
  -9 -11  -5   20.40    6.00
  -9  11   5   14.80    5.40
   9  11  -5   14.80    4.90
   9 -11   5   17.60    5.70
   9 -11  -5   16.10    4.60
  -9 -11   5   21.50    5.70
   9  11   5   21.10    5.60
  -9 -11   5   17.00    5.00
  -9 -11   5   14.80    4.30
  -9  11  -5   12.40    3.90
   0 -12  -5  496.85   21.50
   0 -12  -5  503.95   14.10
   0 -12  -5  452.55   16.40
   0 -12   5  465.75   17.20
   0 -12  -5  488.65   15.70
   0 -12   5  498.35   19.40
   0  12   5  465.25   14.90
   0 -12   5  472.75   19.10
   0  12  -5  471.85   17.50
   0 -12   5  512.25   18.70
   0  12   5  488.45   16.50
   0  12   5  494.35   17.40
   0  12  -5  508.05   19.30
   0  12  -5  446.66   17.50
  -2 -12  -5  180.48   14.00
   2 -12   5  175.88   11.30
   2 -12   5  178.78   10.10
   2  12  -5  155.48   16.40
  -2 -12  -5  167.38    8.20
   2 -12   5  164.58   10.20
  -2  12   5  151.38    8.60
  -2  12   5  169.78    8.30
   2 -12   5  142.59    7.60
  -2  12   5  162.38    7.60
   2  12   5  175.98   12.90
  -2 -12   5  176.68   10.50
   2 -12  -5  170.48   12.50
  -2  12  -5  169.78    9.30
  -2 -12   5  170.08   10.00
  -2  12  -5  178.38    9.70
  -2 -12   5  175.38   11.00
   2 -12  -5  166.88    9.70
  -2  12  -5  178.18   10.40
  -4 -12  -5  282.47   15.90
   4 -12   5  296.87   16.20
   4 -12   5  286.67   13.90
  -4  12   5  263.87   11.90
   4 -12   5  293.67   14.30
  -4 -12  -5  285.77   12.70
   4 -12  -5  292.07   15.60
  -4  12  -5  264.17   13.20
  -4 -12   5  268.77   13.80
   4  12   5  298.07   15.20
   4 -12  -5  258.07   16.30
  -4 -12   5  289.67   15.50
  -6 -12  -5   24.50    5.00
   6 -12   5   27.60    5.10
   6 -12   5   40.50    8.10
  -6 -12  -5   17.90    5.50
   6  12  -5   30.70    7.70
   6  12   5   26.80    6.00
  -6 -12   5   27.50    6.60
   6 -12  -5   30.80    6.60
  -6 -12   5   29.50    6.10
  -6 -12   5   27.50    5.40
  -6 -12   5   35.10    4.80
   8 -12   5   47.00   10.40
  -8 -12  -5   54.09   10.10
  -8 -12  -5   41.60    5.90
   8  12  -5   43.60    9.20
  -8  12   5   43.90    9.90
   8  12   5   35.80    7.60
  -8 -12   5   52.99    6.50
  -8  12  -5   42.10    7.10
  -8 -12   5   37.60    8.00
  -8 -12   5   51.39    6.10
   8 -12  -5   40.80    9.30
  10  12  -5    4.80    4.80
 -10 -12  -5    1.60    4.00
 -10  12   5    2.40    4.60
  10 -12   5    9.90    5.00
 -10 -12   5    8.10    3.00
  10 -12  -5    5.30    5.60
  10  12   5   -0.80    3.90
 -10 -12   5   14.30    6.20
 -10  12  -5   -1.80    2.60
   1 -13   5  322.77   15.50
  -1  13   5  291.37   12.10
  -1 -13  -5  333.07   17.30
  -1  13   5  318.07   12.80
   1  13  -5  328.87   15.70
  -1  13   5  331.07   12.80
  -1 -13  -5  310.57   12.50
   1 -13   5  318.67   14.50
   1 -13   5  289.77   12.30
   1 -13   5  324.57   15.70
   1 -13  -5  324.17   13.30
  -1  13  -5  282.37   13.60
  -1  13  -5  331.67   14.70
  -1 -13   5  313.47   15.40
   1  13   5  308.57   13.90
  -1 -13   5  331.37   14.70
  -1  13  -5  299.37   13.70
   1 -13  -5  330.47   17.60
   3 -13   5  155.18   10.50
  -3 -13  -5  144.59    8.40
   3 -13   5  148.49   11.00
   3 -13   5  154.78    9.80
  -3 -13  -5  172.98   12.20
   3  13  -5  155.88   11.60
  -3  13   5  166.98    8.70
   3 -13  -5  165.38   12.60
  -3  13  -5  146.29    9.40
  -3 -13   5  165.98   10.30
  -3 -13   5  165.98   11.40
   3  13   5  173.98   11.00
  -3 -13   5  151.98   10.00
   3 -13  -5  148.19   10.20
   5 -13   5  178.38   11.10
  -5 -13  -5  187.38   12.50
  -5 -13  -5  199.88   13.90
   5 -13   5  179.38   13.50
   5  13  -5  210.18   14.30
  -5 -13   5  172.08   11.70
   5  13   5  201.28   13.10
  -5 -13   5  189.28   13.10
  -5 -13   5  198.98   12.00
  -5 -13   5  185.08   11.50
   5 -13  -5  217.88   13.80
   7 -13   5   70.89   18.50
   7 -13   5   45.40    5.60
   7  13  -5   42.70   10.30
  -7 -13  -5   45.20    8.50
  -7  13   5   39.10    4.60
  -7 -13  -5   51.79    6.30
   7 -13  -5   58.89    8.40
  -7 -13   5   60.69    6.30
  -7 -13   5   45.70    5.90
  -7  13  -5   50.09    5.90
  -7 -13   5   50.19   10.00
   7  13   5   63.59   15.50
   9 -13   5   22.70    7.60
   9  13  -5   29.90    7.70
  -9 -13  -5   24.70    6.90
  -9  13   5   21.80    7.10
   9  13   5   31.70    7.80
  -9 -13   5   25.90    6.00
  -9 -13   5   24.80    6.60
  -9 -13   5   23.80    5.80
   9 -13  -5   35.10    8.40
  -9  13  -5   22.10    5.30
   0  14  -5  308.57   15.10
   0  14   5  283.57   11.20
   0 -14   5  330.87   15.90
   0 -14  -5  318.07   12.20
   0 -14  -5  299.07   10.50
   0  14   5  302.07   13.40
   0 -14   5  332.47   15.00
   0 -14  -5  309.67   17.40
   0 -14   5  330.27   16.20
   0  14   5  306.77   13.20
  -2  14   5  132.09    7.80
   2  14  -5  136.59   10.60
  -2 -14  -5  136.69   11.40
   2 -14   5  140.39    9.40
   2 -14   5  123.69    7.10
  -2 -14  -5  129.99    7.60
   2 -14   5  134.29   10.50
   2 -14   5  120.89    9.50
  -2  14   5  133.89    7.10
  -2 -14   5  149.88   10.90
   2  14   5  144.09    9.70
  -2  14  -5  144.69    9.00
  -2 -14   5  149.39   10.00
  -2 -14   5  129.29    9.20
   2 -14  -5  134.39    9.00
   2 -14  -5  147.09   12.20
  -2  14  -5  115.59    8.50
   4 -14   5  227.58   12.40
   4  14  -5  221.78   14.60
  -4 -14  -5  218.08   14.70
   4 -14   5  211.18   14.30
  -4  14   5  209.78   10.60
   4 -14   5  213.98   12.80
  -4 -14  -5  206.28   11.20
  -4 -14   5  213.58   12.40
   4 -14  -5  210.88   15.30
  -4 -14   5  231.58   13.00
   4 -14  -5  208.88   13.40
   4  14   5  221.98   13.60
  -4 -14   5  207.58   14.00
  -6 -14  -5   61.79    8.40
  -6 -14  -5   48.30    5.80
   6  14  -5   85.39    9.60
   6 -14   5   63.79    8.40
  -6  14   5   55.59    5.30
   6 -14   5   54.99    7.50
  -6 -14   5   57.69    6.50
  -6 -14   5   58.49    7.90
   6  14   5   66.59    7.90
   6 -14  -5   57.19    7.90
  -6 -14   5   61.09    7.00
  -8  14   5   47.10    9.30
  -8 -14  -5   64.49    7.70
   8 -14   5   66.19    9.10
  -8 -14  -5   43.40    8.70
   8  14  -5   60.39    8.70
  -8  14  -5   51.39    6.30
   8  14   5   52.09   10.00
   8 -14  -5   50.69   10.20
  -8 -14   5   62.09    8.40
  -1 -15  -5  240.88   10.30
  -1  15   5  253.17   11.50
   1 -15   5  259.47   13.40
   1 -15   5  279.87   14.90
  -1  15   5  239.18   10.90
   1  15  -5  244.98   14.10
  -1  15   5  249.58   11.90
   1  15   5  257.17   13.00
  -1 -15   5  272.27   13.60
  -1  15  -5  263.47   13.50
  -1 -15   5  255.07   13.80
   1 -15  -5  252.67   11.90
  -1 -15   5  256.87   14.80
   1 -15  -5  262.07   16.50
  -3 -15  -5  175.78    9.80
  -3  15   5  191.18   10.20
   3 -15   5  205.48   13.70
  -3 -15  -5  207.28   14.30
   3 -15   5  192.38   11.40
   3 -15   5  199.68   12.60
   3  15  -5  201.98   13.60
   3  15   5  203.68   12.50
  -3 -15   5  192.68   11.80
  -3 -15   5  182.78   12.90
   3 -15  -5  180.78   14.30
  -3 -15   5  189.18   12.00
   3 -15  -5  213.18   12.60
  -5 -15  -5  138.79    9.40
   5 -15   5  126.49    9.40
   5 -15   5  139.99   12.20
  -5  15   5  131.59    8.50
  -5 -15  -5  143.69   12.40
   5  15  -5  132.99   11.80
  -5 -15   5  136.59   12.10
   5 -15  -5  164.68   12.20
   5  15   5  139.79   11.20
  -5 -15   5  154.78   10.80
   5 -15  -5  129.39   12.30
  -5 -15   5  139.79   10.20
   7  15  -5   83.09   10.00
  -7 -15  -5   94.99    8.30
  -7 -15  -5   98.89   10.80
   7 -15   5   98.09   11.20
  -7  15  -5   81.19    8.00
   7  15   5   99.99    9.90
   7 -15  -5   99.19   10.70
  -7 -15   5   85.39   10.00
  -7 -15   5   88.49    8.20
  -7 -15   5  100.09    8.90
   9  15  -5   20.80    6.50
   9 -15   5   29.50    7.90
  -9  15   5   27.70    7.10
  -9 -15  -5   21.50    6.90
   9 -15  -5   36.30    9.00
  -9  15  -5   20.60    5.30
   9  15   5   22.70    7.30
  -9 -15   5   24.60    6.10
  -9 -15   5   14.20    4.60
  -9 -15   5   22.70    6.10
   0  16  -5   14.90    4.40
   0 -16   5   10.90    3.50
   0 -16   5   12.90    4.20
   0  16   5   11.40    3.40
   0 -16  -5   17.30    3.50
   0  16   5   11.10    3.00
   0 -16  -5   14.20    2.70
   0 -16   5   14.20    5.10
   0 -16  -5   14.20    4.90
   2 -16   5   93.19    9.00
   2 -16   5   87.39    7.70
  -2 -16  -5   94.79   10.20
   2  16  -5  110.49   10.00
  -2  16   5   87.59    6.70
  -2 -16  -5   83.39    9.50
   2 -16   5   67.89    6.90
   2 -16   5   86.29    8.70
  -2  16   5   91.09    6.10
  -2 -16   5   97.99    8.20
   2  16   5   92.39    8.10
   2 -16  -5   89.29    9.00
  -2 -16   5   86.59    8.00
  -2 -16   5  103.59    9.60
  -2  16  -5  105.29    7.80
   2 -16  -5   84.69    9.90
  -4 -16  -5   18.40    5.90
   4 -16   5   16.20    5.20
   4 -16   5   18.80    6.00
   4  16  -5   18.80    5.80
   4 -16   5   21.40    5.00
  -4  16   5   13.20    2.90
   4 -16  -5   18.70    5.20
  -4 -16   5   17.90    4.50
  -4 -16   5   13.10    4.30
  -4 -16   5    9.40    4.00
   4 -16  -5   14.10    5.90
   4  16   5   20.00    5.40
   6 -16   5   13.50    4.80
   6  16  -5   14.80    5.30
  -6  16   5   20.40    4.20
   6 -16   5   11.10    3.80
  -6 -16  -5   17.90    4.90
  -6 -16   5   24.80    8.30
   6 -16  -5   21.00    6.40
   6  16   5   21.30    5.90
  -6 -16   5   14.60    4.20
  -6 -16   5   14.90    4.20
   8  16  -5   15.40    5.10
  -8 -16  -5   12.40    5.10
   8 -16   5    5.70    4.00
   8  16   5    2.10    4.00
  -8  16  -5    9.30    3.80
   8 -16  -5   13.20    5.00
  -8 -16   5    8.60    3.70
  -8 -16   5    9.40    4.00
  -8 -16   5   12.20    4.90
   1 -17   5  234.88   14.40
   1  17  -5  234.98   14.20
  -1  17   5  195.18   11.30
   1 -17   5  219.88   14.40
  -1  17   5  237.08   11.40
  -1 -17  -5  205.08    9.60
  -1 -17  -5  206.58   15.30
   1 -17   5  214.48   12.50
  -1 -17   5  216.88   14.40
   1 -17  -5  230.78   11.70
   1  17   5  247.98   13.10
   1 -17  -5  214.88   15.70
  -1 -17   5  221.98   13.50
  -1 -17   5  240.18   13.10
  -1  17  -5  230.88   14.80
  -3 -17  -5  250.47   16.90
   3 -17   5  244.28   14.90
   3 -17   5  253.17   13.70
   3  17  -5  267.77   16.30
  -3  17   5  224.58   12.00
  -3 -17  -5  230.68   11.90
   3 -17   5  228.48   15.10
   3 -17  -5  256.37   14.30
   3  17   5  250.87   14.70
  -3 -17   5  253.67   14.10
  -3 -17   5  220.88   15.40
   3 -17  -5  233.98   16.80
  -3 -17   5  244.18   14.90
  -5 -17  -5   97.49    8.10
  -5 -17  -5  111.59   11.50
   5 -17   5   89.19    8.40
  -5  17   5   99.19    7.60
   5  17  -5  133.39   25.70
  -5 -17   5  107.99    8.90
   5  17   5  115.59   15.00
   5 -17  -5  109.69   10.20
  -5 -17   5  102.09   10.60
  -5 -17   5  116.19    9.40
  -7 -17  -5   82.99   10.00
   7 -17   5   83.29   10.70
   7  17  -5   72.49    9.80
  -7 -17   5   69.79    8.10
   7  17   5   84.99    9.40
  -7 -17   5   62.59    8.60
   7 -17  -5   86.69   10.10
  -7 -17   5   94.99   11.70
   9 -17   5   29.50    7.40
   9  17  -5   28.20    7.90
  -9  17   5   30.10    7.80
  -9 -17  -5   16.40    7.90
  -9 -17   5   18.30    5.30
   9  17   5   39.90    8.60
  -9 -17   5   39.80    9.00
  -9  17  -5   24.40    6.50
   9 -17  -5   28.70    7.30
   0 -18  -5  116.39    7.80
   0 -18   5  132.69   11.00
   0 -18   5  118.59    9.10
   0  18  -5  121.79    9.50
   0  18   5   96.69    6.40
   0 -18   5  109.79    9.60
   0  18   5  112.99    8.70
   0  18   5  117.99    8.60
   0 -18  -5  124.69    7.40
   0 -18  -5  121.89   12.10
  -2 -18  -5  173.48   14.30
  -2  18   5  161.68   10.40
   2 -18   5  172.68   12.80
   2 -18   5  178.78   11.60
   2 -18   5  193.18   13.30
  -2 -18  -5  178.58    9.50
   2  18  -5  180.68   13.20
  -2  18  -5  192.48   11.30
   2  18   5  208.28   12.70
   2 -18  -5  179.48   11.30
  -2 -18   5  179.38   11.80
  -2 -18   5  185.78   13.90
  -2 -18   5  171.58   11.80
   2 -18  -5  167.78   14.50
   4 -18   5   77.69    7.30
   4  18  -5   70.69    8.80
  -4  18   5   64.39    6.50
   4 -18   5   63.69    7.60
  -4 -18  -5   69.99    9.60
  -4 -18  -5   59.19    6.50
   4 -18   5   76.29    9.20
  -4 -18   5   64.89    7.10
  -4 -18   5   76.39    9.30
  -4 -18   5   69.99    7.70
   4 -18  -5   79.09   10.70
   4  18   5   70.39    8.30
   4 -18  -5   84.69    8.60
   6 -18   5   66.19    9.00
  -6 -18  -5   80.79    9.90
   6  18  -5   69.39    8.60
  -6 -18   5   56.49   10.00
   6  18   5   74.79    8.90
  -6 -18   5   74.49    7.40
   6 -18  -5   84.79    9.30
  -6 -18   5   57.69    7.40
  -8 -18  -5   23.30    6.80
   8 -18  -5   14.90    5.30
  -8 -18   5   26.20    6.90
  -8  18  -5   18.90    4.40
  -8 -18   5    8.60    4.50
  -8 -18   5   26.70    5.40
  -1  19   5   11.00    3.70
   1  19  -5    7.60    3.80
   1 -19   5    8.30    4.00
   1 -19   5    4.50    3.10
  -1  19   5    8.90    3.10
  -1 -19  -5    8.00    3.10
   1 -19   5    5.90    3.20
  -1 -19  -5    4.20    3.80
  -1 -19   5    7.90    4.10
   1 -19  -5   11.60    4.50
   1  19   5    7.40    3.00
  -1 -19   5    4.70    2.80
  -1  19  -5    3.10    2.50
   1 -19  -5   11.60    3.90
   3 -19   5    6.10    3.30
  -3  19   5    2.10    2.10
   3 -19   5   -4.00    3.20
   3  19  -5    1.30    2.40
   3 -19   5    2.20    2.50
  -3 -19  -5  -10.00    6.00
  -3 -19  -5    6.50    4.70
   3 -19  -5    4.20    4.30
   3  19   5   -0.30    2.00
   3 -19  -5    1.70    1.90
  -3 -19   5    2.30    3.10
  -3 -19   5    7.00    3.30
  -3 -19   5    2.40    2.60
   5  19  -5   23.20    6.20
   5 -19   5   15.00    5.50
  -5 -19  -5   23.40    7.20
   5 -19  -5   31.70   10.30
   5 -19  -5   19.30    6.10
   5  19   5   23.90    6.00
  -5 -19   5   16.30    4.70
  -5 -19   5   17.10    5.70
  -5 -19   5   18.80    5.40
   7 -19   5    4.00    3.20
   7  19  -5    0.90    4.40
  -7 -19  -5   -0.90    3.30
   7 -19  -5    3.90    3.60
  -7 -19   5    5.10    4.40
   7  19   5   10.30    4.50
   0 -20   5  178.48   11.60
   0 -20  -5  153.28   14.10
   0 -20   5  157.28   13.20
   0 -20  -5  175.98    9.50
   0 -20   5  154.18   12.10
   0  20   5  160.88   10.50
   0  20  -5  174.38   12.00
   2  20  -5   24.30    6.50
  -2 -20  -5   36.40   12.50
   2 -20   5   24.90    6.80
  -2  20   5   22.30    5.20
   2 -20   5   19.80    5.10
   2 -20   5   32.20    7.60
   2 -20  -5   20.70    4.60
   2 -20  -5   18.30    6.80
  -2 -20   5   20.40    5.10
  -2 -20   5   25.40    5.70
  -2 -20   5   19.30    6.60
   2  20   5   31.30    6.60
   4  20  -5   69.79    9.40
   4 -20   5   78.09    8.40
  -4 -20  -5   62.79    9.00
   4 -20   5   69.19    9.00
   4 -20  -5   59.99    7.70
  -4 -20   5   69.89    7.60
  -4 -20   5   60.09    7.30
   4 -20  -5   63.79   12.20
   4  20   5   73.89    8.50
  -4 -20   5   64.59   11.60
   6  20  -5   24.60    7.30
  -6 -20  -5   22.90    7.30
   6 -20   5   31.50    7.60
   6  20   5   41.20    9.00
  -6 -20   5   30.30    6.60
  -6 -20   5   26.70    8.10
   6 -20  -5   32.60    7.80
  -6 -20   5   29.70    6.10
  -1 -21  -5  128.59   13.10
   1 -21   5  126.89   11.10
   1 -21   5  127.19   11.70
  -1  21   5  123.29    8.50
   1 -21   5  128.69    9.90
   1  21  -5  119.99   10.40
  -1 -21   5  128.69   10.30
  -1 -21   5  104.79   11.20
  -1 -21   5  108.49    9.90
   1 -21  -5  120.19   12.70
   1 -21  -5  139.49    9.20
  -1  21  -5  133.09    9.60
   1  21   5  133.59   10.00
   3 -21   5  151.68   13.10
   3 -21   5  143.69   11.90
  -3 -21  -5  142.09   13.80
   3 -21   5  134.39   12.20
   3  21  -5  147.49   12.80
  -3 -21   5  137.39   10.80
   3 -21  -5  158.08   11.30
  -3 -21   5  140.09   13.10
   3  21   5  154.48   12.00
  -3 -21   5  174.08   11.80
   3 -21  -5  128.19   13.50
   5 -21   5   70.29    9.40
  -5 -21  -5   55.79   12.10
   5  21  -5   51.09   10.10
  -5 -21   5   46.90   10.60
   5 -21  -5   40.30    8.60
   5  21   5   49.80    9.80
  -5 -21   5   52.09    7.20
  -5 -21   5   44.10    6.00
   5 -21  -5   61.89    7.40
   7 -21   5   67.69    9.00
   7  21  -5   50.59   10.70
  -7 -21  -5   75.29   10.40
   7  21   5   52.29    9.80
  -7 -21   5   42.80    8.50
  -7 -21   5   31.70    9.00
  -7 -21   5   54.29    7.40
   0  22   5   85.59    7.80
   0  22  -5   73.09    8.00
   0 -22   5   74.69    8.00
   0 -22   5   96.09   11.10
   0 -22  -5   66.39    9.60
   2 -22   5   66.29    8.60
  -2 -22  -5   57.29   11.90
   2  22  -5   51.39    7.00
   2  22   5   56.79    7.50
  -2  22  -5   55.49    6.40
   2 -22  -5   54.29    6.50
  -2 -22   5   58.99   11.80
   2 -22  -5   44.70   10.30
  -2 -22   5   64.49    7.70
  -2 -22   5   55.39   13.60
  -4 -22  -5   42.00    9.50
   4  22  -5   37.90    9.10
   4 -22   5   39.30    8.50
   4 -22   5   55.59    8.10
   4 -22  -5   50.19   12.40
  -4 -22   5   41.10    9.40
  -4 -22   5   53.39    8.90
   4  22   5   48.80    9.40
   4 -22  -5   46.10    8.10
  -4 -22   5   48.40    6.30
   6  22  -5   17.40    7.80
   6 -22   5   19.10    7.30
  -6 -22  -5   25.20    8.30
   6 -22  -5   37.20    8.40
  -6 -22   5   32.10    6.00
   6  22   5   45.10   11.40
   1 -23   5   17.30    4.40
   1  23  -5    4.00    3.50
  -1 -23  -5   12.00    6.20
  -1  23   5    0.90    2.60
   1 -23   5    7.30    4.20
  -1  23  -5   13.30    3.90
   1 -23  -5    9.30    4.40
  -1 -23   5    5.60    3.50
  -1 -23   5    6.70    4.10
   1 -23  -5    4.80    2.90
  -1 -23   5    1.60    4.40
   3 -23   5   30.90    8.10
   3 -23   5   18.80    6.20
  -3 -23  -5   31.30    9.10
   3  23  -5   28.10    6.20
  -3 -23   5   27.60    5.70
   3 -23  -5   23.40    7.40
   3 -23  -5   36.10   13.00
   3  23   5   42.60    8.90
  -3 -23   5   26.50    6.60
  -3 -23   5   21.70    6.60
   5 -23   5   -4.80    4.20
  -5 -23  -5   -3.30    5.20
  -5 -23   5    5.10    4.60
   5 -23  -5   19.10    7.00
   5  23   5   -0.50    3.80
  -5 -23   5   -0.20    2.80
   0 -24   5   81.79    9.60
   0 -24  -5   60.79   11.60
   0  24   5   68.69    7.50
   0 -24   5   77.09    8.50
   2 -24   5   28.20    7.60
   2 -24   5   35.20    8.30
  -2 -24  -5   27.20    8.10
   2  24  -5   43.40    8.60
   2 -24  -5   23.50    5.60
   2  24   5   25.50    6.20
  -2 -24   5   33.20    7.00
  -2 -24   5   19.80    6.80
   2 -24  -5   38.20    8.20
  -4 -24  -5   35.20   10.10
   4  24  -5   71.19    9.40
   4 -24   5   49.80    9.30
   4 -24   5   61.09   11.30
   4 -24  -5   41.10   12.90
   4  24   5   34.50    8.30
  -4 -24   5   41.70    9.40
  -4 -24   5   54.99    7.00
   4 -24  -5   65.49    7.10
  -1 -25  -5   87.89   16.40
   1 -25   5   68.49    9.80
   1  25  -5   78.49   12.20
  -1  25   5   85.09    7.50
   1 -25   5   51.99   10.10
  -1 -25   5   69.79   13.10
   1 -25  -5   67.09   13.90
   1  25   5   83.39    8.50
  -1  25  -5   67.59    8.10
  -1 -25   5   69.89    8.20
   1 -25  -5   54.19    8.70
   3 -25   5   74.39   16.10
   3  25  -5   38.80    9.10
  -3 -25  -5   42.70    9.90
   3 -25   5   45.20    8.70
   3  25   5   66.29    8.90
   3 -25  -5   52.19    7.60
  -3 -25   5   69.69    8.40
  -3 -25   5   51.19   13.40
   3 -25  -5   52.79   11.40
   0 -26  -5   33.40    8.90
   0  26  -5   52.79    8.90
   0  26   5   33.80    6.80
   0 -26   5   38.30    7.10
   0 -26   5   40.20    9.20
   2 -26   5    3.90    6.20
   2  26  -5   33.60    6.60
  -2 -26  -5   34.20    9.80
   2  26   5   29.10    6.60
   2 -26  -5   17.40    6.50
  -2 -26   5   17.10    7.90
   0   0   6 3450.65   77.19
   0   0   6 3379.86   81.39
   0   0  -6 3356.16   81.49
   0   0   6 3559.74   79.29
   2   0   6 3179.18   71.79
   2   0   6 3196.68   72.69
   2   0   6 3119.39   71.29
  -2   0  -6 3080.79   70.89
  -2   0  -6 3079.19   70.69
  -2   0   6 2852.21   72.39
  -2   0   6 2969.20   73.29
  -2   0   6 3111.19   71.79
  -2   0   6 3109.99   74.29
   2   0   6 3003.40   73.79
   2   0  -6 2996.80   73.69
  -4   0   6 1059.09   35.90
  -4   0   6 1167.88   29.20
   4   0  -6 1109.59   32.10
  -4   0   6 1060.69   31.30
  -4   0   6 1153.58   32.60
   4   0   6 1116.09   30.90
  -4   0  -6 1133.29   29.40
  -4   0  -6 1089.99   29.90
   4   0   6 1105.79   31.40
   4   0   6 1142.69   31.20
  -6   0   6  715.83   25.70
   6   0  -6  660.63   25.80
   6   0   6  687.83   23.90
   6   0  -6  674.53   23.30
  -6   0   6  562.94   23.00
  -6   0  -6  711.53   22.60
   6   0   6  652.23   23.30
  -6   0   6  669.93   21.40
   6   0   6  679.83   22.50
   8   0  -6  272.17   13.80
  -8   0  -6  268.37   14.30
  -8   0   6  269.97   16.30
   8   0   6  262.87   13.10
   8   0   6  265.07   14.40
  -8   0   6  258.67   13.00
   8   0   6  254.47   14.20
  10   0   6   17.30    4.40
  10   0   6   22.90    5.00
  10   0   6   24.10    5.70
 -10   0  -6   12.00    4.50
 -10   0   6   19.80    5.70
  10   0  -6   25.80    5.10
   1  -1   6   79.39    4.80
  -1  -1  -6   76.09    3.90
  -1  -1  -6   79.79    3.50
   1  -1   6   77.29    4.30
   1   1  -6   77.29    5.80
  -1   1   6   69.39    5.30
  -1   1   6   77.29    4.80
  -1   1   6   83.09    5.30
   1  -1   6   69.89    5.20
  -1  -1   6   71.39    5.30
  -1   1  -6   76.99    3.90
  -1  -1   6   71.19    3.80
  -1  -1   6   76.59    3.50
   1   1   6   78.69    4.20
   1  -1  -6   69.89    5.40
   1   1   6   73.69    4.00
  -1  -1   6   83.09    5.10
  -1   1  -6   80.39    4.50
   1   1   6   73.99    5.30
   3   1  -6  349.47   14.10
   3  -1   6  376.16   13.10
  -3  -1  -6  356.66   12.40
  -3  -1  -6  345.57   11.30
   3  -1   6  377.86   13.30
  -3  -1  -6  358.46   11.50
   3  -1   6  362.16   13.00
  -3   1   6  372.26   13.50
  -3   1   6  353.06   14.10
  -3   1   6  356.06   13.40
  -3   1   6  368.06   16.20
   3  -1   6  351.96   13.70
   3  -1  -6  353.16   13.60
   3   1   6  360.06   11.00
   3   1   6  376.76   13.20
  -3   1  -6  337.77   12.30
  -3   1  -6  366.06   12.50
   3   1   6  352.56   11.90
   3   1   6  358.16   13.30
  -3  -1   6  352.06   13.20
  -3  -1   6  339.97   13.50
  -5  -1  -6   91.19    6.30
  -5  -1  -6   92.49    5.80
   5  -1   6   90.39    6.80
   5  -1   6   89.89    6.80
  -5  -1  -6   90.99    6.20
  -5   1   6   81.79    6.70
  -5   1   6   90.29    7.40
   5  -1   6   94.39    6.40
  -5   1   6   79.99    5.20
   5   1  -6   86.39    6.90
   5   1   6   87.99    6.80
  -5  -1   6   95.39    6.00
   5  -1  -6   86.29    6.50
   5   1   6   91.19    6.70
  -5  -1   6   95.89    7.50
  -5   1  -6   89.29    6.20
   5   1   6   92.79    6.40
   5  -1  -6   85.59    9.10
   5   1   6   82.39    5.40
  -5  -1   6   73.79    6.00
  -5   1  -6   92.29    5.90
  -5   1  -6   80.09    6.10
  -7   1   6   78.09    8.00
  -7   1   6   67.99    5.50
   7  -1   6   65.49    6.00
   7  -1   6   78.19    7.30
   7  -1   6   67.29    6.70
  -7  -1  -6   71.59    7.70
   7   1   6   75.89    6.70
   7   1   6   71.89    6.50
   7  -1  -6   60.99    7.40
  -7   1  -6   68.89    6.50
  -7  -1   6   74.19    6.10
   7  -1  -6   64.09    6.00
   7   1   6   71.39    6.90
  -7  -1   6   79.89    8.20
   9  -1   6   15.90    4.20
   9  -1   6    4.80    2.30
  -9  -1  -6    8.50    3.40
   9  -1   6    5.70    3.00
   9   1  -6    8.40    3.10
  -9   1   6    4.20    2.20
  -9   1   6    9.60    3.60
  -9   1  -6   12.10    3.90
   9   1   6   13.50    3.30
   9   1   6    4.20    2.80
   9   1   6    7.70    2.80
  -9  -1   6   10.70    4.30
   9  -1  -6   14.50    3.40
  -9  -1   6    6.70    3.20
  11  -1   6    1.80    3.10
  11   1  -6   12.70    4.50
 -11   1   6    0.10    2.50
  11  -1   6   -0.10    2.70
 -11  -1  -6    2.50    2.50
  11   1   6    1.20    3.10
  11   1   6    3.10    2.70
 -11   1  -6   -1.00    3.00
 -11  -1   6   10.00    4.90
   0   2   6 1462.85   35.30
   0   2  -6 1412.76   33.50
   0  -2   6 1457.35   34.70
   0  -2  -6 1402.56   35.20
   0   2  -6 1414.56   37.90
   0   2   6 1403.86   34.50
   0   2  -6 1434.46   35.80
   0  -2   6 1467.35   36.60
   0   2   6 1388.56   37.70
   2  -2   6  334.97   12.90
   2  -2   6  351.36   12.60
  -2  -2  -6  332.27   10.70
  -2   2   6  334.17   13.10
   2  -2   6  347.67   12.10
  -2  -2  -6  342.17   10.90
  -2   2   6  344.37   12.90
  -2  -2  -6  336.77    9.90
   2   2  -6  327.77   13.40
  -2   2   6  334.17   12.90
   2   2   6  346.57   11.50
  -2  -2   6  325.87   11.50
   2   2   6  347.37   12.60
  -2   2  -6  338.77   11.50
  -2   2  -6  355.56   12.00
  -2  -2   6  352.46   12.80
   2   2   6  369.46   11.90
   2  -2  -6  328.27   12.80
   4  -2   6  458.65   16.30
   4   2  -6  439.96   17.20
   4  -2   6  421.06   16.00
  -4   2   6  430.96   17.60
  -4   2   6  464.35   21.60
  -4   2   6  450.05   13.20
  -4   2   6  418.56   15.30
  -4  -2  -6  435.86   15.30
  -4   2   6  452.65   16.90
   4  -2   6  423.66   16.20
   4  -2   6  449.76   15.20
  -4  -2  -6  431.46   13.70
  -4  -2  -6  462.45   15.20
   4   2   6  463.65   16.40
   4   2   6  452.55   14.60
   4   2   6  426.06   14.20
  -4   2  -6  434.16   14.30
  -4   2  -6  424.56   15.40
  -4   2  -6  465.45   14.00
   4  -2  -6  437.16   15.80
  -4   2  -6  448.46   15.70
  -4  -2   6  462.65   16.90
   4  -2  -6  436.06   17.80
   4   2   6  460.75   16.30
  -4  -2   6  409.66   16.10
   6   2  -6   57.49    6.40
  -6  -2  -6   45.30    4.50
   6  -2   6   55.39    4.90
  -6   2   6   52.19    6.40
   6  -2   6   55.29    5.70
  -6   2   6   54.09    5.60
  -6   2   6   53.99    4.70
  -6  -2  -6   65.79    6.00
   6  -2   6   52.29    6.00
  -6  -2   6   48.80    6.30
   6  -2  -6   53.99    7.00
   6   2   6   51.89    5.80
   6   2   6   54.39    5.20
  -6   2  -6   53.89    5.00
  -6   2  -6   51.69    4.90
   6   2   6   47.80    5.40
  -6  -2   6   51.89    5.00
  -8  -2  -6   40.60    7.10
  -8   2   6   30.60    4.10
   8   2  -6   39.20    5.00
   8  -2   6   40.30    7.90
   8  -2   6   30.90    5.80
   8  -2   6   29.60    3.90
  -8   2   6   35.60    7.30
   8   2   6   39.60    5.10
   8  -2  -6   31.80    4.20
   8  -2  -6   39.30    8.60
  -8   2  -6   37.90    6.50
   8   2   6   39.90    6.70
  -8  -2   6   28.40    6.50
  -8  -2   6   27.20    5.10
   8   2   6   31.40    6.10
  10  -2   6    8.90    3.30
  10   2  -6   10.30    3.20
 -10   2   6    5.60    3.70
 -10  -2   6    4.20    3.00
  10   2   6    6.00    3.60
 -10   2  -6    4.50    3.00
  10   2   6    8.20    3.10
  10   2   6   11.80    3.10
  -1   3   6   95.29    5.90
   1  -3   6   91.69    5.90
  -1   3   6   84.09    5.20
  -1   3   6   96.69    6.20
   1   3  -6   91.29    6.50
   1  -3   6   94.59    5.80
  -1  -3  -6   89.19    5.10
   1  -3   6   92.79    5.20
   1   3  -6   87.09    4.30
   1   3   6   92.59    5.00
   1   3   6   91.39    4.50
  -1   3  -6   88.29    4.70
  -1  -3   6   94.19    5.90
  -1   3  -6   87.29    5.30
  -1  -3   6   88.09    4.40
  -1  -3   6   95.19    6.10
  -1   3  -6   89.99    6.20
  -1  -3   6   94.49    4.70
   1   3   6   91.19    5.70
   1  -3  -6   91.49    5.80
   3  -3   6    0.30    1.30
  -3  -3  -6    2.70    1.20
   3  -3   6    4.30    1.50
   3   3  -6    3.20    1.60
   3   3  -6    2.90    1.90
   3  -3   6    1.90    1.70
   3  -3   6    3.50    1.60
  -3   3   6    2.10    1.90
  -3  -3  -6    1.60    1.40
  -3   3   6    0.00    1.20
  -3   3   6    2.50    1.70
  -3  -3   6    3.60    2.10
   3   3   6    3.00    1.70
   3   3   6    1.20    1.60
   3  -3  -6    4.50    2.10
  -3  -3   6    1.90    1.80
   3   3   6    1.40    0.80
   3  -3  -6   -0.30    1.60
  -3   3  -6    2.70    1.40
  -3   3  -6    2.50    1.30
  -5   3   6   55.09    4.50
   5  -3   6   53.69    5.30
   5   3  -6   56.89    6.10
   5  -3   6   58.19    5.50
  -5   3   6   61.39    4.30
  -5  -3  -6   62.09    5.50
   5  -3   6   64.39    6.10
  -5  -3  -6   59.69    4.20
   5  -3   6   58.99    4.90
   5  -3  -6   63.29   13.70
   5   3   6   56.39    5.50
  -5   3  -6   57.59    5.10
   5   3   6   48.90    4.30
  -5   3  -6   59.29    4.70
   5   3   6   57.09    4.50
  -5  -3   6   61.49    6.20
   5   3   6   55.09    5.60
   5  -3  -6   57.69    5.00
  -5   3  -6   62.89    4.90
  -5  -3   6   58.89    5.20
  -7   3   6    4.40    2.10
  -7   3   6    6.00    2.20
   7  -3   6    7.10    2.30
  -7   3   6    8.20    3.80
   7  -3   6   14.10    4.40
   7   3  -6    8.30    3.10
  -7  -3  -6    4.60    2.80
   7  -3   6    4.00    2.30
  -7   3  -6    4.60    2.20
  -7  -3   6   14.60    4.80
  -7  -3   6    6.40    3.10
   7   3   6    7.50    3.10
   7   3   6    7.30    3.10
   7   3   6   10.20    2.70
   7  -3  -6    5.90    3.70
   9  -3   6    3.40    2.40
  -9  -3  -6   12.40    3.70
  -9   3   6    2.90    2.70
   9   3  -6    7.70    2.80
   9  -3   6   12.10    3.50
  -9   3   6    6.20    2.50
   9  -3   6   16.00    4.50
   9   3   6    7.90    3.70
  -9   3  -6   11.70    3.70
   9   3   6   18.00    4.40
   9   3   6   13.70    4.30
  -9  -3   6   11.00    4.60
   9  -3  -6   12.70    4.00
 -11   3   6    4.30    4.00
 -11  -3  -6    4.50    4.00
  11   3  -6    6.40    4.20
  11  -3   6    0.90    3.40
  11   3   6   -4.20    3.10
 -11  -3   6    0.90    3.70
 -11   3  -6    3.20    3.30
   0  -4  -6 1687.73   43.20
   0   4   6 1719.93   44.40
   0   4   6 1779.62   42.90
   0  -4   6 1746.13   42.10
   0   4  -6 1672.03   42.90
   0  -4   6 1685.23   44.10
   0   4   6 1706.43   42.10
   0   4  -6 1692.73   41.20
   0   4   6 1720.93   43.20
   0   4  -6 1719.03   44.80
   2   4  -6  769.82   22.10
   2  -4   6  792.32   23.80
  -2  -4  -6  784.52   21.20
  -2   4   6  814.32   23.80
   2  -4   6  815.92   23.30
   2  -4   6  808.02   24.30
  -2  -4  -6  826.62   23.20
  -2   4   6  814.52   25.00
  -2   4   6  790.62   23.90
   2   4  -6  830.82   25.70
   2  -4  -6  789.22   24.70
   2   4   6  788.62   22.30
   2   4   6  797.32   23.80
   2   4   6  804.22   22.40
  -2   4  -6  794.02   23.50
  -2  -4   6  815.72   22.00
   2  -4  -6  809.92   24.10
  -2  -4   6  790.42   22.70
  -2   4  -6  806.42   22.70
  -2  -4   6  838.62   24.30
  -4   4   6  802.32   20.70
   4  -4   6  805.42   24.80
   4  -4   6  800.32   22.80
   4  -4   6  829.82   26.10
   4  -4   6  758.02   23.70
  -4  -4  -6  830.32   24.40
   4   4  -6  821.72   26.80
  -4  -4  -6  784.22   23.60
  -4   4   6  763.62   22.90
   4   4  -6  742.33   24.10
  -4  -4   6  727.03   25.60
   4  -4  -6  781.72   26.80
  -4   4  -6  812.72   21.70
  -4   4  -6  778.72   24.70
   4   4   6  831.42   25.00
  -4   4  -6  805.92   22.70
   4   4   6  777.12   23.30
   4   4   6  810.32   25.30
  -4   4  -6  792.02   24.40
  -4  -4   6  776.62   25.20
   4  -4  -6  772.42   23.20
  -6  -4  -6  299.27   11.70
  -6   4   6  305.07   15.60
   6  -4   6  310.87   15.60
  -6  -4  -6  311.47   14.50
  -6   4   6  309.97   12.10
   6   4  -6  293.07   15.20
  -6   4   6  271.67   11.20
   6  -4   6  304.27   14.20
   6  -4   6  274.07   12.50
   6  -4   6  309.57   12.10
   6  -4  -6  292.07   16.40
   6  -4  -6  288.77   11.90
   6   4   6  304.07   12.20
  -6  -4   6  299.57   15.50
  -6   4  -6  293.77   13.20
   6   4   6  303.47   14.60
  -6  -4   6  301.37   13.70
  -6   4  -6  310.87   12.80
   6   4   6  315.97   14.70
   8  -4   6  142.89   10.40
  -8   4   6  173.68   12.90
  -8   4   6  152.28    9.30
   8  -4   6  155.08   12.00
   8  -4   6  155.18    8.40
  -8  -4  -6  157.78   11.10
   8   4  -6  141.39   10.80
   8   4   6  148.99   10.40
  -8  -4   6  178.28   11.00
  -8  -4   6  165.88   12.80
   8   4   6  149.69   11.10
  -8   4  -6  168.38   10.50
   8  -4  -6  161.88   13.00
 -10  -4  -6   68.69    8.00
  10   4  -6   63.99    6.80
  10  -4   6   58.19    7.60
 -10   4   6   62.19   10.80
 -10   4  -6   68.99    7.70
 -10  -4   6   68.49    8.90
  10   4   6   56.59    6.80
  10  -4  -6   78.19    9.70
   1  -5   6  274.27   11.50
  -1   5   6  310.47   10.80
   1   5  -6  295.47   12.80
  -1  -5  -6  296.77   11.80
  -1   5   6  309.47   12.50
   1   5  -6  274.97   11.30
  -1   5   6  287.97   10.70
   1  -5   6  312.77   12.30
  -1   5   6  298.27   12.00
   1  -5   6  304.07   11.30
   1   5  -6  285.27    9.70
   1  -5  -6  281.07   10.70
  -1  -5   6  327.07   12.50
  -1  -5   6  296.67   10.80
   1   5   6  289.17   11.40
  -1   5  -6  297.57   12.30
  -1  -5   6  262.07   11.70
  -1  -5   6  300.67   10.30
   1   5   6  298.07    9.90
   1  -5  -6  297.27   12.30
   1   5   6  302.67   11.60
  -1   5  -6  288.37   10.70
  -1   5  -6  284.27   11.50
  -3  -5  -6  416.36   13.90
   3   5  -6  397.76   14.60
  -3   5   6  421.26   16.40
  -3   5   6  432.06   17.40
   3  -5   6  429.06   15.60
  -3  -5  -6  435.46   15.50
  -3  -5  -6  428.66   15.70
   3  -5   6  429.76   16.70
  -3   5   6  430.86   14.70
   3  -5   6  431.16   15.20
   3   5  -6  446.76   17.60
  -3  -5   6  425.56   15.60
  -3  -5   6  445.46   16.20
  -3   5  -6  421.16   15.70
  -3   5  -6  424.96   15.10
   3  -5  -6  431.66   16.70
  -3   5  -6  440.16   12.40
   3   5   6  450.45   16.20
  -3  -5   6  395.96   16.70
  -3  -5   6  437.36   14.40
   3   5   6  425.76   14.80
   3   5   6  448.66   15.40
  -3  -5   6  398.56   16.00
  -5   5   6   88.09    5.10
   5  -5   6   85.59    6.80
   5  -5   6   88.19    5.60
   5  -5   6   77.19    5.70
   5   5  -6   80.89    7.90
   5  -5   6   85.19    7.60
  -5  -5  -6   82.19    6.70
  -5   5   6   78.09    5.10
   5   5   6   82.39    6.10
  -5   5  -6   84.09    5.50
   5  -5  -6   82.89    8.00
   5   5   6   81.39    6.80
  -5  -5   6   79.39    8.30
  -5   5  -6   90.69    6.20
  -5  -5   6   82.19    6.60
  -5   5  -6   86.39    6.50
   7   5  -6   87.19    8.40
  -7  -5  -6   81.09    5.80
   7  -5   6   84.49    7.30
   7  -5   6   85.59    5.70
  -7  -5  -6   90.99    8.10
  -7   5   6   75.99    7.90
   7  -5   6   77.89    8.30
  -7   5   6   81.39    6.00
   7  -5   6   70.39    5.80
   7   5   6   89.59    8.00
  -7   5  -6   87.09    7.00
  -7  -5   6   79.09    8.40
   7   5   6   88.09    7.80
  -7  -5   6   79.69    7.20
   7  -5  -6   82.39    9.00
   7   5   6   82.19    6.00
   9  -5   6   15.00    5.00
   9   5  -6   18.30    5.00
   9  -5   6   15.20    4.00
  -9   5   6   15.40    4.80
  -9  -5  -6   13.10    4.40
  -9   5   6   17.70    4.00
  -9  -5   6   16.80    6.00
   9   5   6   21.70    5.60
  -9   5  -6   17.10    4.30
   9   5   6   14.90    5.30
   9  -5  -6   10.10    4.40
  11  -5   6    0.80    3.80
  11   5  -6   -2.40    3.50
 -11  -5  -6    0.20    3.30
 -11  -5   6    3.70    7.60
  11   5   6    2.00    2.80
 -11   5  -6   -3.90    2.30
   0  -6  -6  436.86   16.20
   0   6  -6  424.66   14.00
   0   6   6  440.96   12.50
   0   6   6  416.06   15.50
   0  -6   6  418.96   15.40
   0   6  -6  423.46   15.20
   0   6  -6  442.36   16.40
   0   6  -6  434.46   12.70
   0   6   6  419.26   12.60
   0  -6   6  463.85   15.00
   0  -6   6  445.56   13.50
   0   6   6  437.86   14.60
   2   6  -6   11.40    3.50
  -2   6   6   19.20    4.90
  -2  -6  -6   11.90    2.20
  -2  -6  -6   18.10    3.60
  -2   6   6   14.00    3.50
   2  -6   6   14.00    2.80
   2  -6   6   14.30    3.90
  -2   6   6   15.60    2.70
   2  -6   6   15.50    3.50
  -2  -6  -6   13.60    2.50
  -2  -6  -6   10.00    2.80
  -2   6   6   20.60    3.70
   2   6  -6   14.70    2.70
  -2   6  -6   18.00    3.40
  -2  -6   6   18.20    3.30
  -2  -6   6   10.70    2.80
  -2  -6   6   16.10    3.60
   2  -6  -6   10.20    3.10
   2   6   6   15.70    3.50
   2  -6  -6   12.70    3.70
  -2  -6   6   11.40    2.80
  -2   6  -6   19.50    3.40
   2   6   6   15.90    3.40
   2   6   6   14.40    2.90
  -2   6  -6   15.30    3.50
   4  -6   6  100.49    5.80
   4  -6   6  108.59    7.40
   4   6  -6  107.29    8.40
  -4  -6  -6  109.89    7.60
   4  -6   6   99.69    6.20
   4  -6   6  102.69    8.20
  -4   6   6   98.79    5.90
  -4  -6   6  103.69    7.50
   4   6   6   88.99    6.40
   4  -6  -6  100.99    8.20
   4   6   6  101.29    7.20
  -4   6  -6  106.39    6.20
  -4   6  -6  101.39    5.50
   4   6   6   98.69    7.50
  -4  -6   6  106.19    7.70
  -6  -6  -6   35.20    6.20
   6  -6   6   27.50    5.30
   6  -6   6   33.00    3.40
   6   6  -6   40.70    7.60
  -6   6   6   29.90    6.90
  -6   6   6   29.10    3.50
   6  -6   6   30.40    3.60
   6  -6   6   44.10    8.00
   6   6   6   40.40    6.90
  -6  -6   6   31.40    6.60
  -6  -6   6   22.90    4.90
   6  -6  -6   30.70    6.40
   6   6   6   34.40    6.50
  -6  -6   6   34.80    4.70
  -6   6  -6   33.40    4.20
  -6   6  -6   33.20    3.90
   8  -6   6    5.30    2.60
   8   6  -6    5.10    3.00
  -8  -6  -6    4.60    2.60
   8  -6   6    5.00    3.50
  -8   6   6    2.60    2.80
   8  -6  -6    4.50    4.50
   8   6   6    3.30    3.60
   8   6   6    4.00    2.70
  -8  -6   6    4.40    3.20
  -8  -6   6    2.00    2.60
  -8   6  -6    6.80    2.30
 -10  -6  -6   12.60    3.90
 -10   6   6   10.90    5.00
  10   6  -6    5.30    3.00
  10  -6   6   18.60    4.70
  10   6   6   11.70    3.90
 -10   6  -6    4.80    3.00
  10  -6  -6   12.60    4.50
 -10  -6   6    9.00    4.50
 -10  -6   6    3.90    3.50
  -1   7   6  885.71   26.00
  -1  -7  -6  883.51   27.00
  -1   7   6  851.01   27.30
   1   7  -6  822.22   25.50
   1   7  -6  884.21   24.60
   1  -7   6  862.51   23.60
   1   7  -6  892.01   27.60
   1  -7   6  836.82   25.30
   1  -7   6  892.71   26.90
   1   7  -6  830.32   23.60
  -1   7   6  875.21   24.10
   1  -7   6  902.21   25.70
  -1   7   6  834.12   23.80
  -1   7  -6  894.31   26.60
  -1  -7   6  879.21   25.20
  -1   7  -6  861.11   22.60
  -1  -7   6  881.61   24.70
   1   7   6  856.51   23.70
  -1   7  -6  836.82   25.80
   1   7   6  920.51   25.80
  -1  -7   6  885.21   26.50
   1  -7  -6  824.22   24.00
   1   7   6  856.71   26.30
  -1  -7   6  798.12   25.90
  -1   7  -6  831.72   24.70
   1  -7  -6  904.71   27.90
  -3   7   6  900.01   25.60
   3   7  -6  885.01   29.40
   3  -7   6  934.11   27.60
  -3   7   6  847.22   27.40
  -3  -7  -6  923.51   28.10
   3  -7   6  863.41   25.50
  -3   7   6  906.11   24.00
   3   7  -6  828.62   26.10
   3  -7   6  988.60   29.70
  -3  -7  -6  865.01   28.00
  -3  -7   6  939.31   28.30
   3  -7  -6  914.21   28.40
   3   7   6  923.71   28.20
  -3   7  -6  880.11   26.60
   3   7   6  919.41   27.00
  -3  -7   6  884.11   27.40
   3   7   6  869.81   27.10
  -3   7  -6  883.51   24.80
  -3  -7   6  921.71   26.40
   3  -7  -6  895.91   29.80
   5  -7   6  242.18   13.80
   5  -7   6  246.98   12.30
  -5   7   6  249.78    9.60
   5   7  -6  241.68   14.10
  -5  -7  -6  237.18   12.70
   5  -7   6  228.78    9.80
   5  -7   6  242.38    9.60
  -5   7  -6  214.58   11.00
  -5   7  -6  228.18   11.70
  -5   7  -6  256.77   10.60
  -5  -7   6  248.58   12.80
   5   7   6  248.28   12.70
   5  -7  -6  221.78   13.60
  -5  -7   6  246.38   12.60
   5   7   6  232.48   12.90
  -5  -7   6  238.38   13.10
   7  -7   6  153.48   12.00
   7   7  -6  171.08   12.40
  -7  -7  -6  168.08   11.50
  -7   7   6  155.58    8.70
   7  -7   6  164.38   10.70
  -7   7   6  163.38   12.20
  -7  -7   6  157.18   11.20
   7   7   6  159.28   11.30
   7   7   6  142.09   12.40
  -7  -7   6  165.28   12.20
  -7  -7   6  173.78   11.60
  -7   7  -6  165.78    9.90
   7  -7  -6  140.29   12.10
   9  -7   6   29.40    7.20
  -9  -7  -6   26.60    6.60
   9   7  -6   36.20    7.90
  -9   7   6   35.70    7.50
   9  -7   6   25.10    6.10
   9  -7  -6   21.70    6.10
  -9   7  -6   24.40    5.00
  -9  -7   6   29.30    6.00
  -9  -7   6   24.50    6.10
 -11  -7  -6   10.70    5.10
  11  -7   6    9.40    5.00
 -11   7   6   13.40    6.30
  11   7  -6   10.80    4.30
  11  -7  -6   21.80    6.60
  11   7   6   14.80    5.00
 -11   7  -6   21.90    4.80
 -11  -7   6   17.30    5.50
 -11  -7   6    9.20    4.80
   0   8   6 2217.78   53.99
   0  -8  -6 2141.39   50.99
   0   8  -6 2189.28   56.39
   0  -8   6 2188.28   55.99
   0   8   6 2197.88   51.49
   0  -8  -6 2191.28   57.19
   0   8  -6 2139.89   52.09
   0   8  -6 2115.09   53.99
   0  -8   6 2233.18   54.69
   0  -8   6 2113.29   53.29
   0  -8   6 2103.59   59.49
  -2  -8  -6  622.64   17.40
   2   8  -6  550.54   18.50
  -2   8   6  540.25   18.80
   2  -8   6  567.34   21.00
  -2   8   6  609.84   16.10
   2  -8   6  560.74   18.60
   2  -8   6  599.94   20.10
  -2  -8  -6  589.04   20.80
  -2   8   6  598.24   22.00
  -2   8   6  582.34   17.40
   2  -8   6  567.84   17.80
  -2   8   6  607.24   19.30
  -2  -8  -6  636.14   21.50
   2   8  -6  587.04   21.80
  -2  -8  -6  557.84   16.80
  -2   8  -6  599.94   20.10
  -2  -8   6  584.54   19.70
  -2   8  -6  586.94   17.50
  -2  -8   6  603.34   20.70
   2   8   6  557.54   20.00
   2   8   6  586.04   19.00
   2   8   6  568.04   20.00
   2  -8  -6  595.24   22.30
  -2  -8   6  595.04   19.40
   2  -8  -6  601.74   19.90
  -2   8  -6  553.44   19.00
   4  -8   6 1089.59   31.30
  -4  -8  -6 1208.18   36.10
   4  -8   6 1199.78   38.50
   4  -8   6 1175.98   34.60
   4   8  -6 1191.38   37.80
  -4   8   6 1176.08   30.00
   4  -8   6 1201.48   31.10
  -4  -8   6 1185.28   38.80
   4   8   6 1200.08   35.10
  -4  -8   6 1199.68   35.90
  -4   8  -6 1169.08   32.90
   4  -8  -6 1193.88   36.90
  -4   8  -6 1134.39   34.20
   4   8   6 1209.28   36.00
  -4  -8   6 1168.98   37.50
  -6   8   6  258.17   11.10
   6   8  -6  283.37   16.10
   6  -8   6  252.77   15.30
   6  -8   6  252.17   13.30
  -6  -8  -6  266.27   14.60
  -6  -8   6  250.67   13.50
  -6  -8   6  257.87   14.80
  -6   8  -6  265.77   12.10
  -6  -8   6  243.28   14.30
   6   8   6  257.27   14.20
   6  -8  -6  265.57   15.80
   8  -8   6  116.59   10.80
  -8   8   6  114.09    8.00
   8  -8   6  108.19    9.10
  -8  -8  -6  114.79   10.20
  -8   8   6  121.29   11.40
   8   8  -6  123.49   10.80
  -8   8  -6  122.59    8.80
   8   8   6  127.09   10.40
  -8  -8   6  131.89   10.20
  -8  -8   6  129.69   11.70
   8  -8  -6  123.89   12.10
  10   8  -6   92.89    9.20
 -10  -8  -6   81.49    9.20
 -10   8   6  101.59   11.00
  10  -8   6   77.69    9.60
  10  -8  -6   86.99   10.80
 -10  -8   6   93.19    9.00
 -10   8  -6   83.89    8.10
 -10  -8   6  106.39   11.10
  10   8   6   80.49    8.70
   1  -9   6  235.08   11.90
   1   9  -6  213.38    9.50
   1  -9   6  209.08    9.90
   1   9  -6  219.78   11.80
  -1  -9  -6  225.68   12.10
  -1   9   6  214.48    9.10
   1  -9   6  228.48   10.20
  -1   9   6  229.88    9.60
   1   9  -6  215.68    9.60
   1  -9   6  230.38   10.90
  -1   9   6  206.28   11.50
  -1   9   6  230.48    8.50
  -1  -9  -6  195.78    9.60
  -1  -9   6  236.28   10.90
  -1  -9   6  208.18   10.30
  -1   9  -6  227.18   11.40
  -1   9  -6  228.68    9.20
   1   9   6  211.28   11.30
   1  -9  -6  230.78   12.70
  -1  -9   6  226.68   11.40
   1  -9  -6  210.58    9.40
  -1  -9   6  217.48   10.70
   1   9   6  233.88   10.80
  -3  -9  -6   33.10    3.60
   3  -9   6   33.20    3.40
   3   9  -6   34.80    6.90
  -3   9   6   34.90    4.30
   3  -9   6   38.80    6.90
  -3   9   6   33.40    2.90
   3  -9   6   34.30    4.40
  -3   9   6   33.40    3.10
  -3  -9  -6   30.50    5.60
  -3   9   6   32.80    3.60
   3  -9   6   31.10    3.80
   3  -9  -6   36.60    5.10
   3   9   6   31.90    4.30
  -3  -9   6   37.40    4.90
  -3  -9   6   30.30    4.10
  -3  -9   6   36.20    4.80
   3   9   6   28.20    5.20
  -3   9  -6   34.00    3.50
  -3   9  -6   27.70    3.70
   3  -9  -6   35.70    6.70
   5   9  -6  116.09   10.10
   5  -9   6  122.19    8.60
   5  -9   6  117.19    9.90
  -5   9   6  124.29    6.60
  -5  -9  -6  135.59   10.00
  -5   9  -6  101.19    7.30
  -5   9  -6  133.49    7.50
  -5  -9   6  127.29    8.50
   5  -9  -6  124.79   10.20
   5   9   6  106.09    9.00
  -5  -9   6  120.89    9.10
  -5  -9   6  118.99    8.80
  -5  -9   6  115.49    9.30
  -7   9   6   -1.20    1.30
   7   9  -6    6.60    3.00
   7  -9   6    3.60    3.00
   7  -9   6   -1.50    1.90
  -7   9   6    1.10    2.50
  -7  -9  -6    0.60    2.00
  -7  -9   6    9.80    3.70
  -7  -9   6    3.90    2.40
  -7  -9   6    1.70    2.00
   7   9   6    6.60    2.60
   7  -9  -6    1.50    2.80
  -7  -9   6    4.30    2.50
  -7   9  -6    0.90    1.90
   9   9  -6    5.80    3.30
   9  -9   6    3.30    2.70
  -9   9   6    7.90    3.50
  -9  -9  -6    4.10    3.20
  -9  -9   6    8.40    3.40
  -9  -9   6    8.10    3.50
   9  -9  -6    7.20    3.80
   9   9   6    1.70    2.70
  -9   9  -6    6.30    2.90
   0 -10   6  214.58   10.30
   0  10  -6  205.48    9.40
   0  10   6  226.68    9.20
   0  10   6  217.68   10.10
   0 -10   6  219.48   10.70
   0  10  -6  209.78   10.10
   0 -10  -6  222.58   12.70
   0 -10   6  223.18   11.70
   0 -10   6  207.78   10.60
   0  10  -6  232.78   12.00
  -2  10   6  245.78    9.30
  -2  10   6  221.58   11.70
   2 -10   6  232.48   10.90
   2 -10   6  226.88   10.20
   2 -10   6  249.88   11.90
  -2 -10  -6  256.17   13.50
  -2  10   6  226.08   10.30
  -2 -10  -6  241.78    9.40
   2  10  -6  226.28   12.90
   2 -10   6  241.68   12.90
  -2  10   6  232.38    9.40
   2  10  -6  209.48   10.40
  -2  10  -6  237.28   11.60
  -2  10  -6  229.68   11.20
  -2 -10   6  231.48   11.80
   2  10   6  235.88   11.80
  -2  10  -6  237.68   10.20
  -2 -10   6  233.58   12.10
   2 -10  -6  237.98   11.40
  -2 -10   6  237.98   11.60
   2 -10  -6  238.78   13.70
  -4 -10  -6   87.09    6.70
   4  10  -6  111.49    9.80
   4 -10   6  116.39    8.20
   4 -10   6  104.89    9.20
  -4 -10  -6   96.99    8.70
  -4  10   6   99.29    5.70
   4  10   6  101.69    8.10
  -4 -10   6  102.49    8.50
   4 -10  -6  104.09    8.90
  -4 -10   6  106.89    7.70
   4  10   6   96.49    8.20
  -4 -10   6  102.29    8.00
  -4  10  -6   94.29    7.10
   4 -10  -6  110.59   10.00
  -6 -10  -6   37.90    6.90
   6 -10   6   43.80    5.20
   6 -10   6   40.80    8.00
   6  10  -6   56.09    7.50
  -6  10   6   43.20    4.00
  -6 -10   6   41.10    5.20
   6  10   6   46.20    8.10
  -6  10  -6   36.00    4.50
  -6 -10   6   44.50    6.20
   6 -10  -6   51.09    6.90
  -6 -10   6   46.70    6.20
  -6 -10   6   47.30    6.00
  -8 -10  -6   36.50    7.30
   8  10  -6   32.30    8.80
   8 -10   6   39.50   11.20
   8 -10   6   33.10    6.10
  -8  10   6   35.30    7.80
  -8  10   6   33.20    4.40
   8 -10  -6   24.50    7.20
  -8 -10   6   34.20    7.30
  -8  10  -6   39.40    5.00
  -8 -10   6   38.60    5.60
  -8 -10   6   39.20    5.60
 -10 -10  -6    2.20    4.20
  10 -10   6    4.90    3.30
 -10  10   6    9.20    4.30
  10  10  -6    3.40    3.20
  10 -10  -6   -4.40    2.50
 -10 -10   6   -1.20    2.60
 -10 -10   6    1.50    2.80
 -10  10  -6   -1.40    3.20
  10  10   6    0.80    2.80
 -10 -10   6    1.20    2.70
   1  11  -6   53.79    4.70
   1 -11   6   52.39    5.60
  -1  11   6   51.09    4.50
   1  11  -6   52.49    6.20
   1 -11   6   48.00    4.40
  -1  11   6   45.80    4.00
  -1 -11  -6   50.29    3.50
  -1  11   6   58.89    6.70
   1 -11   6   50.19    6.00
   1 -11   6   54.19    5.60
  -1 -11  -6   59.69    6.80
   1 -11  -6   50.19    6.80
   1 -11  -6   50.39    4.60
  -1 -11   6   50.19    5.50
  -1  11  -6   54.59    4.50
   1  11   6   51.39    5.20
  -1  11  -6   54.69    4.80
  -1  11  -6   59.39    5.90
  -1 -11   6   53.69    6.00
  -1 -11   6   49.20    5.30
   3 -11   6   75.99    6.70
  -3 -11  -6   83.79    9.30
  -3 -11  -6   74.09    5.50
  -3  11   6   76.99    4.90
   3  11  -6   64.49    7.50
   3 -11   6   85.19    6.80
   3 -11   6   62.39    7.30
   3 -11   6   69.59    5.00
   3 -11  -6   88.89    9.10
  -3  11  -6   74.39    6.70
  -3  11  -6   80.29    6.30
   3 -11  -6   81.89    7.10
   3  11   6   73.29    7.00
  -3 -11   6   79.79    7.20
  -3  11  -6   75.09    6.30
  -3 -11   6   74.99    6.70
  -3 -11   6   78.99    7.40
   5  11  -6   31.60    6.60
   5 -11   6   36.10    7.60
  -5 -11  -6   34.90    6.80
  -5  11   6   39.80    3.90
  -5 -11  -6   36.20    4.60
   5 -11   6   29.60    5.40
   5 -11  -6   36.40    7.20
  -5 -11   6   40.30    5.50
   5  11   6   31.20    6.30
  -5 -11   6   32.00    6.40
  -5 -11   6   39.70    5.20
  -5 -11   6   39.90    5.80
  -7  11   6   23.10    4.30
  -7 -11  -6   24.60    6.10
   7 -11   6   25.50    5.50
  -7 -11  -6   28.50    5.70
   7  11  -6   23.40    6.60
   7 -11   6   22.40    5.70
  -7 -11   6   17.30    4.70
   7 -11  -6   27.80    6.40
  -7 -11   6   28.50    5.50
   7  11   6   30.50    6.40
  -7 -11   6   16.10    5.00
  -7  11  -6   30.20    4.20
  -7 -11   6   19.50    6.50
  -9 -11  -6   33.10    7.30
   9  11  -6   31.50    7.40
  -9  11   6   30.80    7.20
   9 -11   6   28.10    7.70
   9  11   6   11.40    4.20
  -9 -11   6   17.30    4.50
  -9  11  -6   23.10    5.10
  -9 -11   6   21.70    5.60
   9 -11  -6   29.10    7.20
  -9 -11   6   22.60    7.20
   0 -12   6  246.48   13.50
   0  12  -6  253.87   13.20
   0  12   6  222.58    8.80
   0  12  -6  239.48   11.00
   0  12   6  242.48   10.40
   0 -12   6  229.08   12.20
   0  12   6  252.77   11.50
   0 -12   6  241.78   12.20
   2 -12   6  469.35   20.00
   2 -12   6  470.25   18.30
  -2  12   6  439.06   16.60
  -2  12   6  456.25   15.60
  -2  12   6  455.65   16.60
  -2 -12  -6  447.66   20.40
   2 -12   6  440.66   17.80
   2 -12   6  418.06   15.60
   2  12  -6  481.25   20.40
  -2 -12  -6  386.06   16.90
  -2  12   6  441.76   15.10
  -2 -12   6  458.65   19.10
  -2 -12   6  458.45   18.30
  -2 -12   6  468.95   19.00
   2 -12  -6  456.05   17.60
  -2  12  -6  482.85   18.30
   2 -12  -6  486.55   22.00
  -2  12  -6  450.85   16.80
   2  12   6  463.95   18.60
  -2  12  -6  430.26   18.00
   4  12  -6  157.98   12.30
  -4  12   6  170.58    8.50
  -4 -12  -6  177.78   12.60
   4 -12   6  178.58   10.80
   4 -12   6  170.08   12.40
  -4 -12   6  187.38   12.30
   4 -12  -6  181.38   11.90
   4  12   6  176.48   11.60
   4 -12  -6  170.28   13.20
  -4 -12   6  174.28   11.10
  -4 -12   6  180.88   11.00
   6 -12   6  148.39   10.40
  -6 -12  -6  150.38   12.00
  -6 -12  -6  166.28   10.10
   6 -12   6  159.08   13.00
   6  12  -6  162.38   13.00
  -6  12   6  138.59    8.40
   6  12   6  175.78   12.50
  -6 -12   6  158.28   10.70
  -6 -12   6  157.68   11.00
  -6  12  -6  169.08   10.00
  -6 -12   6  175.98   12.80
   6 -12  -6  169.68   12.90
   8 -12   6   42.20    7.90
   8  12  -6   60.29    8.20
  -8  12   6   52.89    9.60
  -8 -12  -6   78.49    8.70
  -8 -12  -6   63.19    7.20
   8 -12   6   60.09   11.20
   8 -12  -6   60.69   10.90
  -8  12  -6   65.89    6.70
  -8 -12   6   68.89    8.80
  -8 -12   6   57.29    7.90
   8  12   6   57.79    7.70
  10  12  -6   31.50    8.30
 -10  12   6   25.30    8.20
 -10 -12  -6   39.60    8.70
  10  12   6   27.40    8.40
 -10 -12   6   25.00    7.80
 -10  12  -6   34.70    6.20
  10 -12  -6   24.40    7.10
 -10 -12   6   35.20    6.80
 -10 -12   6   46.10    6.70
  -1 -13  -6   30.50    7.00
  -1  13   6   22.60    3.10
   1 -13   6   34.50    4.80
  -1 -13  -6   23.90    2.70
  -1  13   6   28.60    3.50
   1 -13   6   34.70    6.80
   1 -13   6   34.70    5.00
   1  13  -6   37.40    7.10
  -1  13   6   25.80    3.50
  -1  13  -6   31.20    3.90
   1 -13  -6   27.00    3.60
   1  13   6   30.40    7.10
  -1 -13   6   32.00    6.40
   1 -13  -6   32.00    7.20
  -1 -13   6   32.00    6.50
  -1  13  -6   34.20    6.20
  -1 -13   6   20.10    4.50
  -3  13   6   69.09    5.40
   3  13  -6   62.19    7.70
   3 -13   6   55.69    4.50
   3 -13   6   61.99    6.30
  -3 -13  -6   73.09    8.20
  -3 -13  -6   63.69    5.30
   3 -13   6   64.29    7.70
   3 -13   6   66.69    6.60
  -3 -13   6   67.29    7.00
   3 -13  -6   66.09    7.50
  -3 -13   6   72.29    7.60
   3  13   6   68.99    6.90
  -3  13  -6   65.69    5.90
   3 -13  -6   59.39    8.20
   5 -13   6   46.10    9.00
  -5 -13  -6   52.19    7.30
  -5  13   6   40.80    4.30
  -5 -13  -6   42.50    4.90
   5  13  -6   42.90    8.30
   5 -13   6   38.40    5.30
  -5 -13   6   34.30    7.30
  -5 -13   6   41.70    5.60
   5  13   6   43.50    6.30
  -5 -13   6   49.30    6.00
  -5 -13   6   35.50    7.00
   5 -13  -6   43.60    6.40
   7 -13   6   43.50    7.00
   7 -13   6   47.30    9.70
  -7  13   6   42.00    4.60
  -7 -13  -6   54.59    9.60
   7  13  -6   49.50    9.10
  -7 -13  -6   40.30    5.80
   7 -13  -6   46.30   12.20
  -7 -13   6   50.39    6.30
  -7 -13   6   55.09    6.20
   7  13   6   46.70    6.70
  -7  13  -6   46.20    5.40
   9  13  -6    3.30    3.90
   9 -13   6    2.50    3.30
  -9  13   6   -0.50    2.90
  -9 -13  -6    8.10    4.80
  -9  13  -6   11.00    3.20
  -9 -13   6    3.10    3.30
   9 -13  -6   10.20    4.00
  -9 -13   6   -0.40    3.10
  -9 -13   6   12.40    4.90
   9  13   6   -3.80    2.60
   0 -14   6  225.98   13.20
   0 -14   6  217.08   12.00
   0  14   6  226.28   11.40
   0 -14  -6  220.78   14.70
   0  14  -6  219.28   18.50
   0  14   6  222.58   10.70
   0 -14   6  205.68   12.50
   2 -14   6   46.90    4.30
   2  14  -6   61.69    7.40
   2 -14   6   59.09    6.20
  -2  14   6   58.99    4.60
   2 -14   6   53.19    6.90
  -2 -14  -6   48.20    4.30
  -2  14   6   61.49    5.20
  -2 -14  -6   53.59    7.30
   2 -14   6   56.49    6.40
  -2 -14   6   55.99    6.50
  -2 -14   6   50.89    6.00
   2 -14  -6   56.29   10.50
   2 -14  -6   52.99    5.70
  -2  14  -6   60.79    6.20
   2  14   6   58.09    6.40
  -2 -14   6   59.09    7.10
  -4 -14  -6   63.49    8.10
   4  14  -6   61.49    8.10
  -4 -14  -6   69.79    6.10
   4 -14   6   78.49    7.00
   4 -14   6   69.79    8.30
  -4  14   6   69.69    5.60
  -4 -14   6   64.59    7.90
   4  14   6   63.19    7.30
  -4 -14   6   72.19    7.20
   4 -14  -6   69.89    7.50
  -4 -14   6   67.29    7.10
   4 -14  -6   63.49    8.60
   6  14  -6   40.60    8.50
   6 -14   6   50.59   10.50
  -6  14   6   42.20    4.60
   6 -14   6   29.60    6.00
  -6 -14  -6   44.60    9.40
  -6 -14  -6   30.30    5.90
  -6 -14   6   38.20    6.90
   6  14   6   39.20    7.90
  -6 -14   6   34.80    7.70
   6 -14  -6   30.00    6.90
  -6 -14   6   41.70    5.80
   8  14  -6    8.10    3.80
  -8  14   6   15.10    5.10
   8 -14   6    4.70    3.30
  -8 -14  -6    6.80    3.90
   8 -14  -6   14.80    5.40
  -8 -14   6    8.60    3.50
  -8 -14   6   20.10    5.80
   8  14   6    5.20    3.10
  -8 -14   6    9.50    3.30
  -8  14  -6   14.20    4.30
  -1 -15  -6  358.36   12.50
  -1 -15  -6  364.86   19.60
   1 -15   6  372.16   18.10
  -1  15   6  380.56   15.00
   1 -15   6  371.96   16.80
   1 -15   6  359.26   18.20
   1  15  -6  408.96   19.00
  -1  15   6  332.47   14.40
  -1  15   6  332.77   13.60
  -1 -15   6  380.66   17.90
  -1 -15   6  377.66   16.90
   1 -15  -6  395.86   20.60
  -1  15  -6  395.56   17.40
  -1 -15   6  377.16   18.20
   1 -15  -6  368.16   15.00
   1  15   6  360.36   16.20
  -3  15   6  417.96   21.50
   3 -15   6  326.77   12.90
   3 -15   6  340.27   18.90
  -3 -15  -6  349.27   14.30
   3 -15   6  354.96   18.80
  -3 -15  -6  364.56   19.90
   3  15  -6  373.86   19.60
   3 -15   6  366.76   16.90
  -3 -15   6  357.26   18.60
   3 -15  -6  381.06   17.50
  -3 -15   6  387.56   17.70
   3 -15  -6  359.76   20.50
   3  15   6  366.66   17.90
  -3 -15   6  376.66   17.70
  -5 -15  -6  126.09   11.50
   5  15  -6  134.09   12.00
   5 -15   6  109.79   11.10
  -5  15   6  118.69    7.80
   5 -15   6  104.49    8.80
   5  15   6  126.19   10.50
   5 -15  -6  135.09   11.20
  -5 -15   6  116.99   11.00
  -5 -15   6  119.59    9.80
  -5 -15   6  119.59    9.60
   5 -15  -6  114.49   11.80
   7 -15   6  133.39   12.80
   7  15  -6  146.29   13.20
  -7 -15  -6  100.09   12.30
  -7 -15  -6  134.39   12.90
  -7 -15   6  115.49    9.70
   7 -15  -6  136.09   12.20
   7  15   6  125.29   11.50
  -7  15  -6  110.99    9.00
  -7 -15   6  128.19   10.50
  -7 -15   6  115.79   11.70
   9  15  -6   15.20    7.40
  -9 -15  -6   22.90    6.50
   9 -15   6   36.60   12.20
  -9 -15   6   35.40   10.50
   9  15   6   26.90    8.40
   9 -15  -6   21.70    8.10
  -9 -15   6   32.10    7.30
  -9  15  -6   26.80    7.20
  -9 -15   6   24.00    5.80
   0 -16   6   98.59    9.20
   0 -16   6   96.79    8.80
   0 -16   6  111.49    8.60
   0  16   6   75.59    5.20
   0  16   6   97.49    7.50
   0 -16  -6   94.39   10.50
  -2 -16  -6  122.19   11.50
   2 -16   6  152.58   11.70
  -2  16   6  155.28    8.20
  -2  16   6  134.79    8.60
   2 -16   6  151.58   10.90
   2 -16   6  139.89    9.90
   2  16  -6  149.88   11.50
  -2 -16  -6  136.69    7.70
  -2  16  -6  153.18   10.00
   2 -16  -6  159.98   10.40
  -2 -16   6  150.58   11.60
  -2 -16   6  149.79   10.90
   2  16   6  150.08   10.50
  -2 -16   6  133.89   11.50
   2 -16  -6  148.29   13.00
  -4 -16  -6   55.79    6.00
   4 -16   6   64.59    6.80
  -4  16   6   64.99    6.30
   4 -16   6   64.39    6.80
   4  16  -6   61.39    8.00
  -4 -16  -6   60.79    8.20
   4 -16   6   57.29    8.10
   4 -16  -6   49.90   10.20
  -4 -16   6   74.59    7.50
  -4 -16   6   51.29    7.10
   4 -16  -6   67.59    7.30
  -4 -16   6   64.39    7.00
   4  16   6   66.09    7.50
   6 -16   6   93.19   10.80
   6 -16   6   53.19    6.70
   6  16  -6   83.39   10.20
  -6  16   6   77.79    6.30
  -6 -16  -6   75.09    7.80
  -6 -16  -6   90.99   10.20
  -6 -16   6   83.79    8.10
   6  16   6   70.79    8.50
   6 -16  -6   70.99    9.10
  -6 -16   6   70.09    8.90
  -6 -16   6   61.09    7.20
   8 -16   6   42.60    8.90
   8  16  -6   52.19   10.30
  -8 -16  -6   22.00    7.40
   8 -16  -6   37.90    8.00
  -8 -16   6   39.60    8.30
  -8 -16   6   25.80    7.00
  -8  16  -6   38.30    5.40
   8  16   6   33.00    8.00
  -8 -16   6   38.20    7.90
  -1 -17  -6    3.30    3.40
   1 -17   6    5.20    3.20
   1 -17   6    5.10    3.60
  -1  17   6    0.80    2.60
   1  17  -6    2.90    2.70
   1 -17   6    4.10    2.90
  -1 -17   6    5.40    3.50
   1  17   6    4.50    2.50
   1 -17  -6    8.40    4.10
   1 -17  -6    3.50    2.40
  -1 -17   6    4.90    3.50
  -1 -17   6    3.70    2.30
  -1  17  -6   12.20    4.00
   3  17  -6   12.70    5.20
  -3  17   6   20.70    4.50
  -3 -17  -6   12.10    3.80
   3 -17   6   19.30    6.50
   3 -17   6   21.20    6.10
  -3 -17  -6   24.50    7.40
   3 -17   6   15.60    3.70
  -3 -17   6   17.20    5.80
  -3 -17   6    8.80    4.10
   3  17   6   15.40    4.80
   3 -17  -6   11.10    4.80
   3 -17  -6   15.00    4.10
  -3 -17   6   33.00    7.00
   5 -17   6   -0.80    2.10
   5  17  -6    0.90    3.00
  -5 -17  -6    9.20    6.00
   5 -17   6   -3.60    2.60
  -5 -17  -6    3.00    3.70
  -5  17   6    6.80    2.70
   5 -17  -6   -3.60    2.00
   5 -17  -6    5.10    3.70
  -5 -17   6   -1.40    1.60
   5  17   6    1.00    2.30
  -5 -17   6    0.90    3.00
  -5 -17   6    1.80    2.60
   7  17  -6    5.90    4.10
  -7 -17  -6   12.30    5.10
  -7 -17   6   14.10    5.20
  -7  17  -6    2.80    2.80
   7  17   6    2.10    3.70
  -7 -17   6    9.10    4.00
  -7 -17   6    1.60    2.50
   7 -17  -6    8.00    3.40
   0 -18   6    7.10    3.40
   0 -18  -6    8.00    2.40
   0  18   6    5.90    2.30
   0 -18   6    1.60    2.20
   0 -18  -6    6.40    3.70
   0  18   6   -4.10    3.30
   0 -18   6    7.50    3.40
   0  18  -6   13.80    4.30
  -2 -18  -6   14.90    5.10
   2 -18   6   19.90    4.80
   2 -18   6   21.10    6.20
   2  18  -6   14.20    5.00
   2 -18   6   23.10    5.60
  -2  18   6   26.70    3.50
  -2 -18  -6   23.70    4.10
  -2  18   6   20.90    4.70
   2 -18  -6   17.70    4.60
  -2 -18   6   29.10    7.50
  -2  18  -6   24.90    5.20
  -2 -18   6   28.30    6.70
  -2 -18   6   19.10    4.70
   2 -18  -6   23.00    6.10
   2  18   6   23.00    5.80
  -4 -18  -6    6.10    4.40
  -4  18   6    6.40    3.10
   4 -18   6   13.60    4.90
   4  18  -6    8.30    4.60
   4 -18   6    3.80    2.90
   4 -18  -6    9.80    5.00
   4  18   6   10.50    4.00
  -4 -18   6    8.50    3.90
  -4 -18   6    7.90    4.90
   4 -18  -6    9.10    3.10
  -4 -18   6    4.10    2.70
   6  18  -6    5.50    3.80
   6 -18   6    1.80    2.80
  -6 -18  -6   -1.50    2.90
  -6 -18   6   -2.00    3.60
   6  18   6    6.30    4.10
  -6 -18   6    0.30    3.10
  -6 -18   6    0.70    3.00
   6 -18  -6    0.80    2.90
  -8 -18  -6   21.20    9.50
   8 -18   6   18.80    6.30
   8  18  -6    6.00    4.80
   8  18   6    6.90    4.70
  -8 -18   6   26.30   10.10
   8 -18  -6    9.60    6.00
  -8 -18   6   30.00    5.80
  -8 -18   6   16.40    4.60
  -1 -19  -6  248.48   17.70
   1  19  -6  271.57   16.20
  -1  19   6  279.87   13.20
   1 -19   6  251.17   15.90
  -1  19   6  228.18   13.10
   1 -19   6  270.57   16.40
   1 -19   6  257.97   14.50
  -1  19  -6  275.37   14.80
  -1 -19   6  275.97   15.90
  -1 -19   6  251.17   16.50
   1 -19  -6  255.27   13.20
   1 -19  -6  233.98   17.50
   1  19   6  266.57   14.50
  -1 -19   6  265.67   15.50
  -3  19   6   84.99    7.70
   3 -19   6  100.39    8.90
   3  19  -6   96.29   10.10
   3 -19   6  116.59   14.10
   3 -19   6  102.59    9.70
  -3 -19   6  112.39    9.30
  -3 -19   6  108.29   10.90
   3  19   6  102.59    9.40
   3 -19  -6  136.29   13.70
  -3 -19   6  112.19    9.30
   3 -19  -6  120.79    9.30
  -5 -19  -6  194.18   15.70
   5  19  -6  180.88   14.90
   5 -19   6  173.88   14.80
   5  19   6  204.28   14.20
  -5 -19   6  170.88   13.00
   5 -19  -6  171.18   15.30
  -5 -19   6  176.48   14.80
  -5 -19   6  164.98   12.10
   7 -19   6   56.19   11.80
  -7 -19  -6   45.40    9.00
   7  19  -6   38.80    9.60
  -7 -19   6   41.10    7.80
  -7 -19   6   54.09   10.80
  -7 -19   6   48.10    6.90
   7 -19  -6   56.59   10.60
   7  19   6   61.59    8.70
   0 -20   6  222.28   14.80
   0 -20   6  236.48   13.90
   0  20  -6  223.58   14.20
   0 -20   6  218.18   15.20
   0  20   6  234.38   13.00
   2  20  -6  119.09   11.00
   2 -20   6  115.99    8.90
  -2  20   6  121.29   11.90
   2 -20   6  132.69   11.30
  -2 -20  -6  122.89   12.60
  -2 -20   6  131.99   10.60
   2  20   6  135.99   10.50
  -2 -20   6  132.99   10.30
   2 -20  -6  114.59   12.00
   2 -20  -6  130.79    9.50
  -2 -20   6  112.09   11.00
  -2  20  -6  123.49    9.30
  -4 -20  -6  170.58   15.10
   4 -20   6  136.49   13.20
   4 -20   6  153.98   12.10
   4 -20   6  165.38   13.90
   4  20  -6  153.08   13.30
  -4 -20   6  163.58   14.20
  -4 -20   6  139.59   11.70
   4 -20  -6  144.69   13.70
   4  20   6  159.68   12.40
  -4 -20   6  177.78   12.70
   4 -20  -6  175.18   12.10
  -6 -20  -6   41.00    8.60
   6 -20   6   30.90    8.70
   6  20  -6   35.50    9.20
  -6 -20   6   40.90    9.60
   6 -20  -6   46.90    9.20
  -6 -20   6   43.70    7.60
   6  20   6   55.79    7.40
   1 -21   6    4.00    4.00
  -1  21   6   -1.20    2.20
   1 -21   6    4.40    2.30
   1  21  -6   -3.10    2.20
  -1 -21  -6    3.50    4.40
   1 -21   6   -1.20    2.70
   1 -21  -6   -2.70    2.40
   1  21   6    2.20    2.30
  -1 -21   6    4.70    3.10
   1 -21  -6   -0.50    2.70
  -1 -21   6    2.80    3.70
  -1 -21   6    2.50    3.20
  -1  21  -6    7.40    3.10
  -3 -21  -6   13.40    5.20
   3 -21   6    6.50    3.80
   3  21  -6   15.60    5.70
   3 -21   6   12.20    3.90
   3 -21   6    3.40    4.70
  -3 -21   6    3.10    3.20
   3  21   6    4.70    3.70
  -3 -21   6    5.30    4.00
   3 -21  -6    8.50    4.20
   3 -21  -6    6.00    3.50
  -5 -21  -6   -0.60    3.80
   5  21  -6    1.30    3.50
   5 -21   6    6.70    4.30
   5  21   6    4.20    3.60
   5 -21  -6    7.10    4.40
  -5 -21   6    5.10    4.10
  -5 -21   6    1.20    2.90
   5 -21  -6   -6.50    3.00
  -5 -21   6   -3.10    3.30
   0 -22  -6    5.20    3.50
   0 -22   6    8.50    4.30
   0 -22   6    9.50    5.60
   0  22  -6   12.40    4.40
   0  22   6   15.60    4.70
   2  22  -6   64.89    8.00
   2 -22   6   66.49   15.80
   2 -22   6   82.39    9.30
   2 -22   6   73.89   10.10
  -2 -22  -6   56.99   11.70
  -2 -22   6   68.99    9.20
   2 -22  -6   81.39    7.10
  -2  22  -6   69.19    7.30
  -2 -22   6   82.79    8.40
  -2 -22   6   58.79    7.80
   2  22   6   79.59    7.80
   2 -22  -6   74.39   10.10
   4  22  -6    4.90    4.60
   4 -22   6    3.50    3.50
  -4 -22  -6   10.50    5.60
   4 -22   6   19.10    5.80
   4 -22  -6    1.50    3.40
  -4 -22   6   26.50    7.60
   4 -22  -6    4.50    4.20
  -4 -22   6    5.90    4.50
  -4 -22   6   10.60    4.30
   4  22   6    7.40    4.40
   6 -22   6   12.30    6.00
   6  22  -6   30.50    7.70
  -6 -22  -6    3.60    4.70
  -6 -22   6   16.10    5.30
   6  22   6   13.60    5.90
   6 -22  -6   19.10    5.90
  -6 -22   6   16.10    6.50
  -6 -22   6   13.50    7.40
   1 -23   6  115.39   11.00
   1  23  -6  111.99   10.50
  -1 -23  -6   98.09   11.80
   1 -23   6  116.89   11.00
  -1  23   6  107.29    8.10
   1 -23  -6  101.09   12.30
   1 -23  -6  103.39    7.90
  -1 -23   6   95.09   10.60
   1  23   6  108.29    9.50
  -1 -23   6  117.69   10.60
  -1  23  -6  107.19    9.70
  -1 -23   6   96.89   10.00
   3  23  -6   71.79   12.60
  -3 -23  -6   66.89   12.00
   3 -23   6   67.49    8.50
   3 -23   6   58.89    7.50
  -3 -23   6   69.49    9.00
  -3 -23   6   47.20   10.00
   3 -23  -6   64.59    8.20
  -3 -23   6   75.49    8.10
   3  23   6   64.59    8.40
   3 -23  -6   67.79   13.70
   5  23  -6   85.39   14.80
  -5 -23  -6  106.59   12.80
   5 -23   6   97.69   11.20
   5 -23  -6  101.99   10.80
  -5 -23   6   95.59    9.20
   5 -23  -6   82.19   11.40
   5  23   6  109.29   18.30
   0 -24   6   10.30    4.60
   0 -24  -6   11.00    5.20
   0  24  -6   20.00    4.60
   0 -24   6   18.90    6.70
  -2 -24  -6   14.80    6.40
   2  24  -6   29.20    7.30
   2 -24   6   14.30    4.40
   2 -24   6    9.20    4.80
   2 -24  -6   26.20    5.70
   2 -24  -6    4.20    5.10
  -2 -24   6    4.50    5.00
  -2 -24   6   16.20    4.60
   2  24   6   29.10    5.90
  -4 -24  -6   18.80    7.40
   4 -24   6   12.00    6.30
   4 -24   6    7.30    4.90
   4 -24  -6   18.40    6.00
  -4 -24   6    5.90    6.70
   4 -24  -6    7.00    5.10
  -4 -24   6    8.30    5.50
   4  24   6   10.90    7.00
   1 -25   6    8.80    4.60
   1 -25   6    3.80    4.90
   1  25  -6   11.20    5.50
  -1  25   6   11.50    5.20
  -1 -25   6    3.40    4.30
  -1  25  -6   11.40    4.20
  -1 -25   6    0.50    4.70
   1  25   6    9.90    4.60
   3 -25   6    0.60    3.70
   3  25  -6   -3.60    4.90
  -3 -25  -6   12.80    5.30
   3 -25   6    6.80    4.90
  -3 -25   6   15.80    5.40
   3 -25  -6    6.10    6.20
   3 -25  -6   -7.70    4.70
   3  25   6    9.40    5.10
   0 -26   6   32.50    7.80
   0  26  -6   28.80    6.20
   0 -26   6   27.70    7.70
   0 -26  -6   44.30   10.10
   0  26   6   54.59    7.10
   0   0   7    0.80    0.70
   0   0   7    3.60    1.60
   0   0   7    3.00    1.60
   0   0  -7    2.20    1.80
  -2   0  -7    0.50    0.80
   2   0   7    3.20    1.50
   2   0   7    1.60    1.20
  -2   0   7    0.60    1.30
   2   0  -7    3.90    2.00
   2   0   7    2.00    1.40
  -2   0   7    3.20    1.50
  -2   0   7    0.50    1.00
   2   0   7    1.20    1.20
  -2   0  -7    1.00    0.90
  -2   0   7    3.10    1.60
  -4   0  -7    1.60    1.10
   4   0   7   -0.40    1.50
  -4   0  -7    0.00    1.10
  -4   0   7    2.60    2.60
   4   0   7    1.10    1.40
   4   0  -7    1.10    1.90
   4   0   7    0.30    1.30
  -4   0  -7    2.30    1.30
  -4   0   7   -0.80    1.30
   6   0   7   -1.80    1.50
  -6   0   7    0.90    1.80
   6   0  -7    0.20    1.70
  -6   0  -7   -0.60    1.20
  -6   0   7   -1.70    1.60
   6   0   7    3.30    2.10
   6   0   7    1.40    1.60
  -8   0   7    0.80    1.90
  -8   0  -7    2.30    2.50
   8   0  -7    0.80    1.70
   8   0   7    1.10    1.40
   8   0   7   -0.40    2.10
  -8   0   7   -0.10    2.00
   8   0   7    2.70    1.80
  10   0  -7    0.10    2.90
  10   0   7   -0.10    1.90
 -10   0  -7    1.80    2.80
 -10   0   7   -4.40    1.90
  10   0   7   -2.70    3.00
  10   0   7   -0.30    1.90
  -1  -1  -7  100.79    4.00
   1   1  -7  111.09    7.30
  -1   1   7   99.29    5.70
  -1   1   7  100.99    6.20
   1  -1   7  102.59    5.90
  -1   1   7   95.19    5.50
   1  -1   7  101.39    6.60
   1  -1   7  116.69    5.60
  -1   1   7  100.59    6.50
  -1  -1  -7  101.39    4.90
  -1  -1   7  109.19    4.50
  -1  -1   7   98.79    5.30
  -1  -1   7   97.99    4.70
  -1   1  -7  100.79    4.60
   1   1   7   93.49    6.50
  -1  -1   7  101.79    6.70
   1   1   7   97.69    4.90
  -1   1  -7   96.39    5.30
   1  -1  -7  100.29    6.80
   1   1   7  106.89    5.40
  -1  -1   7  105.99    6.10
  -3   1   7   13.60    3.50
   3  -1   7   10.60    2.60
   3  -1   7    8.20    2.60
   3   1  -7    8.10    2.70
   3  -1   7   10.90    3.10
  -3  -1  -7    7.50    1.80
   3  -1   7    9.70    2.70
  -3   1   7    9.30    2.50
  -3   1   7   10.60    2.60
  -3   1   7    8.50    2.70
  -3  -1  -7    9.80    2.10
  -3  -1  -7   10.40    2.10
   3   1   7   11.30    1.90
   3   1   7   10.70    2.40
  -3  -1   7    9.70    2.60
   3  -1  -7   11.50    3.40
  -3   1  -7    8.10    3.00
   3   1   7    8.30    2.50
  -3   1  -7   10.00    2.20
  -3  -1   7    6.40    2.70
   3   1   7    9.90    2.80
   5   1  -7   74.59    6.70
  -5  -1  -7   59.69    4.70
  -5   1   7   62.59    5.30
  -5   1   7   72.89    4.80
  -5  -1  -7   67.39    5.20
   5  -1   7   64.69    6.00
   5  -1   7   70.09    6.00
   5  -1   7   66.19    5.70
  -5   1  -7   64.39    5.40
   5   1   7   63.99    5.90
   5  -1  -7   72.39    6.30
  -5   1  -7   68.09    4.90
  -5  -1   7   75.79    6.40
   5   1   7   65.69    5.40
  -5  -1   7   68.59    7.90
   5   1   7   65.89    6.10
   7   1  -7   43.10    5.40
   7  -1   7   35.80    6.20
   7  -1   7   36.90    6.70
  -7   1   7   25.10    5.70
   7  -1   7   33.30    4.40
   7  -1  -7   32.50    4.70
   7   1   7   36.50    6.10
   7   1   7   30.20    5.80
  -7   1  -7   37.80    4.80
  -7  -1   7   29.50    3.90
  -7  -1   7   25.90    6.10
   7   1   7   34.30    4.20
  -9   1   7   -0.30    2.00
   9  -1   7   -2.00    2.30
  -9  -1  -7   -0.30    2.00
   9  -1   7   -0.30    2.00
   9   1  -7    3.90    2.40
   9  -1   7   -0.20    1.30
  -9   1   7   -2.00    2.00
   9   1   7   -1.60    1.40
   9   1   7    0.50    2.50
  -9  -1   7    2.60    2.10
   9  -1  -7    4.80    2.60
  -9   1  -7    1.20    1.60
  11  -1   7   20.70    5.00
  11   1  -7   18.50    5.70
 -11  -1  -7    2.70    3.90
  11   1   7   15.70    4.30
  11   1   7   13.20    4.10
 -11   1  -7   14.90    4.40
   0   2   7 4277.67  100.89
   0   2   7 4379.86  104.39
   0   2  -7 4450.05  101.89
   0   2   7 4579.74  101.59
   0  -2  -7 4430.86  100.79
   0  -2   7 4560.94  102.79
   0  -2   7 4269.67  103.99
   0   2  -7 4353.86  104.79
   0   2  -7 4357.06   98.59
   0  -2   7 4598.04  100.69
   0   2   7 4503.65  100.69
  -2   2   7 2150.88   54.19
  -2   2   7 2072.49   53.99
   2  -2   7 2215.08   53.29
   2  -2   7 2219.18   52.49
  -2  -2  -7 2072.69   50.19
  -2  -2  -7 2140.59   49.60
   2   2  -7 2110.89   55.19
  -2  -2  -7 2177.38   50.49
  -2   2   7 2070.99   53.69
   2  -2   7 2074.19   54.09
  -2  -2   7 2091.89   51.49
  -2  -2   7 2207.28   53.59
   2   2   7 2151.08   53.29
   2   2   7 2203.38   51.79
  -2   2  -7 2135.79   52.09
  -2  -2   7 2049.59   54.59
   2   2   7 2140.89   50.09
  -2  -2   7 2002.50   54.19
   2  -2  -7 2112.79   53.99
  -2   2  -7 2107.19   51.39
  -2  -2   7 2200.08   49.90
   4  -2   7 2044.10   52.79
   4  -2   7 1962.30   52.89
   4  -2   7 2077.79   51.69
  -4  -2  -7 1940.51   51.09
  -4  -2  -7 2016.50   49.00
   4   2  -7 2057.49   54.59
  -4   2   7 1985.50   52.19
   4  -2   7 2103.99   52.89
  -4  -2  -7 2106.99   50.59
  -4   2   7 2126.39   53.69
   4   2   7 2053.09   49.99
  -4  -2   7 2106.29   53.39
  -4  -2   7 1862.51   52.79
   4   2   7 2079.19   52.99
   4   2   7 2147.49   52.89
   4  -2  -7 2054.99   52.79
   4  -2  -7 2003.10   54.89
  -4   2  -7 1968.10   51.59
   4   2   7 1968.30   49.30
  -6   2   7  698.23   24.60
   6  -2   7  837.32   25.90
  -6   2   7  848.42   24.40
   6  -2   7  805.22   27.80
  -6  -2  -7  797.92   24.60
  -6  -2  -7  843.02   26.30
   6  -2   7  818.42   27.60
  -6   2   7  855.31   29.30
   6   2   7  819.12   25.70
  -6  -2   7  827.32   29.10
   6   2   7  839.82   27.90
  -6  -2   7  839.62   25.80
   6  -2  -7  797.42   26.10
  -6   2  -7  766.12   25.50
   6   2   7  823.42   27.30
  -6   2  -7  852.01   25.20
   6  -2  -7  800.62   30.10
  -8   2   7  253.77   15.80
  -8   2   7  241.88   13.20
   8  -2   7  229.88   14.10
   8   2  -7  266.57   14.60
  -8  -2  -7  269.97   14.10
   8  -2   7  237.38   13.90
   8  -2   7  240.88   12.00
  -8  -2   7  219.28   14.90
   8   2   7  231.28   14.00
   8  -2  -7  238.88   15.80
  -8  -2   7  250.77   13.00
   8   2   7  240.68   13.30
   8   2   7  244.08   12.90
  -8   2  -7  256.27   13.30
   8  -2  -7  254.67   14.70
 -10   2   7  165.68   13.90
  10  -2   7  169.98   13.00
  10  -2   7  147.89    9.30
  10   2  -7  158.68   11.20
 -10   2  -7  159.58   11.40
  10   2   7  148.69   10.50
  10   2   7  148.49   10.50
 -10  -2   7  151.08   13.20
   1  -3   7  480.75   15.30
   1   3  -7  497.75   18.00
  -1   3   7  465.25   15.70
   1  -3   7  460.45   16.80
   1  -3   7  492.65   16.50
  -1   3   7  468.95   17.10
  -1  -3  -7  487.65   15.00
  -1   3   7  483.45   16.30
   1  -3  -7  488.75   16.10
  -1  -3   7  453.65   16.90
   1   3   7  473.65   14.60
  -1   3  -7  475.45   15.60
  -1  -3   7  499.85   16.60
   1   3   7  498.05   16.50
   1   3   7  502.75   14.10
  -1  -3   7  499.85   14.50
  -1   3  -7  468.25   14.40
   1   3   7  477.95   14.70
  -1  -3   7  459.85   13.80
  -1   3  -7  471.45   17.40
  -3   3   7  479.65   17.20
   3  -3   7  470.45   17.40
  -3   3   7  474.85   18.30
  -3  -3  -7  473.45   15.50
   3  -3   7  506.85   17.80
  -3   3   7  474.35   18.20
   3  -3   7  528.55   16.80
   3   3  -7  514.25   19.20
   3  -3   7  519.65   17.30
  -3  -3  -7  517.75   16.00
   3   3   7  504.15   15.30
  -3   3  -7  471.55   18.70
  -3  -3   7  465.35   18.70
   3  -3  -7  491.05   17.40
   3  -3  -7  511.55   18.70
  -3  -3   7  516.65   18.10
  -3   3  -7  498.55   16.90
  -3  -3   7  508.35   17.10
   3   3   7  511.15   16.90
  -3  -3   7  472.75   18.10
   3   3   7  511.65   17.80
  -5   3   7  101.79    7.00
  -5  -3  -7  117.89    5.90
  -5   3   7  110.69    5.70
   5  -3   7  103.19    7.30
   5  -3   7  107.49    8.10
  -5  -3  -7  116.59    7.40
   5  -3   7  106.89    7.80
  -5   3   7  104.39    8.20
   5   3  -7  115.99    8.80
   5  -3   7  110.59    7.00
   5  -3  -7   99.09    6.90
  -5   3  -7  110.99    6.60
   5   3   7   94.29    6.90
   5   3   7  114.39    8.20
   5   3   7  111.99    7.90
  -5  -3   7  121.49    7.50
  -5   3  -7  113.99    6.20
   5   3   7  108.39    6.30
   5  -3  -7  115.49    9.30
   7   3  -7   86.99    8.10
   7  -3   7   81.59    7.50
  -7   3   7   87.59    6.20
  -7   3   7   80.59    8.30
  -7   3   7   66.39    5.90
  -7  -3  -7   92.09    7.70
   7  -3   7   76.09    7.90
   7  -3   7   85.59    6.40
   7   3   7   77.49    7.60
   7   3   7   85.69    6.60
  -7  -3   7   89.79    8.80
   7  -3  -7   78.79    8.60
   7  -3  -7   81.99    6.50
  -7   3  -7   89.89    6.90
  -7  -3   7   85.09    7.00
   7   3   7   89.99    7.90
   9  -3   7   21.20    3.90
   9   3  -7    9.10    3.50
  -9   3   7   19.00    5.70
   9  -3   7   32.10    4.40
   9  -3   7   18.00    5.00
  -9   3   7   16.20    3.50
   9  -3  -7   13.70    4.80
   9   3   7   21.80    6.70
  -9   3  -7   21.50    5.20
   9   3   7   19.20    4.10
   9   3   7   19.00    4.60
  -9  -3   7   18.00    5.50
  11   3  -7   -0.50    3.40
 -11  -3  -7    2.00    4.00
 -11   3   7  -13.70    5.70
 -11  -3   7    1.60    5.00
  11   3   7    0.60    3.30
 -11   3  -7    1.80    3.60
   0  -4   7   94.29    5.50
   0   4   7  100.19    6.10
   0  -4   7   95.99    6.40
   0   4   7   96.79    6.60
   0   4  -7   88.29    5.70
   0   4  -7   96.69    7.10
   0  -4  -7   94.89    6.00
   0   4   7   98.39    5.10
   0   4   7   99.39    4.70
   0   4   7   90.59    5.80
   0   4  -7   90.49    4.60
   0  -4   7  103.09    6.60
   2  -4   7   51.79    4.60
  -2   4   7   51.79    4.60
   2   4  -7   45.40    3.60
   2  -4   7   52.49    4.50
  -2  -4  -7   51.99    4.30
   2   4  -7   49.99    5.50
   2  -4   7   52.19    5.00
  -2   4   7   43.90    4.40
  -2  -4  -7   49.50    3.60
  -2   4   7   46.00    4.60
  -2   4  -7   49.00    3.90
   2   4   7   51.19    4.70
  -2  -4   7   45.60    4.60
   2  -4  -7   51.49    4.80
   2   4   7   56.19    4.00
  -2   4  -7   54.59    4.40
   2   4   7   52.09    4.10
  -2  -4   7   49.99    4.70
  -2  -4   7   55.49    3.90
  -2  -4   7   50.29    4.10
   4   4  -7   76.79    7.10
   4  -4   7   85.09    7.00
   4  -4   7   75.39    5.50
  -4  -4  -7   79.19    5.90
   4  -4   7   78.59    6.30
  -4   4   7   79.29    5.70
   4  -4   7   74.39    6.80
   4   4   7   77.69    6.20
   4  -4  -7   74.99    7.10
  -4  -4   7   83.19    6.60
  -4   4  -7   72.79    5.50
  -4  -4   7   73.79    6.50
   4   4   7   73.09    5.20
  -4   4  -7   76.29    4.70
   4  -4  -7   76.19    5.80
  -4   4  -7   70.59    5.80
   4   4   7   74.59    6.40
  -6  -4  -7   35.40    3.40
   6   4  -7   39.60    5.70
  -6   4   7   44.00    4.00
  -6   4   7   32.10    6.30
   6  -4   7   39.40    7.00
   6  -4   7   33.50    4.80
  -6  -4  -7   32.20    4.50
   6  -4   7   37.00    4.00
   6  -4   7   35.20    4.30
   6   4   7   36.60    3.70
  -6  -4   7   35.50    4.50
  -6   4  -7   31.70    3.90
  -6  -4   7   36.50    7.30
   6  -4  -7   40.50    4.30
   6   4   7   37.90    5.10
  -6   4  -7   31.20    3.80
   6   4   7   35.00    5.00
   6  -4  -7   38.80    7.60
   8  -4   7    5.30    3.70
   8  -4   7    4.20    2.20
  -8   4   7    4.40    2.00
   8  -4   7    1.30    1.80
  -8  -4  -7    6.00    3.00
  -8   4   7    2.30    2.60
   8   4  -7    3.90    2.60
  -8  -4   7    1.60    2.30
   8   4   7    1.10    2.60
  -8   4  -7    4.30    2.30
  -8  -4   7    6.80    3.00
   8  -4  -7    2.30    3.20
   8   4   7    5.10    2.00
   8   4   7    0.50    2.80
 -10  -4  -7   15.10    4.50
  10  -4   7   22.50    5.70
 -10   4   7   17.70    6.10
 -10   4  -7   15.70    4.70
  10   4   7   16.90    4.00
  10  -4  -7   23.80    6.20
 -10  -4   7   24.40    7.00
  10   4   7   15.30    4.70
  -1   5   7  856.11   24.30
   1  -5   7  895.91   25.10
  -1   5   7  874.11   26.40
  -1   5   7  842.22   26.10
   1   5  -7  854.21   25.60
   1  -5   7  823.12   25.80
   1   5  -7  853.11   22.70
  -1  -5  -7  888.11   25.50
  -1   5  -7  869.61   26.00
  -1  -5   7  886.01   26.40
   1   5   7  872.01   23.00
  -1   5  -7  833.72   23.90
   1   5   7  844.92   24.90
  -1  -5   7  828.22   26.50
   1   5   7  873.71   25.40
  -1   5  -7  892.41   27.10
   1  -5  -7  872.81   26.30
  -1  -5   7  877.21   24.30
  -1  -5   7  884.81   23.40
  -3  -5  -7  533.75   17.30
   3  -5   7  599.14   21.00
   3  -5   7  597.24   19.80
   3  -5   7  549.25   19.30
  -3  -5  -7  579.04   19.20
   3   5  -7  595.34   21.90
  -3   5   7  573.74   21.40
  -3   5   7  571.94   19.20
  -3   5   7  554.84   20.20
   3   5   7  571.54   20.00
  -3   5  -7  561.34   18.90
  -3   5  -7  557.04   19.50
  -3  -5   7  613.04   19.70
   3   5   7  579.34   18.40
   3  -5  -7  593.74   20.90
  -3  -5   7  590.14   20.40
   3   5   7  602.04   19.20
  -3  -5   7  607.04   18.20
   5  -5   7  333.87   14.30
  -5   5   7  335.97   13.40
   5  -5   7  361.06   15.70
  -5  -5  -7  363.46   15.30
   5   5  -7  378.56   17.60
   5  -5   7  368.66   13.70
  -5   5   7  378.16   16.80
  -5   5   7  374.86   12.20
   5  -5  -7  376.36   17.90
  -5  -5   7  375.26   15.50
   5  -5  -7  356.96   13.70
   5   5   7  370.26   15.90
  -5  -5   7  353.66   16.20
  -5   5  -7  375.36   12.90
  -5   5  -7  342.47   13.40
   5   5   7  334.97   14.00
  -5  -5   7  357.06   16.10
   5   5   7  377.86   16.40
   7  -5   7  112.59    9.90
  -7   5   7  118.29    7.30
   7  -5   7  121.29    7.20
   7   5  -7  121.79   10.20
  -7   5   7  134.19   10.80
   7  -5   7  124.59    9.20
  -7  -5  -7  125.09    9.40
   7   5   7  116.29    7.00
  -7  -5   7  132.29   10.80
  -7   5  -7  124.69    8.00
   7  -5  -7  146.09   11.90
  -7  -5   7  122.69    9.00
   7   5   7  118.99    9.40
   9   5  -7   50.59    6.60
  -9   5   7   50.29    5.60
  -9   5   7   74.59    8.60
   9  -5   7   49.60    9.10
  -9  -5  -7   53.19    6.80
   9  -5   7   41.30    6.00
   9  -5  -7   62.89    8.60
  -9   5  -7   57.49    6.10
   9   5   7   49.60    7.10
  -9  -5   7   51.09    9.20
   9   5   7   43.00    6.20
  11   5  -7    7.20    4.30
  11  -5   7    8.60    4.50
 -11  -5  -7   14.10    4.90
 -11   5   7    5.50    4.60
  11   5   7    6.10    4.00
 -11   5  -7    7.00    4.10
 -11  -5   7    7.90    5.90
 -11  -5   7   17.20    7.60
   0   6   7  505.35   18.00
   0   6   7  513.85   15.00
   0   6  -7  506.85   19.10
   0   6  -7  499.15   17.50
   0  -6   7  528.35   17.10
   0   6   7  529.85   14.50
   0  -6   7  560.04   19.00
   0  -6   7  511.95   15.20
   0  -6  -7  520.65   18.40
   0   6   7  524.75   17.20
   2  -6   7 1614.34   42.20
   2   6  -7 1555.24   40.30
  -2  -6  -7 1668.33   42.80
  -2  -6  -7 1549.84   38.40
   2  -6   7 1528.55   42.10
  -2   6   7 1639.74   42.80
   2   6  -7 1604.14   45.10
   2  -6   7 1609.94   43.80
  -2  -6  -7 1520.85   38.30
  -2   6   7 1554.44   42.10
  -2   6  -7 1476.65   44.30
  -2  -6   7 1431.86   42.90
  -2   6  -7 1543.75   42.40
  -2  -6   7 1629.94   43.40
   2   6   7 1644.14   43.00
   2  -6  -7 1668.43   42.70
  -2  -6   7 1604.14   41.30
  -2   6  -7 1623.84   43.50
   2  -6  -7 1612.84   44.40
  -2  -6   7 1669.93   41.30
   2   6   7 1641.54   40.80
   2   6   7 1584.64   41.80
   4  -6   7  333.07   12.40
   4   6  -7  310.17   18.00
   4  -6   7  311.77   15.00
  -4   6   7  285.87   12.20
   4  -6   7  283.37   12.40
   4  -6   7  330.97   14.10
  -4  -6  -7  310.97   13.70
   4   6   7  321.77   13.90
   4  -6  -7  324.37   15.50
  -4  -6   7  328.17   14.40
  -4   6  -7  292.97   13.00
  -4  -6   7  330.27   13.20
  -4   6  -7  327.27   10.80
   4   6   7  302.17   12.80
  -4   6  -7  295.67   11.30
   6  -6   7  344.37   14.20
  -6  -6  -7  379.86   17.00
   6  -6   7  373.06   18.30
   6   6  -7  384.86   18.80
   6  -6   7  363.66   16.60
  -6   6   7  382.76   13.60
   6  -6   7  368.76   13.70
  -6   6   7  380.66   18.40
   6  -6  -7  353.06   18.90
  -6   6  -7  324.17   14.50
  -6  -6   7  384.96   16.90
  -6   6  -7  384.16   14.40
  -6  -6   7  382.36   17.50
  -6  -6   7  378.36   18.20
   6   6   7  387.46   17.70
   8  -6   7  202.68   12.60
  -8   6   7  224.48   15.20
  -8  -6  -7  218.48   13.60
   8   6  -7  211.18   14.20
  -8   6   7  209.78   11.00
   8  -6   7  214.28   14.70
   8   6   7  219.38   14.10
   8   6   7  203.88   13.30
  -8   6  -7  235.98   12.20
  -8  -6   7  178.68   12.40
  -8  -6   7  200.48   14.60
  -8  -6   7  217.38   14.00
   8  -6  -7  211.58   15.70
 -10  -6  -7   31.50    6.50
  10  -6   7   32.40    6.60
  10   6  -7   32.20    6.20
 -10   6   7   24.30    6.40
 -10  -6   7   25.40    6.90
  10  -6  -7   32.70    7.60
 -10   6  -7   40.00    6.80
 -10  -6   7   31.60    7.30
  10   6   7   39.20    7.20
   1   7  -7   48.00    3.70
  -1   7   7   46.30    3.90
  -1   7   7   45.60    4.10
   1   7  -7   56.39    5.90
  -1  -7  -7   64.69    5.90
   1   7  -7   47.30    4.50
   1  -7   7   52.69    5.30
  -1   7   7   47.30    4.60
   1  -7   7   57.39    5.60
   1  -7   7   59.19    5.10
  -1   7  -7   48.40    4.10
  -1   7  -7   50.09    5.40
  -1   7  -7   40.10    4.30
  -1  -7   7   41.20    4.70
  -1  -7   7   51.69    4.60
  -1  -7   7   44.30    4.00
   1  -7  -7   49.40    4.30
   1   7   7   44.50    4.50
  -1  -7   7   51.49    5.40
   1   7   7   54.49    5.00
   1  -7  -7   54.09    5.60
   1   7   7   46.50    3.90
   3   7  -7  233.08   10.60
  -3  -7  -7  244.58   12.10
   3  -7   7  248.38   11.80
   3   7  -7  247.68   13.50
   3  -7   7  262.27   13.20
   3  -7   7  235.68   10.70
  -3   7   7  241.88    9.50
  -3   7   7  252.87   10.90
  -3   7   7  230.38   11.60
  -3  -7   7  246.08   12.30
   3   7   7  245.18   11.20
   3  -7  -7  254.17   12.50
  -3  -7   7  248.28   11.70
   3  -7  -7  252.07   13.40
   3   7   7  253.37   12.40
  -3  -7   7  243.38   10.80
  -3   7  -7  238.18   11.00
   3   7   7  221.88   10.80
   5  -7   7   25.90    6.60
  -5   7   7   17.50    2.90
   5  -7   7   21.10    4.70
  -5  -7  -7   21.00    5.00
   5  -7   7   18.30    3.30
   5  -7   7   21.50    3.80
   5   7  -7   10.30    4.20
  -5  -7   7   16.50    3.90
   5   7   7   17.60    4.90
  -5   7  -7   13.20    3.00
  -5  -7   7   12.50    4.20
   5  -7  -7   18.30    5.30
  -5  -7   7   15.20    4.10
  -5   7  -7   18.80    3.30
  -7   7   7   56.79    5.00
  -7   7   7   55.69    7.40
   7  -7   7   47.90    5.90
  -7  -7  -7   53.29    6.50
   7   7  -7   61.49    7.50
   7  -7   7   57.59    9.80
  -7  -7   7   52.79    6.50
   7  -7  -7   50.69    7.30
   7   7   7   58.89    7.10
  -7   7  -7   49.60    5.30
   7   7   7   54.49    6.70
  -7  -7   7   49.90    7.10
  -7  -7   7   54.09    6.80
  -9  -7  -7   14.20    4.70
  -9   7   7    9.30    3.90
   9  -7   7   14.20    3.50
   9  -7   7    9.10    4.40
   9   7  -7    9.20    4.80
  -9  -7   7    9.50    4.10
  -9  -7   7   10.90    4.70
   9  -7  -7    6.10    3.80
  -9   7  -7   13.30    3.50
   9   7   7    3.50    3.40
   9   7   7    8.50    3.30
 -11   7   7   -0.80    3.00
  11   7  -7    7.50    4.70
 -11  -7  -7   -0.30    3.80
 -11  -7   7   -3.20    3.00
  11  -7  -7    2.30    4.00
  11   7   7    3.40    3.50
 -11   7  -7   -0.80    3.50
 -11  -7   7   -0.10    4.00
   0   8   7   81.89    6.60
   0   8   7   84.19    5.00
   0   8   7   86.99    6.10
   0  -8   7   91.29    5.70
   0  -8   7   91.59    6.50
   0   8  -7   83.69    4.80
   0   8  -7   99.89    7.70
   0  -8   7   97.29    7.30
   0  -8   7   78.89    6.00
   0   8  -7   84.29    5.60
   0  -8  -7   89.79    7.40
   2  -8   7  324.37   13.50
  -2  -8  -7  369.96   15.50
   2   8  -7  318.17   12.60
   2  -8   7  347.57   14.40
   2   8  -7  332.77   15.90
  -2   8   7  349.77   12.50
  -2   8   7  329.67   13.40
  -2   8   7  357.06   14.10
   2  -8   7  348.97   15.70
  -2  -8  -7  352.56   15.50
  -2  -8   7  373.56   14.20
  -2  -8   7  341.37   13.80
   2   8   7  314.67   14.00
   2  -8  -7  343.67   14.00
  -2   8  -7  366.76   15.20
   2   8   7  345.87   14.60
  -2   8  -7  321.27   13.40
  -2  -8   7  365.36   15.40
   2  -8  -7  350.16   16.20
   2   8   7  349.77   13.30
  -4   8   7   29.50    3.40
   4  -8   7   31.30    4.60
   4  -8   7   33.70    3.70
  -4  -8  -7   28.20    5.30
  -4   8   7   31.90    2.70
   4   8  -7   34.40    6.70
   4  -8   7   27.90    5.80
  -4  -8   7   30.70    4.20
  -4  -8   7   34.50    6.20
   4  -8  -7   34.50    7.70
  -4  -8   7   36.40    5.00
   4   8   7   34.50    6.20
  -4   8  -7   35.30    3.50
   6  -8   7   20.20    5.90
  -6  -8  -7   19.30    5.40
   6   8  -7   19.90    5.70
   6  -8   7   22.70    4.80
  -6   8   7   20.50    3.60
   6   8   7   20.10    5.20
  -6  -8   7   28.60    5.90
  -6  -8   7   31.50    5.90
  -6   8  -7   27.20    3.50
  -6  -8   7   21.80    5.90
  -6   8  -7   22.80    4.60
   6   8   7   24.80    5.70
  -6  -8   7   22.90    5.20
   6  -8  -7   28.10    6.40
   8   8  -7    5.40    3.40
  -8   8   7    4.30    2.30
  -8   8   7    2.10    3.60
   8  -8   7    4.80    2.40
  -8  -8  -7    7.70    3.20
   8  -8   7    2.90    2.50
  -8  -8   7    1.80    5.20
  -8  -8   7    4.40    2.80
   8   8   7    6.90    3.00
  -8   8  -7    7.10    2.90
   8   8   7    2.30    2.80
   8  -8  -7   10.00    6.30
  10  -8   7    6.20    4.10
 -10   8   7    3.30    3.10
  10   8  -7    6.20    3.50
 -10  -8   7    5.30    4.10
  10  -8  -7    8.70    4.20
  10   8   7    1.70    3.10
 -10  -8   7    6.30    3.50
   1   9  -7  558.94   18.20
  -1   9   7  597.04   18.90
   1  -9   7  632.84   20.90
   1  -9   7  562.14   18.40
  -1   9   7  604.84   16.90
  -1  -9  -7  625.04   22.40
   1  -9   7  553.34   19.60
  -1   9   7  562.84   17.90
   1  -9   7  579.94   21.50
   1   9  -7  613.54   22.60
   1  -9  -7  606.64   22.90
  -1   9  -7  545.75   19.20
  -1   9  -7  599.74   21.50
  -1  -9   7  613.94   20.30
   1   9   7  607.64   20.30
  -1   9  -7  564.84   17.10
   1  -9  -7  574.54   18.40
  -1  -9   7  575.94   19.50
   1   9   7  605.94   18.90
   1   9   7  523.55   20.70
   3  -9   7  392.16   16.10
  -3   9   7  370.46   12.90
  -3  -9  -7  412.96   17.40
   3   9  -7  389.16   18.20
  -3  -9  -7  383.16   13.50
   3  -9   7  390.36   17.70
   3  -9   7  357.16   14.20
  -3   9   7  370.86   14.40
   3  -9  -7  393.86   16.50
  -3  -9   7  374.86   16.80
  -3  -9   7  402.26   17.30
  -3  -9   7  389.16   16.30
   3  -9  -7  373.86   20.60
   3   9   7  364.76   19.10
  -3   9  -7  339.27   16.20
  -3   9  -7  365.76   13.20
   3   9   7  387.36   16.70
   5  -9   7  285.87   14.10
   5   9  -7  283.27   16.20
  -5   9   7  272.77   10.50
   5  -9   7  273.57   15.80
  -5  -9  -7  266.87   14.60
   5  -9  -7  291.67   16.10
   5   9   7  269.17   14.80
  -5  -9   7  286.27   14.70
   5   9   7  277.27   14.40
  -5  -9   7  265.97   14.70
  -5  -9   7  295.47   13.70
  -5   9  -7  272.47   14.00
  -5   9  -7  294.27   11.60
  -7  -9  -7  154.48   11.60
   7  -9   7  116.99    9.30
   7   9  -7  149.69   12.00
  -7   9   7  125.09    7.60
   7  -9   7  136.19   12.10
  -7   9   7  135.09   11.60
  -7  -9   7  142.79    9.90
   7   9   7  132.39   10.60
   7  -9  -7  131.89   11.80
  -7  -9   7  119.19   10.70
  -7  -9   7  131.59   10.60
  -7  -9   7  135.89   10.50
   7   9   7  135.69   11.10
  -7   9  -7  143.99    8.80
   9   9  -7   76.09    8.70
  -9  -9  -7   73.09    8.30
  -9   9   7   81.09    9.50
   9  -9   7   59.69    8.60
  -9   9  -7   73.79    7.10
  -9  -9   7   69.89    9.00
   9  -9  -7   70.29    9.40
  -9  -9   7   76.99    8.30
  -9  -9   7   81.89    8.30
   9   9   7   80.39    8.60
   0  10  -7 1007.60   31.80
   0 -10  -7  985.70   32.80
   0  10   7  983.80   29.00
   0 -10   7 1002.80   30.10
   0 -10   7  955.50   28.90
   0  10  -7  974.20   27.40
   0 -10   7 1010.50   31.70
  -2  10   7 1182.48   36.30
  -2  10   7 1258.97   31.40
   2 -10   7 1186.18   33.40
   2  10  -7 1115.69   33.70
  -2 -10  -7 1189.98   31.30
  -2  10   7 1254.17   32.90
   2 -10   7 1127.29   33.70
  -2  10   7 1212.18   34.90
   2 -10   7 1226.18   37.90
   2 -10   7 1282.57   36.40
  -2 -10  -7 1251.57   38.20
   2  10   7 1260.27   35.00
   2 -10  -7 1242.08   35.10
  -2  10  -7 1151.08   32.10
  -2 -10   7 1245.38   35.60
   2  10   7 1246.98   41.30
  -2  10  -7 1276.07   36.50
   2 -10  -7 1233.78   40.60
  -2 -10   7 1251.37   36.00
  -4 -10  -7  565.14   23.00
   4  10  -7  568.14   24.10
   4 -10   7  515.15   18.10
   4 -10   7  608.64   22.10
  -4 -10  -7  545.05   19.00
  -4  10   7  553.94   17.20
   4 -10   7  593.34   24.10
   4  10   7  590.34   22.00
  -4 -10   7  590.74   21.20
  -4 -10   7  594.84   22.40
  -4  10  -7  552.74   19.10
   4  10   7  579.44   22.70
   4 -10  -7  589.74   23.20
  -4 -10   7  608.74   23.10
   4 -10  -7  572.64   24.70
   6  10  -7  368.96   19.70
   6 -10   7  356.56   19.50
  -6 -10  -7  366.66   18.50
  -6  10   7  341.97   13.40
   6 -10   7  350.06   16.80
   6  10   7  370.26   18.00
  -6 -10   7  355.46   17.50
  -6 -10   7  343.57   16.10
   6  10   7  366.16   18.40
  -6  10  -7  370.06   14.70
   6 -10  -7  356.26   19.40
  -6 -10   7  331.47   17.80
  -6 -10   7  336.67   17.50
  -8  10   7  165.48   13.70
   8 -10   7  175.28   14.10
  -8  10   7  161.88    9.60
   8 -10   7  141.29   10.80
   8  10  -7  162.18   13.40
  -8 -10  -7  187.38   13.60
   8 -10  -7  176.48   14.20
  -8 -10   7  162.08   12.90
   8  10   7  151.78   12.10
  -8 -10   7  175.28   14.80
  -8 -10   7  172.88   14.20
  -8  10  -7  157.98    9.90
  10 -10   7   39.10    9.50
 -10  10   7   56.69   11.10
  10  10  -7   29.10    7.70
 -10 -10  -7   29.30    6.80
  10 -10  -7   43.50   10.10
 -10 -10   7   41.40    7.30
  10  10   7   38.50    7.80
 -10 -10   7   39.50    8.30
 -10 -10   7   50.49    6.40
 -10  10  -7   32.00    5.20
   1  11  -7  106.29    6.60
   1 -11   7  102.59    7.40
   1 -11   7  121.99    8.40
   1  11  -7  109.29    9.10
   1 -11   7  100.19    8.00
  -1  11   7   97.69    6.00
  -1 -11  -7  113.69    9.30
  -1  11   7  106.19    6.70
   1 -11   7  105.49    8.70
  -1  11   7  108.19    6.00
  -1 -11   7  116.69    8.00
   1  11   7  112.99    7.90
  -1 -11   7  115.99    8.80
  -1  11  -7  112.09    8.60
  -1  11  -7  111.89    6.40
   1 -11  -7  104.29    6.50
  -1 -11   7  110.59    7.90
  -3  11   7   29.20    3.10
  -3 -11  -7   31.50    6.60
   3 -11   7   27.60    5.30
   3  11  -7   26.00    5.90
   3 -11   7   24.90    4.10
  -3 -11  -7   23.70    3.20
   3 -11   7   28.80    6.10
  -3  11   7   23.00    4.20
   3 -11   7   26.90    3.90
  -3  11   7   24.60    2.90
  -3  11  -7   29.90    5.60
   3 -11  -7   25.70    5.50
   3 -11  -7   33.00    8.10
  -3  11  -7   29.50    3.40
  -3 -11   7   21.80    4.80
   3  11   7   27.50    5.60
  -3 -11   7   32.10    6.70
  -3 -11   7   33.40    6.80
   5  11  -7   77.69    8.90
  -5 -11  -7   88.69    8.70
  -5 -11  -7   62.09    6.10
   5 -11   7   72.39    8.40
   5 -11   7   82.99    7.20
  -5  11   7   69.09    5.10
   5 -11  -7   72.89    8.20
  -5 -11   7   72.49    7.80
  -5  11  -7   69.99    7.10
   5  11   7   78.09    8.00
  -5 -11   7   72.69    7.30
  -5 -11   7   73.29    6.90
   7 -11   7   14.80    4.30
   7 -11   7   12.10    5.10
   7  11  -7   16.40    5.40
  -7 -11  -7   23.80    5.10
  -7  11   7   16.80    3.70
  -7 -11  -7   15.70    5.20
  -7  11  -7   10.40    3.40
   7  11   7   19.00    5.30
  -7 -11   7   21.40    5.80
   7 -11  -7   17.70    5.70
  -7 -11   7   15.30    4.00
  -7 -11   7   12.20    5.60
  -9 -11  -7   14.70    5.70
  -9  11   7   20.20    6.20
   9 -11   7   17.80    4.80
   9  11  -7   23.40    6.20
   9  11   7   16.20    5.10
  -9 -11   7   12.30    4.90
  -9  11  -7   14.10    4.30
  -9 -11   7   16.30    4.00
   9 -11  -7   10.60    5.50
  -9 -11   7   23.30    6.20
   0 -12   7   44.50    5.30
   0 -12  -7   56.49    7.20
   0  12   7   44.90    4.90
   0 -12   7   45.00    6.00
   0 -12   7   48.90    5.50
   0  12  -7   47.40    4.40
   0  12  -7   58.09    6.50
   2 -12   7  159.98    8.70
  -2 -12  -7  168.88    7.70
   2 -12   7  180.28   10.70
   2 -12   7  177.88    9.90
  -2 -12  -7  175.88   12.20
   2 -12   7  159.58   11.40
  -2  12   7  156.98    8.90
  -2  12   7  169.38   10.40
  -2  12   7  173.58    8.20
   2  12  -7  174.78   12.00
  -2  12   7  174.28    8.60
   2 -12  -7  178.18   12.80
  -2 -12   7  165.88   10.70
  -2  12  -7  147.09    9.40
   2 -12  -7  182.58   10.00
  -2  12  -7  179.48   10.70
  -2 -12   7  187.38   11.10
  -2 -12   7  169.18   11.00
   2  12   7  173.28   10.70
  -4 -12  -7   52.69    5.00
   4 -12   7   50.39    8.80
   4  12  -7   67.39    8.10
  -4 -12  -7   50.09    7.00
  -4  12   7   56.19    4.50
   4 -12   7   51.19    5.90
   4 -12   7   43.80    4.30
  -4 -12   7   54.89    6.50
  -4  12  -7   57.59    5.50
   4  12   7   51.49    6.50
   4 -12  -7   59.09    6.70
  -4 -12   7   62.89    6.90
  -4 -12   7   53.39    6.00
   4 -12  -7   71.79    8.60
   6 -12   7   10.00    3.30
   6  12  -7   10.30    5.10
  -6  12   7   12.70    2.80
   6 -12   7   13.90    5.40
  -6 -12  -7   10.30    4.40
  -6 -12  -7   11.90    3.50
   6  12   7   14.90    5.30
  -6  12  -7   14.00    3.30
  -6 -12   7   23.00    4.70
  -6 -12   7   17.60    4.20
  -6 -12   7   14.60    4.60
   6 -12  -7   12.30    5.00
  -6 -12   7   16.70    5.50
  -8  12   7   23.30    6.10
   8 -12   7   29.80    7.50
  -8 -12  -7   27.20    6.80
  -8 -12  -7   30.50    6.30
   8 -12   7   23.80    6.20
   8  12  -7   53.09    7.30
  -8 -12   7   29.00    5.90
   8  12   7   42.90    8.60
  -8 -12   7   28.50    6.90
  -8 -12   7   29.90    6.00
   8 -12  -7   34.80    8.20
  -8  12  -7   40.30    5.30
  10  12  -7   -6.80    6.60
 -10  12   7   -3.20    3.20
  10 -12   7    5.80    5.00
 -10 -12  -7   -1.10    3.50
  10  12   7    4.50    3.90
 -10  12  -7    7.60    4.10
 -10 -12   7   -2.20    6.80
  10 -12  -7    6.40    4.40
 -10 -12   7   -4.80    4.00
 -10 -12   7   -3.80    2.90
  -1  13   7  329.67   13.70
  -1  13   7  300.97   12.10
  -1 -13  -7  338.77   17.90
   1 -13   7  311.77   14.80
   1  13  -7  342.47   17.00
  -1  13   7  337.37   14.60
   1 -13   7  316.67   15.20
   1 -13   7  333.97   16.80
  -1 -13   7  322.77   15.40
   1 -13  -7  325.87   13.20
  -1  13  -7  326.07   13.40
  -1 -13   7  349.27   15.60
   1 -13  -7  337.27   18.20
  -1  13  -7  347.67   16.30
  -1 -13   7  340.17   16.50
   1  13   7  339.57   15.20
   3  13  -7  180.38   13.10
   3 -13   7  163.08    8.70
   3 -13   7  196.88   11.50
  -3 -13  -7  202.78   12.70
   3 -13   7  199.18   13.40
  -3  13   7  185.98    9.00
   3 -13   7  191.58   10.70
  -3 -13  -7  187.08   13.10
  -3 -13   7  181.98   11.90
   3  13   7  196.38   12.20
  -3 -13   7  186.38   11.90
  -3 -13   7  202.58   11.80
   3 -13  -7  162.88   13.20
  -3  13  -7  186.68   10.60
  -3  13  -7  180.38    9.90
  -5  13   7  201.08    9.90
   5 -13   7  186.78   11.90
   5 -13   7  216.88   14.90
  -5 -13  -7  206.88   16.60
   5  13  -7  208.48   14.80
  -5 -13  -7  188.98   13.70
  -5 -13   7  225.78   13.30
   5  13   7  203.58   13.40
   5 -13  -7  217.88   14.10
  -5 -13   7  201.58   12.30
  -5 -13   7  201.58   13.70
  -7 -13  -7   73.39    7.50
   7  13  -7   79.09    9.50
   7 -13   7   78.09    9.90
  -7  13   7   74.29    5.90
  -7 -13  -7   76.99    9.30
   7 -13   7   74.59    7.60
   7  13   7   66.79    8.10
  -7 -13   7   75.39    7.80
  -7  13  -7   79.39    6.60
  -7 -13   7   70.39    7.60
   7 -13  -7   73.19    9.20
  -7 -13   7   80.59    9.20
   9 -13   7   42.10    9.10
  -9 -13  -7   35.20    8.10
  -9  13   7   33.00    8.10
   9  13  -7   38.10    7.70
  -9  13  -7   44.80   11.10
  -9 -13   7   40.50    9.10
  -9 -13   7   29.40    6.20
   9  13   7   38.70    8.10
  -9 -13   7   41.30    8.00
   9 -13  -7   36.10    9.20
   0 -14   7  266.07   14.20
   0 -14   7  288.17   15.40
   0 -14  -7  278.07   16.50
   0 -14   7  277.87   14.20
   0  14  -7  260.17   14.70
   2 -14   7   60.19    7.30
  -2  14   7   62.69    5.00
   2  14  -7   60.99    7.60
  -2  14   7   58.39    5.30
   2 -14   7   58.39    6.40
  -2 -14  -7   58.59    4.40
   2 -14   7   64.69    6.40
  -2  14   7   68.29    5.30
  -2 -14  -7   71.49    8.50
   2  14   7   59.69    6.60
  -2 -14   7   62.49    7.20
  -2 -14   7   61.39    6.90
  -2 -14   7   68.69    6.90
  -2  14  -7   66.29    6.80
   2 -14  -7   67.49    6.10
   2 -14  -7   51.69    9.30
   4 -14   7  190.48   11.90
   4 -14   7  198.08   14.00
  -4 -14  -7  190.08   13.80
  -4  14   7  183.38    9.60
   4  14  -7  203.58   14.40
  -4 -14  -7  169.58    9.50
  -4 -14   7  185.48   13.10
  -4 -14   7  191.78   12.00
   4 -14  -7  185.68   12.40
   4  14   7  180.88   12.50
   4 -14  -7  186.88   14.40
  -4 -14   7  185.18   12.30
  -6  14   7   40.20    4.40
   6  14  -7   56.79   16.10
   6 -14   7   37.80   10.60
   6 -14   7   37.60    6.70
  -6 -14  -7   38.80    5.70
  -6 -14  -7   41.20    8.00
   6 -14  -7   49.80    7.20
   6  14   7   81.29   18.60
  -6 -14   7   46.50    5.90
  -6 -14   7   51.69    9.80
  -6 -14   7   33.40    6.70
   8  14  -7   42.80    8.80
  -8 -14  -7   64.89   11.20
   8 -14   7   61.59    8.90
  -8  14   7   44.10    9.70
  -8 -14   7   50.39    9.00
  -8  14  -7   64.09    6.20
   8  14   7   63.79    8.40
   8 -14  -7   60.09    8.30
  -8 -14   7   59.99    7.10
  -8 -14   7   48.50    6.80
   1 -15   7   69.09    7.90
   1  15  -7   74.89    7.90
   1 -15   7   62.59    6.60
  -1  15   7   52.09    4.60
   1 -15   7   60.79    6.90
  -1  15   7   54.59    5.10
  -1  15   7   64.99    5.70
  -1 -15  -7   58.09    7.90
   1 -15  -7   66.79    8.60
  -1 -15   7   55.49    6.90
   1 -15  -7   69.89    5.50
   1  15   7   59.89    6.20
  -1 -15   7   65.99    7.30
  -1 -15   7   54.29    6.40
  -1  15  -7   69.09    7.20
   3 -15   7   62.69    6.60
   3  15  -7   55.59    7.80
  -3 -15  -7   56.49    7.80
  -3 -15  -7   54.29    5.20
  -3  15   7   43.70    4.60
   3 -15   7   57.29    6.50
   3 -15   7   52.59    7.50
  -3 -15   7   49.90    6.40
   3 -15  -7   55.09    6.60
  -3  15  -7   55.99    5.80
   3  15   7   64.99    7.10
  -3 -15   7   45.00    6.50
   3 -15  -7   47.70    9.10
  -3 -15   7   63.69    7.20
  -5  15   7   68.79    5.90
  -5 -15  -7   70.79    7.00
   5 -15   7   79.69    9.40
   5  15  -7   80.79    9.50
   5 -15   7   65.79    7.00
  -5 -15  -7   61.29    8.50
  -5 -15   7   75.69    7.80
  -5 -15   7   70.99    8.50
   5  15   7   71.79    8.10
   5 -15  -7   76.59    8.30
  -5 -15   7   73.09    7.50
   7 -15   7   21.90    6.80
   7  15  -7   22.40    6.80
  -7 -15  -7   31.40    8.00
   7 -15  -7   28.80    7.00
  -7 -15   7   33.20    7.40
  -7  15  -7   33.80    6.20
  -7 -15   7   29.30    5.80
  -7 -15   7   30.20    8.20
   7  15   7   25.80    7.00
  -9  15   7   18.90    6.10
   9  15  -7   16.20    5.60
  -9 -15  -7   14.40    6.20
   9 -15   7   19.00    5.70
  -9 -15   7   16.20    4.80
  -9  15  -7   12.30    4.70
   9  15   7   11.20    5.50
  -9 -15   7   29.00    7.80
  -9 -15   7   15.70    4.80
   9 -15  -7   31.50   10.00
   0  16  -7   48.70    6.50
   0 -16   7   39.60    7.50
   0 -16   7   39.20    5.50
   0  16   7   40.70    4.90
   0 -16   7   33.80    7.10
   0 -16  -7   37.30    7.50
   2  16  -7   38.90    8.10
  -2 -16  -7   38.10    4.10
  -2  16   7   49.99    4.60
   2 -16   7   52.59    6.10
  -2  16   7   52.09    7.20
  -2 -16  -7   29.20    6.80
   2 -16   7   46.60    5.80
   2 -16   7   33.90    7.60
  -2 -16   7   46.00    6.50
  -2 -16   7   35.60    7.10
   2 -16  -7   45.50   10.20
  -2 -16   7   46.70    9.10
   2 -16  -7   49.99    5.60
   2  16   7   45.40    5.90
  -4 -16  -7   11.60    3.20
   4 -16   7   11.60    4.10
  -4  16   7   14.60    3.40
  -4 -16  -7   11.00    4.50
   4  16  -7   11.30    4.60
   4 -16   7    9.50    4.80
   4 -16   7   15.00    3.90
  -4 -16   7    6.30    3.40
  -4 -16   7    6.40    2.90
  -4 -16   7    6.90    3.10
   4  16   7   18.40    4.60
   4 -16  -7    6.10    4.20
   4 -16  -7   10.10    4.00
  -6  16   7   10.60    3.30
   6 -16   7    9.40    5.40
  -6 -16  -7   11.90    4.70
   6 -16   7    9.40    3.80
   6  16  -7   14.00    5.00
   6  16   7   18.80    5.70
  -6 -16   7    8.20    3.90
  -6 -16   7   21.00    4.80
  -6 -16   7   10.30    4.20
   8 -16   7   24.50    5.90
   8  16  -7   20.60    6.60
  -8 -16  -7   16.70    5.20
   8  16   7   11.80    4.20
  -8 -16   7   13.30    4.80
  -8 -16   7   13.70    4.30
  -8 -16   7   15.70    5.90
   8 -16  -7   17.30    7.00
  -1  17   7  376.96   15.60
   1 -17   7  374.86   19.40
   1 -17   7  357.76   17.40
   1 -17   7  344.57   17.90
  -1  17   7  342.97   15.20
   1  17  -7  370.66   19.10
  -1 -17  -7  350.76   20.50
   1 -17  -7  329.27   20.20
  -1 -17   7  354.46   17.50
  -1  17  -7  372.76   18.00
   1 -17  -7  347.47   14.60
  -1 -17   7  367.56   18.80
  -1 -17   7  359.96   18.80
   1  17   7  368.66   17.20
  -3 -17  -7  297.47   12.90
   3 -17   7  323.67   16.60
   3 -17   7  343.67   16.60
  -3  17   7  321.17   14.50
  -3 -17  -7  330.57   19.90
   3 -17   7  327.17   18.90
   3  17  -7  308.97   18.70
  -3  17  -7  329.77   15.30
  -3 -17   7  329.37   17.50
  -3 -17   7  313.07   18.30
   3 -17  -7  323.37   16.30
  -3 -17   7  353.06   17.40
   3  17   7  343.27   17.70
   3 -17  -7  314.77   20.20
   5 -17   7  196.78   15.30
   5 -17   7  186.38   12.20
  -5  17   7  183.48   10.40
  -5 -17  -7  159.38   16.40
   5  17  -7  181.58   14.80
   5  17   7  172.88   13.20
   5 -17  -7  218.88   14.60
  -5 -17   7  149.59   15.90
  -5 -17   7  187.58   12.60
  -5 -17   7  196.38   13.10
   5 -17  -7  174.18   15.10
  -7 -17  -7  111.59   11.40
   7  17  -7  110.29   11.90
   7 -17   7   98.79   11.50
  -7 -17   7  109.39    9.50
  -7 -17   7  103.99    9.10
  -7 -17   7   99.59   10.50
  -7  17  -7   95.89    8.20
   7 -17  -7  112.49   11.10
   7  17   7  101.69   10.60
   0  18  -7   89.19    8.50
   0 -18   7   70.99    7.90
   0  18   7   77.59    7.00
   0 -18  -7   48.90    9.40
   0 -18   7   64.09    7.50
   0 -18   7   81.09    8.50
  -2  18   7   94.19    7.70
   2 -18   7   91.69    8.30
  -2 -18  -7   87.89   10.10
   2 -18   7   77.19    8.90
   2 -18   7   87.19    8.20
   2  18  -7   93.19    9.50
  -2  18   7   79.89    6.70
   2 -18  -7   79.09   10.10
  -2 -18   7   68.49    8.70
  -2  18  -7   84.59    8.00
   2 -18  -7   78.89    7.10
  -2 -18   7   91.79    8.70
  -2 -18   7   80.99    8.10
   2  18   7   92.19    8.50
   4  18  -7   35.10    8.30
   4 -18   7   41.70    9.10
   4 -18   7   37.60    5.20
   4 -18   7   37.50    6.60
  -4 -18  -7   28.80   11.60
  -4 -18   7   31.80    8.50
  -4 -18   7   41.90    7.70
   4 -18  -7   44.20   10.70
   4 -18  -7   38.60    7.90
   4  18   7   43.50   10.80
  -4 -18   7   42.20    8.20
  -6 -18  -7   56.19   11.10
   6 -18   7   34.50    8.50
   6  18  -7   36.30    8.30
   6  18   7   53.39    7.70
   6 -18  -7   47.00    8.80
  -6 -18   7   49.80    6.20
  -6 -18   7   41.60    9.10
  -6 -18   7   35.60   10.60
   8 -18   7   18.40    4.90
   8  18  -7   12.70    6.30
  -8 -18  -7   -2.00    5.70
  -8 -18   7    9.00    4.80
  -8 -18   7   22.10    5.60
   8 -18  -7   11.70    6.20
  -8  18  -7   14.50    4.50
   8  18   7    6.80    5.30
  -8 -18   7    3.40    4.10
   1 -19   7   25.60    5.80
  -1  19   7   35.40    4.20
  -1 -19  -7   23.80    7.50
  -1  19   7   22.20    4.80
   1 -19   7   31.70    6.90
   1  19  -7   32.80    7.60
   1 -19   7   27.70    6.40
   1 -19  -7   19.10    7.10
   1 -19  -7   33.30    4.30
  -1  19  -7   35.50    7.20
  -1 -19   7   37.30    8.30
  -1 -19   7   30.80    7.60
  -1 -19   7   32.50    7.00
   1  19   7   24.10    5.70
   3 -19   7   54.49    6.60
  -3  19   7   41.50    5.70
   3 -19   7   39.10    7.70
   3 -19   7   58.19    7.80
  -3 -19  -7   42.60    9.40
   3  19   7   57.49    7.40
   3 -19  -7   50.99    6.30
  -3 -19   7   56.59    7.10
  -3 -19   7   51.19    7.30
   3 -19  -7   39.10    9.00
  -3 -19   7   39.00    7.50
  -5 -19  -7    9.20    4.10
   5 -19   7    5.50    4.30
   5  19  -7   11.30    5.50
   5 -19  -7    7.90    3.60
   5 -19  -7    5.60    4.90
  -5 -19   7   12.60    3.80
  -5 -19   7    7.80    4.30
   5  19   7    9.20    3.60
  -5 -19   7    1.50    3.90
  -7 -19  -7   19.60    6.30
  -7 -19   7    8.60    4.80
   7  19   7   33.60   13.00
   7 -19  -7   24.30    6.70
  -7 -19   7   37.20    7.00
  -7  19  -7   15.00    4.10
  -7 -19   7    2.30    5.60
   0 -20   7  159.08   12.60
   0  20   7  187.38   11.50
   0 -20   7  176.98   12.70
   0  20  -7  177.28   12.50
   0 -20   7  169.48   13.20
   0 -20  -7  151.68   14.00
  -2 -20  -7   16.10    5.30
  -2  20   7    8.40    2.90
   2 -20   7   15.10    5.30
   2  20  -7   13.40    4.70
   2 -20   7    8.90    3.70
   2 -20   7    5.50    4.40
  -2  20  -7    6.70    3.00
  -2 -20   7    1.00    2.90
   2  20   7   14.10    3.90
   2 -20  -7   12.00    3.60
  -2 -20   7   11.30    3.80
  -2 -20   7   10.80    4.00
   2 -20  -7   18.10    6.10
   4 -20   7   78.69    8.00
   4 -20   7   73.49    9.20
   4  20  -7   86.09   10.10
  -4 -20  -7   66.89    9.70
   4 -20   7   65.09   12.20
  -4 -20   7   65.19    7.90
   4  20   7   70.79    8.60
   4 -20  -7   76.59    7.70
  -4 -20   7   75.29    7.80
  -4 -20   7   79.29    9.30
   4 -20  -7   69.49   10.10
   6 -20   7   22.50    6.00
  -6 -20  -7   21.80    6.50
   6  20  -7   19.50    5.20
  -6 -20   7   18.90    5.90
  -6 -20   7   16.20    5.00
  -6 -20   7   22.30    7.10
   6  20   7   16.90    5.10
   6 -20  -7   24.60    6.60
   1  21  -7  123.19   11.00
   1 -21   7  120.69   11.40
   1 -21   7  106.49    9.80
  -1 -21  -7  110.89   12.10
  -1  21   7  111.79    8.20
   1 -21   7  112.89   10.40
  -1 -21   7  102.29   10.40
  -1  21  -7  130.59   10.30
   1  21   7  131.39    9.70
  -1 -21   7  127.59   10.80
   1 -21  -7  129.49   12.90
  -1 -21   7   94.79    9.30
   1 -21  -7  126.29    8.30
  -3 -21  -7  184.98   15.80
   3 -21   7  177.78   12.60
   3  21  -7  166.28   13.90
   3 -21   7  166.98   12.20
   3 -21   7  186.78   14.90
   3 -21  -7  191.38   12.30
  -3 -21   7  153.28   13.50
  -3 -21   7  179.88   13.00
  -3 -21   7  164.68   12.30
   3  21   7  175.68   13.10
   3 -21  -7  167.78   15.30
   5  21  -7   54.29   10.60
  -5 -21  -7   43.60    9.50
   5 -21   7   62.09    8.70
   5  21   7   52.79    9.50
  -5 -21   7   39.60    7.70
   5 -21  -7   55.79    7.60
  -5 -21   7   29.10    7.70
   5 -21  -7   39.80    9.40
   0 -22   7   13.50    5.40
   0  22  -7   28.20    5.70
   0 -22  -7   27.40    7.80
   0  22   7   25.80    5.40
   0 -22   7   20.30    6.90
   2 -22   7   18.50    6.50
  -2 -22  -7   22.00    7.00
   2 -22   7   11.00    6.00
   2 -22   7   15.30    5.40
  -2 -22   7   23.80    6.60
   2 -22  -7   12.40    4.30
  -2 -22   7   20.50    4.80
   2  22   7   18.00    4.70
  -2  22  -7   32.30    5.30
   2 -22  -7   13.30    5.90
  -2 -22   7   17.90    5.30
   4 -22   7    7.80    3.50
  -4 -22  -7    5.10    4.30
   4  22  -7    7.60    3.90
   4 -22   7    4.10    5.20
   4 -22  -7   13.00    4.80
  -4 -22   7   11.20    4.20
   4 -22  -7    8.20    4.60
  -4 -22   7   21.30    6.40
   4  22   7    4.90    3.80
  -4 -22   7   14.10    5.20
   1  23  -7   13.50    4.00
   1 -23   7   10.50    4.60
   1 -23   7    7.60    4.80
  -1  23   7   15.90    3.90
  -1 -23  -7   14.40    5.20
  -1 -23   7    5.30    4.40
  -1 -23   7    8.20    4.50
  -1  23  -7   11.30    3.70
   1 -23  -7   43.70   12.60
  -1 -23   7   18.90    5.30
   1  23   7    8.30    4.30
   3  23  -7    8.80    4.90
   3 -23   7    6.20    4.10
  -3 -23  -7    6.40    5.30
   3 -23   7   14.10    4.80
   3 -23  -7   22.80    7.10
  -3 -23   7    8.60    5.10
   3 -23  -7   17.20    4.90
  -3 -23   7    6.50    5.60
   3  23   7    5.50    4.00
  -3 -23   7   15.50    4.30
   5 -23   7   13.10    5.10
   5  23  -7   -5.10    4.40
  -5 -23  -7    9.60    4.70
   5 -23  -7    6.70    5.10
  -5 -23   7    7.30    4.60
   5  23   7   -2.90    4.10
  -5 -23   7    7.50    4.60
   5 -23  -7    7.30    4.90
   0 -24   7   80.09   13.10
   0  24  -7   80.59    8.50
   0 -24   7   64.89    9.00
   0 -24  -7   79.39   10.90
   0  24   7   87.39    8.10
  -2 -24  -7   28.30    9.20
   2 -24   7   36.70    7.50
   2  24  -7   36.80    8.10
   2 -24   7   48.30    9.60
  -2 -24   7   42.30    7.80
   2  24   7   56.89    7.30
  -2 -24   7   19.90    7.40
  -2  24  -7   46.00    7.40
   2 -24  -7   39.30    7.50
   2 -24  -7   53.79   12.20
   4 -24   7   29.40    7.00
   4 -24   7   83.19    9.70
  -4 -24  -7   63.79   10.70
   4  24  -7   47.90    9.40
   4 -24  -7   74.29   11.00
  -4 -24   7   57.89    8.00
   4  24   7   50.79    9.90
   4 -24  -7   45.20   10.10
  -1 -25  -7  113.09   13.50
   1  25  -7  102.39   10.60
   1 -25   7  100.39   11.80
   1 -25   7  118.49   12.00
   1  25   7  111.29    9.80
  -1 -25   7  132.69   12.10
  -1 -25   7  104.19   11.60
   1 -25  -7  131.89   14.10
  -1  25  -7  118.59    9.80
   0   0   8  596.04   21.90
   0   0   8  613.64   16.60
   0   0   8  593.14   18.40
   2   0   8 2562.54   60.39
  -2   0   8 2569.34   61.69
   2   0  -8 2446.66   63.39
  -2   0   8 2521.95   61.39
  -2   0   8 2496.45   59.89
  -2   0   8 2432.76   63.99
   2   0   8 2546.45   61.79
   2   0   8 2429.76   63.39
  -2   0  -8 2371.26   58.49
  -2   0  -8 2506.55   59.29
   2   0   8 2527.35   60.19
   4   0   8  697.43   22.40
  -4   0  -8  654.13   20.10
  -4   0  -8  658.43   18.60
  -4   0   8  604.84   22.20
   4   0   8  633.34   20.80
   4   0  -8  653.03   23.20
   4   0   8  683.43   22.20
  -4   0   8  691.63   22.70
  -6   0   8  465.65   20.30
   6   0   8  467.35   18.50
  -6   0  -8  464.85   16.80
   6   0  -8  465.95   19.70
   6   0   8  452.15   18.20
  -6   0   8  463.35   16.40
   6   0   8  467.85   19.30
   8   0   8  304.87   15.60
  -8   0   8  307.37   17.70
   8   0   8  299.67   14.90
  -8   0  -8  327.47   15.40
   8   0  -8  306.27   15.60
  -8   0   8  369.56   22.60
  10   0   8   41.40    7.30
 -10   0   8   31.90    7.00
  10   0   8   42.90    7.70
 -10   0  -8   41.10    7.20
  10   0  -8   56.89    6.50
  10   0   8   43.70    5.50
   1   1  -8  576.04   20.40
  -1   1   8  590.44   18.00
  -1   1   8  566.44   17.70
   1  -1   8  585.74   17.10
  -1   1   8  558.94   18.70
  -1   1   8  555.54   19.90
   1  -1   8  593.44   18.20
  -1  -1   8  591.04   18.60
   1   1   8  575.34   16.50
  -1  -1   8  565.44   16.90
   1   1   8  565.04   22.00
  -1  -1   8  582.74   15.70
   1   1   8  571.64   17.20
  -1  -1   8  540.15   15.80
   1  -1  -8  557.84   19.90
  -1   1  -8  566.34   17.20
  -1   1  -8  541.45   15.40
  -3  -1  -8  259.77    9.50
   3   1  -8  260.57   12.70
   3  -1   8  234.28   11.80
   3  -1   8  273.47   11.70
  -3   1   8  252.77   11.10
  -3   1   8  253.97   11.90
   3  -1   8  267.27   11.30
  -3   1   8  230.58   12.10
  -3   1   8  254.27   13.50
   3  -1   8  276.87   11.40
  -3  -1  -8  248.98    9.90
   3  -1  -8  265.57   12.40
   3   1   8  248.48    9.90
  -3  -1   8  233.88   11.80
  -3  -1   8  267.87   11.20
   3   1   8  259.87   11.70
  -3   1  -8  237.18   10.00
   3   1   8  262.57   11.10
  -3   1  -8  243.08   10.10
   5  -1   8  399.16   16.30
   5  -1   8  410.66   16.20
  -5   1   8  436.56   18.00
  -5  -1  -8  402.46   14.50
  -5  -1  -8  387.46   14.20
  -5   1   8  402.56   13.70
   5  -1   8  398.56   16.60
   5   1  -8  396.56   17.40
  -5   1  -8  406.06   13.80
  -5   1  -8  401.26   15.40
   5   1   8  420.26   17.00
   5   1   8  417.76   16.90
   5  -1  -8  400.76   16.80
   5   1   8  398.06   15.20
  -5  -1   8  411.56   17.40
  -5  -1   8  429.26   15.00
  -7   1   8   36.50    4.30
   7   1  -8   50.19    6.00
  -7  -1  -8   48.80    5.30
   7  -1   8   54.69    6.00
  -7   1   8   53.09    6.80
   7  -1   8   45.70    5.90
   7  -1   8   52.09    5.50
  -7   1  -8   45.90    4.90
  -7  -1   8   58.69    8.10
   7   1   8   42.60    6.00
   7   1   8   51.19    5.50
   7  -1  -8   44.40    5.50
  -7  -1   8   53.59    6.90
   7   1   8   47.90    5.60
   9   1  -8  113.29    8.80
  -9   1   8   72.59   10.40
  -9   1   8  101.19   10.50
   9  -1   8  102.69    9.20
  -9  -1  -8  102.09    8.80
   9  -1   8  103.79    7.90
  -9  -1   8  120.29   11.40
   9   1   8  105.89    8.50
   9  -1  -8   98.29    8.00
  -9   1  -8   99.79    8.20
   9   1   8  104.79    8.30
   9   1   8   88.49    8.90
  11  -1   8   11.80    4.60
 -11  -1  -8    7.30    3.30
  11   1  -8   10.60    5.00
 -11   1   8   10.30    4.40
  11  -1   8   11.90    4.80
 -11   1  -8    7.70    4.00
  11   1   8   16.60    4.10
  11   1   8   16.40    4.20
 -11  -1   8   11.20    4.60
   0   2   8  620.64   18.20
   0   2   8  622.84   16.30
   0   2  -8  630.84   21.80
   0   2   8  591.54   18.00
   0   2  -8  610.34   19.00
   0   2   8  612.64   23.40
   0  -2   8  644.74   19.90
   0  -2  -8  613.34   17.90
   0   2   8  642.94   19.00
   0  -2   8  622.84   17.90
   2   2  -8  452.85   17.80
   2  -2   8  476.35   15.60
   2  -2   8  458.55   16.10
  -2   2   8  439.66   16.60
   2  -2   8  430.26   16.90
  -2   2   8  445.56   17.20
  -2   2   8  456.75   16.60
  -2  -2  -8  443.16   13.10
  -2  -2  -8  442.46   13.30
  -2  -2   8  414.56   16.80
   2   2   8  469.15   14.00
   2   2   8  471.95   14.90
   2  -2  -8  445.76   17.00
  -2  -2   8  469.25   13.40
   2   2   8  464.25   16.50
  -2  -2   8  461.95   16.50
  -2   2  -8  432.06   14.20
  -2  -2   8  428.86   14.40
  -2   2  -8  437.06   15.00
   2   2   8  431.16   17.30
  -4  -2  -8  302.17   10.80
   4  -2   8  324.37   13.70
  -4  -2  -8  318.27   11.80
  -4   2   8  298.47   13.30
   4  -2   8  293.97   13.80
  -4   2   8  323.37   14.00
   4  -2   8  318.37   13.20
   4  -2   8  314.57   13.60
   4   2  -8  322.47   15.00
   4   2   8  299.37   11.40
   4   2   8  306.57   13.30
  -4  -2   8  315.17   13.80
  -4   2  -8  312.47   12.50
   4  -2  -8  312.07   13.70
   4   2   8  294.77   10.70
   4   2   8  298.47   13.50
   6  -2   8  110.79    8.40
  -6  -2  -8  114.99    7.60
   6   2  -8  105.59    8.80
   6  -2   8  111.39    7.70
  -6  -2  -8  102.29    6.40
   6  -2   8   97.29    9.60
  -6   2   8  105.69    6.40
  -6   2   8  114.49    9.30
   6   2   8  101.79    8.20
  -6   2  -8  105.79    6.70
  -6  -2   8  116.29    8.50
  -6  -2   8   98.19    8.70
   6  -2  -8   93.29    7.70
   6   2   8  107.49    7.00
   6   2   8  103.09    8.10
   8  -2   8   11.70    3.50
   8  -2   8   18.80    4.00
   8  -2   8   10.80    3.80
  -8  -2  -8    8.40    3.00
  -8   2   8    8.50    2.60
   8   2  -8   13.00    3.50
  -8   2   8   12.30    4.60
  -8   2  -8   12.70    3.50
   8   2   8   19.90    4.10
  -8  -2   8   17.00    4.00
   8   2   8   14.30    3.40
   8   2   8   12.40    3.80
   8  -2  -8   15.70    4.20
  -8  -2   8   14.80    4.80
 -10   2   8   19.10    5.40
  10   2  -8   16.60    4.30
  10  -2   8   15.50    3.80
 -10  -2  -8   12.50    5.00
  10  -2   8   21.30    4.80
  10   2   8   11.10    4.60
  10   2   8   13.40    3.90
 -10   2  -8    9.20    3.30
 -10  -2   8   11.80    5.10
  10   2   8   18.20    4.00
  -1   3   8  160.98    8.30
   1  -3   8  172.08    8.80
  -1   3   8  162.98    9.20
   1   3  -8  154.78    9.70
  -1  -3  -8  158.98    7.20
  -1   3   8  158.88    8.00
   1  -3   8  161.28    7.70
   1  -3   8  161.68   10.40
  -1   3  -8  149.19    7.50
  -1  -3   8  156.68    6.50
   1   3   8  157.98    9.20
  -1  -3   8  169.48    8.90
   1  -3  -8  161.18    8.10
   1   3   8  178.48    9.00
  -1  -3   8  154.88    8.90
   1   3   8  160.08    6.60
  -1   3  -8  159.38    9.50
  -1   3  -8  158.78    7.90
   1   3   8  176.88    7.00
   1   3   8  156.78    7.00
  -1  -3   8  165.68    7.20
  -3   3   8  206.68   11.70
  -3  -3  -8  207.98    8.90
  -3   3   8  193.58   10.80
   3  -3   8  212.98   10.70
   3  -3   8  208.08   10.00
   3  -3   8  212.78   10.80
   3   3  -8  207.28   11.70
  -3   3   8  180.78   10.40
  -3  -3   8  200.08   10.50
  -3  -3   8  211.18    9.90
   3   3   8  200.78    7.60
  -3   3  -8  206.38    9.70
   3  -3  -8  200.58   10.40
   3   3   8  208.58    8.20
   3   3   8  192.88   10.20
   3   3   8  224.78   10.00
  -3   3  -8  195.68    9.10
  -3  -3   8  203.48    8.30
  -5  -3  -8  124.29    6.20
   5  -3   8  128.19    8.00
  -5  -3  -8  137.99    8.00
  -5   3   8  127.29    9.20
   5  -3   8  135.89    9.30
   5   3  -8  131.19   10.50
  -5   3   8  115.79    7.60
   5  -3   8  132.29    8.90
   5   3   8  134.69    9.10
   5  -3  -8  135.49    8.50
  -5  -3   8  138.69    9.50
   5   3   8  137.39    9.30
   5  -3  -8  121.09    9.90
  -5  -3   8  146.39    8.40
   5   3   8  141.49    7.20
   7  -3   8   76.69    6.40
  -7   3   8   82.39    8.50
  -7   3   8   75.59    5.80
   7  -3   8   70.49    7.50
   7  -3   8   77.79    7.40
  -7  -3  -8   83.39    7.00
   7   3  -8   76.29    7.90
  -7  -3  -8   64.19    5.50
  -7  -3   8   79.19    8.40
  -7  -3   8   77.19    6.40
   7   3   8   69.99    7.10
   7   3   8   82.19    7.60
   7  -3  -8   73.99    8.60
  -7   3  -8   69.29    6.00
   7  -3  -8   70.99    6.20
   7   3   8   84.69    6.40
  -9  -3  -8   51.89    6.10
   9  -3   8   39.50    7.80
   9  -3   8   51.09    6.10
  -9   3   8   30.20    5.50
   9  -3   8   40.40    4.80
  -9   3   8   42.20    8.30
   9   3  -8   41.20    7.60
  -9   3  -8   44.70    5.10
   9   3   8   46.50    5.20
   9   3   8   57.29    6.40
  -9  -3   8   39.50    7.90
   9   3   8   44.20    6.50
 -11   3   8    6.70    3.80
 -11  -3  -8   17.60    4.80
  11   3  -8   10.20    4.80
  11  -3   8    9.60    4.20
  11   3   8   12.20    4.30
 -11  -3   8    7.00    4.80
 -11   3  -8    8.10    4.30
   0  -4   8  977.80   30.30
   0   4  -8  972.90   30.80
   0   4   8 1072.19   32.20
   0   4   8 1055.59   27.50
   0  -4  -8 1043.90   28.70
   0  -4   8 1032.40   28.00
   0   4   8  996.10   28.50
   0   4   8 1019.80   26.40
   0   4  -8 1038.80   31.50
   0   4   8 1048.50   29.20
   0  -4   8 1054.49   30.00
   0   4  -8  994.00   26.10
  -2   4   8  841.72   26.50
   2  -4   8  922.51   26.00
  -2   4   8  858.71   27.20
  -2   4   8  906.61   27.70
   2  -4   8  928.81   27.40
   2   4  -8  900.61   29.00
   2  -4   8  842.62   27.00
  -2  -4  -8  845.52   22.50
  -2  -4  -8  903.31   25.10
  -2  -4   8  916.81   24.40
  -2  -4   8  867.21   24.60
  -2   4  -8  852.71   25.90
  -2  -4   8  895.71   27.30
  -2   4  -8  830.12   24.40
   2   4   8  859.21   24.00
   2   4   8  901.31   26.90
  -2  -4   8  794.32   27.10
   2   4   8  905.61   24.80
   4   4  -8  543.25   22.10
  -4  -4  -8  570.04   18.90
   4  -4   8  523.85   19.80
   4  -4   8  571.84   21.00
   4  -4   8  588.34   20.40
   4  -4   8  561.34   19.00
   4   4   8  535.35   17.70
   4   4   8  548.15   19.80
   4  -4  -8  575.34   22.00
   4  -4  -8  560.74   19.60
   4   4   8  594.34   24.90
  -4  -4   8  574.44   20.40
  -4  -4   8  568.34   21.00
  -6   4   8  233.98    9.70
   6   4  -8  220.98   13.60
  -6   4   8  195.88   10.20
   6  -4   8  225.98   10.80
  -6  -4  -8  215.88   11.50
   6  -4   8  222.68   12.40
  -6   4   8  218.98   13.20
   6  -4   8  205.68   12.70
   6   4   8  228.78   12.80
   6   4   8  210.98    9.40
   6  -4  -8  219.88   14.10
  -6  -4   8  211.58   11.40
   6  -4  -8  218.88   10.90
  -6   4  -8  233.28   10.10
  -6   4  -8  194.98   11.00
   6   4   8  213.78   12.40
  -6  -4   8  205.48   12.80
  -8  -4  -8  116.59    9.20
   8  -4   8   92.29    9.10
   8  -4   8   91.79    8.80
   8   4  -8  101.09    9.40
  -8   4   8  108.09   10.40
  -8   4   8  105.29    7.40
   8  -4   8  109.29    7.40
  -8   4  -8  103.49    7.70
  -8  -4   8  113.49   10.50
   8   4   8  101.69    7.00
   8   4   8   98.09    8.70
   8  -4  -8   99.89   10.40
   8   4   8  102.49    9.20
  -8  -4   8  114.39    8.70
  10  -4   8   26.80    6.10
 -10   4   8   28.60    6.70
 -10  -4  -8   30.40    6.60
  10   4  -8   31.70    6.10
  10   4   8   31.20    6.00
  10   4   8   29.20    6.70
 -10  -4   8   18.60    6.80
 -10   4  -8   33.00    5.60
   1  -5   8 1027.10   28.00
  -1   5   8  962.60   27.40
   1  -5   8 1014.10   29.70
   1  -5   8  932.01   29.20
   1   5  -8  935.01   24.90
  -1  -5  -8  985.40   28.10
  -1   5   8  973.10   29.10
   1   5   8  940.61   27.40
  -1  -5   8 1015.40   27.30
  -1   5  -8  922.01   26.30
   1  -5  -8 1005.70   29.20
  -1   5  -8  978.70   30.40
  -1  -5   8  961.00   25.60
  -1   5  -8  960.40   28.30
   1   5   8  965.20   28.50
  -1  -5   8 1003.40   29.50
  -1  -5   8  898.01   29.40
   1   5   8  984.80   25.60
   3  -5   8  568.74   19.50
   3  -5   8  535.65   19.50
  -3  -5  -8  534.55   18.40
   3   5  -8  550.64   21.70
  -3   5   8  524.65   20.00
   3  -5   8  572.64   20.70
  -3   5   8  531.75   19.20
   3   5  -8  521.35   17.80
  -3  -5   8  557.44   20.20
   3   5   8  558.74   20.10
   3   5   8  549.65   18.70
  -3  -5   8  576.54   17.80
  -3  -5   8  554.04   18.80
  -3   5  -8  520.05   20.80
   3   5   8  533.15   17.60
   3  -5  -8  546.15   20.20
   5  -5   8  401.26   17.10
  -5  -5  -8  416.16   16.60
  -5   5   8  411.16   17.90
   5  -5   8  376.76   15.90
   5  -5   8  388.86   18.00
   5  -5   8  413.06   15.40
   5   5  -8  398.16   18.90
  -5  -5   8  423.76   17.90
   5  -5  -8  395.36   18.70
  -5  -5   8  406.06   17.70
   5   5   8  356.46   14.70
   5   5   8  386.26   19.10
   5   5   8  434.86   18.00
   7  -5   8  165.58    9.10
  -7   5   8  161.28    8.70
  -7   5   8  174.78   12.50
   7   5  -8  170.38   12.20
  -7  -5  -8  162.38   10.80
   7  -5   8  158.18   11.80
   7  -5   8  178.08   11.40
  -7   5  -8  165.88    9.10
   7  -5  -8  155.28   12.50
  -7  -5   8  168.28   12.60
  -7  -5   8  178.08   12.10
   7   5   8  158.98   11.20
  -7  -5   8  165.28   10.50
   7   5   8  169.98   11.60
  -9   5   8   45.30    8.50
  -9  -5  -8   48.60    6.30
   9  -5   8   50.39    9.70
   9   5  -8   40.90    7.60
  -9   5   8   53.09    9.40
   9  -5   8   51.19    6.90
  -9  -5   8   36.10    7.90
   9   5   8   47.80    6.90
  -9  -5   8   56.89    7.40
   9  -5  -8   53.29    9.90
  -9   5  -8   49.20    5.80
  11   5  -8   21.20    5.40
 -11  -5  -8   24.60    6.20
  11  -5   8    7.70    4.70
 -11   5   8    7.40    4.30
 -11  -5   8    6.70    4.90
 -11  -5   8    7.40    4.60
  11   5   8   15.30    4.80
 -11   5  -8    7.60    4.60
   0   6   8  143.29    8.20
   0  -6  -8  140.89    8.60
   0   6   8  145.19    8.10
   0   6  -8  133.59    6.60
   0   6   8  146.89    6.50
   0  -6   8  153.68    8.00
   0   6   8  140.69    8.70
   0  -6   8  125.79    8.40
   0   6  -8  158.78    9.90
   0  -6   8  141.69    8.60
   0   6  -8  130.79    7.90
   2  -6   8   94.19    7.40
   2   6  -8  100.39    8.20
  -2   6   8   91.99    6.80
   2  -6   8   88.39    6.40
  -2   6   8   86.29    6.90
   2  -6   8   91.59    6.70
   2   6  -8   84.89    5.30
  -2  -6  -8   98.59    6.90
  -2  -6  -8   83.99    4.40
  -2   6   8   91.89    6.20
  -2   6  -8   92.69    7.50
  -2  -6   8   86.49    5.80
   2  -6  -8   87.89    7.40
   2   6   8   83.79    6.60
   2   6   8   86.49    5.70
   2   6   8   87.09    5.90
  -2  -6   8  101.99    7.50
   2  -6  -8   91.59    6.50
  -2   6  -8   84.19    5.80
  -2  -6   8   89.19    6.00
   4  -6   8   90.59    9.20
   4  -6   8   82.09    6.30
   4  -6   8   77.79    6.70
   4  -6   8   85.19    6.20
   4   6  -8   79.09    7.90
  -4  -6  -8   86.19    6.80
  -4   6   8   80.19    6.10
  -4  -6   8   81.19    6.00
   4   6   8   82.09    7.10
  -4  -6   8   84.09    6.90
   4   6   8   77.99    5.80
  -4  -6   8   81.29    7.30
   4  -6  -8   77.99    8.60
   6   6  -8   30.40    6.50
   6  -6   8   31.80    3.70
  -6   6   8   28.40    3.40
  -6  -6  -8   41.80    7.20
   6  -6   8   39.50    7.50
  -6   6   8   28.40    6.00
   6  -6   8   34.20    6.10
   6  -6  -8   22.00    5.90
  -6  -6   8   30.80    6.10
  -6  -6   8   35.60    6.60
   6   6   8   37.20    5.40
  -6  -6   8   37.90    6.30
   6   6   8   34.70    6.60
  -6   6  -8   29.00    3.30
   8  -6   8   14.40    3.70
  -8  -6  -8   18.20    5.40
   8   6  -8   19.40    5.90
   8  -6   8   21.00    5.70
  -8   6   8   22.50    4.40
  -8  -6   8   15.30    4.90
  -8  -6   8   21.40    5.50
  -8  -6   8   31.30    7.30
  -8   6  -8   18.00    3.60
   8   6   8   12.50    4.20
   8   6   8   21.10    5.40
  10   6  -8   23.70    4.90
 -10  -6  -8   25.60    5.50
  10  -6   8   18.30    5.30
 -10   6   8   17.40    5.30
 -10  -6   8   21.80    6.10
  10  -6  -8   27.00    6.50
  10   6   8   15.60    5.10
 -10  -6   8   10.20    4.00
  10   6   8   24.10    5.20
 -10   6  -8   24.30    5.10
   1  -7   8  893.01   26.60
  -1   7   8  824.32   24.60
  -1   7   8  890.41   28.10
  -1   7   8  905.01   25.90
  -1   7   8  859.41   28.00
  -1  -7  -8  901.81   27.70
   1   7  -8  879.71   29.20
   1  -7   8  897.21   28.30
   1   7  -8  873.01   23.70
   1  -7   8  814.32   26.70
   1  -7  -8  881.61   28.30
  -1  -7   8  899.91   26.20
  -1  -7   8  878.61   28.00
  -1  -7   8  861.51   24.60
   1   7   8  902.91   24.30
   1   7   8  886.31   26.90
   1   7   8  830.62   26.60
  -1   7  -8  890.31   28.60
  -1   7  -8  795.12   24.90
   3  -7   8  574.04   21.90
  -3  -7  -8  586.64   20.50
  -3  -7  -8  544.95   17.00
  -3   7   8  557.14   19.60
   3   7  -8  593.44   25.30
   3  -7   8  579.94   20.50
   3   7  -8  519.95   18.40
   3  -7   8  510.55   19.20
   3   7   8  519.25   18.80
   3  -7  -8  565.34   21.00
   3   7   8  553.04   21.50
  -3  -7   8  577.54   20.00
  -3  -7   8  607.84   26.90
  -3  -7   8  557.84   19.80
   5  -7   8  346.97   14.50
   5  -7   8  381.66   14.30
   5  -7   8  398.36   17.10
   5  -7   8  390.66   18.70
  -5   7   8  347.37   14.10
   5   7  -8  382.36   18.80
  -5  -7  -8  382.96   16.80
   5   7   8  384.16   17.00
  -5  -7   8  394.96   17.80
  -5  -7   8  372.86   17.30
   5  -7  -8  373.76   18.50
  -5  -7   8  397.76   15.80
   5   7   8  394.46   17.90
   7  -7   8  198.28   12.40
   7   7  -8  182.18   13.40
  -7  -7  -8  194.38   12.70
   7  -7   8  198.88   14.00
  -7   7   8  203.18    9.80
  -7   7   8  230.98   14.80
   7   7   8  191.18   12.70
  -7  -7   8  185.88   13.50
   7   7   8  202.08   13.00
  -7  -7   8  202.58   13.10
  -7   7  -8  205.58   10.30
  -7  -7   8  180.28   11.90
   7  -7  -8  183.18   14.00
   9  -7   8   61.89   10.90
   9  -7   8   60.99    7.00
  -9  -7  -8   57.29    7.70
  -9   7   8   59.39    8.20
   9   7  -8   57.49    7.60
   9   7   8   55.19    7.50
  -9  -7   8   46.30    9.40
   9  -7  -8   55.79    8.10
  -9  -7   8   56.69    7.50
   9   7   8   65.29    7.50
  -9   7  -8   58.39    6.10
   0  -8   8  935.71   26.90
   0   8  -8 1032.50   32.30
   0   8  -8  974.10   25.80
   0   8   8  996.30   29.10
   0   8   8  935.51   30.40
   0   8   8  954.20   25.40
   0   8   8  999.10   26.20
   0  -8  -8 1031.80   31.60
   0  -8   8 1042.80   29.70
   0  -8   8 1008.20   31.20
  -2  -8  -8   24.30    5.20
   2   8  -8   21.70    2.80
  -2  -8  -8   21.30    2.30
   2   8  -8   25.90    6.00
   2  -8   8   21.60    4.70
  -2   8   8   21.10    3.00
   2  -8   8   24.20    5.00
   2  -8   8   25.70    4.60
   2  -8  -8   21.30    5.40
   2   8   8   23.20    4.50
  -2   8  -8   26.90    5.50
  -2  -8   8   23.80    4.30
   2   8   8   23.10    4.80
  -2  -8   8   20.70    4.40
  -2  -8   8   27.90    5.20
   2  -8  -8   18.40    4.10
  -4  -8  -8  382.96   16.80
  -4   8   8  339.97   14.00
   4  -8   8  371.66   16.30
   4  -8   8  386.96   18.00
   4   8  -8  376.56   18.50
  -4   8   8  376.96   13.10
   4  -8   8  339.97   14.20
  -4  -8   8  369.86   15.10
  -4  -8   8  359.06   16.80
   4   8   8  378.26   17.00
   4  -8  -8  355.36   17.20
   4   8   8  388.36   16.20
   6  -8   8  102.79    6.20
   6  -8   8   88.59    7.70
   6  -8   8   88.99    9.10
   6  -8   8   83.49    6.30
   6   8  -8   96.39    9.50
  -6  -8  -8  106.79    8.90
  -6   8   8   90.19    5.60
  -6  -8   8   93.99    8.70
  -6   8  -8   99.29    6.30
  -6  -8   8  106.29    8.00
  -6   8  -8   90.39    6.60
  -6  -8   8   96.49    8.60
  -6  -8   8   96.59    8.70
   6  -8  -8   92.49    9.50
   6   8   8  105.59    9.10
   6   8   8   93.99    8.50
  -8  -8  -8   37.20    7.10
   8  -8   8   24.90    6.70
  -8   8   8   31.00    4.20
   8   8  -8   37.20    7.90
  -8   8   8   31.50    7.70
   8  -8   8   36.50    5.30
  -8  -8   8   21.70    5.00
  -8   8  -8   39.60    4.50
   8   8   8   29.50    6.80
  -8  -8   8   37.10    5.10
   8   8   8   28.30    9.40
   8  -8  -8   39.50    7.90
 -10  -8  -8   43.50    8.50
 -10   8   8   50.39   10.50
  10  -8   8   42.10    9.20
  10   8  -8   32.30    7.60
 -10  -8   8   43.50    7.40
  10  -8  -8   28.50    7.90
 -10  -8   8   46.40    9.50
 -10  -8   8   60.39    7.40
 -10   8  -8   42.80    6.10
  10   8   8   39.00    7.60
   1  -9   8   11.70    4.20
  -1   9   8   10.40    2.80
  -1   9   8   13.10    3.50
   1   9  -8   10.90    2.30
  -1   9   8   15.70    2.10
  -1  -9  -8   10.20    4.10
  -1   9   8    7.90    2.70
   1   9  -8   11.30    4.10
   1  -9   8   13.10    3.90
   1   9   8   12.80    3.00
  -1  -9   8   16.00    3.80
  -1  -9   8   12.70    3.50
  -1   9  -8    8.40    2.00
   1  -9  -8   11.20    2.60
  -1   9  -8   12.70    4.20
   1   9   8   10.20    3.40
  -1  -9   8    6.60    3.40
   1  -9  -8   12.10    4.30
   1   9   8   14.50    3.70
   3  -9   8    0.40    2.00
  -3  -9  -8    1.20    2.00
  -3   9   8    0.90    1.10
   3   9  -8   -0.40    2.00
   3  -9   8    1.80    2.00
   3  -9   8    1.90    2.10
  -3   9   8    7.50    2.20
   3  -9  -8    0.10    1.50
   3   9   8   -0.90    1.30
   3   9   8    0.50    1.80
  -3  -9   8    2.60    1.80
  -3  -9   8    0.80    2.20
  -3  -9   8    2.00    1.80
   3  -9  -8    0.90    2.30
   5   9  -8    2.20    2.80
  -5  -9  -8    5.10    2.90
  -5   9   8    3.20    1.30
   5  -9   8    7.00    2.20
   5  -9   8    3.20    1.50
   5  -9   8    4.50    2.70
   5  -9   8    7.00    2.30
  -5   9  -8    2.50    1.40
   5   9   8    2.70    2.50
  -5  -9   8    5.10    3.20
   5   9   8    0.50    1.70
  -5  -9   8    2.60    2.50
  -5  -9   8    1.60    1.90
   5  -9  -8    5.40    2.90
   7   9  -8   17.20    5.60
  -7   9   8   15.20    4.70
  -7   9   8   22.70    2.70
   7  -9   8   17.10    5.50
   7  -9   8   10.50    3.30
  -7  -9  -8   17.80    4.60
  -7  -9   8   11.70    3.80
  -7  -9   8   22.40    6.60
  -7  -9   8   16.00    4.50
   7   9   8   15.10    4.70
   7   9   8   19.80    5.10
   7  -9  -8   15.10    4.80
  -7   9  -8   20.70    4.40
  -7  -9   8   21.00    5.50
   9   9  -8    7.00    4.40
  -9  -9  -8   -3.60    2.20
   9  -9   8    2.30    3.50
  -9  -9   8    1.50    2.60
  -9  -9   8    3.10    2.20
   9  -9  -8    4.20    3.40
   9   9   8    3.10    2.10
  -9  -9   8   -1.00    2.50
  -9   9  -8   -1.60    2.20
   0 -10   8  150.18    9.30
   0 -10  -8  139.49   10.20
   0  10   8  143.59    8.50
   0 -10   8  159.58   10.40
   0  10  -8  144.09   10.30
   0 -10   8  124.19    7.90
   0  10  -8  131.49    6.80
   2 -10   8  399.56   16.70
   2  10  -8  392.66   18.70
  -2  10   8  378.66   15.80
   2 -10   8  373.96   13.50
  -2  10   8  383.46   14.20
   2  10  -8  357.16   14.20
  -2  10   8  359.16   14.60
   2 -10   8  323.87   16.20
  -2 -10  -8  385.46   17.70
   2 -10   8  391.06   17.80
  -2 -10   8  393.26   19.80
  -2  10  -8  371.66   12.80
  -2  10  -8  390.96   17.10
  -2 -10   8  393.16   17.40
   2 -10  -8  390.66   18.60
   2  10   8  413.36   15.80
   2 -10  -8  385.16   15.60
   2  10   8  394.16   16.70
  -2 -10   8  401.26   16.20
   4 -10   8   94.09    8.80
   4 -10   8   79.09    5.90
   4  10  -8   88.09    8.90
  -4 -10  -8   88.69    8.20
  -4  10   8   80.29    4.80
   4 -10   8   91.19    7.80
  -4 -10  -8   80.09    5.90
   4  10   8   86.09    7.60
  -4 -10   8   66.79    7.10
   4  10   8   81.69    7.90
  -4 -10   8   87.99    7.90
   4 -10  -8   96.79    8.70
  -4 -10   8   91.49    7.50
  -6  10   8   88.99    5.70
   6 -10   8   97.79   10.00
  -6 -10  -8   90.79    7.10
   6 -10   8   87.89    8.00
  -6 -10  -8   98.09    9.10
   6  10  -8   89.09    9.60
  -6  10  -8   98.09    6.50
  -6 -10   8   90.69    8.60
   6  10   8   90.19    8.80
   6 -10  -8   88.99    9.30
  -6 -10   8   99.59    9.20
   6  10   8   87.79    8.40
  -6 -10   8   87.69    8.80
  -6 -10   8   90.89    7.80
  -8  10   8   35.60    7.80
  -8  10   8   44.70    4.50
   8 -10   8   41.30    9.20
   8  10  -8   45.90    9.50
  -8 -10  -8   44.40    8.40
   8 -10   8   41.20    5.90
  -8 -10   8   53.39    7.60
   8 -10  -8   37.20    8.20
  -8 -10   8   38.30    7.60
  -8 -10   8   49.50    6.30
  -8  10  -8   44.30    4.90
   8  10   8   43.70    6.20
 -10 -10  -8    8.90    5.40
  10 -10   8   15.30    5.10
  10  10  -8    4.40    3.90
 -10  10   8   17.20    6.30
  10  10   8    8.20    4.10
 -10 -10   8   11.30    4.40
 -10  10  -8   16.70    3.60
 -10 -10   8   10.40    5.40
  10 -10  -8   16.80    6.50
 -10 -10   8    2.60    5.70
   1  11  -8  447.86   16.40
  -1 -11  -8  483.75   22.10
   1 -11   8  450.05   16.80
  -1  11   8  499.85   15.60
  -1  11   8  467.25   17.10
   1 -11   8  484.35   19.00
   1 -11   8  494.05   20.70
  -1  11   8  454.05   15.60
   1  11  -8  491.45   21.10
  -1  11  -8  490.95   20.30
  -1 -11   8  468.15   19.90
  -1 -11   8  480.75   18.20
   1 -11  -8  488.15   21.50
  -1 -11   8  496.75   18.90
   1 -11  -8  480.65   16.40
   1  11   8  473.95   20.20
  -1  11  -8  453.35   15.40
  -3  11   8  446.76   14.40
   3 -11   8  439.06   15.80
  -3  11   8  348.97   21.50
   3  11  -8  466.65   21.30
   3 -11   8  455.65   20.80
  -3 -11  -8  435.86   14.90
   3 -11   8  393.66   16.10
  -3  11   8  438.36   15.20
  -3 -11  -8  452.65   20.20
   3 -11   8  459.05   18.80
  -3 -11   8  462.25   18.50
   3  11   8  467.25   18.50
  -3 -11   8  476.95   19.90
   3  11   8  463.85   19.50
   3 -11  -8  468.05   19.00
   3 -11  -8  473.35   21.80
  -3  11  -8  418.96   15.00
  -5 -11  -8  225.48   11.30
   5  11  -8  232.88   15.40
   5 -11   8  231.48   15.20
  -5  11   8  211.88    9.40
  -5 -11  -8  224.48   14.10
   5 -11   8  232.88   13.20
  -5  11  -8  212.48   10.70
   5 -11  -8  247.58   14.80
   5  11   8  216.68   13.20
   5  11   8  231.28   14.20
  -5  11  -8  239.88   10.40
  -5 -11   8  224.08   13.40
  -5 -11   8  217.98   13.70
  -5 -11   8  226.98   12.60
   7 -11   8  145.09   13.70
   7 -11   8  141.09   10.60
  -7 -11  -8  173.78   12.70
  -7 -11  -8  128.99   10.30
   7  11  -8  116.09   14.80
  -7  11   8  144.79    8.20
  -7 -11   8  148.19   11.40
  -7 -11   8  143.89   10.40
   7 -11  -8  156.28   13.00
  -7 -11   8  135.89   12.00
  -7  11  -8  147.79    8.90
   9 -11   8   45.00    9.00
  -9  11   8   57.99   11.50
  -9 -11  -8   47.10    9.10
   9  11  -8   47.40    9.30
  -9 -11   8   53.19    7.50
   9  11   8   59.89    7.60
   9 -11  -8   73.89    9.60
  -9 -11   8   70.79    7.60
  -9 -11   8   55.99    9.80
  -9  11  -8   55.59    6.40
   0 -12   8  314.47   14.70
   0 -12   8  280.37   13.50
   0  12   8  290.37   13.50
   0 -12  -8  304.07   16.60
   0  12  -8  283.37   12.00
   0 -12   8  312.67   15.80
   0  12  -8  304.67   15.70
   2 -12   8  355.06   14.90
  -2  12   8  344.47   15.60
  -2  12   8  356.36   14.60
   2 -12   8  392.26   18.80
  -2  12   8  391.76   13.60
  -2  12   8  397.86   14.70
   2 -12   8  399.46   17.40
   2  12  -8  411.36   19.70
  -2 -12  -8  382.46   18.90
  -2  12  -8  406.96   17.90
   2 -12  -8  406.56   16.10
  -2 -12   8  384.56   17.00
  -2  12  -8  367.16   13.90
   2 -12  -8  402.96   19.90
  -2 -12   8  404.06   18.40
  -2 -12   8  373.36   16.80
   2  12   8  390.06   17.30
  -4 -12  -8  178.88    9.40
  -4 -12  -8  185.08   12.60
  -4  12   8  175.78    8.30
   4 -12   8  171.78   12.70
   4 -12   8  155.38    8.50
   4 -12   8  173.68   11.20
   4  12  -8  173.08   13.00
   4 -12  -8  176.98   13.60
  -4 -12   8  171.78   11.60
  -4 -12   8  176.88   11.00
  -4  12  -8  157.88    8.90
  -4 -12   8  181.68   11.90
   4  12   8  181.58   12.20
   4 -12  -8  183.48   12.10
   6  12  -8  159.38   13.30
  -6 -12  -8  150.98   12.20
   6 -12   8  151.28   12.80
  -6  12   8  148.09    8.10
   6 -12   8  142.39   10.40
  -6 -12   8  157.98   10.80
  -6  12  -8  158.68    8.70
  -6 -12   8  124.19   10.70
  -6 -12   8  148.79   11.90
   6  12   8  143.29   11.60
  -6 -12   8  140.39   10.90
   6 -12  -8  163.78   12.70
  -8  12   8   45.40    8.90
   8  12  -8   60.19    8.60
   8 -12   8   45.50   11.50
  -8 -12  -8   71.79    8.80
   8 -12   8   56.19   10.90
   8 -12  -8   65.79    9.00
   8  12   8   52.29    7.40
  -8 -12   8   65.99    7.60
  -8 -12   8   76.29    9.20
  -8 -12   8   59.89    6.90
  -8  12  -8   74.19    6.30
   1 -13   8  201.38   11.70
   1 -13   8  196.98   12.90
  -1  13   8  180.48    8.60
  -1 -13  -8  192.38   13.40
  -1  13   8  191.28   10.10
   1 -13   8  203.68   11.10
   1  13  -8  199.78   13.10
  -1  13   8  189.08    9.10
  -1  13  -8  190.38   18.20
  -1 -13   8  161.78   10.70
   1 -13  -8  192.18    9.30
   1  13   8  196.38   11.30
   1 -13  -8  179.58   13.10
  -1 -13   8  194.28   11.90
  -1 -13   8  192.08   12.50
  -1  13  -8  184.08    9.20
  -3 -13  -8   85.29    8.80
  -3  13   8   69.69    5.70
   3  13  -8   71.59    8.50
   3 -13   8   78.89    6.50
   3 -13   8   90.69    9.30
  -3 -13  -8   81.89    5.60
   3 -13   8   82.09    7.40
  -3  13   8   82.79    5.60
  -3 -13   8   67.89    7.50
   3  13   8   84.29    8.00
   3 -13  -8   82.29    9.20
  -3  13  -8   91.09    7.70
  -3  13  -8   68.69    5.70
   3 -13  -8   89.69    7.70
  -3 -13   8   93.19    8.60
  -3 -13   8   85.79    7.80
  -5 -13  -8  138.89    9.00
   5 -13   8  174.28   13.60
   5 -13   8  158.58   11.00
   5  13  -8  167.38   13.50
  -5  13   8  148.19    8.10
  -5 -13  -8  151.88   12.10
  -5 -13   8  160.68   11.00
   5 -13  -8  168.08   12.30
   5  13   8  138.29   11.00
  -5 -13   8  143.39   11.60
  -5 -13   8  165.98   11.80
  -7  13   8    4.20    2.30
   7 -13   8    5.50    3.60
   7  13  -8   17.90    5.60
   7 -13   8   -1.70    2.40
  -7 -13  -8    3.60    3.70
  -7 -13   8    7.90    4.50
  -7 -13   8    4.80    3.90
  -7 -13   8   12.10    3.80
  -7  13  -8    5.90    2.80
   7  13   8    6.50    3.80
   7 -13  -8    2.00    2.90
  -9 -13  -8   27.70    6.60
   9  13  -8   22.10    6.60
  -9  13   8   33.20    8.10
   9 -13   8   33.20    7.40
   9 -13  -8   21.60    5.90
  -9  13  -8   17.90    4.30
  -9 -13   8   28.40    7.00
  -9 -13   8   23.00    5.80
   9  13   8   22.60    6.50
  -9 -13   8   33.30    6.80
   0 -14   8  380.66   17.10
   0 -14  -8  364.16   19.70
   0 -14   8  393.06   19.70
   0  14   8  390.96   16.50
   0  14  -8  372.16   18.30
   0 -14   8  388.86   18.80
   2  14  -8  214.58   14.10
  -2  14   8  219.38   10.40
   2 -14   8  211.98   14.10
   2 -14   8  217.78   12.70
   2 -14   8  210.48   11.50
  -2  14   8  206.88   10.00
  -2 -14  -8  216.78   14.40
  -2 -14   8  215.08   13.40
  -2  14  -8  229.18   15.50
  -2  14  -8  188.88   10.40
   2 -14  -8  197.48   14.50
  -2 -14   8  216.98   13.10
   2  14   8  229.18   13.10
   2 -14  -8  212.08   11.30
  -2 -14   8  218.48   12.70
   4 -14   8  196.38   12.40
  -4  14   8  199.88    9.80
  -4 -14  -8  195.28   13.90
  -4 -14  -8  172.78    9.50
   4  14  -8  204.78   14.60
   4 -14   8  195.38   14.20
  -4 -14   8  191.58   12.80
   4 -14  -8  184.58   12.30
   4  14   8  190.28   12.90
   4 -14  -8  194.78   15.00
  -4 -14   8  195.38   12.40
  -4 -14   8  184.28   13.10
   6  14  -8   72.59    9.20
   6 -14   8   84.09    7.80
   6 -14   8   88.59   10.10
  -6 -14  -8   73.19    8.50
  -6  14   8   81.59    6.10
  -6 -14  -8   89.69    9.50
  -6 -14   8   89.29    8.70
   6 -14  -8   89.29    9.40
  -6 -14   8   87.79    9.60
  -6  14  -8   98.99    7.00
   6  14   8   93.19    9.40
  -6 -14   8   98.79    8.80
   8 -14   8   50.89   10.40
  -8 -14  -8   40.30    8.20
  -8  14   8   43.10    9.00
   8  14  -8   45.90    9.60
  -8 -14   8   42.50    6.00
  -8 -14   8   45.80    6.70
  -8  14  -8   54.99    5.50
  -8 -14   8   34.10    7.40
   8  14   8   49.70    9.50
   8 -14  -8   51.39   10.20
   1 -15   8  259.87   13.80
  -1  15   8  245.88   11.60
   1  15  -8  253.57   15.30
   1 -15   8  265.57   15.60
   1 -15   8  264.07   14.20
  -1 -15  -8  256.77   16.50
  -1  15   8  283.07   13.00
  -1  15   8  281.17   15.30
   1 -15  -8  245.68   11.20
  -1 -15   8  229.18   14.30
  -1  15  -8  253.87   14.60
  -1 -15   8  246.68   14.10
   1 -15  -8  262.47   16.80
  -1 -15   8  255.87   14.00
   1  15   8  275.67   14.10
   3 -15   8  286.87   14.10
  -3  15   8  266.17   12.10
   3 -15   8  294.87   17.50
   3  15  -8  266.47   17.10
   3 -15   8  287.67   15.20
  -3 -15  -8  304.57   17.90
  -3 -15  -8  248.18   11.00
  -3 -15   8  292.47   15.50
   3 -15  -8  254.07   17.50
   3 -15  -8  307.87   15.10
   3  15   8  316.77   16.40
  -3 -15   8  295.47   16.40
  -3 -15   8  289.37   16.10
  -3  15  -8  307.07   15.00
  -5  15   8  119.39    7.70
  -5 -15  -8  110.39   11.00
   5  15  -8  131.39   14.60
   5 -15   8  132.49   10.00
   5 -15   8  136.59   13.20
  -5 -15   8  110.89    9.90
  -5 -15   8  125.39   11.20
  -5 -15   8  112.19    9.40
   5  15   8  106.89   10.70
   5 -15  -8  107.69    9.80
   7 -15   8   83.39    9.90
   7  15  -8   95.29   10.60
  -7 -15  -8   90.69   10.00
  -7 -15   8   79.79    8.10
   7  15   8   81.99    9.40
  -7 -15   8   89.49    8.90
   7 -15  -8   86.19    9.80
  -7  15  -8   91.09    7.00
  -7 -15   8   94.99   10.30
   9 -15   8   43.40   10.10
   9  15  -8   35.70    9.20
  -9 -15  -8   40.90   10.70
  -9  15   8   31.80    8.20
   9  15   8   50.19    9.80
  -9 -15   8   47.20    6.90
  -9 -15   8   41.00    9.30
   9 -15  -8   32.40    8.00
   0 -16   8   26.10    5.20
   0 -16  -8   31.80    8.20
   0  16  -8   35.80    7.30
   0 -16   8   32.00    6.60
   0  16   8   33.80    4.60
   0 -16   8   36.30    7.00
  -2  16   8  150.18    8.70
  -2 -16  -8  143.19   12.40
   2 -16   8  143.99   10.40
   2  16  -8  157.28   12.40
  -2  16   8  154.38    8.60
   2 -16   8  142.89   12.00
   2 -16   8  139.39   11.60
  -2 -16   8  160.98   11.10
  -2 -16   8  144.59   11.40
   2 -16  -8  147.29    9.40
   2 -16  -8  151.58   13.00
  -2 -16   8  138.29   10.90
  -2  16  -8  146.99   10.50
   2  16   8  154.58   10.70
   4  16  -8   28.20    7.10
   4 -16   8   51.69   10.20
  -4  16   8   31.30    5.40
  -4 -16  -8   29.30    7.90
  -4 -16  -8   31.50    5.20
   4 -16   8   27.50    5.20
   4 -16  -8   32.90    8.00
   4 -16  -8   35.00    7.00
   4  16   8   30.10    6.80
  -4 -16   8   31.60    6.50
  -4 -16   8   41.70    8.30
  -4 -16   8   26.20    5.80
  -6  16   8   29.20    5.70
   6 -16   8   25.70    5.90
   6 -16   8   40.10    9.20
  -6 -16  -8   32.90    7.50
   6  16  -8   41.50    9.50
   6  16   8   39.60    8.30
  -6 -16   8   28.80    7.70
  -6 -16   8   39.70    7.80
   6 -16  -8   26.50    6.00
  -6 -16   8   28.90    7.30
  -8 -16  -8   23.40    6.80
  -8  16   8   24.90    7.20
   8 -16   8   39.80    9.10
   8  16  -8   27.00    8.20
  -8 -16   8   21.80    5.00
  -8  16  -8   20.10    4.70
  -8 -16   8   13.40    5.50
   8 -16  -8   18.70    5.30
  -8 -16   8   36.60    8.90
   8  16   8   32.60    7.90
  -1  17   8   -2.80    1.70
   1  17  -8    5.00    3.10
   1 -17   8    0.50    2.00
   1 -17   8    6.00    3.30
  -1  17   8   -0.10    1.90
  -1  17   8    2.20    1.70
  -1 -17  -8   -1.70    2.50
  -1 -17   8    6.60    2.70
   1  17   8    5.50    2.50
  -1 -17   8    0.90    1.90
   1 -17  -8   -1.70    1.40
  -1  17  -8    4.90    3.00
   1 -17  -8   -0.80    2.60
  -1 -17   8    0.50    2.00
  -3  17   8   18.00    4.30
   3 -17   8   13.90    4.10
   3 -17   8   18.50    4.70
  -3 -17  -8   13.10    5.30
   3  17  -8   15.90    5.40
   3 -17   8   34.70    7.90
   3  17   8   17.60    5.10
   3 -17  -8    8.10    3.50
  -3 -17   8   11.30    3.50
  -3 -17   8   12.20    4.80
   3 -17  -8    9.80    4.60
  -3  17  -8   20.10    5.00
  -3 -17   8   17.00    5.70
  -5  17   8   -0.30    2.60
  -5 -17  -8    3.40    3.10
   5 -17   8    8.90    3.90
   5 -17   8    2.40    2.70
   5  17  -8    8.10    3.70
   5  17   8    5.20    3.50
  -5 -17   8    8.20    6.10
   5 -17  -8    5.80    3.50
  -5 -17   8    4.40    2.50
   7 -17   8    9.80    4.30
  -7 -17  -8    4.90    4.20
   7  17  -8    4.90    4.20
   7  17   8    7.30    3.80
  -7  17  -8   11.40    3.00
   7 -17  -8   11.90    5.10
  -7 -17   8   14.30    4.80
  -7 -17   8    6.40    3.10
  -7 -17   8    7.90    3.40
   0 -18   8   67.79    8.20
   0 -18  -8   78.09    9.40
   0  18  -8   61.89    7.20
   0  18   8   62.29    6.30
   0 -18   8   45.50    8.50
   0 -18   8   61.09    6.80
  -2 -18  -8   66.69    9.00
   2  18  -8   74.29    8.40
  -2  18   8   70.09    6.30
  -2  18   8   71.59    5.80
   2 -18   8   85.69    8.30
   2 -18   8   67.19    6.90
   2 -18   8   71.69    9.10
  -2 -18   8   72.89    7.50
   2  18   8   70.69    7.60
   2 -18  -8   68.09    9.30
  -2 -18   8   72.99    8.10
  -2 -18   8   71.09    8.20
   2 -18  -8   92.79    7.10
  -2  18  -8   75.29    7.40
   4 -18   8   56.19   11.00
   4 -18   8   68.89    6.60
   4 -18   8   44.50    7.40
  -4  18   8   58.19    5.90
  -4 -18  -8   61.99    8.70
   4  18  -8   58.29   10.90
   4  18   8   69.49    8.30
  -4 -18   8   44.60    8.50
   4 -18  -8   73.49    9.90
  -4 -18   8   61.89   12.30
   4 -18  -8   56.09    6.70
  -4 -18   8   66.69    7.10
   6 -18   8   41.70    9.50
  -6 -18  -8   39.60    9.50
   6  18  -8   35.50    8.80
  -6 -18   8   31.70    7.60
   6  18   8   28.50    6.90
   6 -18  -8   29.30    6.70
  -6 -18   8   26.80    5.80
  -6 -18   8   20.30    4.90
   1 -19   8  176.18   12.40
   1 -19   8  190.08   12.90
  -1 -19  -8  186.98   19.60
   1 -19   8  176.98   15.60
  -1  19   8  204.78   11.20
   1  19  -8  191.28   13.60
  -1  19  -8  184.18   12.70
   1 -19  -8  166.38    9.30
  -1 -19   8  175.68   12.30
  -1 -19   8  186.98   13.70
  -1 -19   8  171.98   13.00
   1  19   8  194.08   12.00
  -3 -19  -8  102.19   11.00
   3 -19   8   90.89   10.30
   3 -19   8   98.29    9.20
   3 -19   8   94.99    8.40
   3  19  -8   85.79    9.80
  -3  19   8   75.99    6.90
   3 -19  -8  100.99    8.40
  -3 -19   8  104.29    9.20
  -3 -19   8   84.49    9.40
   3  19   8  106.69    9.90
   3 -19  -8   95.99   11.70
   5  19  -8  128.09   13.00
  -5 -19  -8  129.89   12.90
   5 -19   8  124.89   13.20
  -5 -19   8  126.49   10.90
   5 -19  -8  140.59   11.00
  -5 -19   8  105.69   11.20
  -5 -19   8  139.69   13.50
   5  19   8  126.19   11.30
   7  19  -8   29.30    9.80
  -7 -19  -8   25.30    7.00
   7 -19   8   34.40    9.20
   7 -19  -8   39.50    8.50
  -7  19  -8   51.19    6.10
   7  19   8   30.30    7.70
  -7 -19   8   33.30    9.50
  -7 -19   8   29.00    5.90
  -7 -19   8   43.30    6.10
   0  20  -8   55.89    6.60
   0 -20   8   49.50    9.50
   0 -20   8   47.20    6.40
   0 -20   8   48.70    6.60
   0 -20  -8   35.10    7.80
   0  20   8   60.09    6.00
   2 -20   8    8.80    7.00
  -2  20   8   13.70    3.20
   2 -20   8   12.40    4.20
   2 -20   8   15.40    5.70
  -2 -20  -8   12.10    4.60
   2  20  -8   12.30    5.20
   2 -20  -8   17.80    3.90
  -2 -20   8   17.50    4.60
  -2  20  -8   12.50    4.20
   2 -20  -8   11.60    5.70
  -2 -20   8   13.30    5.40
  -2 -20   8   13.50    3.90
   4  20  -8   25.20    7.10
   4 -20   8   36.70    5.10
  -4 -20  -8   33.00    8.70
   4 -20   8   28.00    7.30
  -4 -20   8   31.20    6.60
  -4 -20   8   44.30    6.40
  -4 -20   8   26.60    6.30
   4 -20  -8   21.90    5.60
   4 -20  -8   20.70    6.60
   4  20   8   23.10    5.80
  -6 -20  -8    0.40    3.80
   6  20  -8    7.00    6.60
   6 -20   8    4.00    4.80
  -6 -20   8    6.40    3.70
   6 -20  -8    1.80    4.50
   6  20   8    7.40    4.10
  -6 -20   8    4.20    4.60
   1 -21   8   26.10    6.30
  -1 -21  -8   17.30    6.40
  -1  21   8   16.60    4.50
   1 -21   8   23.60    5.40
   1  21  -8   17.50    7.70
   1 -21   8   19.30    7.20
  -1  21  -8   18.00    4.10
  -1 -21   8   16.60    5.70
   1 -21  -8   24.70    7.50
  -1 -21   8    7.10    4.20
  -1 -21   8   25.40    7.50
   1  21   8   17.60    4.20
   3 -21   8    6.60    3.80
  -3 -21  -8    3.20    3.90
   3 -21   8   13.70    4.00
   3 -21   8    0.60    4.70
   3  21  -8    7.80    4.10
   3  21   8   10.30    3.20
  -3 -21   8    4.70    3.90
  -3 -21   8   10.00    4.40
   3 -21  -8   12.00    4.10
  -3 -21   8    8.50    3.40
   3 -21  -8   14.80    4.70
  -5 -21  -8   19.40    6.10
   5  21  -8   25.80    8.00
   5 -21   8   13.80    6.20
  -5 -21   8   13.60    4.70
  -5 -21   8   14.40    6.10
   5 -21  -8   13.00    5.30
  -5 -21   8   25.30    7.90
   5  21   8   10.00    4.40
   0 -22   8   65.19    8.50
   0 -22   8   48.50    9.10
   0 -22  -8   52.19   10.60
   0  22   8   74.59    7.10
  -2 -22  -8  160.78   15.60
   2 -22   8  180.18   14.30
   2  22  -8  189.08   14.50
   2 -22   8  198.08   14.60
   2 -22   8  173.28   13.40
   2 -22  -8  157.88   15.40
  -2  22  -8  178.08   11.60
  -2 -22   8  160.98   13.80
  -2 -22   8  191.28   13.80
   2 -22  -8  174.78   10.70
  -2 -22   8  174.38   12.40
   2  22   8  197.88   13.30
  -4 -22  -8   60.09   11.50
   4 -22   8   61.49    7.40
   4 -22   8   50.49   10.10
   4  22  -8   67.19   12.40
   4 -22  -8   58.79    9.60
  -4 -22   8   56.09    7.50
  -4 -22   8   53.99   10.70
  -4 -22   8   41.30    6.80
   4  22   8   57.99    7.90
   4 -22  -8   36.50    9.40
   1 -23   8  120.59   11.60
   1  23  -8  120.79   11.00
   1 -23   8   99.69   10.30
  -1 -23  -8  128.89   13.00
  -1  23   8  107.59    8.70
   1 -23  -8  137.89   13.90
   1  23   8  128.69   10.00
  -1 -23   8  100.89   10.60
  -1 -23   8  105.39   10.50
  -1  23  -8  122.29   21.30
  -1 -23   8  114.09   11.00
  -3 -23  -8   72.29   10.20
   3  23  -8   97.59   10.80
   3 -23   8   95.49    8.90
   3 -23   8   73.19   13.20
   3 -23  -8   82.69    9.10
  -3 -23   8   94.29    9.50
   3  23   8   70.39   11.80
  -3 -23   8   74.89   14.00
  -3 -23   8   98.89   10.70
   3 -23  -8   97.79   12.10
   0 -24  -8   15.40    5.60
   0  24   8   15.70    4.80
   0 -24   8   19.50    6.40
   0 -24   8   26.60    7.00
   0  24  -8   34.00    7.20
   2 -24   8   15.80    5.50
   2  24  -8   28.20    8.40
   2 -24   8   19.60    5.50
   2  24   8   12.70    4.50
  -2 -24   8   19.80    5.70
   2 -24  -8   22.10   10.50
  -2 -24   8   24.10    6.30
   1  25  -8   21.60    5.70
  -1 -25  -8    7.60    4.60
   1 -25   8    5.00    4.40
   1 -25   8    0.40    5.10
  -1  25  -8    6.40    4.90
   1 -25  -8   16.80    7.30
   1  25   8   -3.30    3.70
  -1 -25   8    3.00    6.70
   0   0   9    2.80    1.70
   0   0   9   -0.40    1.20
   0   0   9   -0.30    0.80
  -2   0   9    1.10    1.70
   2   0  -9    1.10    1.90
  -2   0   9    1.70    1.60
   2   0   9    0.40    1.20
  -2   0  -9   -0.20    0.80
   2   0   9    0.60    1.40
  -2   0  -9   -0.50    0.90
   2   0   9    4.90    2.10
  -2   0   9    0.80    1.40
  -2   0   9   -0.70    0.80
  -2   0   9    4.10    1.80
   4   0  -9    2.50    2.40
  -4   0   9   -0.50    1.40
  -4   0  -9    2.40    1.40
   4   0   9    2.50    1.50
   4   0   9   -0.90    1.20
   4   0   9    1.20    2.20
   6   0   9    2.40    1.90
  -6   0   9    1.80    1.60
  -6   0   9   -0.20    1.20
   6   0  -9    3.30    2.60
   6   0   9   -1.30    1.30
  -6   0  -9    0.80    1.10
   6   0   9    2.40    2.20
   8   0  -9   -0.40    1.90
  -8   0   9   -0.80    1.60
   8   0   9    3.50    2.00
  -8   0   9   -2.10    2.30
   8   0   9   -2.50    1.80
   8   0   9    1.60    1.70
  -8   0  -9    0.70    1.70
  10   0   9    3.50    3.80
 -10   0  -9    7.70    3.40
  10   0  -9   -0.70    3.40
  10   0   9    6.30    3.70
   1   1  -9  892.71   29.50
   1  -1   9  977.20   27.20
   1  -1   9  933.51   25.60
  -1   1   9  965.20   26.40
  -1   1   9  972.90   26.90
  -1   1   9  931.81   27.90
   1  -1   9  878.91   28.90
  -1   1   9  870.01   28.80
  -1  -1   9  909.71   24.10
   1   1   9  964.50   26.10
  -1  -1   9  939.31   25.40
   1   1   9  935.51   25.00
  -1  -1   9  976.20   27.70
  -1  -1   9  881.11   28.90
  -1   1  -9  894.81   25.70
   1   1   9  875.31   29.00
  -1  -1   9  980.00   24.20
   1  -1  -9  935.31   29.60
   3  -1   9  710.83   22.50
  -3   1   9  676.83   23.50
  -3  -1  -9  693.33   20.10
   3   1  -9  677.43   24.80
  -3   1   9  651.13   23.60
   3  -1   9  705.73   22.40
   3  -1   9  735.03   23.40
  -3   1   9  715.23   22.50
  -3   1  -9  690.93   21.20
   3   1   9  723.93   22.40
   3   1   9  709.73   23.40
  -3  -1   9  729.23   22.40
   3   1   9  719.73   21.20
   3  -1  -9  711.23   24.50
  -3  -1   9  676.13   23.20
  -3  -1   9  710.03   23.60
  -5   1   9  249.28    9.90
   5  -1   9  246.28   12.60
  -5  -1  -9  231.98   10.10
  -5   1   9  245.88   13.20
   5   1  -9  231.78   15.50
  -5  -1  -9  217.78   12.00
   5  -1   9  248.28   12.20
  -5   1  -9  225.38   11.00
   5   1   9  244.68   12.50
   5   1   9  260.97   11.40
  -5  -1   9  242.38   10.70
   5  -1  -9  235.68   13.00
  -5  -1   9  259.97   13.30
   7  -1   9  241.98   13.90
  -7   1   9  253.77   11.50
  -7   1   9  253.77   15.20
   7  -1   9  229.48   12.90
  -7  -1  -9  235.88   11.80
   7  -1   9  235.18   12.70
   7   1  -9  224.88   13.60
  -7   1  -9  239.88   11.50
  -7  -1   9  229.58   14.60
   7  -1  -9  231.38   13.10
   7   1   9  241.18   12.60
  -7  -1   9  230.88   11.60
   7   1   9  229.98   13.70
   7   1   9  236.58   13.20
   9  -1   9   16.30    3.80
  -9  -1  -9   22.80    4.60
   9   1  -9   24.70    5.10
   9  -1   9   21.60    4.80
   9  -1   9   19.90    4.80
  -9   1   9   19.80    5.20
   9   1   9   13.00    3.80
   9  -1  -9   17.30    4.20
  -9   1  -9   23.20    4.80
   9   1   9   35.60    4.80
  -9  -1   9   21.50    5.80
   9   1   9   26.70    5.80
  11  -1   9   45.20    8.80
 -11   1   9   30.90    7.80
 -11  -1  -9   19.10    5.70
  11   1  -9   28.40    7.30
  11  -1   9   26.00    5.70
  11   1   9   27.10    5.40
  11   1   9   30.20    6.30
 -11  -1   9   22.90    6.00
 -11   1  -9   32.90    6.60
   0   2   9   27.10    2.90
   0  -2   9   30.50    5.40
   0   2   9   25.50    2.30
   0  -2   9   26.20    3.00
   0   2   9   26.90    3.10
   0   2  -9   31.20    5.70
   0  -2   9   24.20    3.50
   0   2   9   25.40    3.00
   0   2   9   26.10    5.10
  -2  -2  -9   52.89    3.60
  -2   2   9   61.49    5.30
   2  -2   9   54.59    5.40
   2  -2   9   59.49    5.30
   2   2  -9   59.09    6.50
  -2   2   9   54.39    5.40
   2  -2   9   66.09    5.20
  -2  -2  -9   58.99    3.50
  -2   2   9   57.59    5.30
  -2  -2   9   55.29    4.30
  -2  -2   9   61.69    5.60
   2  -2  -9   58.89    5.90
   2   2   9   53.59    4.10
  -2  -2   9   59.09    3.90
  -2  -2   9   61.09    4.70
  -2   2  -9   57.69    4.60
  -2  -2   9   58.59    5.60
   2   2   9   58.09    4.70
  -2   2  -9   53.49    4.40
   2   2   9   62.39    5.70
  -4   2   9   13.60    3.90
   4   2  -9   12.70    4.40
  -4  -2  -9   15.30    3.00
   4  -2   9   16.90    4.20
   4  -2   9   14.90    3.90
   4  -2   9   14.80    3.70
  -4  -2  -9   14.00    2.50
   4  -2  -9   16.60    4.20
  -4  -2   9   12.10    3.60
   4   2   9   18.40    2.70
   4   2   9   13.60    2.40
  -4  -2   9   15.90    3.80
   4   2   9   15.30    3.80
  -4   2  -9   17.10    3.40
   6   2  -9   17.20    4.90
   6  -2   9   18.30    4.40
  -6  -2  -9   19.00    3.90
  -6   2   9   18.80    3.60
   6  -2   9   18.10    4.80
  -6   2   9   14.60    4.60
  -6  -2  -9   16.30    3.00
   6  -2   9   19.70    4.60
   6  -2  -9   13.50    3.70
  -6  -2   9   16.70    5.30
  -6   2  -9   15.90    3.10
   6   2   9   19.10    4.80
  -6  -2   9   17.70    3.90
   6   2   9   20.90    4.10
   6   2   9   21.80    5.00
   8  -2   9   -1.10    1.60
  -8   2   9    0.30    1.90
   8  -2   9   -0.80    2.60
  -8   2   9    1.50    2.40
   8  -2   9    3.60    3.20
  -8  -2  -9    6.90    3.00
   8   2  -9    6.10    3.00
   8  -2  -9    2.20    2.40
   8   2   9   14.00    3.60
   8   2   9    5.80    3.00
  -8  -2   9   -0.10    2.10
  -8   2  -9    3.60    2.10
   8   2   9    3.10    2.60
  -8  -2   9    2.90    2.80
  10  -2   9    9.20    3.20
 -10   2   9    7.40    4.80
 -10  -2  -9   13.00    5.10
  10  -2   9    6.60    3.10
 -10  -2   9   12.90    4.30
  10   2   9   15.90    3.90
 -10   2  -9    3.00    3.10
  10   2   9    2.00    4.60
  10   2   9    7.80    2.50
  -1   3   9  428.26   17.10
   1   3  -9  404.86   17.40
   1  -3   9  427.36   14.60
  -1   3   9  389.56   14.90
  -1   3   9  419.26   15.30
  -1   3   9  430.86   14.40
   1  -3   9  424.06   15.80
  -1  -3  -9  395.26   13.40
   1  -3   9  376.66   16.00
   1   3   9  399.66   13.10
   1   3   9  425.76   13.20
   1   3   9  438.06   16.10
  -1   3  -9  420.96   17.50
  -1   3  -9  392.56   14.70
   1   3   9  417.96   18.30
   1   3   9  404.36   13.20
  -1  -3   9  434.86   13.70
  -1  -3   9  399.26   12.50
  -1  -3   9  407.56   15.70
  -1   3  -9  360.96   12.50
   3  -3   9  361.06   15.00
   3   3  -9  341.67   16.50
  -3   3   9  342.87   15.40
  -3   3   9  341.57   15.00
   3  -3   9  368.66   14.50
  -3  -3  -9  355.76   12.60
   3   3   9  330.87   11.40
  -3  -3   9  355.96   15.20
   3   3   9  350.26   11.50
   3   3   9  364.26   14.00
  -3   3  -9  352.66   13.70
   3   3   9  361.66   15.30
  -3  -3   9  353.96   13.90
   3  -3  -9  356.06   15.30
   5  -3   9  158.78   10.10
  -5  -3  -9  147.49    6.80
   5   3  -9  169.08   11.40
  -5  -3  -9  158.08    8.60
   5  -3   9  160.68   10.30
  -5   3   9  160.68   10.40
   5  -3   9  163.58    9.50
  -5  -3   9  160.18   10.40
   5   3   9  142.89    7.50
   5  -3  -9  145.99    9.50
  -5  -3   9  157.48   10.50
   5   3   9  159.78   10.20
   5   3   9  160.88   10.10
  -7   3   9  141.59    7.90
   7  -3   9  150.38   10.80
  -7  -3  -9  145.69    9.50
  -7  -3  -9  124.49    7.50
   7  -3   9  142.09    9.00
  -7   3   9  149.49   11.40
   7   3  -9  139.29   10.80
  -7   3  -9  121.29    9.00
   7   3   9  145.89   10.50
   7   3   9  146.19   10.40
  -7   3  -9  145.89    8.20
  -7  -3   9  129.89    8.80
  -7  -3   9  137.59   11.10
   7   3   9  131.99    8.00
  -9  -3  -9   34.60    6.30
  -9   3   9   52.29    7.50
   9  -3   9   29.90    5.80
   9   3  -9   28.30    6.10
   9  -3   9   32.90    5.70
   9  -3   9   33.00    6.90
  -9   3  -9   37.80    4.90
   9   3   9   33.70    6.90
  -9  -3   9   33.90    7.10
   9   3   9   28.30    6.30
   9   3   9   32.10    5.70
   0   4   9   10.20    2.50
   0   4  -9   11.20    3.90
   0  -4   9    9.90    2.60
   0  -4  -9    5.20    2.10
   0   4  -9   10.70    2.70
   0   4  -9    6.80    1.50
   0   4   9   11.10    2.80
   0   4   9   11.30    3.40
   0  -4   9    8.70    3.00
   0   4   9    9.70    2.30
   2  -4   9 1284.17   36.20
  -2   4   9 1210.58   35.30
  -2  -4  -9 1244.18   33.00
  -2   4   9 1214.88   36.30
   2  -4   9 1278.67   34.50
   2  -4   9 1177.38   35.90
   2   4  -9 1260.87   38.20
  -2   4   9 1248.08   39.10
   2   4   9 1260.07   33.00
   2   4   9 1249.57   35.60
  -2   4  -9 1152.28   33.90
  -2  -4   9 1218.98   32.70
  -2  -4   9 1274.97   32.60
   2   4   9 1171.38   31.80
  -2  -4   9 1228.28   35.90
  -4   4   9   40.90    9.50
   4  -4   9   47.30    5.20
  -4   4   9   38.90    4.70
  -4  -4  -9   39.10    4.30
   4   4  -9   46.20    6.10
   4  -4   9   46.40    5.60
   4  -4   9   42.90    4.80
   4   4   9   37.90    3.60
  -4  -4   9   44.00    5.10
   4   4   9   42.40    4.90
  -4  -4   9   42.90    4.20
   4   4   9   37.00    5.30
  -4  -4   9   36.90    5.30
   4  -4  -9   42.80    5.10
  -6   4   9   86.29    8.40
   6  -4   9   84.79    8.30
   6  -4   9   99.19    8.30
  -6   4   9   99.59    5.80
   6   4  -9  108.89    9.40
  -6  -4  -9   98.29    7.50
   6   4   9   88.49    8.00
  -6  -4   9   89.69    7.30
   6   4   9   94.69    8.20
  -6  -4   9   89.49    8.50
   6  -4  -9   95.19    7.20
  -6  -4   9   90.09    8.50
   8   4  -9   86.39    8.50
  -8  -4  -9   88.69    7.80
  -8   4   9   87.19    6.30
   8  -4   9   63.29    7.40
   8  -4   9   83.79    8.10
   8  -4   9   77.99    6.40
   8   4   9   75.19    5.70
  -8  -4   9   88.19    9.90
  -8   4  -9   79.49    6.50
   8   4   9   87.19    8.40
  -8  -4   9   70.49    7.20
   8   4   9   71.79    7.50
  10  -4   9    1.10    2.30
  10   4  -9    4.60    3.40
 -10   4   9    9.60    4.70
 -10  -4  -9    4.20    2.90
  10   4   9    6.60    3.30
 -10   4  -9   -0.60    2.80
 -10  -4   9   -2.80    2.80
 -10  -4   9   -2.40    2.60
   1  -5   9  507.75   17.20
   1  -5   9  505.55   18.80
  -1   5   9  489.65   19.20
  -1  -5  -9  495.35   17.10
   1   5  -9  489.65   20.10
  -1   5   9  493.85   18.10
  -1   5   9  465.65   16.60
   1  -5   9  472.05   20.20
  -1   5  -9  462.85   17.50
  -1  -5   9  479.75   14.90
   1   5   9  504.25   18.20
   1   5   9  495.35   15.10
   1   5   9  476.75   16.60
  -1   5  -9  512.25   20.00
  -1  -5   9  500.75   16.50
   1  -5  -9  499.55   18.10
  -3   5   9  228.78   11.80
   3  -5   9  244.98   11.90
   3  -5   9  251.07   12.80
  -3  -5  -9  234.98   10.90
  -3  -5   9  226.38   10.90
   3   5   9  227.98   13.20
   3   5   9  226.38    9.80
  -3  -5   9  255.97   13.10
   3   5   9  222.68   12.40
  -3  -5   9  239.78   10.30
  -5   5   9  264.07   13.10
   5   5  -9  301.07   16.60
   5  -5   9  327.77   15.10
   5  -5   9  320.47   16.00
  -5   5   9  317.97   15.70
  -5  -5  -9  332.37   14.20
   5  -5   9  322.27   13.70
   5   5   9  267.37   12.00
  -5  -5   9  310.57   15.20
  -5  -5   9  322.77   15.90
  -5  -5   9  312.77   13.10
   5  -5  -9  312.97   16.50
   5   5   9  326.67   15.10
   5   5   9  328.87   15.70
   7  -5   9   61.69    6.80
  -7   5   9   70.09    5.20
  -7  -5  -9   65.99    6.80
   7  -5   9   65.89    5.70
   7  -5   9   65.29    7.80
  -7   5   9   68.29    8.10
   7   5  -9   63.99    8.00
  -7  -5   9   54.49    6.30
  -7   5  -9   71.09    5.50
   7   5   9   75.49    7.70
   7   5   9   63.99    7.20
  -7  -5   9   71.19    8.00
   7  -5  -9   58.09    8.00
  -7  -5   9   54.99    7.10
  -7   5  -9   61.69    5.90
   9   5  -9   61.39    8.80
   9  -5   9   75.79   11.00
  -9  -5  -9   52.39    6.80
   9  -5   9   66.89    5.90
  -9   5   9   61.69    8.50
   9  -5   9   61.69    7.40
   9   5   9   47.60    8.70
  -9  -5   9   65.59    8.60
   9   5   9   67.99    7.40
  -9   5  -9   74.69    6.40
  -9  -5   9   49.90    9.40
   0   6   9  361.96   14.60
   0   6   9  349.37   14.50
   0  -6   9  374.06   14.20
   0  -6  -9  389.36   15.40
   0   6  -9  377.96   17.10
   0   6   9  360.46   11.80
   0   6   9  363.06   12.40
   2   6  -9  493.45   20.50
  -2   6   9  457.05   18.70
  -2  -6  -9  491.15   17.50
   2   6  -9  453.35   15.30
   2  -6   9  468.55   18.90
  -2   6   9  460.05   18.50
  -2   6   9  438.46   17.10
   2  -6   9  498.15   17.80
  -2  -6   9  476.55   18.70
   2  -6  -9  483.05   19.00
   2   6   9  511.25   18.70
  -2  -6   9  442.16   21.70
   2   6   9  442.66   16.20
  -2  -6   9  464.35   16.10
   4  -6   9  160.58   10.10
  -4   6   9  160.88    9.50
   4  -6   9  163.88   11.00
  -4  -6  -9  176.08    9.90
   4  -6   9  176.98    9.60
   4   6  -9  162.68   11.90
   4   6   9  175.48   10.90
  -4  -6   9  189.98    9.50
  -4  -6   9  173.18   10.10
   4   6   9  156.68    8.60
  -4  -6   9  179.38   11.10
   4   6   9  168.18   10.00
   4  -6  -9  176.58   11.30
  -6  -6  -9   95.29    8.00
  -6   6   9   88.29    8.60
   6  -6   9   80.69    8.30
   6  -6   9  107.19    7.10
   6   6  -9   76.49    8.70
  -6   6   9   77.79    6.10
   6  -6   9   87.19    7.90
  -6  -6   9   86.09    7.00
   6   6   9   87.69    8.20
  -6  -6   9   81.39    7.50
  -6  -6   9   86.09    8.30
   6  -6  -9   88.39    9.10
  -6  -6   9   85.49    8.40
   6   6   9   95.39    8.40
   8  -6   9   29.10    7.10
   8  -6   9   29.20    7.00
  -8   6   9   27.10    6.30
  -8   6   9   24.80    4.40
   8   6  -9   32.00    7.00
   8  -6   9   26.30    4.60
  -8  -6  -9   34.20    6.40
  -8  -6   9   18.30    8.30
  -8  -6   9   28.20    6.50
   8  -6  -9   29.80    7.00
  -8   6  -9   30.50    4.90
   8   6   9   27.60    6.70
   8   6   9   18.60    5.50
  10   6  -9    4.80    3.20
  10  -6   9   11.30    3.90
 -10  -6  -9    6.20    4.20
 -10   6   9    1.30    3.00
 -10  -6   9    3.20    3.20
 -10   6  -9    2.50    3.20
 -10  -6   9   -1.10    3.10
  10   6   9    9.10    4.00
  10   6   9   18.20    4.70
  -1  -7  -9  531.65   19.70
   1   7  -9  535.65   16.10
  -1   7   9  538.65   18.50
   1  -7   9  546.65   20.60
   1   7  -9  554.94   22.20
  -1   7   9  507.55   19.80
   1  -7   9  565.74   19.40
  -1   7   9  514.15   17.40
  -1   7   9  528.35   20.50
   1  -7  -9  561.84   20.60
   1   7   9  539.15   19.50
  -1  -7   9  552.04   18.70
   1   7   9  479.35   20.60
  -1   7  -9  528.05   21.10
  -1  -7   9  525.85   16.90
   3   7  -9  450.35   20.20
   3  -7   9  453.45   17.80
  -3  -7  -9  421.16   13.90
   3  -7   9  440.06   19.20
   3   7  -9  418.46   15.70
  -3   7   9  436.16   17.30
  -3  -7  -9  450.65   17.50
  -3  -7   9  442.76   16.40
   3   7   9  437.46   18.10
   3   7   9  399.16   15.80
  -3  -7   9  426.26   16.70
  -3  -7   9  450.75   18.70
   3   7   9  426.96   16.40
   3  -7  -9  427.56   17.80
  -5  -7  -9  286.27   14.10
   5  -7   9  291.07   12.50
   5  -7   9  278.97   14.30
   5   7  -9  270.37   16.10
   5  -7   9  286.47   15.70
  -5   7   9  250.67   11.90
  -5  -7   9  270.27   14.70
  -5  -7   9  271.17   12.70
  -5  -7   9  283.17   14.70
   5   7   9  266.97   14.00
   5   7   9  278.77   15.00
   5  -7  -9  283.27   15.80
  -7   7   9   85.89    5.90
   7  -7   9   74.29    6.00
  -7   7   9   81.39    8.80
   7   7  -9   71.69    9.10
  -7  -7  -9   86.19    7.90
   7  -7   9   67.69    8.50
   7  -7   9   76.49    7.50
  -7  -7   9   79.19    8.80
  -7  -7   9   74.19    8.00
   7  -7  -9   82.29    9.10
  -7  -7   9   68.09    7.30
   7   7   9   68.49    7.80
  -7  -7   9   91.29    7.60
   7   7   9   76.79    7.90
  -7   7  -9   81.29    5.70
  -9   7   9   65.29    8.70
  -9  -7  -9   67.69    7.60
   9  -7   9   50.69    9.70
   9   7  -9   64.89    8.20
   9  -7   9   71.69    8.50
   9  -7  -9   58.49   11.00
  -9  -7   9   71.59    7.40
   9   7   9   73.99    7.70
  -9   7  -9   55.19    5.90
   9   7   9   51.69    7.60
  -9  -7   9   69.69    8.60
  -9  -7   9   71.79    8.00
   0   8   9  281.57   10.10
   0  -8   9  304.87   13.20
   0   8   9  285.97   12.90
   0   8   9  294.47   10.60
   0   8   9  269.87   13.30
   0   8  -9  288.87   15.10
   0  -8  -9  302.17   14.40
  -2   8   9  162.88    8.70
  -2   8   9  156.58    9.80
  -2  -8  -9  152.18    9.80
   2   8  -9  168.58   11.60
   2  -8   9  162.08    9.80
   2  -8   9  165.88   10.90
  -2   8   9  161.48    8.80
   2   8   9  172.18    8.90
   2   8   9  157.28    9.10
   2  -8  -9  160.08   10.90
  -2  -8   9  174.28    9.50
  -2   8  -9  171.08   10.90
   2  -8  -9  169.48    9.40
  -2  -8   9  177.38    9.10
   2   8   9  164.98   10.20
  -2  -8   9  167.18   10.60
  -4  -8  -9  131.49    7.50
  -4   8   9  148.79    7.70
  -4   8   9  135.39    8.30
   4   8  -9  144.99   11.60
   4  -8   9  155.48    9.90
  -4  -8  -9  139.29    9.50
   4  -8   9  147.29   10.90
  -4  -8   9  157.38    9.20
   4   8   9  148.09    9.60
   4   8   9  149.49   10.50
  -4  -8   9  146.59   10.50
   4  -8  -9  139.69   10.30
  -4  -8   9  142.49    9.70
   6  -8   9   31.00    7.50
  -6   8   9   37.20    7.10
   6  -8   9   34.00    4.90
   6   8  -9   32.80    7.50
  -6   8   9   27.90    3.20
   6  -8   9   34.00    4.00
  -6  -8  -9   35.10    6.70
   6   8   9   36.90    7.20
   6  -8  -9   32.50    8.00
  -6  -8   9   37.20    4.90
  -6  -8   9   28.00    6.20
   6   8   9   30.10    5.70
  -6  -8   9   31.60    6.20
  -6  -8   9   29.40    6.60
   8  -8   9   10.90    4.20
  -8   8   9   13.00    2.50
  -8   8   9   12.90    4.80
   8   8  -9    6.70    3.70
  -8  -8  -9    5.80    3.30
   8   8   9   11.80    3.80
  -8  -8   9    8.60    4.30
  -8  -8   9   13.70    4.20
  -8  -8   9   11.00    3.80
   8  -8  -9   15.60    5.30
  -8   8  -9   10.90    2.70
 -10  -8  -9    8.30    4.00
  10   8  -9    5.30    4.40
  10  -8   9   -1.40    3.10
 -10   8  -9    8.80    4.00
 -10  -8   9    9.30    4.60
  10   8   9   14.60    4.10
 -10  -8   9    7.70    4.10
   1   9  -9  207.78   13.00
   1  -9   9  206.98   11.20
   1   9  -9  203.98    8.80
  -1   9   9  204.78   10.30
  -1   9   9  194.98    8.90
  -1  -9  -9  201.68   11.90
   1  -9   9  203.98   12.10
  -1  -9   9  188.48    9.50
   1   9   9  201.48    9.40
   1  -9  -9  203.18   12.30
  -1   9  -9  198.78   12.30
  -1  -9   9  202.48   12.00
   3  -9   9  271.97   13.50
   3  -9   9  249.58   14.40
   3   9  -9  232.48   14.70
  -3   9   9  230.58   11.80
  -3  -9  -9  257.67   13.60
  -3  -9  -9  240.88    9.50
  -3   9   9  251.17   10.80
   3   9   9  244.28   12.10
   3  -9  -9  251.17   13.10
   3  -9  -9  242.18   14.40
  -3  -9   9  250.27   12.50
  -3  -9   9  240.98   13.60
  -3  -9   9  265.57   12.60
   3   9   9  251.67   13.50
   5  -9   9  130.19    7.90
  -5  -9  -9  129.09   10.00
   5  -9   9  139.69    9.90
  -5  -9  -9  112.89    7.60
   5  -9   9  130.69   10.90
   5   9  -9  133.69   11.40
   5   9   9  124.29    9.50
   5   9   9  125.99   10.10
  -5  -9   9  143.29   10.60
  -5  -9   9  131.89    8.90
  -5  -9   9  140.69   10.10
   5  -9  -9  117.59   10.30
  -7   9   9   61.19    8.20
   7   9  -9   52.49    9.60
   7  -9   9   50.59    6.20
   7  -9   9   64.89    8.20
  -7  -9  -9   62.89    7.10
  -7   9   9   57.49    4.70
   7  -9  -9   64.89    8.70
  -7  -9   9   68.59    7.80
   7   9   9   67.49    7.70
   7   9   9   49.20    7.00
  -7  -9   9   52.29    6.20
  -7  -9   9   63.39    7.70
   9   9  -9   40.90    7.70
   9  -9   9   31.50    7.10
  -9   9   9   27.10    7.50
  -9  -9  -9   36.60    7.30
  -9  -9   9   47.80    6.50
  -9  -9   9   30.80    7.40
   9   9   9   45.40    6.10
  -9  -9   9   37.50    8.00
   9  -9  -9   28.30    7.80
  -9   9  -9   43.40    5.30
   0 -10  -9  100.69    8.80
   0  10  -9   96.29    9.10
   0  10   9   93.89    7.20
   0 -10   9   93.29    8.40
   0  10  -9   92.89    5.30
   0 -10   9   87.79    7.60
   0 -10   9   84.19    6.20
   2 -10   9   53.89    6.70
   2  10  -9   57.29    7.10
   2  10  -9   40.70    4.10
  -2 -10  -9   47.60    6.40
  -2  10   9   37.90    4.40
  -2  10   9   55.39    4.80
   2 -10   9   64.09    6.40
   2 -10  -9   45.30    8.10
   2  10   9   49.50    6.00
  -2 -10   9   54.89    6.60
  -2  10  -9   47.20    6.20
   2 -10  -9   49.70    5.10
   2  10   9   56.79    5.50
  -2 -10   9   50.89    5.60
  -2 -10   9   56.49    6.00
   4  10  -9   32.50    7.50
  -4 -10  -9   27.90    4.40
  -4 -10  -9   36.20    6.90
   4 -10   9   32.80    7.20
  -4  10   9   26.40    3.20
   4 -10   9   34.10    6.80
  -4  10   9   24.40    3.50
  -4 -10   9   17.50    5.30
  -4 -10   9   22.90    4.80
   4 -10  -9   24.00    5.60
  -4 -10   9   19.20    4.30
   4  10   9   28.50    6.30
   4  10   9   25.40    5.20
   6 -10   9   24.90    7.00
   6  10  -9   39.60    8.40
   6 -10   9   26.20    5.70
  -6 -10  -9   21.40    4.50
  -6 -10  -9   29.00    6.60
  -6  10   9   29.20    3.10
   6  10   9   21.80    5.70
   6  10   9   22.40    5.50
   6 -10  -9   28.00    7.20
  -6 -10   9   21.90    5.00
  -6 -10   9   17.20    4.70
  -6 -10   9   21.10    5.90
  -6 -10   9   26.60    5.80
  -8  10   9   21.60    6.60
   8 -10   9   20.90    4.70
   8  10  -9   23.50    7.00
  -8  10   9   29.70    3.60
   8 -10   9   23.10    6.40
  -8 -10  -9   19.70    5.70
   8  10   9   28.80    6.50
   8 -10  -9   24.40    6.50
  -8 -10   9   20.70    5.30
  -8 -10   9   21.20    6.40
  -8 -10   9   15.30    4.80
  -8  10  -9   17.30    3.30
 -10 -10  -9   17.20    5.30
 -10  10   9   13.30    5.20
  10  10   9   13.40    7.40
 -10 -10   9   14.80    4.20
  10 -10  -9    6.20    4.50
 -10 -10   9    6.30    5.90
 -10 -10   9    8.40    3.80
   1 -11   9  166.08   11.50
   1 -11   9  139.69    7.90
  -1  11   9  146.99    7.50
   1  11  -9  164.68   11.60
  -1  11   9  158.38    9.00
   1 -11   9  166.78   10.30
  -1  11   9  164.38    7.50
   1  11  -9  153.38    7.90
  -1 -11  -9  166.18   11.80
  -1 -11   9  160.78    9.50
   1 -11  -9  169.78   12.10
  -1 -11   9  159.58   10.10
   1 -11  -9  151.68    8.00
  -1 -11   9  147.79   10.70
   1  11   9  150.18    9.90
  -1  11  -9  148.69   16.40
  -3 -11  -9  207.58   13.00
  -3 -11  -9  182.58    8.20
  -3  11   9  193.68    9.30
   3 -11   9  204.28   11.80
   3  11  -9  208.58   14.10
   3 -11   9  190.98   13.00
  -3  11   9  163.68    9.70
  -3 -11   9  200.58   11.50
   3  11   9  209.68   12.60
   3  11   9  192.78   11.20
   3 -11  -9  199.28   11.80
  -3 -11   9  192.78   12.50
   3 -11  -9  191.18   13.50
  -3 -11   9  204.08   13.80
  -5 -11  -9   58.29    7.20
   5 -11   9   54.29    4.90
  -5 -11  -9   64.29    5.70
   5 -11   9   48.20    6.00
   5  11  -9   65.49    8.30
   5 -11   9   79.69    9.20
   5  11   9   54.19    6.70
  -5 -11   9   64.29    7.30
   5  11   9   56.39    6.80
  -5 -11   9   60.19    6.60
   5 -11  -9   57.19    7.20
  -5 -11   9   67.09    7.40
  -7  11   9   62.79    8.50
   7  11  -9   83.89    9.70
  -7 -11  -9   60.09    7.60
   7 -11   9   72.29    9.00
  -7 -11  -9   66.89    7.50
   7 -11   9   59.39    7.50
  -7  11   9   72.89    5.40
  -7  11  -9   70.39    7.00
   7 -11  -9   73.39   16.80
   7  11   9   68.99    8.00
  -7 -11   9   63.89    7.00
  -7 -11   9   66.29    9.40
   9  11  -9   12.30    4.10
  -9 -11  -9   20.90    5.90
   9 -11   9   20.40    5.90
  -9  11   9   23.80    6.20
  -9  11  -9   20.10    4.40
  -9 -11   9   25.20    5.90
   9  11   9   25.60    6.80
  -9 -11   9   27.50    6.50
  -9 -11   9   23.80    5.80
   9 -11  -9   27.00    7.10
   0  12  -9  271.07   15.60
   0  12   9  291.97   13.70
   0 -12  -9  285.27   16.00
   0 -12   9  279.27   14.20
   0 -12   9  278.57   15.40
   0 -12   9  275.97   12.90
  -2  12   9   98.39    6.60
   2  12  -9   88.29    9.00
  -2  12   9   94.49    6.50
  -2 -12  -9  102.99    9.30
  -2  12   9   96.29    5.70
   2 -12   9  110.49    9.80
   2 -12   9   99.19    8.30
  -2 -12   9   92.89    7.80
   2  12   9   90.99    8.10
   2 -12  -9   97.29    7.30
  -2 -12   9   99.69    8.00
  -2 -12   9   89.89    8.60
  -2  12  -9   90.99    5.50
   2 -12  -9  106.29   10.10
   4 -12   9  124.29   11.10
  -4 -12  -9  130.39    7.70
   4 -12   9  134.09   10.00
  -4 -12  -9  153.28   11.40
   4  12  -9  127.49   11.70
   4 -12  -9  124.09   10.10
  -4 -12   9  127.39    9.50
   4  12   9  141.59   10.90
  -4 -12   9  137.69   10.60
  -4 -12   9  126.79    9.90
  -6  12   9   52.49    4.40
  -6 -12  -9   62.69    7.90
  -6 -12  -9   46.70    5.70
   6 -12   9   49.10   10.00
   6 -12   9   66.59    6.70
   6  12  -9   57.09    8.20
   6 -12  -9   59.49    7.80
  -6 -12   9   55.09    6.60
   6  12   9   50.59    7.10
  -6 -12   9   53.39    7.20
  -6 -12   9   49.99    6.70
   8 -12   9   20.00    6.80
   8  12  -9    8.90    4.70
  -8 -12  -9   16.20    5.10
  -8 -12   9   17.40    5.20
   8  12   9   21.30    5.60
  -8 -12   9   12.80    4.30
  -8 -12   9   25.10    5.60
  -8  12  -9   19.00    4.00
   8 -12  -9   19.90    5.70
  -1  13   9  209.98    9.70
  -1 -13  -9  248.78   15.40
   1 -13   9  238.28   11.70
  -1  13   9  249.58   10.60
   1  13  -9  256.47   15.30
  -1  13   9  238.88   12.20
   1 -13   9  263.27   15.00
   1 -13   9  242.88   14.70
  -1  13  -9  223.08   11.20
  -1 -13   9  250.37   14.70
  -1 -13   9  255.27   13.10
  -1 -13   9  245.28   13.30
  -1  13  -9  248.48   14.70
   1 -13  -9  252.77   16.00
   1  13   9  250.17   13.30
   1 -13  -9  240.38   10.60
   3  13  -9  153.38   12.50
  -3  13   9  148.49    8.20
   3 -13   9  167.18   11.10
  -3 -13  -9  166.38   12.20
  -3  13   9  161.08    8.00
   3 -13   9  167.18   12.60
  -3 -13  -9  146.49    8.00
   3 -13  -9  164.28   13.00
  -3 -13   9  147.09   10.40
  -3 -13   9  139.99   10.50
  -3  13  -9  166.28   13.10
   3  13   9  157.88   11.10
   3 -13  -9  164.18   10.60
  -3 -13   9  154.28   11.40
  -5 -13  -9  130.99   11.40
  -5 -13  -9  142.89    9.00
   5 -13   9  148.49   12.50
  -5  13   9  129.99    7.30
   5  13  -9  149.88   12.80
   5 -13   9  158.18   11.10
  -5 -13   9  142.09   10.20
   5 -13  -9  140.09   11.40
  -5  13  -9  124.59    9.20
  -5 -13   9  141.39   11.10
  -5 -13   9  142.29   11.20
   5  13   9  154.38   11.60
   7 -13   9   38.00    6.50
   7 -13   9   45.80    9.90
   7  13  -9   51.59    9.70
  -7  13   9   47.60    4.60
  -7 -13   9   50.39    7.20
  -7  13  -9   53.89    5.00
  -7 -13   9   33.50    6.50
   7  13   9   57.69    7.50
  -7 -13   9   50.99    7.40
   7 -13  -9   42.80    8.40
  -9  13   9   29.20    7.50
  -9 -13  -9   39.00    7.70
   9  13  -9   35.10   10.70
   9 -13   9   22.20    8.00
  -9 -13   9   32.00    7.40
   9 -13  -9   38.60   13.20
  -9 -13   9   26.10   10.40
  -9 -13   9   30.70    5.90
   0  14  -9  225.18   14.20
   0  14   9  212.58   11.90
   0 -14   9  201.78   11.60
   0 -14   9  227.18   13.00
   0 -14   9  216.68   13.80
   0 -14  -9  225.08   14.90
  -2 -14  -9  172.88   13.00
   2 -14   9  146.79    9.10
  -2  14   9  174.88    8.60
  -2  14   9  155.98    8.90
   2  14  -9  154.18   12.30
   2 -14   9  175.78   12.70
  -2  14  -9  133.99    7.80
  -2  14  -9  163.48   11.30
   2  14   9  154.98   10.80
  -2 -14   9  150.28   11.30
  -2 -14   9  153.88   10.90
  -2 -14   9  148.99   10.50
   2 -14  -9  168.28   13.20
   2 -14  -9  156.28    9.50
  -4  14   9  115.69    7.00
   4  14  -9  130.19   11.80
   4 -14   9  130.59   11.70
  -4 -14  -9  110.39    7.20
   4 -14   9  112.49    9.50
  -4 -14  -9  121.99   10.90
  -4 -14   9  115.39   10.10
   4 -14  -9  118.39    9.70
   4  14   9  118.49   10.10
  -4 -14   9  111.59   10.10
   4 -14  -9  122.49   11.80
  -4 -14   9   97.79    8.90
  -6  14   9   51.69    4.70
  -6 -14  -9   48.60    8.80
   6  14  -9   64.89    8.60
   6 -14   9   43.20    7.90
   6 -14   9   50.89    9.80
  -6 -14   9   61.99    8.50
   6 -14  -9   44.30    8.60
  -6  14  -9   52.09    6.00
   6  14   9   53.59    7.50
  -6 -14   9   47.50   10.70
  -6 -14   9   57.99    7.40
  -8  14   9   35.20    8.30
   8 -14   9   26.20    7.20
   8  14  -9   23.60    6.80
  -8 -14  -9   34.50    7.10
   8  14   9   29.90    7.10
  -8 -14   9   27.60    5.90
   8 -14  -9   31.30    7.80
  -8 -14   9   40.80    8.90
  -8 -14   9   33.00    6.60
  -8  14  -9   21.60    4.00
  -1  15   9   28.30    4.10
   1 -15   9   24.80    6.00
  -1 -15  -9   23.60    6.40
   1 -15   9   27.80    5.60
   1  15  -9   31.10    6.60
   1 -15   9   28.10    5.50
  -1  15  -9   33.10    6.90
  -1 -15   9   36.90    5.40
   1 -15  -9   24.30    3.30
   1 -15  -9   24.10    6.40
   1  15   9   30.20    6.10
  -1 -15   9   37.10    8.00
  -1 -15   9   26.70    5.60
  -3 -15  -9   52.99    7.40
   3 -15   9   46.90    5.30
  -3  15   9   43.40    4.40
  -3  15   9   50.19    4.60
   3  15  -9   45.30    9.00
   3 -15   9   66.49   15.40
   3 -15   9   45.30    9.40
  -3 -15   9   47.40    6.70
   3 -15  -9   48.80    5.80
   3 -15  -9   50.99   10.20
  -3 -15   9   48.50    6.50
  -3  15  -9   54.69    6.20
  -3 -15   9   36.50    7.10
   3  15   9   41.20    5.80
   5  15  -9   17.90    5.20
  -5 -15  -9   15.20    5.60
   5 -15   9   14.70    4.30
   5 -15   9   13.40    4.80
  -5  15   9   13.60    3.50
  -5 -15   9   10.70    4.60
  -5 -15   9   13.50    4.30
   5  15   9    7.80    4.20
   5 -15  -9   10.90    4.00
  -5 -15   9   14.10    4.40
   7  15  -9   29.30    7.60
  -7 -15  -9   28.70    6.30
   7 -15   9   40.20    8.90
  -7  15  -9   38.00    4.60
   7 -15  -9   27.20    6.60
   7  15   9   39.90    8.60
  -7 -15   9   42.20    7.60
  -7 -15   9   33.20    7.50
  -7 -15   9   33.80    6.90
   0 -16   9  243.28   14.00
   0 -16  -9  217.78   15.50
   0 -16   9  227.28   14.90
   0 -16   9  228.98   13.30
   0  16   9  233.18   12.70
   0  16  -9  212.28   14.30
   2 -16   9  277.77   17.30
   2  16  -9  275.47   17.50
   2 -16   9  262.47   14.60
  -2  16   9  292.87   13.30
  -2 -16  -9  313.37   18.80
   2 -16   9  323.77   16.50
  -2  16   9  292.97   12.80
   2  16   9  312.07   16.30
  -2 -16   9  309.77   17.20
  -2  16  -9  287.27   15.80
   2 -16  -9  301.67   18.90
  -2 -16   9  311.97   16.10
  -2 -16   9  278.77   15.80
   2 -16  -9  284.57   13.60
   4 -16   9   85.99   10.10
  -4 -16  -9  117.59   11.30
  -4  16   9  110.89    7.40
   4 -16   9   92.39   18.60
   4 -16  -9  123.69    9.70
  -4 -16   9  111.99    9.60
  -4 -16   9  114.89   10.00
   4  16   9  122.39   12.00
  -4 -16   9  110.39   10.10
   6  16  -9  120.59   11.90
  -6 -16  -9   92.59   10.40
   6 -16   9   99.39   11.50
   6 -16   9   97.69    9.60
   6 -16  -9  108.59   10.40
  -6 -16   9   95.29    9.30
   6  16   9  112.59   10.70
  -6 -16   9   93.99    9.20
  -6 -16   9  103.79   10.40
  -6  16  -9  109.99    7.50
   8  16  -9   32.50   10.50
  -8  16   9   24.40    7.20
   8 -16   9   16.10    7.40
  -8 -16  -9   19.90    7.00
   8  16   9   43.40    8.90
  -8 -16   9   22.10    6.20
   8 -16  -9   33.40    8.90
  -8 -16   9   23.60    5.40
  -8 -16   9   34.90    7.10
   1  17  -9  107.69   10.40
  -1 -17  -9  125.29   12.00
   1 -17   9  110.79    8.90
   1 -17   9  119.39    9.70
   1 -17   9  121.69   11.00
  -1  17   9  110.99    8.00
  -1 -17   9  100.69    9.90
  -1 -17   9  129.39    9.90
  -1 -17   9  113.29    9.40
   1 -17  -9  106.59   11.10
  -1  17  -9  113.19    9.80
   1  17   9  116.29    9.20
   3  17  -9   49.50   10.00
  -3 -17  -9   57.49    8.00
   3 -17   9   68.89    7.10
   3 -17   9   54.49    6.00
  -3  17   9   50.19    5.20
   3 -17  -9   42.10    5.60
  -3 -17   9   52.19    6.90
  -3 -17   9   42.60    8.20
  -3  17  -9   64.09    6.90
   3 -17  -9   50.19   11.30
   3  17   9   50.19    6.90
  -3 -17   9   49.20    7.00
  -5 -17  -9   70.79    9.40
  -5  17   9   80.49    6.30
   5 -17   9   91.59   10.00
   5 -17   9   83.19    8.30
   5  17  -9   76.09    9.80
   5 -17  -9   63.09    8.20
  -5 -17   9   75.99    8.40
   5  17   9   77.29    8.50
  -5 -17   9   72.89    8.80
  -5 -17   9   73.79    8.40
   7  17  -9   35.40    8.00
  -7 -17  -9   45.70    9.40
   7 -17   9   34.80    7.50
  -7 -17   9   35.30    7.90
  -7  17  -9   27.20    5.10
   7  17   9   38.10    8.20
  -7 -17   9   49.30    9.40
  -7 -17   9   32.40    6.40
   7 -17  -9   30.40    8.60
   0 -18   9  101.59    9.00
   0 -18   9  105.39   10.50
   0  18  -9  103.69    9.80
   0 -18  -9   92.69   11.00
   0  18   9  114.79    8.60
   0 -18   9  118.49    9.70
  -2  18   9  162.68    9.80
   2 -18   9  165.18   11.80
  -2  18   9  164.58    9.60
   2 -18   9  153.78   10.70
  -2 -18  -9  166.58   14.20
   2  18  -9  157.18   13.00
   2 -18   9  171.48   14.50
  -2 -18   9  155.58   12.50
   2 -18  -9  158.98    9.90
  -2  18  -9  162.48   11.50
  -2 -18   9  147.09   11.90
  -2 -18   9  176.28   12.00
   2  18   9  166.98   11.80
  -4  18   9   39.00    5.30
   4 -18   9   48.40    9.50
   4  18  -9   63.29    8.30
  -4 -18  -9   61.69    8.90
  -4 -18   9   46.90    8.50
   4  18   9   59.69    7.40
  -4 -18   9   49.20    6.80
   4 -18  -9   38.60    8.70
  -4 -18   9   49.50    9.70
   4 -18  -9   55.39    6.50
  -6 -18  -9   40.30    8.80
   6 -18   9   34.90    8.40
   6  18  -9   35.50    9.00
  -6 -18   9   56.59   10.70
  -6  18  -9   38.80    5.40
   6  18   9   44.30    8.70
  -6 -18   9   56.19    7.30
  -6 -18   9   44.50    6.10
   6 -18  -9   44.20    8.80
   1 -19   9   31.60    5.80
  -1 -19  -9   24.70    6.70
   1  19  -9   31.50    6.80
   1 -19   9   26.10    5.10
  -1  19   9   34.40    4.50
   1 -19   9   23.80    6.30
   1 -19  -9   20.80    6.20
  -1  19  -9   31.90    6.20
   1  19   9   34.60    6.30
  -1 -19   9   33.10    7.00
  -1 -19   9   34.70    7.10
  -1 -19   9   44.70    6.50
  -3 -19  -9   13.70    5.10
   3 -19   9   29.50    7.40
   3  19  -9   12.80    5.60
   3 -19   9   21.40    4.70
   3 -19   9   15.40    4.80
  -3  19   9   25.20    4.80
  -3 -19   9   24.20    6.20
  -3 -19   9   23.20    5.10
   3 -19  -9   14.80    4.00
   3  19   9   20.80    5.40
   3 -19  -9   20.10    6.40
  -3 -19   9   15.70    5.20
   5 -19   9   19.30    6.60
   5  19  -9   30.90    8.20
  -5 -19  -9   16.60    6.50
  -5 -19   9   19.90    5.00
  -5 -19   9   18.50    4.90
  -5 -19   9   13.90    5.40
   5 -19  -9   12.20    5.40
   5  19   9   16.80    5.90
   7  19  -9    6.30    5.00
   7 -19   9    3.70    5.00
  -7 -19  -9   -3.50    8.40
  -7 -19   9    2.10    4.80
  -7 -19   9   15.40    6.20
   7 -19  -9    4.30    4.50
  -7 -19   9    8.40    3.70
   7  19   9    4.00    3.70
   0  20  -9  164.48   12.40
   0 -20   9  135.89   11.50
   0 -20   9  144.49   11.20
   0 -20  -9  130.89   13.20
   0 -20   9  166.08   13.00
   0  20   9  153.08   10.50
   2 -20   9   47.50    9.40
   2 -20   9   52.79    7.40
   2  20  -9   55.79   10.60
   2 -20   9   57.79    6.60
  -2  20   9   52.09    5.30
  -2 -20  -9   48.70   11.00
  -2 -20   9   51.69    7.50
  -2 -20   9   50.59    6.60
  -2 -20   9   62.69   11.20
   2 -20  -9   45.90    5.40
  -2  20  -9   53.19    7.00
   2 -20  -9   42.10    8.80
   2  20   9   49.20    6.40
   4 -20   9   82.19   10.20
   4  20  -9  105.89   11.20
   4 -20   9   56.99   10.50
  -4 -20  -9   67.29    9.60
  -4 -20   9   97.69    9.60
   4  20   9   77.99    8.90
  -4 -20   9   83.59    9.50
  -4 -20   9   74.79   14.50
   4 -20  -9   88.09    9.00
   4 -20  -9   84.39   11.30
   6  20  -9   31.30    8.60
   6 -20   9   36.60    8.70
  -6 -20  -9   19.60    8.00
  -6 -20   9   29.20    7.10
   6  20   9   32.60    8.10
  -6 -20   9   22.00    6.60
  -6 -20   9   34.80    7.40
   1 -21   9   98.59    9.40
  -1  21   9  111.79    8.10
  -1 -21  -9   88.19   10.70
   1  21  -9   86.49    8.70
   1 -21   9   96.09    8.70
   1 -21   9   91.49   10.20
  -1 -21   9   80.89    8.90
   1 -21  -9   88.09   11.30
  -1  21  -9   95.19    9.00
  -1 -21   9   82.49    9.70
   1  21   9  112.89    9.40
  -1 -21   9  105.49   10.50
   3 -21   9  122.49    9.10
   3 -21   9   92.19   10.20
   3  21  -9   95.99   11.00
   3 -21   9   97.99   11.30
  -3 -21  -9  116.99   12.20
  -3 -21   9   91.59    9.70
  -3 -21   9   91.99   10.00
   3 -21  -9   90.49    8.30
   3 -21  -9   93.99   11.20
  -3 -21   9   84.99    9.50
   3  21   9  103.19    9.80
   5  21  -9   59.69   14.90
  -5 -21  -9   39.70    9.60
  -5 -21   9   40.30    8.10
  -5 -21   9   49.00    7.70
   5  21   9   35.90    8.40
  -5 -21   9   47.20    9.60
   5 -21  -9   31.70    6.50
   0 -22   9   55.79    8.00
   0 -22   9   61.09    8.00
   0  22  -9   63.29    8.00
   0 -22  -9   65.79   13.60
  -2 -22  -9   55.79   11.70
   2 -22   9   53.59   10.60
   2  22  -9   56.59   11.10
   2 -22   9   41.20    7.50
   2 -22   9   64.39    8.50
  -2 -22   9   62.29    7.90
  -2 -22   9   76.99    8.60
   2 -22  -9   43.40    9.30
   2  22   9   77.19    7.80
  -2  22  -9   47.20    8.60
   2 -22  -9   65.19    6.90
  -2 -22   9   57.49    7.60
  -4 -22  -9   45.00    9.90
   4  22  -9   45.70    9.80
  -4 -22   9   31.80    6.40
   4  22   9   36.20    8.30
   4 -22  -9   28.20    6.50
  -4 -22   9   24.90    6.80
  -4 -22   9   23.40    6.50
   1 -23   9   -5.20    3.40
   1 -23   9    2.30    3.70
  -1  23   9    2.10    3.50
  -1 -23  -9   -1.90    3.80
   1  23  -9   -1.50    3.10
   1 -23  -9    5.40    4.50
  -1 -23   9    4.50    3.90
  -1 -23   9   -5.50    5.00
   1  23   9   -1.30    3.00
  -1 -23   9    7.00    3.50
  -1  23  -9    8.10    4.40
   3  23  -9    4.80    5.40
   3 -23   9    8.90    3.90
  -3 -23  -9    2.00    7.00
  -3 -23   9    4.50    4.30
   3 -23  -9    0.10    5.00
  -3 -23   9    6.90    5.30
   3 -23  -9  -18.10    9.50
   3  23   9    5.20    3.50
  -3 -23   9    1.30    3.30
   0 -24  -9   67.39   17.90
   0 -24   9   49.60    9.70
   0  24  -9   61.29    8.50
   0  24   9   75.39    8.00
   0 -24   9   73.29    8.30
   2  24  -9   58.49   10.90
  -2 -24  -9   69.49    9.80
   2 -24   9   41.50    8.00
   2 -24   9   57.19    9.90
   2  24   9   48.40    8.40
  -2 -24   9   56.99   11.20
  -2 -24   9   48.30   10.50
   2 -24  -9   57.29   12.50
   0   0  10  200.88    9.80
   0   0  10  202.08    8.10
  -2   0  10  300.17   12.50
  -2   0 -10  270.17   10.80
  -2   0  10  280.87   12.60
   2   0  10  292.97   11.90
   2   0 -10  315.07   15.00
   2   0  10  290.67   12.00
  -2   0  10  293.17   11.40
   4   0 -10   83.99   10.10
   4   0  10   91.69    7.30
  -4   0  10   84.29    6.90
   4   0  10   95.39    6.60
   4   0  10   95.59    7.50
   6   0  10   27.90    5.60
   6   0  10   24.10    5.10
  -6   0  10   21.30    3.90
   6   0  10   19.20    3.90
  -6   0  10   25.60    5.90
   6   0 -10   23.90    5.70
  -8   0 -10   13.80    3.80
   8   0 -10   14.90    4.60
   8   0  10   12.20    3.80
  -8   0  10   16.80    4.00
   8   0  10   17.40    5.40
   8   0  10   18.20    4.10
  10   0 -10   21.40    6.90
  10   0  10   10.60    3.90
  10   0  10   17.40    4.80
 -10   0 -10    5.90    4.30
  10   0  10   17.00    5.10
  -1   1  10  398.06   14.30
  -1   1  10  377.96   15.50
   1  -1  10  411.26   14.00
   1  -1  10  400.16   15.10
   1   1 -10  384.26   17.40
  -1   1  10  423.86   15.20
  -1   1  10  401.66   13.00
   1   1  10  421.06   13.70
  -1  -1  10  396.76   12.60
  -1   1 -10  346.27   15.00
   1   1  10  425.46   14.60
  -1  -1  10  383.96   12.40
  -1  -1  10  412.86   15.70
  -1  -1  10  393.06   13.50
  -3   1  10  316.47   13.30
  -3  -1 -10  310.67   11.50
   3   1 -10  318.47   15.80
   3  -1  10  345.17   15.10
  -3   1  10  327.87   14.50
   3  -1  10  316.57   13.50
   3  -1  10  327.97   14.40
   3  -1 -10  321.87   15.50
  -3  -1  10  312.77   13.00
  -3  -1  10  306.57   13.80
   3   1  10  325.87   19.60
   3   1  10  318.87   12.50
  -3   1 -10  295.97   13.50
  -3  -1  10  328.07   16.70
   3   1  10  373.16   22.20
  -5  -1 -10  185.38    9.10
   5  -1  10  198.48   11.10
   5  -1  10  207.68   11.70
   5  -1  10  208.88   11.70
  -5   1  10  207.18   12.10
   5   1 -10  202.98   12.70
  -5  -1  10  224.78   12.40
   5   1  10  202.28   11.80
   5   1  10  198.98   10.00
   5  -1 -10  197.88   12.10
   5   1  10  210.98   11.90
   7  -1  10   79.99    7.30
   7  -1  10   88.99    8.40
  -7  -1 -10   78.79    6.50
  -7   1  10   89.39    8.90
  -7   1  10   81.39    6.10
   7   1 -10   85.39    8.30
   7  -1  10   83.19    7.40
   7  -1 -10   89.49    7.90
   7   1  10   81.19    9.00
  -7  -1  10  101.49    9.40
   7   1  10   80.09    7.60
   7   1  10   81.89    8.00
  -7  -1  10   73.89    6.20
   9  -1  10   43.60    5.20
  -9   1  10   33.70    7.10
  -9  -1 -10   45.50    5.70
   9  -1  10   46.00    6.50
   9   1 -10   40.90    7.20
   9  -1  10   46.40    5.40
  -9   1 -10   42.50    5.30
   9  -1 -10   49.10    6.50
  -9  -1  10   41.40    8.40
   9   1  10   45.60    8.10
   9   1  10   42.80    5.40
   9   1  10   49.50    7.90
   0   2 -10  173.58   10.90
   0   2  10  169.38    8.50
   0  -2  10  175.88    8.00
   0   2  10  164.68    7.60
   0   2  10  173.78    6.90
   0  -2  10  185.88    9.70
   0   2  10  173.18    8.30
   2  -2  10  150.88    8.20
  -2   2  10  135.69    8.70
  -2   2  10  146.09    8.60
   2   2 -10  146.99   10.30
  -2   2  10  140.89    8.40
   2  -2  10  148.19    8.80
  -2  -2  10  143.99    7.20
   2   2  10  150.58    7.90
  -2  -2  10  156.18    8.10
  -2   2 -10  137.49    7.60
   2   2  10  159.18    9.50
  -2  -2  10  136.79    8.80
   2  -2 -10  139.39    9.70
  -2  -2  10  148.59    7.60
   2   2  10  135.29    7.10
  -4   2  10   34.30    4.60
   4  -2  10   32.40    4.60
   4  -2  10   35.50    6.50
  -4  -2 -10   33.30    3.10
   4   2 -10   43.80    6.10
   4  -2 -10   36.80    5.30
   4   2  10   34.70    4.70
  -4  -2  10   38.40    5.20
  -4  -2  10   37.90    4.80
   4   2  10   39.80    5.20
   4   2  10   35.70    3.60
   6  -2  10    5.60    2.70
  -6  -2 -10   -0.50    2.10
  -6   2  10    0.50    2.00
   6  -2  10    5.20    3.00
   6  -2  10    3.10    2.30
  -6  -2 -10    4.70    2.20
   6   2 -10    3.80    3.10
  -6   2  10    2.40    1.40
   6   2  10    4.40    1.90
  -6  -2  10    4.80    2.70
   6   2  10    3.00    2.20
   6  -2 -10    4.80    2.20
   6   2  10    2.30    2.30
  -6  -2  10    4.10    1.70
  -8  -2 -10    9.40    3.30
   8  -2  10    5.90    2.80
   8  -2  10   11.00    2.90
   8  -2  10    6.80    3.20
   8   2 -10    9.40    3.40
  -8   2  10    3.20    2.10
  -8   2  10    5.50    3.40
   8  -2 -10    9.60    3.10
   8   2  10    4.30    2.80
   8   2  10    4.30    2.60
   8   2  10    7.10    2.70
  -8  -2  10    9.60    3.10
 -10  -2 -10    4.20    4.30
  10   2 -10    5.10    3.90
  10  -2  10    2.00    2.80
 -10   2  10   -5.20    2.80
  10  -2  10    1.90    3.30
 -10  -2  10    5.30    3.50
  10  -2 -10    8.00    4.60
  10   2  10    3.10    2.50
  10   2  10    6.50    3.20
  10   2  10    6.70    3.90
 -10   2 -10    3.80    3.50
  -1  -3 -10  804.42   22.90
   1  -3  10  822.12   26.30
   1  -3  10  852.21   24.90
  -1   3  10  844.42   26.00
   1   3 -10  855.71   29.10
  -1   3  10  801.52   25.10
  -1   3  10  850.91   24.70
  -1   3 -10  739.83   24.40
  -1  -3  10  874.21   23.80
  -1  -3  10  872.01   27.00
   1   3  10  894.91   27.00
   1   3  10  801.22   22.70
   1   3  10  851.51   23.90
   1   3  10  814.72   23.00
   1   3  10  825.72   23.40
   3   3 -10  621.44   24.70
  -3   3  10  644.34   21.30
  -3  -3 -10  578.24   17.10
   3  -3  10  592.04   21.70
   3  -3  10  643.14   21.60
   3  -3 -10  626.54   23.10
  -3  -3  10  606.04   20.30
  -3  -3  10  626.94   22.60
  -3  -3  10  633.84   18.80
   3   3  10  646.74   21.00
   3   3  10  646.74   22.70
   5  -3  10  525.35   19.90
   5   3 -10  501.75   22.50
  -5   3  10  518.45   21.00
  -5  -3 -10  504.45   17.60
   5  -3  10  531.25   20.70
  -5  -3  10  527.25   20.90
   5   3  10  520.25   20.40
   5   3  10  486.95   16.40
  -5  -3  10  529.35   21.60
   5   3  10  460.95   16.00
   5  -3 -10  526.25   20.40
   5   3  10  539.65   21.20
   7   3 -10  144.99   11.40
   7  -3  10  125.39   10.00
  -7   3  10  151.28    8.10
   7  -3  10  134.49   10.40
  -7  -3 -10  143.29    7.50
  -7   3  10  150.18   11.60
   7  -3  10  125.79    9.00
  -7  -3  10  145.69    9.20
  -7  -3  10  138.49   11.10
   7  -3 -10  123.09    9.00
   7   3  10  133.09    7.80
   7   3  10  135.79   10.50
   7   3  10  151.18   10.90
   9   3 -10   95.19   10.40
  -9   3  10  115.89   11.20
   9  -3  10  110.89   10.20
   9  -3  10  114.09    8.20
  -9  -3 -10  114.89    9.30
   9  -3  10  105.29    9.70
   9   3  10  102.19    9.20
   9   3  10  108.69    7.50
  -9  -3  10  122.29   11.10
   9  -3 -10  112.29    8.20
   9   3  10   90.09   10.00
  -9  -3  10  121.99   11.60
  -9   3 -10  101.99    7.90
   0   4  10  427.16   15.00
   0  -4 -10  427.46   15.20
   0   4  10  387.26   14.80
   0   4  10  412.36   14.10
   0   4 -10  437.16   18.90
   0  -4  10  446.06   17.40
   0  -4  10  463.45   15.60
   2  -4  10  190.68   10.70
  -2  -4 -10  170.68    8.40
  -2   4  10  178.68   10.10
   2   4 -10  191.28   18.00
  -2   4  10  181.48   10.30
   2  -4  10  176.48    9.40
   2   4  10  185.58    8.80
  -2  -4  10  176.88   10.60
  -2  -4  10  179.58    8.40
  -2  -4  10  180.68    8.60
   2   4  10  171.48    7.70
  -4  -4 -10  200.98    9.60
   4  -4  10  210.08   11.30
   4  -4  10  188.68   11.40
   4   4 -10  192.78   12.80
  -4   4  10  197.08   11.00
  -4  -4  10  193.38   10.70
  -4  -4  10  195.78   11.70
   4   4  10  195.98   11.70
   4   4  10  181.28    8.30
  -4  -4  10  201.38    9.30
   4   4  10  191.98   10.80
   6   4 -10   63.39    7.60
   6  -4  10   60.69    6.60
  -6  -4 -10   71.79    6.20
   6  -4  10   64.99    7.40
   6  -4  10   71.39    6.60
  -6   4  10   56.89    4.30
  -6   4  10   67.79    7.60
   6  -4 -10   58.29    7.10
  -6  -4  10   73.59    7.50
   6   4  10   58.49    6.80
  -6  -4  10   61.49    7.20
   6   4  10   51.49    6.40
   8   4 -10   22.70    6.00
  -8  -4 -10   33.20    6.00
   8  -4  10   26.00    4.90
  -8   4  10   30.40    6.90
   8  -4  10   30.90    6.50
  -8   4  10   31.10    3.90
   8  -4  10   30.50    6.50
   8   4  10   31.60    6.30
   8   4  10   31.30    6.00
  -8  -4  10   35.10    8.00
   8  -4 -10   33.10    4.50
  -8  -4  10   35.20    8.20
  -8  -4  10   39.10    5.30
  10  -4  10   13.40    3.70
  10  -4  10   15.70    4.20
  10   4 -10   16.80    5.00
 -10  -4 -10    9.40    3.90
 -10   4  10   13.40    5.10
 -10  -4  10    9.70    4.60
  10   4  10   11.90    3.20
 -10   4 -10    2.80    3.70
  10   4  10   13.70    5.70
 -10  -4  10   11.60    4.40
   1  -5  10  188.58    9.60
   1  -5  10  182.18   10.60
   1   5 -10  175.58   11.70
  -1  -5 -10  181.78    9.20
  -1   5  10  180.28    9.10
  -1   5  10  176.98   11.30
  -1   5  10  193.08    8.80
   1   5  10  171.38    7.40
   1   5  10  184.88    8.80
   1   5  10  176.28    8.80
  -1  -5  10  165.58   10.10
   1  -5 -10  179.48    9.90
  -1   5 -10  184.38   11.70
   1   5  10  166.08    9.90
   1   5  10  177.58    7.30
   3  -5  10  104.79    8.30
   3   5 -10   93.49    8.90
   3  -5  10  101.99    7.70
  -3  -5 -10  100.29    6.80
   3   5  10   92.79    7.70
   3   5  10   94.49    5.80
   3   5  10   95.69    7.00
  -3  -5  10   98.79    6.90
  -3  -5  10   99.69    8.20
  -3  -5  10  108.99    6.80
   5  -5  10  121.39    8.30
   5  -5  10  118.49    9.10
   5   5 -10  123.29   10.30
  -5  -5 -10  117.39    7.90
  -5   5  10  117.09    9.30
   5  -5  10  127.59    9.80
   5   5  10  110.49    8.90
   5   5  10  111.09    8.70
  -5  -5  10  123.39    9.30
  -5  -5  10  120.39    7.70
   5   5  10   90.89    6.20
  -5  -5  10  110.59    9.10
   7  -5  10   82.39    7.90
  -7  -5 -10   82.89    7.30
  -7   5  10   84.29    8.90
   7   5 -10   90.19    9.10
   7  -5  10   70.39    8.10
  -7   5  10   83.49    5.60
   7  -5  10   84.99    6.90
  -7  -5  10   89.49    9.10
  -7  -5  10   79.59    7.40
  -7  -5  10   86.29    8.90
   7   5  10   71.49    7.70
   7   5  10   68.99    7.80
   9  -5  10   24.50    5.50
   9  -5  10   40.80    4.70
   9  -5  10   26.90    6.50
  -9   5  10   27.50    7.20
   9   5 -10   51.99    7.10
  -9  -5 -10   44.10    6.20
   9   5  10   28.40    6.40
   9   5  10   28.20    6.80
  -9  -5  10   33.30    6.70
  -9  -5  10   25.00    7.50
  -9   5 -10   33.00    5.20
   0   6  10  344.97   13.30
   0   6  10  357.26   12.70
   0   6  10  341.67   14.90
   0   6  10  358.56   12.10
   0   6  10  374.06   15.20
   0  -6 -10  378.06   15.10
   0   6 -10  361.26   17.30
   2  -6  10  359.06   14.90
   2   6 -10  327.77   17.00
  -2  -6 -10  349.37   14.20
   2  -6  10  360.46   16.30
  -2   6  10  314.57   14.20
   2   6  10  314.07   12.90
   2   6  10  351.76   13.40
  -2  -6  10  335.57   13.00
  -2  -6  10  348.77   16.00
   2   6  10  350.86   15.50
  -2  -6  10  339.27   13.60
   4  -6  10  154.88    9.30
  -4  -6 -10  156.48    9.30
   4  -6  10  153.68   10.90
   4   6 -10  156.68   11.80
  -4  -6  10  159.48   11.40
   4   6  10  142.19    7.80
  -4  -6  10  149.69   10.60
  -4  -6  10  151.48    8.70
   4   6  10  157.78   10.70
   4   6  10  158.68    9.80
   6  -6  10   90.09    8.30
   6  -6  10   78.89    8.30
  -6   6  10   82.09    8.40
   6   6 -10   90.19    9.20
   6  -6  10   93.69    7.10
  -6  -6 -10   92.69    8.90
  -6  -6  10   87.59    8.50
  -6  -6  10   73.29    7.10
  -6  -6  10   90.69    7.10
   6   6  10   83.89    8.00
   6   6  10   97.99    8.90
  -6  -6  10   87.79    8.40
   8  -6  10   22.50    5.60
   8   6 -10   15.60    5.80
   8  -6  10   26.60    4.60
  -8   6  10   22.60    4.20
  -8  -6 -10   26.90    5.40
  -8   6  10   24.30    6.50
   8  -6  10   24.70    5.80
   8   6  10   28.60    6.80
   8   6  10   21.90    5.00
  -8  -6  10   20.60    5.80
  -8  -6  10   24.20    5.00
  -8  -6  10   17.30    5.20
  10   6 -10   10.70    5.90
  10  -6  10    8.90    4.80
 -10   6  10    8.60    7.20
 -10  -6 -10   13.20    4.40
  10   6  10   16.00    5.10
 -10  -6  10    4.40    3.90
 -10  -6  10    3.00    4.50
 -10  -6  10    1.20    3.60
  -1  -7 -10   39.20    5.00
   1   7 -10   51.09    6.80
  -1   7  10   39.80    3.80
  -1   7  10   43.20    4.80
   1  -7  10   35.90    7.80
  -1   7  10   32.70    4.60
   1   7 -10   33.60    3.10
   1   7  10   33.10    3.90
  -1  -7  10   37.00    3.70
   1  -7 -10   38.80    5.20
  -1  -7  10   41.00    7.10
  -1   7 -10   40.60    5.80
  -1  -7  10   37.90    4.70
   1   7  10   38.50    5.10
   1   7  10   36.90    3.80
   3   7 -10   54.09    7.10
   3   7 -10   56.39    7.30
  -3  -7 -10   54.39    5.80
   3  -7  10   62.79    7.00
  -3  -7 -10   48.60    3.70
   3   7  10   55.49    6.30
   3   7  10   65.49    5.90
   3   7  10   51.99    4.80
  -3  -7  10   54.09    5.20
  -3  -7  10   55.19    6.40
  -3  -7  10   62.29    5.60
   5  -7  10   44.70    6.30
  -5  -7 -10   39.30    5.30
   5  -7  10   35.40    5.20
   5   7 -10   38.60    7.80
   5   7  10   35.40    6.80
  -5  -7  10   43.50    5.50
  -5  -7  10   42.40    5.00
   5  -7 -10   50.59    6.90
   5   7  10   36.00    6.40
  -5  -7  10   36.00    7.20
  -7  -7 -10   37.70    5.20
   7  -7  10   50.89    7.20
  -7   7  10   33.10    7.20
   7  -7  10   41.10    5.70
  -7   7  10   46.30    4.30
   7  -7  10   46.30    4.60
   7   7 -10   39.50    8.40
  -7  -7  10   45.20   10.50
   7   7  10   43.40    6.20
   7  -7 -10   31.70    7.50
   7   7  10   42.20    6.10
  -7  -7  10   40.10    7.60
  -7  -7  10   46.70    6.50
  -7  -7  10   38.40    5.40
   9  -7  10   14.60    5.40
  -9  -7 -10   25.70    6.40
  -9   7  10   23.70    6.00
   9   7 -10   24.70    6.10
   9  -7  10   21.20    5.60
   9   7  10   21.00    5.50
   9   7  10   20.90    5.70
  -9  -7  10   40.80    5.40
  -9  -7  10   24.80    6.40
   0   8  10   88.99    9.00
   0   8  10   93.59    5.40
   0  -8 -10   92.69    7.90
   0   8 -10   87.29    8.60
   0   8  10   79.89    7.90
   0  -8  10   89.59    7.10
   0  -8  10   94.79    8.10
  -2   8  10   64.79    5.40
   2   8 -10   76.39    8.30
   2  -8  10   73.89    7.70
  -2   8  10   67.09    5.70
  -2  -8 -10   76.89    6.90
   2   8  10   71.69    5.80
   2  -8 -10   75.59    7.70
  -2  -8  10   70.39    6.30
  -2  -8  10   67.69    5.60
  -2   8 -10   66.59    7.40
   2   8  10   65.79    5.70
  -2  -8  10   73.59    7.30
   2   8  10   75.29    7.10
   4   8 -10   66.69    8.10
  -4  -8 -10   67.99    5.10
  -4   8  10   66.09    5.30
   4  -8  10   63.29    7.90
   4  -8  10   60.19    7.30
  -4  -8 -10   78.99    7.10
  -4  -8  10   81.69    7.90
   4   8  10   63.19    7.00
   4   8  10   72.19    6.80
  -4  -8  10   66.49    6.10
  -4  -8  10   72.29    6.80
   4  -8 -10   62.59    7.00
   6  -8  10   19.40    5.50
   6  -8  10   20.60    4.00
   6  -8  10   22.70    5.20
  -6   8  10   21.90    5.80
   6   8 -10   17.10    4.90
  -6  -8 -10   21.40    4.80
  -6  -8  10   21.90    5.50
  -6  -8  10   10.70    3.90
   6   8  10   25.70    5.70
   6  -8 -10   27.90    6.70
   6   8  10   24.00    5.50
  -6  -8  10   19.40    5.80
  -6  -8  10   23.20    5.50
  -8   8  10   51.69    4.60
   8  -8  10   37.90    7.10
  -8  -8 -10   59.59    6.60
  -8   8  10   38.50    8.00
   8  -8  10   60.79    7.70
   8   8 -10   37.50    8.30
  -8  -8  10   57.09    7.50
   8   8  10   52.19    9.10
  -8  -8  10   49.99    7.30
  -8  -8  10   58.69    6.40
   8   8  10   46.30    8.60
   8  -8 -10   46.70    9.00
 -10  -8 -10    5.90    3.50
  10   8 -10    8.60    4.50
 -10   8  10    4.50    3.90
  10  -8  10   18.30    5.50
 -10  -8  10   10.20    5.40
 -10  -8  10    7.50    4.00
 -10  -8  10   13.80    5.50
  10   8  10    4.00    3.90
   1  -9  10  987.20   33.10
   1   9 -10 1045.50   35.20
   1   9 -10  955.60   26.80
  -1   9  10 1002.70   30.20
   1  -9  10 1014.10   31.20
  -1  -9 -10  980.40   32.20
  -1   9  10  907.91   27.60
   1   9  10  998.50   28.30
   1   9  10 1002.30   31.50
  -1   9 -10  980.80   33.60
  -1  -9  10  942.61   28.10
  -1  -9  10 1003.10   33.20
   1  -9 -10 1018.60   33.20
  -1  -9  10  988.80   30.50
   3   9 -10  682.63   28.00
  -3  -9 -10  689.13   25.30
   3  -9  10  688.03   27.00
  -3   9  10  702.23   22.50
   3  -9  10  666.43   27.20
  -3  -9  10  716.73   26.70
   3   9  10  697.73   25.90
  -3  -9  10  695.13   24.00
   3  -9 -10  690.53   24.80
  -3  -9  10  696.03   24.00
   3   9  10  700.23   23.90
   5  -9  10  421.56   19.00
  -5  -9 -10  429.26   19.00
   5  -9  10  404.16   20.60
   5   9 -10  416.06   21.80
  -5  -9  10  414.76   19.90
  -5  -9  10  394.06   17.40
  -5  -9  10  400.86   18.50
   5   9  10  415.36   18.70
   5  -9 -10  420.36   20.20
   5   9  10  407.76   19.70
  -7  -9 -10  183.48   12.60
   7  -9  10  168.38   13.70
  -7   9  10  178.28   13.60
   7  -9  10  172.38   11.50
   7  -9  10  156.58   11.80
  -7  -9  10  177.78   13.20
   7   9  10  176.98   12.70
   7   9  10  160.58   14.10
  -7  -9  10  178.68   11.40
   7  -9 -10  174.78   20.90
  -7  -9  10  198.58   14.60
   9  -9  10   69.39    9.10
   9   9 -10   62.39    8.70
  -9   9  10   66.89    9.20
  -9  -9 -10   66.39    8.80
   9  -9 -10   80.99   10.00
  -9  -9  10   75.19    9.40
  -9  -9  10   89.49    8.20
   9   9  10   54.99    9.70
   9   9  10   62.99    8.30
  -9  -9  10   77.29    8.80
   0 -10  10  356.26   14.10
   0 -10  10  417.86   17.50
   0 -10 -10  397.56   21.80
   0  10  10  420.46   17.20
   0  10  10  419.06   14.60
   0 -10  10  452.35   19.70
   0  10 -10  401.86   19.50
  -2  10  10  201.98   10.20
  -2  10  10  171.88    9.50
   2 -10  10  204.88   11.80
  -2 -10 -10  202.88   12.70
   2  10 -10  187.68   13.30
   2  10 -10  187.48    9.20
   2 -10  10  199.88   12.90
  -2 -10  10  202.98   12.80
   2  10  10  189.78   10.30
  -2 -10  10  189.68   11.00
  -2 -10  10  185.98   10.50
  -2  10 -10  177.38   12.10
   2  10  10  208.28   12.10
   2 -10 -10  203.58   13.00
   4 -10  10  168.58   11.20
  -4 -10 -10  150.28    7.90
  -4 -10 -10  147.49   10.80
  -4  10  10  160.88    8.40
   4  10 -10  158.78   12.70
   4 -10  10  158.38   12.20
   4  10  10  160.08   11.40
  -4 -10  10  168.48   10.90
   4  10  10  152.88   10.40
   4 -10 -10  161.98   11.30
  -4 -10  10  163.88   10.20
  -4 -10  10  158.78   11.60
   6  10 -10   83.99    9.50
   6 -10  10   62.59    8.00
   6 -10  10   56.39    7.00
  -6 -10 -10   83.09    8.00
  -6 -10 -10   56.39    6.30
   6 -10  10   69.49    7.50
  -6 -10  10   51.79    8.70
   6  10  10   61.89    7.70
  -6 -10  10   82.59    7.60
   6 -10 -10   70.49    8.50
   6  10  10   60.69    7.50
  -6 -10  10   65.79    7.90
  -6 -10  10   73.79    7.90
  -8  10  10   25.50    6.20
   8 -10  10   28.20    7.00
  -8  10  10   41.90    5.10
   8  10 -10   34.50    8.20
   8 -10  10   35.20    7.80
  -8 -10 -10   27.50    7.50
   8  10  10   24.30    6.20
  -8 -10  10   26.50    5.40
   8  10  10   26.00    6.10
   8 -10 -10   23.40    6.30
  -8 -10  10   31.70    7.50
  -1 -11 -10  270.17   15.10
  -1  11  10  247.28   10.60
   1  11 -10  247.18   10.80
   1 -11  10  265.57   15.20
   1 -11  10  281.27   14.10
  -1  11  10  256.87   12.60
   1  11 -10  269.37   16.00
  -1 -11  10  268.77   15.00
   1 -11 -10  261.87   15.20
  -1  11 -10  271.97   15.50
   1  11  10  281.87   12.40
   1  11  10  263.97   13.70
  -1 -11  10  264.07   12.40
  -1 -11  10  269.47   13.60
   3  11 -10  228.58   15.30
   3 -11  10  234.38   14.80
   3 -11  10  244.88   13.40
  -3 -11 -10  212.78   13.50
  -3  11  10  219.88   10.60
  -3 -11  10  231.28   12.60
  -3 -11  10  215.98   12.40
   3 -11 -10  220.08   14.60
   3  11  10  228.18   13.70
   3  11  10  215.08   12.20
  -3 -11  10  237.48   14.20
   3 -11 -10  224.78   12.50
  -5 -11 -10  102.29    7.10
   5 -11  10  106.79    9.10
   5  11 -10  106.09   11.00
  -5 -11 -10  109.19    9.60
   5 -11  10  112.99   10.70
   5 -11  10  104.19   11.20
   5  11  10  105.19    9.10
  -5 -11  10   99.89    9.30
  -5 -11  10  111.59    8.90
  -5 -11  10  117.89    9.70
   5  11  10  102.69    9.60
   5 -11 -10  112.89    9.90
  -7  11  10   92.79   10.20
   7 -11  10   82.69    8.50
   7 -11  10   84.79    9.80
  -7 -11 -10   77.59    8.50
   7  11 -10   88.99   10.50
  -7 -11  10   76.59    8.90
  -7 -11  10   89.29    8.40
   7  11  10   91.39    9.20
   7  11  10   85.69    8.80
  -7 -11  10   97.29    9.60
   7 -11 -10   91.59    9.90
  -9  11  10   11.90    4.90
   9  11 -10   15.70    5.10
   9 -11  10    3.70    4.20
  -9 -11 -10   -0.20    3.90
  -9 -11  10    4.60    4.70
  -9 -11  10    4.30    4.30
  -9 -11  10    8.70    4.40
   9 -11 -10    2.50    4.20
   9  11  10   17.30    4.90
   0 -12  10   43.90    4.80
   0 -12 -10   37.30    7.00
   0  12 -10   34.30    3.60
   0 -12  10   37.70    5.20
   0  12 -10   37.90    7.30
   0  12  10   42.60    5.20
   0 -12  10   56.09    9.80
   2 -12  10   98.29    8.40
  -2 -12 -10  108.19    9.70
   2 -12  10   96.79    9.40
  -2  12  10  104.89    5.80
   2  12 -10   98.09    9.70
   2  12  10   95.59    8.40
   2 -12 -10  111.19   10.10
  -2 -12  10   99.29    9.20
  -2 -12  10  108.99    8.50
  -2 -12  10  105.99    8.10
   2 -12 -10  102.69    7.30
  -2  12 -10  107.79    9.50
  -4 -12 -10   28.80    6.20
   4  12 -10   26.70    7.30
  -4  12  10   27.50    3.50
   4 -12  10   31.70    6.30
  -4 -12 -10   28.40    3.80
   4 -12  10   25.70    6.40
   4  12  10   24.50    5.80
   4 -12 -10   25.50    6.00
   4  12  10   22.30    5.40
  -4 -12  10   27.90    6.00
  -4 -12  10   27.40    5.80
  -4 -12  10   43.30    5.90
   6  12 -10   14.80    5.40
  -6 -12 -10   29.90    6.60
   6 -12  10   14.50    4.50
  -6 -12  10   18.70    5.00
   6 -12 -10   26.00    7.00
  -6 -12  10   15.00    6.30
   6  12  10   22.60    5.80
  -8  12  10   18.00    5.90
   8 -12  10   13.30    5.50
   8  12 -10   17.10    6.40
   8 -12 -10   24.90    6.90
  -8 -12  10   13.60    4.80
  -8 -12  10   20.60    5.60
  -8 -12  10   20.40    6.00
   8  12  10   16.30    5.00
  -1 -13 -10   14.90    5.50
   1  13 -10   12.50    5.10
  -1  13  10   15.90    3.80
   1 -13  10    8.60    3.30
  -1  13  10   10.70    2.50
   1 -13  10   13.70    3.20
   1 -13  10   11.60    4.50
   1 -13 -10   13.50    5.70
  -1 -13  10   11.90    4.40
  -1 -13  10   12.80    4.10
   1  13  10    9.90    3.50
  -1 -13  10   12.30    3.70
  -1  13 -10   11.30    4.30
   3  13 -10   32.90    7.50
  -3  13  10   32.20    3.90
   3 -13  10   41.20    8.80
   3 -13  10   35.50    6.80
  -3 -13 -10   41.70    8.00
  -3 -13  10   22.90    5.50
  -3 -13  10   29.00    5.90
   3 -13 -10   41.60    9.70
   3 -13 -10   28.70    5.60
  -3 -13  10   35.90    5.10
   3  13  10   24.90    5.60
   5 -13  10   14.00    5.20
  -5 -13 -10   20.10    6.20
   5 -13  10   16.90    5.20
  -5  13  10   15.50    3.00
   5  13 -10   15.90    5.40
  -5 -13  10   16.60    5.10
   5  13  10   11.70    4.00
  -5 -13  10   22.30    4.80
   5 -13 -10   20.60    5.40
  -5 -13  10   23.50    5.80
   7  13 -10   -0.10    3.20
   7 -13  10    6.70    4.80
   7 -13  10   13.00    4.30
  -7 -13 -10   13.40    4.60
   7  13  10    9.30    3.90
  -7 -13  10   10.10    4.50
  -7 -13  10    8.60    3.50
  -7 -13  10    7.20    3.40
   7 -13 -10   10.50    4.20
  -9  13  10   16.20    6.40
   9 -13  10    1.70    4.80
   9  13 -10   14.90    5.30
  -9 -13 -10   12.50    5.40
  -9 -13  10   26.60    7.30
   9  13  10   16.50    5.20
  -9 -13  10   18.60    4.90
   9 -13 -10    8.70    5.60
  -9 -13  10    7.20    6.90
   0 -14  10  130.39    8.80
   0  14 -10  119.29   10.50
   0  14  10  121.19    9.00
   0 -14 -10  137.29   11.40
   0 -14  10  139.09   10.20
   0 -14  10  136.79   11.10
  -2  14  10  166.38    9.50
  -2  14  10  156.18    8.10
  -2 -14 -10  150.98   12.20
   2 -14  10  172.98   11.50
   2  14 -10  168.18   13.20
   2 -14  10  169.08   12.80
   2  14  10  160.28   11.30
  -2 -14  10  150.18   11.80
  -2  14 -10  176.38   12.10
  -2 -14  10  167.68   11.00
  -2 -14  10  159.08   11.00
   2 -14 -10  161.18   13.10
   2 -14 -10  168.28    9.60
   4 -14  10   94.09    9.80
   4  14 -10   82.09    9.90
  -4  14  10   90.79    6.00
  -4 -14 -10   77.69    8.90
   4 -14  10   82.39    8.30
  -4 -14  10   84.59    7.80
  -4 -14  10   84.19    8.80
   4  14  10   92.79    8.90
   4 -14 -10   88.29    8.10
  -4 -14  10   88.49    8.50
   4 -14 -10   83.99    9.50
   6 -14  10   55.99    7.30
   6 -14  10   44.10    9.40
   6  14 -10   44.30    9.60
  -6 -14 -10   51.49    9.60
  -6 -14  10   57.89    7.60
  -6 -14  10   61.39    8.60
  -6 -14  10   63.29    7.00
   6  14  10   63.49    7.80
  -8 -14 -10   38.10    7.90
  -8  14  10   31.60    6.70
   8  14 -10   39.10    9.00
   8 -14  10   16.50    6.50
  -8 -14  10   36.80    7.90
   8  14  10   42.80    8.40
   8 -14 -10   65.89    8.50
  -8 -14  10   37.90    8.10
  -8 -14  10   19.80    5.00
   1 -15  10  102.59    8.90
   1  15 -10   95.99    9.60
  -1 -15 -10   97.49   10.10
   1 -15  10   87.19    7.20
  -1  15  10   94.49    7.40
   1 -15  10   99.49    9.80
  -1  15 -10   92.59    9.20
  -1 -15  10   95.19    9.40
   1 -15 -10   92.39   10.00
   1  15  10   87.99    8.10
  -1 -15  10  101.79    8.90
  -1 -15  10   90.39    8.10
   3 -15  10   72.99    8.80
   3  15 -10   57.09    7.60
  -3  15  10   65.59    5.30
   3 -15  10   68.29    7.10
  -3 -15 -10   69.39    8.40
  -3 -15  10   49.40    6.90
  -3 -15  10   59.69    7.10
  -3 -15  10   61.29    6.90
   3 -15 -10   70.09    8.70
   3  15  10   76.29    7.90
   3 -15 -10   59.29    6.60
   5 -15  10   83.79   10.10
   5  15 -10   72.89   10.20
  -5 -15 -10   74.49    9.10
  -5  15  10   90.09    6.10
   5 -15  10   75.29    8.40
  -5 -15  10   80.29    8.50
  -5 -15  10   88.79    9.80
   5  15  10   80.89    8.80
   5 -15 -10   75.99    8.40
  -5 -15  10   77.99    8.40
   7  15 -10   41.10    8.80
  -7 -15 -10   32.70    7.70
   7 -15  10   28.80    7.00
  -7 -15  10   36.00    7.40
   7  15  10   38.50    8.60
  -7 -15  10   45.40    6.10
   7 -15 -10   38.40    8.00
  -7 -15  10   30.20    6.90
   0 -16 -10  241.48   16.80
   0  16 -10  273.47   16.60
   0 -16  10  257.57   14.80
   0 -16  10  241.58   13.50
   0  16  10  275.77   14.30
   0 -16  10  274.07   16.80
  -2  16  10  169.38    9.70
   2 -16  10  164.58   11.70
   2  16 -10  138.69   12.40
   2 -16  10  168.18   13.50
  -2 -16 -10  159.88   13.00
  -2  16  10  160.98    8.80
   2 -16  10  168.98    9.70
  -2  16 -10  161.88   12.20
   2  16  10  152.08   11.30
  -2 -16  10  144.19   10.80
  -2 -16  10  158.38   11.50
   2 -16 -10  159.58    9.40
  -2 -16  10  160.68   12.50
   2 -16 -10  159.08   13.80
  -4  16  10  121.89    7.60
   4 -16  10  125.69   10.30
   4  16 -10  119.89   12.10
   4 -16  10  121.29   11.90
  -4 -16 -10  127.79   11.60
  -4 -16  10  113.99   10.10
   4 -16 -10  121.19   12.10
  -4 -16  10  131.19   10.40
  -4 -16  10  132.99   12.00
   4 -16 -10  132.49   10.20
   4  16  10  125.29   10.80
   6 -16  10   63.19    8.80
   6  16 -10   86.49   10.60
  -6  16  10   66.29    6.00
  -6 -16 -10   88.79    9.80
   6 -16  10   82.99    9.90
  -6 -16  10   71.99    8.20
   6  16  10   76.79    9.20
   6 -16 -10   80.09    8.80
  -6 -16  10   76.09    8.00
  -6 -16  10   78.29    8.70
   8  16 -10   27.80    6.80
  -8  16  10   16.00    6.00
  -8 -16 -10   20.40    6.50
   8 -16  10   15.50    5.70
   8  16  10   12.00    5.80
  -8 -16  10   11.50    6.20
   8 -16 -10    5.80    9.10
   1 -17  10   24.20    4.90
   1  17 -10   30.90    7.20
   1 -17  10   25.30    5.30
  -1 -17 -10   29.50    7.40
   1 -17  10   21.90    6.50
  -1  17  10   23.20    4.80
  -1 -17  10   30.10    5.50
  -1  17 -10   26.50    5.90
   1 -17 -10   17.10    5.40
  -1 -17  10   25.90    6.50
   1  17  10   31.50    6.70
  -1 -17  10   34.10    6.50
   3 -17  10   39.60    8.60
   3 -17  10   30.50    6.30
  -3  17  10   28.80    5.00
   3  17 -10   30.50    7.10
  -3 -17 -10   34.00    7.70
  -3 -17  10   35.40    7.20
   3 -17 -10   25.90    5.50
  -3 -17  10   25.50    7.00
   3 -17 -10   32.70    7.80
  -3 -17  10   32.40    6.80
  -3  17 -10   49.70    6.10
  -5  17  10   18.60    4.60
   5  17 -10   26.00    7.90
   5 -17  10   21.10    7.10
   5 -17  10   14.30    5.50
  -5 -17 -10   17.20    5.80
  -5 -17  10   17.40    5.50
   5 -17 -10   24.80    5.60
   5  17  10   27.40    6.60
  -5 -17  10   24.00    5.50
  -5 -17  10   31.00    6.70
   7 -17  10   13.50    5.00
  -7 -17 -10   13.00    5.50
  -7 -17  10   14.30    3.90
  -7 -17  10    5.20    3.50
  -7 -17  10    5.00    4.00
   7 -17 -10   23.80    6.30
   0  18 -10  192.08   14.00
   0 -18  10  181.98   12.60
   0 -18  10  187.68   12.10
   0 -18  10  191.58   14.20
   0  18  10  184.28   11.50
   0 -18 -10  178.58   16.70
   2 -18  10  211.18   15.80
  -2  18  10  206.08   10.90
   2 -18  10  210.18   13.80
  -2  18  10  226.08   11.40
   2 -18  10  208.28   12.10
   2  18 -10  199.38   21.30
   2  18  10  222.08   14.20
  -2 -18  10  197.28   13.80
  -2 -18  10  230.18   14.10
   2 -18 -10  204.18   16.00
  -2 -18  10  213.78   15.00
   2 -18 -10  214.98   11.10
  -2  18 -10  207.78   13.80
   4  18 -10  130.79   12.60
  -4  18  10  115.99    7.80
   4 -18  10  124.09   12.00
   4 -18  10  118.09   10.70
  -4 -18 -10  136.09   12.60
   4 -18 -10  129.59   12.80
   4  18  10  146.59   11.90
   4 -18 -10  140.59   10.50
  -4 -18  10  116.99   10.90
  -6 -18 -10   81.89   10.70
   6 -18  10   90.69   11.20
   6  18 -10   97.99   11.50
   6  18  10   88.89    9.70
  -6 -18  10   99.69    9.60
  -6 -18  10   79.89    8.80
  -6 -18  10   79.39    9.30
   6 -18 -10   84.19    9.00
   1 -19  10  108.49   10.70
  -1  19  10  109.09    8.40
   1 -19  10  123.39   10.40
   1 -19  10  118.09    9.10
  -1 -19 -10  112.29   11.60
   1 -19 -10  104.99   11.40
  -1 -19  10  109.99   10.90
  -1  19 -10  116.79   10.10
  -1 -19  10  113.09    9.90
  -1 -19  10  116.09   10.00
   1  19  10  112.89    9.50
   3 -19  10  112.09   11.10
   3 -19  10   98.29    9.70
   3 -19  10  105.59    8.10
  -3 -19 -10   89.49   10.50
   3  19 -10  109.69   11.60
   3 -19 -10  111.79   11.90
   3  19  10  116.49   10.30
  -3 -19  10   93.59   10.30
  -3 -19  10  115.49   10.70
  -3 -19  10  103.49    9.50
   3 -19 -10  102.59    8.70
   5  19 -10   73.59    9.60
  -5 -19 -10   70.89    9.60
   5 -19  10   68.89   12.70
  -5 -19  10   72.99    9.10
   5  19  10   64.99    7.60
  -5 -19  10   54.79    7.80
  -5 -19  10   52.49    7.60
   5 -19 -10   61.19   10.20
   0 -20  10   86.49    9.70
   0 -20  10   76.39    8.20
   0 -20 -10   80.09   10.40
   0  20 -10   92.39   18.60
   0 -20  10   72.29    8.40
   0  20  10   90.99    7.70
  -2 -20 -10   49.30   10.00
   2 -20  10   42.40    6.00
   2 -20  10   32.10    7.80
  -2  20  10   50.79    5.10
   2  20 -10   58.39    7.70
   2 -20  10   56.49    7.60
  -2 -20  10   48.70    9.30
   2 -20 -10   37.50    8.80
   2  20  10   57.49    6.50
  -2  20 -10   72.39    7.70
  -2 -20  10   53.69    7.10
  -2 -20  10   45.60    8.40
   4 -20  10   55.19   10.50
  -4 -20 -10   43.30   10.40
   4  20 -10   54.69   10.40
   4 -20 -10   57.19    7.40
   4  20  10   62.39    7.50
   4 -20 -10   50.09   10.60
  -4 -20  10   46.50    8.60
  -4 -20  10   31.80    7.00
  -4 -20  10   59.29    7.80
  -6 -20 -10   18.30   12.10
   6  20 -10   37.20    8.50
   6 -20  10   20.10    7.10
  -6 -20  10   35.30    6.70
  -6 -20  10   18.50    8.40
   6 -20 -10   53.19    9.60
   6  20  10   34.70    7.70
   1 -21  10    9.00    5.30
   1  21 -10    5.20    3.30
  -1  21  10   10.20    2.80
  -1 -21 -10    7.00    4.70
   1 -21  10    8.00    4.40
   1 -21  10   -0.60    3.40
  -1 -21  10    6.90    4.20
  -1 -21  10   10.90    4.30
   1 -21 -10   14.80    5.20
   1  21  10    8.10    3.30
  -1 -21  10   12.70    4.20
   3  21 -10    5.20    4.00
  -3 -21 -10   -0.20    3.50
   3 -21  10    3.60    6.30
   3 -21  10    3.00    3.10
   3 -21  10   20.50    6.40
  -3 -21  10    7.90    4.30
  -3 -21  10    2.70    3.50
   3  21  10    3.60    2.70
  -3 -21  10    8.60    3.80
   3 -21 -10    9.60    3.90
   3 -21 -10    2.00    4.20
   5 -21  10   -2.60    3.80
   5  21 -10   13.60    5.20
   5 -21 -10    8.40    5.20
  -5 -21  10    5.00    4.30
   5  21  10   25.10    6.30
  -5 -21  10    4.50    5.70
  -5 -21  10   -4.80    3.90
   0 -22 -10   42.80   10.50
   0  22  10   63.69    6.60
   0 -22  10   50.79   10.20
   0 -22  10   67.89    8.80
   0  22 -10   68.29    8.10
   2 -22  10   48.70    7.90
   2  22 -10   70.89   11.10
   2 -22  10   51.79   10.30
  -2 -22 -10   82.69   10.40
  -2  22  10   51.99    5.70
  -2  22 -10   60.99   11.20
  -2 -22  10   60.29   10.70
   2 -22 -10   53.69   10.80
  -2 -22  10   62.19    8.40
   2  22  10   66.49    8.00
  -2 -22  10   67.39    8.20
   4 -22  10   32.50    9.10
   4  22 -10   53.29   12.20
   4 -22 -10   28.00    7.50
  -4 -22  10   19.90    6.10
  -4 -22  10   36.70    7.70
   4 -22 -10   30.40    7.20
  -4 -22  10   35.60    8.00
   1  23 -10   30.40    8.80
  -1  23  10   32.20    5.90
   1 -23  10   28.20    6.20
   1 -23  10   33.70    8.60
  -1 -23 -10   36.50    9.60
  -1  23 -10   39.90    7.00
  -1 -23  10   33.40    7.40
   1  23  10   41.80    7.10
  -1 -23  10   39.60    8.70
   1 -23 -10   38.50   10.80
  -3 -23 -10   35.30    9.00
   3  23 -10   44.30   15.20
   3 -23  10   48.10    9.90
  -3 -23  10   41.40    7.90
   3  23  10   48.70   10.40
  -3 -23  10   64.09    8.10
   3 -23 -10   32.70    8.80
   0  24 -10   49.70    8.00
   0 -24 -10   35.00    8.90
   0 -24  10   36.90    7.50
   0  24  10   40.80    7.90
   0 -24  10   27.50    8.10
   0   0  11    0.80    1.10
   0   0  11    1.00    1.40
  -2   0  11    0.30    1.80
  -2   0  11   -3.10    1.40
  -2   0  11    0.30    1.30
   2   0  11   -1.30    1.00
   2   0  11    1.20    1.60
  -4   0  11    2.30    2.50
   4   0  11    1.60    2.00
  -4   0  11   -0.30    2.10
  -4   0 -11    0.00    1.40
   4   0  11    0.40    1.60
   4   0  11   -0.50    1.70
   4   0 -11    0.50    2.60
   6   0  11    3.10    2.80
  -6   0  11    1.80    1.60
   6   0 -11    4.70    3.50
   6   0  11    2.50    1.90
   6   0  11    4.30    2.30
   8   0  11    0.00    2.50
   8   0  11    0.00    1.80
  -8   0  11   -0.80    2.70
   8   0  11    3.60    2.20
   8   0 -11    0.20    2.40
  -8   0  11   -2.00    1.50
  10   0 -11    1.10    4.80
  10   0  11    2.40    3.20
   1   1 -11  844.22   39.70
  -1   1  11  800.92   24.40
  -1   1  11  812.22   22.90
  -1   1  11  870.41   26.20
   1  -1  11  833.92   26.00
   1  -1  11  817.32   24.20
  -1   1  11  774.42   26.50
  -1  -1  11  811.52   23.60
  -1  -1  11  860.21   23.10
  -1  -1  11  827.22   26.50
   1   1  11  866.21   24.00
   1   1  11  857.11   25.20
  -3  -1 -11  539.45   17.90
  -3   1  11  614.84   25.00
   3   1 -11  607.24   24.10
   3  -1  11  625.24   22.50
   3  -1  11  632.44   21.20
   3  -1  11  591.54   20.80
  -3   1  11  601.84   20.50
  -3   1  11  629.64   22.20
  -3  -1  11  613.34   17.50
  -3  -1  11  626.34   22.40
  -3   1 -11  560.44   19.20
  -3  -1  11  592.14   20.00
   3   1  11  614.64   22.40
   3   1  11  587.94   19.60
   3   1  11  612.14   20.80
  -3  -1  11  572.94   21.30
   3  -1 -11  594.54   24.30
  -5  -1 -11  351.56   13.60
  -5   1  11  382.06   17.40
   5  -1  11  396.76   17.40
   5  -1  11  404.76   17.60
   5  -1  11  389.16   16.40
   5   1 -11  390.36   18.90
   5   1  11  366.26   14.80
   5  -1 -11  377.86   17.90
   5   1  11  381.96   17.10
  -5  -1  11  387.66   17.40
  -5  -1  11  395.46   18.20
   5   1  11  371.76   17.30
  -7   1  11  169.58    9.00
  -7   1  11  160.38   12.10
   7  -1  11  161.58   11.70
   7   1 -11  177.98   12.30
   7  -1  11  184.88   11.50
   7  -1  11  157.98   10.60
   7   1  11  171.18   11.90
  -7  -1  11  178.18   12.90
   7   1  11  176.88   11.80
  -7  -1  11  173.58    9.70
   7  -1 -11  170.68   11.40
  -9  -1 -11   54.59    6.40
   9   1 -11   66.29    7.50
   9  -1  11   67.09    6.80
   9  -1  11   51.29    6.00
  -9   1  11   58.39   10.90
   9  -1  11   59.79    7.70
   9   1  11   76.59    6.90
   9   1  11   50.19    9.20
   9   1  11   56.89    6.00
  -9  -1  11   62.99    8.40
   9  -1 -11   72.09    7.50
  -9   1 -11   57.29    5.90
   0   2  11  157.78    8.40
   0   2  11  147.59    8.40
   0  -2  11  157.68    7.90
   0  -2  11  169.48    9.60
   0   2 -11  155.08   13.90
   0   2  11  164.48    7.70
   2  -2  11  617.54   20.10
   2  -2  11  567.74   20.50
  -2   2  11  588.14   19.00
   2   2 -11  563.94   23.20
  -2   2  11  584.34   20.30
   2   2  11  538.05   18.10
  -2  -2  11  562.54   19.20
  -2  -2  11  562.44   18.00
   2   2  11  577.94   21.50
  -2  -2  11  639.14   24.80
   2   2  11  577.14   18.90
  -2   2 -11  526.85   18.70
  -2  -2  11  600.54   17.70
  -4  -2 -11  175.18    7.70
   4  -2  11  198.68   11.10
   4   2 -11  195.58   13.00
   4  -2  11  193.88   11.20
   4  -2  11  186.38   10.80
  -4   2  11  183.68   10.60
  -4  -2  11  188.98    8.40
  -4  -2  11  172.38   11.20
   4   2  11  160.38   10.60
   4   2  11  194.18   10.90
   4  -2 -11  195.38   12.00
  -4  -2  11  187.68   10.50
   4   2  11  181.38    8.70
   6  -2  11  109.39    8.50
   6   2 -11  111.79    9.90
   6  -2  11  104.19    8.90
   6  -2  11  109.29    8.70
  -6   2  11  105.09    9.20
  -6  -2 -11   95.39    6.10
  -6  -2  11  107.59    9.70
   6  -2 -11  114.19    9.30
   6   2  11  112.79    7.10
  -6  -2  11  127.59    9.90
  -6  -2  11  113.79    7.60
   6   2  11  112.09    9.20
   6   2  11  111.79    9.00
  -8   2  11  115.99   10.60
  -8  -2 -11  127.79    8.50
   8  -2  11  106.69    8.50
  -8   2  11  123.49    7.60
   8   2 -11  107.79    9.70
   8  -2  11  117.59    9.80
   8  -2  11  124.59    9.70
  -8  -2  11  106.59   10.30
   8  -2 -11  106.89    8.80
   8   2  11  115.39    9.80
   8   2  11  104.89    9.40
   8   2  11   93.39    7.20
  -8  -2  11  100.19    8.10
 -10  -2 -11   14.40    5.60
 -10   2  11    4.50    5.00
  10  -2  11   17.80    4.60
  10   2 -11   12.00    5.00
  10  -2  11   26.20    5.00
  10  -2 -11   24.20    6.10
 -10  -2  11   32.30    7.40
  10   2  11   12.80    6.20
 -10  -2  11   33.50   10.90
  10   2  11   15.10    4.10
   1  -3  11  393.96   14.70
  -1   3  11  377.96   15.60
  -1   3  11  363.56   14.70
   1   3 -11  392.86   18.50
   1  -3  11  376.36   15.90
  -1   3  11  376.66   14.50
   1   3  11  393.06   14.10
  -1  -3  11  386.36   13.70
  -1  -3  11  392.76   16.50
   1   3  11  401.06   13.40
   1   3  11  388.86   16.50
   1   3  11  377.86   13.60
   3   3 -11  287.17   15.90
   3  -3  11  281.97   13.60
  -3   3  11  273.47   12.60
   3  -3  11  255.97   12.60
  -3  -3  11  257.97   12.50
   3   3  11  273.97   12.40
  -3  -3  11  265.77   11.90
  -3  -3  11  292.17   14.30
   3   3  11  268.77   13.70
  -3  -3  11  276.37   10.90
   5  -3  11  205.28   12.10
  -5   3  11  218.58   12.50
   5   3 -11  190.18   13.20
   5  -3  11  204.98   11.70
   5  -3  11  213.58   12.30
   5  -3 -11  207.98   12.10
  -5  -3  11  214.18   12.30
  -5  -3  11  210.38    9.70
   5   3  11  201.48   12.40
   5   3  11  174.08    8.00
  -5  -3  11  206.38   12.80
   5   3  11  210.48   12.20
  -7   3  11   49.50    4.40
   7  -3  11   47.60    6.10
  -7   3  11   48.50    6.60
  -7  -3 -11   51.89    5.20
   7   3 -11   68.49    7.90
   7  -3  11   53.69    5.70
   7  -3  11   59.49    6.60
   7   3  11   52.79    6.70
  -7  -3  11   55.09    7.50
  -7  -3  11   43.30    5.50
  -7  -3  11   64.19    7.40
   7  -3 -11   55.49    5.90
   7   3  11   46.80    6.30
  -9  -3 -11   39.90    6.50
   9  -3  11   36.60    7.20
  -9   3  11   63.89    8.30
   9  -3  11   43.30    7.70
   9  -3  11   43.50    5.40
   9   3 -11   59.19    6.90
   9   3  11   44.70    6.10
  -9  -3  11   54.99    8.00
   9   3  11   42.20    7.90
   9  -3 -11   53.19    6.50
  -9  -3  11   64.89    8.30
   0   4  11  878.61   23.20
   0   4  11  877.41   25.20
   0  -4  11  890.91   28.70
   0  -4  11  914.41   26.30
   0   4 -11  886.61   31.20
   0   4  11  826.72   25.80
   0  -4 -11  875.21   25.80
   0   4  11  893.31   26.40
   2  -4  11   18.20    4.30
  -2   4  11   28.80    5.50
   2   4 -11   16.10    5.10
  -2   4  11   21.30    4.30
   2  -4  11   16.10    3.80
   2   4  11   18.80    4.60
   2   4  11   14.70    3.20
  -2  -4  11   22.40    4.60
  -2  -4  11   16.50    3.30
  -2  -4  11   21.50    3.80
  -2  -4  11   16.20    3.40
   4  -4  11  277.97   13.70
   4   4 -11  263.47   15.70
  -4   4  11  259.27   13.30
   4  -4  11  277.87   13.60
   4  -4  11  249.08   13.70
  -4  -4  11  272.17   14.50
   4   4  11  262.87   13.20
  -4  -4  11  267.77   13.20
   4   4  11  241.68    9.80
  -4  -4  11  267.27   11.30
   4   4  11  254.67   14.00
   6   4 -11   34.90    7.10
   6  -4  11   32.90    6.20
  -6  -4 -11   33.00    4.30
  -6   4  11   32.00    6.90
   6  -4  11   32.10    6.00
   6  -4  11   40.60    7.40
   6   4  11   39.70    7.30
  -6  -4  11   36.10    7.10
  -6  -4  11   30.30    4.10
  -6  -4  11   25.70    5.10
   6   4  11   25.60    5.60
  -6  -4  11   40.80    7.60
   6  -4 -11   32.80    6.40
   8  -4  11   29.50    6.00
   8  -4  11   16.80    4.40
  -8   4  11   32.70    4.00
  -8  -4 -11   34.80    4.90
   8  -4  11   25.20    4.70
  -8   4  11   22.20    5.60
   8   4 -11   21.90    5.50
  -8  -4  11   36.40    8.40
   8   4  11   23.40    5.20
   8   4  11   24.10    7.80
  -8  -4  11   21.50    5.90
  10   4 -11   11.70    4.60
 -10  -4 -11   -1.50    3.60
  10  -4  11    9.30    3.50
  10  -4  11    9.40    4.20
 -10   4  11  -11.20    4.40
 -10  -4  11   11.20    6.60
  10   4  11   11.50    4.90
  10   4  11    1.50    3.60
  -1   5  11  402.06   16.60
   1  -5  11  415.16   16.20
  -1   5  11  433.06   15.30
   1  -5  11  443.76   18.30
  -1  -5 -11  421.46   15.50
   1   5 -11  431.76   19.80
  -1   5 -11  424.86   19.40
   1   5  11  395.36   14.70
  -1  -5  11  447.96   18.30
   1   5  11  432.46   14.30
  -1  -5  11  446.36   15.80
   1   5  11  407.66   13.90
   1   5  11  399.96   13.40
   1   5  11  413.86   17.40
  -3  -5 -11  465.65   16.50
   3  -5  11  458.05   19.40
  -3  -5 -11  425.66   13.50
   3   5 -11  441.76   21.00
   3  -5  11  461.05   18.30
   3   5  11  477.15   17.50
  -3  -5  11  464.45   17.00
   3   5  11  413.96   14.80
  -3  -5  11  454.85   16.30
  -3  -5  11  455.05   19.40
   3   5  11  462.95   19.40
   5  -5  11  126.69    8.80
   5   5 -11  128.19   11.30
   5  -5  11  141.29   10.50
  -5  -5 -11  130.89    8.20
   5  -5  11  128.89    9.60
  -5   5  11  125.89    9.50
   5   5  11  121.79    9.80
  -5  -5  11  135.39    9.60
   5   5  11  109.69    6.60
  -5  -5  11  126.39    8.00
  -5  -5  11  145.89   10.80
   5   5  11  127.89    9.40
   7  -5  11  179.68   12.80
  -7   5  11  187.98   13.60
   7  -5  11  202.88   11.50
   7   5 -11  212.28   14.80
   7  -5  11  169.88   12.00
  -7  -5 -11  204.68   11.50
  -7  -5  11  195.58   13.50
  -7  -5  11  188.88   11.10
  -7  -5  11  189.68   13.20
   7   5  11  189.58   12.90
  -7  -5  11  197.38   19.70
   7   5  11  181.78   12.70
  -9   5  11   23.20    6.00
   9  -5  11   31.80    4.20
   9  -5  11   21.90    5.30
  -9  -5 -11   19.90    5.10
   9   5 -11   16.20    4.50
  -9  -5  11   30.90    5.50
   9   5  11   26.10    6.00
  -9  -5  11   26.90    7.10
  -9  -5  11   25.60    6.50
   9   5  11   18.50    5.30
   0  -6 -11 1085.69   32.40
   0   6  11 1107.59   28.10
   0   6  11 1040.30   29.80
   0  -6  11 1100.59   34.70
   0  -6  11 1100.19   32.00
   0   6 -11 1110.49   36.80
   0   6  11 1082.99   29.10
   0   6  11 1067.39   34.90
   0   6  11 1110.69   33.30
   2  -6  11  563.34   22.40
  -2  -6 -11  570.44   19.80
   2   6 -11  577.14   24.40
   2  -6  11  590.84   20.90
   2   6  11  580.54   19.20
   2   6  11  518.95   18.20
  -2  -6  11  579.64   22.60
  -2  -6  11  579.04   19.70
   2   6  11  555.74   21.70
  -2  -6  11  551.14   18.30
   4   6 -11  479.45   22.90
   4  -6  11  474.85   20.90
  -4  -6 -11  504.65   18.50
   4  -6  11  505.75   20.10
   4  -6  11  494.25   19.10
  -4  -6  11  469.05   17.70
  -4  -6  11  470.75   20.80
   4   6  11  474.45   20.40
  -4  -6  11  474.65   19.40
   4   6  11  412.36   16.00
   4   6  11  501.45   19.30
   6  -6  11  280.67   15.60
  -6   6  11  301.57   16.70
   6   6 -11  307.87   18.00
   6  -6  11  298.57   14.20
   6  -6  11  283.37   16.60
  -6  -6  11  298.27   16.30
  -6  -6  11  252.87   14.10
  -6  -6  11  279.07   16.30
  -6  -6  11  275.87   13.30
   6   6  11  308.37   16.70
   6   6  11  292.97   15.70
   8  -6  11   57.79    7.90
   8   6 -11   81.49    8.60
  -8  -6 -11   73.09    7.60
   8  -6  11   65.99    7.40
   8  -6  11   56.29    6.10
  -8   6  11   73.19    8.90
   8   6  11   71.99    8.10
  -8  -6  11   75.49    8.60
  -8  -6  11   66.39    8.80
   8   6  11   76.89    8.50
  -8  -6  11   78.29    7.30
  10  -6  11   74.59    8.40
 -10   6  11   65.39    9.20
  10   6 -11   51.69    9.50
 -10  -6 -11   59.29    8.50
  10   6  11   56.89    7.50
 -10  -6  11   53.59    6.60
 -10  -6  11   43.50    8.20
  10   6  11   68.49    9.60
 -10  -6  11   57.99    7.80
  -1   7  11  159.48    9.80
  -1   7  11  154.98    8.30
   1   7 -11  158.88   11.90
   1  -7  11  166.18   11.00
  -1  -7 -11  173.98   10.00
   1  -7  11  174.18   10.00
  -1   7  11  170.68    8.40
   1   7  11  162.18    8.10
   1   7  11  152.38    9.00
   1   7  11  166.48   10.40
   1  -7 -11  180.48   10.90
  -1   7 -11  171.28   12.00
  -1  -7  11  171.18   11.20
  -1  -7  11  162.08    9.40
   3   7 -11  226.08   15.00
   3  -7  11  226.58   13.50
  -3  -7 -11  228.68   11.60
   3  -7  11  213.98   12.10
  -3  -7  11  218.58   11.10
   3   7  11  202.08   10.20
   3   7  11  229.38   11.50
  -3  -7  11  225.18   11.30
   3   7  11  225.38   13.00
  -3  -7  11  218.18   13.10
   5  -7  11   84.69    8.10
   5  -7  11   95.29    7.50
   5  -7  11   85.59    8.60
  -5  -7 -11   82.59    7.20
  -5   7  11   95.59    8.70
   5   7 -11   97.09    9.80
   5   7  11   90.39    7.90
   5   7  11   91.29    8.80
  -5  -7  11   91.19    7.20
  -5  -7  11   91.59    9.00
  -5  -7  11  102.59    8.40
   7  -7  11   62.89    7.00
   7  -7  11   69.99    8.50
  -7  -7 -11   89.19    7.70
   7  -7  11   68.99    6.40
   7   7 -11   77.39    9.20
   7   7  11   72.69    7.90
  -7  -7  11   54.19    6.70
  -7  -7  11   69.19    8.10
  -7  -7  11   72.69    6.80
  -7  -7  11   76.69    8.20
   9  -7  11   22.70    7.50
  -9  -7 -11   20.70    5.90
   9  -7  11   25.80    6.20
   9   7 -11   26.40    6.10
  -9   7  11   44.50    9.70
   9   7  11   30.50    6.70
  -9  -7  11   28.30    6.90
   9   7  11   23.90    6.60
  -9  -7  11   27.80    7.00
  -9  -7  11   31.30    5.70
   0  -8  11  279.87   14.90
   0  -8 -11  304.07   14.60
   0  -8  11  305.97   13.80
   0   8  11  286.17   13.80
   0   8  11  259.37   10.30
   0   8  11  281.67   10.60
   0   8 -11  289.27   16.10
   2   8 -11  405.46   20.10
   2  -8  11  372.26   18.00
   2  -8  11  387.66   16.60
  -2   8  11  357.06   21.50
  -2  -8 -11  381.56   16.50
   2   8  11  307.97   16.30
  -2  -8  11  378.76   17.90
  -2  -8  11  356.56   14.30
   2   8  11  383.36   14.80
   2   8  11  362.96   16.90
  -2  -8  11  362.46   15.40
   2  -8 -11  352.66   17.20
   4   8 -11  169.68   13.00
   4  -8  11  178.58   11.40
  -4  -8 -11  168.68    7.90
   4  -8  11  172.18   12.30
  -4  -8 -11  178.78   10.90
  -4   8  11  178.08    9.50
  -4  -8  11  169.68   10.60
  -4  -8  11  173.28   10.30
   4   8  11  174.68   11.80
   4   8  11  180.18   10.90
  -4  -8  11  170.08   11.90
   6  -8  11   73.49    7.60
  -6  -8 -11   91.69    7.90
   6  -8  11   74.49    6.60
   6   8 -11   86.39    9.40
   6  -8  11   83.09    9.30
  -6   8  11   84.09    9.10
  -6  -8  11   84.29    7.30
   6   8  11   81.09    8.20
   6   8  11   89.19    8.70
  -6  -8  11   55.89    6.80
  -6  -8  11   80.99    8.80
  -6  -8  11   75.29    8.00
  -8   8  11   54.89    5.00
   8  -8  11   55.69    7.00
   8  -8  11   56.09    7.50
  -8   8  11   53.89   10.30
  -8  -8 -11   46.30    6.70
   8   8 -11   50.49    9.20
   8   8  11   68.09    7.90
   8   8  11   50.09    8.90
  -8  -8  11   54.49    7.90
  -8  -8  11   53.89    6.30
  -8  -8  11   46.70    8.90
   1  -9  11  247.48   14.20
  -1   9  11  236.68   12.10
  -1  -9 -11  233.48   13.00
   1   9 -11  249.28   15.30
   1   9 -11  211.08    9.00
  -1   9  11  228.88   10.20
   1  -9  11  258.97   13.00
  -1  -9  11  252.47   12.60
   1   9  11  250.97   11.00
   1  -9 -11  250.57   16.60
  -1  -9  11  239.68   14.10
   1   9  11  245.08   13.20
  -1   9 -11  255.27   15.00
   3  -9  11  233.08   14.50
   3   9 -11  231.08   15.40
   3  -9  11  247.48   13.60
  -3  -9 -11  251.17   13.40
  -3  -9  11  252.77   14.60
  -3  -9  11  232.48   12.10
  -3  -9  11  241.38   12.60
   3   9  11  232.98   13.70
   3   9  11  250.87   12.60
   5  -9  11  131.59    8.70
   5   9 -11  131.99   11.90
   5  -9  11  131.39   10.10
  -5  -9 -11  132.09    7.70
  -5  -9 -11  133.69   10.00
  -5   9  11  134.89    7.80
   5  -9  11  159.68   12.40
   5   9  11  125.49    9.70
  -5  -9  11  142.49   11.30
   5   9  11  130.39   10.70
  -5  -9  11  120.79    9.10
  -5  -9  11  139.99   10.00
  -7  -9 -11  107.89    9.30
   7  -9  11  106.39    7.40
   7  -9  11  100.59    9.20
   7   9 -11  109.89   10.80
  -7   9  11  102.39   10.40
  -7  -9  11   96.99    8.30
  -7  -9  11  109.99   10.50
   7   9  11  102.69    9.90
  -7  -9  11  114.49   16.20
   7   9  11  106.29   10.00
  -9  -9 -11   38.70    7.80
   9  -9  11   28.50    7.40
  -9   9  11   36.40    8.40
   9   9 -11   34.40    7.60
  -9  -9  11   41.00    8.40
   9   9  11   37.60    7.70
   9   9  11   38.80    7.40
  -9  -9  11   34.60    8.20
   0 -10  11  166.98   10.50
   0  10  11  160.98    8.40
   0  10  11  167.28   10.50
   0 -10 -11  185.08   12.10
   0  10 -11  164.88   12.20
   0 -10  11  163.58   11.80
   2  10 -11  140.39   11.90
  -2 -10 -11  155.88   16.10
   2 -10  11  138.59   10.90
  -2  10  11  147.99    8.90
   2  10 -11  116.39    7.20
   2 -10  11  142.99    9.90
   2 -10 -11  141.79   11.00
  -2 -10  11  144.09    9.60
   2  10  11  138.09    8.80
  -2 -10  11  131.29   10.50
   2  10  11  141.59   10.20
  -2  10 -11  130.89   10.70
  -2 -10  11  143.99    8.80
  -4 -10 -11   88.99    8.10
   4  10 -11   74.19    8.90
   4 -10  11   84.69    8.00
   4 -10  11   94.79    9.50
  -4  10  11   84.19    6.30
   4  10  11   76.89    7.90
  -4 -10  11   78.59    7.30
  -4 -10  11   62.69    7.60
  -4 -10  11   85.19    7.40
   4  10  11   71.89    7.30
   6 -10  11   97.49    8.60
   6 -10  11   97.99    7.00
   6  10 -11  105.29   21.80
   6 -10  11  105.59   10.50
  -6 -10 -11  102.59    9.00
  -6 -10  11  105.09    9.40
   6  10  11   99.29    9.30
   6 -10 -11  105.09   10.10
   8 -10  11   20.90    6.50
  -8 -10 -11   17.90    5.60
  -8  10  11   19.40    5.80
   8 -10  11   17.30    5.40
   8  10 -11   23.80    6.40
  -8 -10  11   23.40    5.90
  -8 -10  11   25.00    6.50
  -8 -10  11   24.70    5.70
   8  10  11   22.00    5.80
   8  10  11   23.60    6.00
  -1 -11 -11   95.79    8.80
  -1  11  11   98.79    7.60
   1  11 -11  106.29   10.30
  -1  11  11   74.59    5.40
   1 -11  11   97.29    8.30
   1 -11  11   91.79    9.00
  -1  11 -11   90.49    9.00
   1  11  11   92.99    8.10
   1 -11 -11   89.79    9.00
  -1 -11  11   96.99    8.10
   1  11  11   97.09    7.00
  -1 -11  11   91.39    8.90
  -1 -11  11   95.69    6.80
   3 -11  11   50.09    6.30
   3  11 -11   40.50    8.20
   3 -11  11   52.09    7.30
  -3 -11 -11   48.20    6.40
  -3  11  11   45.50    4.80
  -3 -11  11   43.50    6.30
  -3 -11  11   47.40    6.00
   3 -11 -11   50.79    7.10
  -3 -11  11   40.50    5.40
   3  11  11   41.80    5.60
   3  11  11   51.19    6.60
   5  11 -11   44.10    9.10
   5 -11  11   56.69    8.10
  -5 -11 -11   38.50    5.50
   5 -11  11   48.90    6.40
  -5 -11 -11   53.99    6.50
   5 -11  11   37.20    4.60
  -5 -11  11   41.10    7.80
   5  11  11   50.49    6.70
   5  11  11   51.19    7.10
  -5 -11  11   47.00    6.40
  -5 -11  11   53.09    6.00
   5 -11 -11   51.39    9.50
   7 -11  11   21.40    5.40
   7  11 -11   25.10    7.50
  -7 -11 -11   12.80    3.80
  -7  11  11   16.00    4.80
   7 -11  11   14.60    5.80
  -7 -11  11   17.60    4.90
  -7 -11  11   16.70    5.10
   7  11  11   13.90    4.70
   7  11  11   31.80    7.20
  -7 -11  11   22.30    5.50
   7 -11 -11   21.70    7.10
   9 -11  11    1.30    3.40
  -9 -11 -11    5.60    4.60
  -9  11  11    3.70    4.00
  -9 -11  11    1.90    6.70
  -9 -11  11    7.50    3.90
   9  11  11    3.10    5.40
   0 -12 -11  198.98   13.50
   0 -12  11  190.38   13.00
   0  12 -11  189.38   13.60
   0  12  11  194.88   11.30
   0 -12  11  192.98   11.90
   0 -12  11  167.08    9.00
   2 -12  11  234.88   13.50
  -2 -12 -11  235.18   14.50
   2 -12  11  204.18   14.20
   2  12 -11  226.48   15.40
  -2  12  11  232.18   11.70
  -2 -12  11  211.48   11.90
  -2 -12  11  208.18   14.10
  -2 -12  11  219.18   12.70
   2  12  11  215.08   13.20
   2 -12 -11  234.18   14.90
   2  12  11  224.08   12.20
  -2  12 -11  251.77   14.90
   4  12 -11  100.99   10.30
  -4 -12 -11  103.99    9.50
   4 -12  11  108.19    9.40
  -4  12  11  109.89    7.60
   4 -12  11   93.49   10.00
   4 -12 -11  107.19    9.00
   4  12  11  105.29    8.90
  -4 -12  11   97.39    8.60
   4  12  11  106.09    9.50
  -4 -12  11   90.39    8.30
  -4 -12  11   95.59    9.50
  -6 -12 -11   96.69    9.50
   6  12 -11  108.99   11.50
   6 -12  11  112.49   11.00
   6 -12  11   99.69    9.00
   6  12  11   87.29    9.10
  -6 -12  11   94.89    9.50
  -6 -12  11  102.09    8.90
  -6 -12  11   81.79    9.40
   6 -12 -11  100.19    9.80
   8  12 -11   13.50    5.00
  -8 -12 -11   19.90    5.70
  -8  12  11   23.20    6.50
   8 -12  11   20.30    6.40
   8 -12 -11   20.20    5.70
  -8 -12  11   12.50    5.60
   8  12  11   16.90    5.40
  -8 -12  11   12.20    4.20
  -8 -12  11   30.20    6.40
   1  13 -11  293.17   17.60
  -1 -13 -11  280.27   16.50
   1 -13  11  284.47   15.10
   1 -13  11  303.97   17.50
  -1  13  11  297.07   14.30
  -1  13  11  256.87   10.90
  -1 -13  11  290.87   13.80
  -1  13 -11  292.27   16.90
   1  13  11  306.57   15.60
   1 -13 -11  308.37   17.50
  -1 -13  11  282.97   15.00
  -1 -13  11  304.17   17.20
  -3 -13 -11  342.37   18.40
   3 -13  11  352.36   19.70
   3  13 -11  345.07   19.80
  -3  13  11  343.77   14.40
   3 -13  11  332.27   17.10
  -3 -13  11  334.07   16.70
  -3 -13  11  343.47   18.60
   3 -13 -11  345.17   16.10
   3  13  11  349.96   18.10
   3 -13 -11  336.27   19.60
  -3 -13  11  304.57   15.70
  -5 -13 -11  131.99   11.00
   5 -13  11  123.49   12.60
   5 -13  11  123.19   10.00
   5 -13  11  113.59    7.70
   5  13 -11  112.19   11.30
   5  13  11  116.29   10.40
  -5 -13  11  113.19   12.80
  -5 -13  11   99.89   10.70
   5 -13 -11  119.39   10.10
  -5 -13  11  121.39   10.20
   7 -13  11   85.49    9.20
   7 -13  11   98.19   11.00
  -7  13  11  105.99   11.40
  -7 -13 -11  111.09   10.30
   7  13 -11  102.49   11.80
   7  13  11  112.69   11.20
   7 -13 -11  107.79   10.70
  -7 -13  11  107.09   10.30
  -7 -13  11  115.29    9.70
  -7 -13  11  114.09   10.70
   0 -14 -11  209.18   14.30
   0  14 -11  184.58   13.70
   0 -14  11  192.18   12.30
   0  14 -11  184.58    9.10
   0 -14  11  182.88   10.20
   0  14  11  197.88   11.70
   0 -14  11  188.08   13.50
   2 -14  11  278.97   17.00
  -2  14  11  275.07   13.20
  -2 -14 -11  266.97   16.50
   2  14 -11  273.17   17.60
   2 -14  11  302.77   16.00
  -2  14 -11  287.07   16.50
  -2 -14  11  262.07   14.30
   2  14  11  274.57   15.50
   2 -14 -11  286.67   17.80
  -2 -14  11  270.37   14.90
  -2 -14  11  261.57   16.30
  -4 -14 -11  152.38   11.90
   4 -14  11  143.49   19.00
   4 -14  11  138.49   11.00
  -4 -14  11  138.99   12.40
  -4 -14  11  127.29   10.30
   4 -14 -11  128.89   10.00
  -4 -14  11  142.89   10.70
   4  14  11  140.09   17.50
   6  14 -11   75.79    9.60
   6 -14  11   69.99    8.00
   6 -14  11   79.89   10.00
  -6 -14  11   73.69    8.10
   6  14  11  100.49    9.70
   6 -14 -11   72.99    8.10
  -6 -14  11   85.79    9.10
  -6 -14  11   62.59    7.30
   8  14 -11   59.49   18.00
  -8 -14 -11   50.09    9.10
  -8  14  11   45.10   10.10
   8 -14  11   20.70    8.80
  -8 -14  11   40.90    8.10
   8  14  11   39.30   11.60
  -8 -14  11   37.00    8.20
   8 -14 -11   30.20    7.50
  -8 -14  11   42.70    8.60
   1  15 -11    8.70    4.40
  -1 -15 -11   15.00    5.10
   1 -15  11   12.50    3.00
   1 -15  11    7.30    3.20
  -1  15  11    5.20    2.50
   1 -15  11   11.10    3.50
  -1 -15  11   11.50    3.80
   1 -15 -11    9.60    3.90
  -1 -15  11   10.20    3.50
   1  15  11   12.60    4.30
  -1 -15  11    7.40    3.50
  -1  15 -11    7.30    4.00
   3 -15  11   20.70    7.40
   3  15 -11   15.80    5.30
  -3  15  11   11.90    3.30
   3 -15  11   11.70    3.70
  -3  15  11   11.60    2.70
  -3 -15 -11   12.20    5.10
  -3 -15  11   17.20    5.00
  -3 -15  11   21.30    6.30
   3 -15 -11   12.70    4.20
   3 -15 -11   12.10    4.80
   3  15  11    8.70    4.40
  -3 -15  11    7.90    4.00
  -5 -15 -11    0.10    3.90
   5 -15  11   -2.50    2.30
   5 -15  11    7.90    2.20
   5  15 -11   10.30    4.20
   5 -15  11    3.60    3.50
  -5 -15  11    9.00    3.50
   5  15  11   -0.10    2.50
   5 -15 -11    2.90    3.30
  -5 -15  11   -1.50    2.90
  -5 -15  11    6.20    3.10
  -7 -15 -11    4.30    3.80
   7  15 -11   10.70    4.90
   7 -15  11   17.40    5.90
  -7 -15  11   16.30    4.60
  -7 -15  11    6.90    3.80
   7 -15 -11   11.50    5.10
   7  15  11    7.40    4.00
  -7 -15  11   -0.20    3.40
   0 -16  11  284.27   17.80
   0  16  11  303.37   15.50
   0  16 -11  296.27   17.80
   0 -16  11  342.97   21.90
   0 -16 -11  308.47   18.80
   0 -16  11  297.57   16.40
  -2 -16 -11   71.89    8.90
   2 -16  11   67.29    7.50
   2 -16  11   60.89   16.70
  -2  16  11   71.39    6.10
   2  16 -11   65.49    8.70
   2  16  11   59.29    7.10
   2 -16 -11   79.29    9.90
  -2 -16  11   64.39   11.50
  -2 -16  11   52.89    6.70
  -2  16 -11   70.89    8.20
  -2 -16  11   59.39    7.00
   4 -16  11  167.68   14.10
  -4 -16 -11  166.08   13.50
   4  16 -11  160.88   14.00
   4 -16  11  168.18   12.10
  -4 -16  11  159.78   12.10
   4 -16 -11  158.18   14.10
   4  16  11  157.48   12.30
  -4 -16  11  173.18   13.10
   4 -16 -11  161.98   11.20
   6 -16  11   44.90   10.00
   6 -16  11   36.70    7.30
   6  16 -11   45.70    9.60
  -6 -16 -11   55.29   10.50
   6 -16 -11   56.19    7.40
  -6 -16  11   42.80    6.20
  -6 -16  11   43.40    7.90
  -6 -16  11   45.00    9.10
   6  16  11   58.19    7.80
   1 -17  11   90.19    9.50
   1 -17  11   80.19    9.30
   1  17 -11   81.09    9.60
   1 -17  11   55.19    6.70
  -1  17  11   62.19    6.50
  -1 -17 -11   82.59    9.40
   1 -17 -11   54.49   10.50
  -1 -17  11   69.99    7.20
  -1  17 -11   66.69    7.60
  -1 -17  11   59.29    7.00
  -1 -17  11   78.79    8.80
   1  17  11   69.59    7.20
   3 -17  11   78.29    9.20
   3  17 -11   76.89    9.40
  -3  17  11   75.99    6.00
  -3  17  11   69.59    5.70
   3 -17  11   56.99    7.40
  -3 -17  11   58.69    7.30
  -3 -17  11   71.09    7.60
   3 -17 -11   64.49    6.50
   3  17  11   67.59    8.00
  -3 -17  11   68.89    9.00
   3 -17 -11   65.69    9.20
  -5 -17 -11   74.79    8.90
   5  17 -11   69.09    9.50
   5 -17  11   44.40    8.90
   5 -17  11   55.59    7.60
   5  17  11   57.49    7.80
  -5 -17  11   49.00    6.80
  -5 -17  11   64.49    7.90
   5 -17 -11   54.49   10.10
  -5 -17  11   52.89    6.60
   7 -17  11   29.00    7.50
  -7 -17 -11   15.80    5.90
   7  17 -11   25.80    8.00
  -7 -17  11   26.00    6.10
   7  17  11   39.30    8.60
  -7 -17  11   46.50    9.80
   7 -17 -11   33.50    7.30
   0 -18  11  130.59   10.70
   0  18 -11  142.29   12.30
   0 -18  11  134.29    9.90
   0 -18 -11  149.19   12.80
   0 -18  11  155.68   12.80
   0  18  11  157.38   10.70
   2  18 -11   67.89    8.50
   2 -18  11   71.99    8.10
   2 -18  11   62.59    9.00
   2 -18  11   62.29    6.40
  -2 -18 -11   69.89    9.20
  -2  18  11   74.29    6.30
  -2  18 -11   91.29    8.80
  -2 -18  11   68.79    8.80
  -2 -18  11   59.89    7.40
   2 -18 -11   68.79    9.70
   2  18  11   83.39    8.10
  -2 -18  11   68.49    7.60
   4 -18  11   74.29    8.80
  -4 -18 -11   70.59    9.00
   4 -18  11   77.79    9.80
   4  18 -11   90.89   10.40
  -4  18  11   78.79    7.90
  -4 -18  11   82.09    9.40
  -4 -18  11   79.99    8.70
   4 -18 -11   70.39    8.40
   4 -18 -11   97.59   10.90
   4  18  11   86.89    9.40
  -4 -18  11   79.99    9.00
  -6 -18 -11   26.70    6.80
  -6 -18  11   15.70    5.30
   6  18  11   18.90    9.80
   6 -18 -11   21.80    6.00
  -6 -18  11   21.70    5.60
  -6 -18  11   24.70    5.90
  -1  19  11    9.50    3.00
  -1 -19 -11    6.30    4.00
   1 -19  11    8.60    4.50
   1 -19  11    7.50    3.50
   1 -19  11    5.90    3.50
   1  19 -11    7.90    4.10
  -1 -19  11    8.80    4.00
  -1  19 -11   15.60    5.00
   1  19  11    7.50    2.80
   1 -19 -11    7.00    5.60
  -1 -19  11    7.70    4.70
   3 -19  11   13.20    5.90
   3 -19  11    4.60    4.30
  -3 -19 -11    8.30    5.00
   3  19 -11    5.20    4.20
   3 -19 -11    4.20    3.40
   3  19  11   12.20    4.80
  -3 -19  11    4.80    3.40
  -3 -19  11   21.40    5.90
   3 -19 -11   15.40    4.60
  -3 -19  11    7.80    4.90
   5  19 -11    7.40    4.70
  -5 -19 -11    6.10    5.60
   5 -19  11   14.30    5.80
   5  19  11    0.80    3.50
   5 -19 -11    3.30    4.70
  -5 -19  11    9.30    4.80
  -5 -19  11   -0.90    3.10
  -5 -19  11    9.50    4.30
   0 -20  11   84.09    9.00
   0 -20  11   71.79    8.90
   0 -20  11   58.19    7.30
   0  20 -11   77.99    9.20
   0 -20 -11   76.79    9.90
   2  20 -11  117.39   11.80
  -2  20  11  124.29    8.10
  -2 -20 -11   98.99   11.10
   2 -20  11  119.69   12.80
   2 -20  11  116.99    8.70
   2 -20  11  102.69    9.60
  -2 -20  11  117.39   12.40
   2  20  11  123.99   10.50
  -2 -20  11  118.69   11.50
  -2 -20  11  110.19   10.50
  -2  20 -11  137.29   10.90
   2 -20 -11  106.39   12.40
   4 -20  11   67.29    9.50
   4  20 -11   66.69    9.60
  -4 -20 -11   53.99   10.00
  -4 -20  11   84.79    9.60
  -4 -20  11   59.79    7.80
   4 -20 -11   67.59   12.40
  -4 -20  11   81.89    9.50
   4  20  11   66.39   11.40
   1 -21  11   72.49    8.00
  -1 -21 -11   98.79   11.30
   1  21 -11   88.29    9.70
  -1  21  11   97.59    9.20
   1 -21  11   81.69   10.00
   1 -21  11   91.29    9.20
  -1  21 -11   92.59    9.30
   1 -21 -11   83.19   11.10
   1  21  11  101.89    9.00
  -1 -21  11   91.89   10.10
  -1 -21  11   72.49    8.30
  -3 -21 -11   60.79   12.30
   3  21 -11   61.59   12.50
   3 -21  11   44.50    8.90
   3  21  11   56.19    7.80
  -3 -21  11   47.10    8.60
   3 -21 -11   51.69   10.60
  -3 -21  11   40.30    7.90
  -3 -21  11   61.39    8.10
   0  22 -11   35.80    7.50
   0 -22 -11   40.40    9.00
   0 -22  11   19.20    7.50
   0  22  11   27.10    5.40
   2  22 -11   28.20    7.70
  -2  22  11   54.69    7.40
   2 -22  11   30.10   10.70
  -2 -22 -11   27.20    7.80
  -2 -22  11   14.50    5.30
   2 -22 -11   30.70    8.80
  -2 -22  11   20.90    6.10
  -2  22 -11   37.50    7.30
  -2 -22  11   35.50    7.10
   2  22  11   43.70    8.40
   1 -23  11   41.20    8.60
   1  23 -11   52.09   10.50
   1 -23  11   35.10    7.30
  -1 -23 -11   24.70    9.40
  -1  23  11   18.60    5.20
   1  23  11   29.00    6.40
  -1 -23  11   29.90    7.20
  -1 -23  11   30.20    7.60
   1 -23 -11   35.00    9.40
  -1 -23  11   29.10    8.80
  -1  23 -11   28.70    6.90
   0   0  12 2144.49   52.09
   0   0  12 2093.69   55.09
  -2   0  12  551.44   18.20
   2   0  12  570.04   19.90
  -2   0  12  598.54   24.20
   2   0  12  592.64   19.80
   2   0  12  565.74   21.60
  -2   0  12  567.34   20.00
   2   0 -12  565.54   23.50
   4   0  12  786.32   27.50
  -4   0  12  800.22   26.40
  -4   0  12  777.82   27.70
   4   0  12  798.42   26.80
   4   0  12  785.62   25.10
   4   0 -12  789.32   29.60
  -4   0 -12  687.13   23.10
   6   0 -12  380.16   19.40
  -6   0  12  402.86   15.10
   6   0  12  393.86   18.60
  -6   0  12  399.86   19.10
   6   0  12  426.26   19.40
  -8   0  12  107.49    7.50
   8   0  12  107.59    8.30
  -8   0  12  104.59   10.60
   8   0  12  111.99    9.50
   8   0 -12  116.29    9.50
   8   0  12  102.19   10.00
  10   0 -12   98.19   10.20
 -10   0  12   78.29    9.80
  10   0  12   67.59    8.00
 -10   0  12   73.69    9.90
   1  -1  12   93.89    7.20
  -1   1  12   84.99    5.70
   1  -1  12   95.49    6.40
   1   1 -12  104.99    9.30
  -1   1  12   86.39    5.20
  -1   1  12   84.69    6.70
  -1   1  12   97.19    5.20
   1   1  12   95.89    6.20
  -1  -1  12   94.79    7.40
  -1  -1  12   91.89    5.60
   1   1  12   96.39    6.50
   3  -1  12  192.58   10.50
   3   1 -12  164.58   12.10
  -3   1  12  196.18   10.20
  -3   1  12  187.48   11.20
   3  -1  12  189.58   11.50
   3  -1  12  208.08   10.90
   3   1  12  195.58   10.40
  -3  -1  12  184.38   10.80
  -3  -1  12  208.98   11.90
   3   1  12  191.98   11.70
   3   1  12  180.58    9.40
   3  -1 -12  186.98   12.40
  -3  -1  12  192.58    9.80
   5  -1  12   12.00    3.80
  -5   1  12    9.80    3.00
  -5  -1 -12   11.80    2.70
   5  -1  12    8.90    3.50
   5   1 -12   16.60    4.90
   5  -1  12   14.30    3.50
   5  -1 -12   18.20    5.20
   5   1  12   16.80    4.70
   5   1  12   21.50    4.10
   5   1  12   12.60    3.60
  -5  -1  12   11.80    2.80
  -5  -1  12   15.10    4.20
  -5  -1  12   13.20    4.20
  -7   1  12   86.29    8.90
   7   1 -12  101.29    9.20
   7  -1  12   89.19    7.80
   7  -1  12   90.59    8.80
  -7   1  12   88.69    6.30
   7  -1  12   91.49    7.90
   7   1  12   91.99    8.30
  -7  -1  12   99.29    9.60
  -7  -1  12   87.39   10.70
   7   1  12   93.99    9.10
   7   1  12   71.99    6.60
  -7  -1  12  103.29    6.90
   7  -1 -12   90.59    8.60
   9  -1  12    8.20    3.90
   9  -1  12    7.50    3.40
   9  -1  12   10.40    3.00
   9   1 -12   14.10    4.20
  -9   1  12   10.80    5.50
   9  -1 -12    5.60    3.80
  -9  -1  12    6.80    4.20
   9   1  12    6.00    5.60
  -9  -1  12   -0.30    2.60
   9   1  12    5.80    4.20
   9   1  12    5.00    3.50
   0  -2  12  199.18   11.10
   0   2  12  201.38   10.00
   0   2  12  206.88    8.50
   0  -2  12  195.78    9.30
   0   2  12  201.08   10.40
  -2   2  12  224.48   11.40
  -2   2  12  222.68   11.50
   2   2 -12  211.28   13.70
   2  -2  12  219.58   11.70
   2  -2  12  222.58   11.10
  -2   2  12  218.68   10.10
  -2  -2  12  226.28    9.40
  -2  -2  12  217.28   12.10
   2   2  12  218.28   12.40
   2   2  12  207.48    9.80
  -2  -2  12  217.58   10.30
   2   2  12  228.88   10.60
  -2  -2  12  205.38    9.30
  -4  -2 -12   62.19    4.60
  -4   2  12   86.79    7.20
   4  -2  12   67.29    6.70
   4  -2  12   75.59    6.80
   4   2 -12   75.19    8.70
   4  -2  12   71.49    7.00
   4   2  12   73.29    5.30
  -4  -2  12   76.89    7.50
  -4  -2  12   84.19    8.00
   4   2  12   70.99    7.30
  -4  -2  12   73.99    5.20
   4  -2 -12   81.89    8.00
   4   2  12   63.29    6.40
   6  -2  12   60.79    6.30
   6  -2  12   44.00    5.80
   6  -2  12   54.79    6.50
   6   2 -12   51.89    6.90
  -6   2  12   58.39    7.00
   6   2  12   62.79    7.00
  -6  -2  12   55.99    6.80
  -6  -2  12   49.60    5.20
   6   2  12   50.69    6.40
  -6  -2  12   52.19    7.00
   6   2  12   56.19    4.60
   6  -2 -12   60.49    6.90
  -8   2  12    1.90    3.20
   8   2 -12   -0.10    3.50
   8  -2  12    3.20    2.70
   8  -2  12    0.00    2.40
  -8   2  12    5.90    2.10
   8  -2  12    5.00    3.20
   8  -2 -12   12.50    4.00
   8   2  12    6.60    3.00
   8   2  12    0.60    2.90
  -8  -2  12    2.10    2.40
   8   2  12    2.10    2.10
  -8  -2  12    6.30    3.40
  -8  -2  12   13.20    5.00
  10   2 -12    8.40    4.80
  10  -2  12    0.20    3.60
  10  -2  12   -0.70    3.10
 -10   2  12   -0.50    2.80
 -10  -2  12   -6.90    2.80
  10   2  12    8.00    4.10
  10   2  12    2.10    5.20
 -10  -2  12   16.40    4.80
  -1   3  12  141.19    8.20
   1  -3  12  113.79    8.60
   1  -3  12  133.89    8.00
  -1   3  12  115.89    8.30
  -1   3  12  116.49    7.50
   1   3 -12  115.39    9.90
   1   3  12  136.19    9.40
   1   3  12  130.59    7.30
   1   3  12  130.49    7.10
   1   3  12  122.99    7.20
  -1  -3  12  129.99    7.40
  -1  -3  12  136.29    9.30
  -3   3  12  184.38   10.10
   3  -3  12  166.58   10.80
   3  -3  12  202.98   11.60
   3  -3  12  201.38   11.10
   3   3 -12  192.58   13.20
  -3   3  12  197.88   11.30
  -3  -3  12  189.78   11.90
  -3  -3  12  180.08    9.50
  -3  -3  12  174.98   10.00
   3   3  12  195.48   11.80
  -3  -3  12  190.38    9.10
   3   3  12  196.58   10.40
   5   3 -12   38.00    8.10
  -5   3  12   38.40    5.30
   5  -3  12   33.80    6.30
   5  -3  12   49.60    5.70
   5  -3  12   41.00    5.70
  -5  -3  12   38.20    4.20
   5   3  12   41.40    5.40
  -5  -3  12   41.60    5.40
   5   3  12   49.00    6.40
   5  -3 -12   45.60    5.80
  -5  -3  12   35.90    6.70
  -7   3  12   73.39    8.30
   7   3 -12   88.29    9.10
   7  -3  12   75.99    7.60
   7  -3  12   84.19    7.90
   7  -3  12   76.79    7.70
  -7  -3  12   86.59    6.90
   7  -3 -12   90.79    7.90
  -7  -3  12   83.19    8.50
  -7  -3  12   84.89    9.10
   7   3  12   84.79    8.40
  -7  -3  12   71.19    6.70
   7   3  12   84.09    8.30
   9   3 -12   19.40    4.50
   9  -3  12   12.10    3.90
  -9   3  12   18.70    5.20
   9  -3  12   19.30    5.80
  -9  -3 -12    7.60    4.80
  -9  -3  12   17.90    5.40
  -9  -3  12   25.60    6.30
   9   3  12   15.10    4.00
   0   4  12  846.42   26.20
   0  -4  12  919.81   27.10
   0  -4  12  943.31   30.30
   0   4  12  889.91   26.30
   0   4  12  923.51   29.50
   0   4  12  912.11   24.10
   0   4  12  857.21   27.30
   0   4 -12  902.21   32.30
  -2   4  12  686.73   22.50
   2   4 -12  648.34   26.50
   2  -4  12  663.83   33.20
  -2   4  12  608.04   25.80
   2  -4  12  690.53   22.90
  -2  -4  12  669.23   24.40
  -2  -4  12  624.74   20.60
   2   4  12  642.24   24.00
  -2  -4  12  636.34   20.60
   2   4  12  570.34   18.60
  -2  -4  12  622.04   19.70
   2   4  12  681.43   21.20
   4  -4  12  506.15   20.60
   4  -4  12  501.65   21.10
   4   4 -12  522.25   24.00
   4  -4  12  517.65   20.70
  -4   4  12  522.65   20.50
   4   4  12  530.45   20.30
  -4  -4  12  516.95   18.00
  -4  -4  12  513.25   21.80
  -4  -4  12  508.75   20.10
   4   4  12  533.05   22.00
   6  -4  12  258.27   14.80
   6  -4  12  271.17   15.10
   6  -4  12  276.87   14.40
  -6   4  12  289.97   16.00
   6   4 -12  278.97   17.00
  -6  -4  12  235.48   12.80
   6   4  12  267.07   15.10
   6   4  12  284.87   15.90
  -6  -4  12  276.47   15.40
  -6  -4  12  256.47   12.30
  -6  -4  12  252.77   15.40
  -8   4  12  124.39    7.60
   8   4 -12  134.59   11.30
   8  -4  12  128.99    9.50
  -8   4  12  128.59   11.60
   8  -4  12  124.69   11.10
  -8  -4 -12  131.39    9.20
   8  -4  12  124.99   10.50
  -8  -4  12  142.39   11.80
  -8  -4  12  123.49    8.80
   8   4  12  109.59    9.90
   8   4  12  128.89   10.90
  -8  -4  12  119.39   11.40
 -10   4  12   39.30    8.10
  10  -4  12   33.20    7.00
  10   4 -12   65.29    8.70
  10   4  12   55.59    7.40
 -10  -4  12   51.19    6.60
  10   4  12   48.50    9.80
 -10  -4  12   63.59    8.10
   1  -5  12  283.07   12.90
  -1   5  12  253.07   12.30
  -1   5  12  265.97   12.80
  -1  -5 -12  272.97   11.70
  -1   5  12  277.67   11.90
   1  -5  12  257.87   13.90
   1   5 -12  273.27   15.90
   1   5  12  271.17   10.70
   1   5  12  245.38   10.80
   1   5  12  273.77   13.90
  -1  -5  12  254.37   13.90
  -1  -5  12  283.47   12.20
   1   5  12  271.57   10.40
   1   5  12  284.37   11.00
   3  -5  12  227.58   12.30
   3   5 -12  245.48   15.50
   3  -5  12  217.78   12.80
  -3  -5  12  238.68   11.00
  -3  -5  12  215.08   13.00
   3   5  12  221.18   11.40
   3   5  12  207.08   12.60
   3   5  12  190.38    8.70
  -3  -5  12  221.48   10.80
  -5  -5 -12  123.29    7.70
   5  -5  12  124.79    9.60
   5  -5  12  122.79   10.00
  -5   5  12  119.39    9.30
   5  -5  12  109.19    8.50
   5   5 -12  118.39   11.10
  -5  -5  12  126.99    8.10
   5   5  12  133.39    9.70
  -5  -5  12  124.69    9.30
   5   5  12  132.09   10.30
   5   5  12  105.69    6.20
  -5  -5  12  122.39   10.10
   7  -5  12   61.29    7.50
  -7  -5 -12   58.29    6.10
   7   5 -12   69.99    8.70
   7  -5  12   68.49    6.50
   7  -5  12   59.79    6.90
  -7  -5  12   60.69    6.10
  -7  -5  12   68.79    8.20
  -7  -5  12   69.39    6.40
  -7  -5  12   71.09    8.20
   7   5  12   62.59    7.50
  -9  -5 -12   16.90    5.20
   9  -5  12   14.40    3.60
  -9   5  12    9.20    4.20
   9  -5  12   16.60    5.50
   9  -5  12   18.20    4.70
   9   5 -12   12.10    4.30
  -9  -5  12   12.40    4.70
  -9  -5  12   11.50    4.70
   9   5  12    4.00    3.90
   9   5  12    4.60    3.60
  -9  -5  12   10.00    3.90
   0  -6 -12    6.80    2.60
   0   6  12    4.20    2.80
   0   6  12    5.00    2.60
   0  -6  12    8.50    3.30
   0   6  12    4.90    1.90
   0   6 -12    7.30    4.20
   0   6  12    4.40    2.00
   0  -6  12    8.40    3.00
   2  -6  12   15.80    4.70
   2   6 -12   21.20    5.90
   2  -6  12   22.40    4.60
  -2  -6 -12   24.60    4.50
  -2   6  12   18.60    3.70
   2   6  12   13.30    2.80
   2   6  12   24.80    4.30
  -2  -6  12   23.40    4.10
   2   6  12   18.50    4.70
  -2  -6  12   18.80    5.40
  -2  -6  12   21.30    4.50
   4  -6  12    3.70    2.30
  -4  -6 -12    4.80    2.30
   4   6 -12    8.60    4.30
  -4  -6 -12    5.50    1.80
   4  -6  12   -1.80    1.70
   4  -6  12    2.20    2.00
  -4  -6  12    2.20    2.10
   4   6  12    2.80    2.30
  -4  -6  12    1.40    1.80
  -4  -6  12    0.00    2.20
   4   6  12   -0.10    1.30
   4   6  12   -1.10    2.30
   6   6 -12   13.20    4.80
  -6  -6 -12    7.80    3.50
   6  -6  12    6.30    3.40
  -6   6  12    5.20    3.20
   6  -6  12    4.40    2.50
   6  -6  12    4.20    2.40
   6   6  12    6.70    2.90
  -6  -6  12   11.00    4.60
  -6  -6  12    7.60    3.00
  -6  -6  12    7.80    3.80
   6   6  12    7.70    2.90
   8   6 -12    3.30    2.70
   8  -6  12    8.60    4.00
   8  -6  12    3.40    2.70
   8  -6  12    3.40    2.60
  -8  -6 -12    5.20    3.70
  -8   6  12    3.90    3.20
  -8  -6  12   -1.50    2.20
  -8  -6  12    0.80    4.00
  -8  -6  12   10.30    3.20
   8   6  12    6.00    2.60
  -1   7  12  249.78   12.80
  -1   7  12  218.38   10.70
  -1   7  12  255.97   10.90
   1   7 -12  234.98   15.10
   1  -7  12  251.47   12.70
  -1  -7 -12  257.57   12.50
   1  -7  12  248.08   14.10
   1  -7 -12  251.67   13.10
   1   7  12  260.97   13.60
   1   7  12  199.78   10.70
  -1  -7  12  266.27   12.50
   1   7  12  256.87   10.80
  -1  -7  12  263.57   14.40
  -1   7 -12  246.48   15.00
   3  -7  12  171.08   11.80
   3  -7  12  158.48   10.30
  -3  -7 -12  162.68    9.60
   3   7 -12  154.28   12.50
  -3   7  12  148.49    9.20
  -3  -7  12  160.58   11.50
   3   7  12  160.68   11.20
  -3  -7  12  167.78    9.70
   3   7  12  130.59    7.90
  -3  -7  12  159.18    9.20
   3   7  12  159.58    9.60
   5   7 -12  140.89   12.20
  -5   7  12  146.59   10.90
   5  -7  12  146.69   10.60
  -5  -7 -12  138.09    9.20
   5  -7  12  145.49    9.80
   5  -7  12  144.39   11.50
  -5  -7  12  148.89   10.30
  -5  -7  12  128.49    8.90
   5   7  12  150.68   10.40
   5   7  12  150.28   11.30
  -5  -7  12  142.39   11.30
   7  -7  12   32.30    4.50
   7  -7  12   23.90    5.60
  -7   7  12   31.90    6.70
   7  -7  12   17.60    5.00
   7   7 -12   32.80    8.10
  -7  -7 -12   24.90    5.20
  -7  -7  12   24.70    5.10
   7   7  12   23.00    5.70
  -7  -7  12   21.60    6.00
  -7  -7  12   28.20    6.30
   7   7  12   20.00    5.50
  -9   7  12   34.90    8.10
   9   7 -12   31.70    8.60
  -9  -7 -12   37.00    8.20
   9  -7  12   24.10    6.20
   9  -7  12   31.30    7.00
  -9  -7  12   39.40    8.00
   9   7  12   28.50    7.40
  -9  -7  12   36.50    7.80
   0  -8 -12  230.28   12.40
   0   8  12  218.08    9.20
   0   8 -12  211.48   14.20
   0   8  12  199.78    8.60
   0  -8  12  229.28   13.50
   0  -8  12  212.28   11.70
   0   8  12  225.88   12.30
   2  -8  12  577.14   24.10
  -2   8  12  576.24   21.20
  -2  -8 -12  605.64   22.00
   2  -8  12  587.94   22.30
   2   8 -12  581.24   26.00
  -2  -8  12  575.24   19.60
  -2  -8  12  578.94   21.20
   2   8  12  592.54   20.30
  -2  -8  12  592.44   24.30
   2   8  12  576.24   23.20
   4  -8  12  255.47   14.00
   4   8 -12  239.68   16.40
  -4  -8 -12  240.18   12.70
  -4   8  12  245.68   12.00
   4  -8  12  224.18   14.70
  -4  -8  12  242.28   12.60
  -4  -8  12  250.37   12.80
   4   8  12  246.88   14.70
   4   8  12  275.87   13.90
  -4  -8  12  236.18   14.70
   6   8 -12  164.78   13.70
   6  -8  12  134.89    8.90
   6  -8  12  129.79   11.60
  -6  -8 -12  144.29   10.00
  -6   8  12  121.09   10.60
   6  -8  12  129.09   10.40
  -6   8  12  136.89    8.10
  -6  -8  12  126.59    9.10
  -6  -8  12  127.39   10.20
   6   8  12  134.99   10.60
   6   8  12  142.19   14.40
   8   8 -12   87.79    9.70
   8  -8  12  101.49    7.40
  -8   8  12   86.49   10.10
  -8  -8 -12  125.89    9.80
   8  -8  12   94.39    9.20
   8  -8  12  109.29   10.30
  -8  -8  12   89.49    8.20
  -8  -8  12   84.59    9.50
  -8  -8  12   85.49    9.80
   8   8  12   87.29    9.80
   8   8  12  103.19    9.90
  -1   9  12    9.90    2.60
  -1   9  12   16.10    3.70
   1  -9  12   12.80    3.70
  -1  -9 -12   16.20    5.00
  -1   9  12   10.70    3.40
   1  -9  12    8.80    3.80
   1   9 -12   10.50    3.30
  -1   9 -12    9.40    3.60
   1   9  12   11.30    3.00
   1   9  12   11.00    4.10
   1  -9 -12    9.30    3.90
  -1  -9  12   13.00    3.90
  -1  -9  12   11.30    5.00
  -3   9  12   41.60    4.80
  -3  -9 -12   49.00    5.80
   3   9 -12   46.20    9.10
   3  -9  12   43.80    8.60
   3  -9  12   42.40    5.60
  -3  -9  12   38.70    7.60
  -3  -9  12   42.90    5.40
  -3  -9  12   36.20    4.80
   3   9  12   43.90    6.10
   3   9  12   41.90    5.30
  -5   9  12    3.50    2.10
   5  -9  12    9.20    3.20
   5  -9  12    0.90    1.70
   5  -9  12    3.30    2.10
  -5  -9 -12    8.40    3.50
  -5  -9 -12    7.80    3.50
   5   9 -12   10.50    3.70
   5   9  12    0.40    1.90
  -5  -9  12    4.60    2.30
   5   9  12    5.70    2.80
  -5  -9  12    4.00    3.50
  -5  -9  12    1.40    1.90
   7  -9  12   14.60    3.50
   7   9 -12   12.40    5.20
   7  -9  12    8.90    4.30
   7  -9  12   12.00    5.20
  -7   9  12   22.00    5.70
  -7  -9  12    9.40    3.60
  -7  -9  12   10.40    3.70
   7   9  12   18.00    5.30
  -7  -9  12   14.80    5.50
   7   9  12   15.70    5.30
   9   9 -12   -3.00    4.20
  -9  -9 -12   11.20    5.10
  -9   9  12    9.40    5.20
   9  -9  12   -0.80    3.30
   9   9  12   12.30    5.10
  -9  -9  12   -0.40    2.80
  -9  -9  12   -3.70    6.50
   9   9  12   17.20    4.30
  -9  -9  12    5.80    3.60
   0 -10 -12   55.29    6.70
   0  10 -12   56.59    7.70
   0  10  12   47.90    5.80
   0 -10  12   52.49    6.20
   0  10  12   52.39    4.90
   0 -10  12   52.59    7.10
   2  10 -12   20.50    6.10
  -2 -10 -12   40.10    5.70
  -2  10  12   31.80    4.30
   2 -10  12   24.30    6.40
   2 -10  12   29.10    5.50
   2  10 -12   21.80    3.50
  -2 -10  12   23.20    5.60
  -2  10 -12   35.80    7.30
   2  10  12   35.30    4.80
   2  10  12   38.00    5.40
  -2 -10  12   34.10    4.30
  -2 -10  12   31.40    5.80
   2 -10 -12   35.80    7.50
   4 -10  12   33.70    7.90
  -4 -10 -12   52.19    6.30
   4 -10  12   55.39    6.50
  -4  10  12   41.30    4.50
   4  10 -12   55.99   10.40
  -4 -10  12   37.40    5.00
  -4 -10  12   42.20    7.70
   4  10  12   54.79    6.30
   4  10  12   44.60    6.20
  -4 -10  12   45.00    5.60
   6  10 -12   15.00    4.90
   6 -10  12   10.60    3.70
  -6 -10 -12   16.20    4.00
  -6  10  12   11.40    4.70
   6 -10  12   15.50    9.20
   6 -10  12   17.90    3.50
  -6 -10  12   17.80    5.40
  -6 -10  12   12.80    3.90
   6  10  12    7.80    5.00
   6  10  12   18.10    5.30
  -6 -10  12   12.80    4.90
  -8  10  12   14.50    5.60
   8  10 -12   19.50    6.40
   8 -10  12   10.10    4.40
   8 -10  12    8.00    5.10
   8  10  12   11.20    4.40
  -8 -10  12    6.70    3.50
  -8 -10  12   14.00    4.10
   8  10  12   10.10    4.60
  -8 -10  12   15.50    5.30
   1 -11  12  283.67   14.80
   1  11 -12  279.07   17.30
   1 -11  12  262.67   16.00
  -1  11  12  276.17   11.20
  -1 -11 -12  296.17   15.80
  -1  11  12  290.37   14.20
   1  11  12  277.47   14.80
  -1 -11  12  266.87   14.30
   1  11  12  290.77   13.00
  -1 -11  12  273.67   16.20
   1 -11 -12  297.87   16.40
  -1  11 -12  286.57   17.20
   3 -11  12  182.88   12.20
  -3  11  12  186.68   10.20
   3 -11  12  177.58   13.30
   3  11 -12  201.28   15.10
  -3 -11 -12  208.78   12.90
   3  11  12  195.38   13.10
   3  11  12  183.18   11.40
  -3 -11  12  174.68   10.90
  -3 -11  12  186.58   11.60
  -3 -11  12  176.18   13.00
   5 -11  12  190.88   12.80
   5  11 -12  145.59   16.60
  -5 -11 -12  195.38   12.70
  -5  11  12  206.28    9.90
   5 -11  12  197.18   11.10
   5 -11  12  181.28   14.20
   5  11  12  190.78   14.30
  -5 -11  12  172.88   11.70
   5  11  12  179.08   12.50
  -7  11  12   77.19    9.30
  -7 -11 -12   94.99    9.10
   7  11 -12   58.29    8.30
   7 -11  12   60.59    8.90
   7 -11  12   65.29    8.20
   7  11  12   69.79    8.30
  -7 -11  12   67.29    8.40
   7  11  12   65.59    8.00
  -7 -11  12   66.89    8.00
  -7 -11  12   64.89    7.30
   0 -12  12  356.16   19.20
   0 -12  12  390.86   18.00
   0 -12 -12  382.86   19.40
   0  12  12  381.86   17.50
   0  12 -12  385.76   20.50
   2 -12  12  201.58   12.50
   2  12 -12  174.38   14.00
   2 -12  12  182.78   13.50
  -2 -12 -12  179.58   12.70
  -2  12  12  194.58   11.00
  -2  12 -12  192.98   13.40
  -2 -12  12  206.48   12.30
  -2 -12  12  184.58   10.80
   2 -12 -12  207.38   14.20
   2  12  12  188.58   12.40
  -2 -12  12  181.88   13.20
   2  12  12  208.88   11.70
   4  12 -12  249.18   17.40
   4 -12  12  260.27   16.70
  -4 -12 -12  265.87   15.20
  -4  12  12  257.17   12.00
   4 -12  12  228.68   14.30
  -4 -12  12  254.87   14.30
   4  12  12  263.27   14.80
  -4 -12  12  228.78   15.40
   4  12  12  263.87   16.00
  -4 -12  12  249.78   14.40
   6 -12  12   95.29    6.60
   6 -12  12   91.19   10.00
   6  12 -12  101.99   11.00
  -6 -12 -12   85.39    8.80
   6 -12  12   93.29    9.50
  -6 -12  12  102.09   11.80
  -6 -12  12   87.19    9.60
   6  12  12   87.79    9.60
  -6 -12  12   87.59    8.10
   6  12  12   76.89    8.60
   8 -12  12   57.19   12.30
   8  12 -12   72.29    9.90
  -8 -12 -12   72.79    9.10
  -8  12  12   79.29    9.90
   8  12  12   72.99    9.90
  -8 -12  12   59.99   11.30
  -8 -12  12   63.69    8.50
  -8 -12  12   74.99   10.10
   1  13 -12   93.09   10.20
  -1 -13 -12   96.09    9.40
  -1  13  12  101.89    7.90
   1 -13  12   93.89    9.80
   1 -13  12  103.09    8.80
  -1  13 -12   88.49    9.40
   1  13  12   91.69    8.20
   1 -13 -12   97.59    9.80
  -1 -13  12   85.29    6.60
  -1 -13  12   79.29    7.90
  -1 -13  12  100.19   10.00
   3 -13  12  130.19   10.20
  -3  13  12  141.49    8.70
  -3 -13 -12  130.89   10.90
   3 -13  12  129.99   11.80
   3  13 -12  140.09   12.50
  -3 -13  12  131.69    9.70
  -3 -13  12  119.79   10.90
   3 -13 -12  126.19   11.40
  -3 -13  12  116.19    9.60
   3  13  12  137.19   10.90
   5 -13  12   45.40    6.20
  -5 -13 -12   44.90    8.30
   5 -13  12   42.40    4.90
   5 -13  12   30.90    8.20
   5  13 -12   41.60    8.90
  -5 -13  12   31.60    6.30
   5  13  12   34.70    7.70
  -5 -13  12   24.20    5.90
  -5 -13  12   40.10    7.80
   7  13 -12   35.10    7.70
   7 -13  12   27.90    6.20
   7 -13  12   34.90    8.20
  -7  13  12   28.40    7.70
  -7 -13 -12   36.60    8.20
   7  13  12   30.30    7.40
  -7 -13  12   41.50    8.00
  -7 -13  12   34.80    7.50
  -7 -13  12   42.90    7.30
   0 -14  12   37.50    6.90
   0  14  12   36.50    5.00
   0 -14 -12   25.40    6.80
   0  14 -12   26.20    6.90
   0 -14  12   36.70    8.00
   2  14 -12   73.49    8.70
  -2 -14 -12   66.99    8.40
  -2  14  12   81.09    6.90
   2 -14  12   68.19    8.80
   2 -14  12   78.09    7.80
   2  14  12   71.49    7.80
   2 -14 -12   83.29    9.20
  -2 -14  12   71.29    6.60
  -2  14 -12  100.39    9.50
  -2 -14  12   87.19    9.10
  -2 -14  12   68.49    7.30
   4  14 -12   20.00    7.20
   4 -14  12   18.40    5.10
   4 -14  12   17.70    6.70
  -4 -14 -12   22.60    5.60
  -4  14  12   16.80    3.70
  -4 -14  12   19.20    5.00
   4  14  12   22.90    6.00
  -4 -14  12   15.40    4.60
   6 -14  12    0.70    4.70
   6 -14  12    8.30    3.90
   6  14 -12    0.50    3.50
  -6 -14 -12    7.00    3.60
  -6 -14  12    1.50    3.00
  -6 -14  12   10.60    4.20
   6 -14 -12   12.50    4.50
   6  14  12    1.70    2.80
  -6 -14  12    4.00    3.30
   8  14 -12   13.00    5.00
  -8  14  12    9.80    5.00
   8 -14  12   15.00    7.50
  -8 -14 -12   18.50    5.70
  -8 -14  12   12.60    4.50
  -8 -14  12   10.00    9.80
  -8 -14  12   13.60    5.80
   8  14  12   16.30    4.30
   1 -15  12  188.78   12.70
  -1  15  12  211.98   12.00
   1 -15  12  176.48   14.50
   1  15 -12  201.88   15.10
  -1 -15 -12  201.28   14.60
   1 -15 -12  212.18   15.20
  -1 -15  12  266.17   19.20
  -1 -15  12  180.88   12.50
  -1  15 -12  200.98   14.40
  -1 -15  12  212.08   15.00
   1  15  12  205.98   13.10
   3 -15  12   79.69    9.60
   3  15 -12   97.29   10.70
  -3  15  12   93.19    6.90
  -3 -15 -12   85.49    9.30
   3 -15  12   85.69    8.60
  -3 -15  12   91.39    8.10
  -3 -15  12   86.89    8.70
  -3 -15  12   77.19    8.90
   3  15  12   96.29    9.10
   3 -15 -12  113.49   16.40
   5 -15  12  109.39    7.90
   5 -15  12  119.29   10.50
   5  15 -12  120.89   11.70
   5 -15  12  110.19   11.80
   5  15  12  119.39   11.10
  -5 -15  12  116.99   11.00
  -5 -15  12  123.59   10.20
  -5 -15  12  100.69   12.60
  -7 -15 -12   41.80    8.40
   7 -15  12   29.80    7.20
  -7 -15  12   52.39    7.50
  -7 -15  12   38.10    8.10
  -7 -15  12   36.60    7.20
   7 -15 -12   43.00    8.50
   0 -16  12  157.98    9.70
   0  16  12  168.18   11.00
   0  16 -12  157.18   13.00
   0 -16  12  177.58   13.70
   0 -16 -12  158.38   13.20
   0 -16  12  171.58   12.00
   2  16 -12   74.99    9.20
  -2  16  12   73.89    6.70
   2 -16  12   54.79    7.70
   2 -16  12   68.49    7.60
  -2 -16 -12   61.69    8.50
  -2  16 -12   85.49    8.50
  -2 -16  12   64.69    7.20
  -2 -16  12   69.69    9.10
  -2 -16  12   76.59    7.50
   4 -16  12   80.89    9.80
   4 -16  12   67.69    8.30
   4  16 -12   78.59    9.60
  -4 -16  12   71.19    7.80
  -4 -16  12   80.09    9.20
  -4 -16  12   64.09    7.90
   4  16  12   90.09    9.20
   6 -16  12   44.50    9.50
   6  16 -12   64.09    9.30
   6 -16  12   42.90    9.50
  -6 -16 -12   58.59    7.80
  -6 -16  12   75.99    8.90
  -6 -16  12   68.69    7.70
  -6 -16  12   54.39    7.20
   6  16  12   52.89    7.60
   6 -16 -12   42.30    8.40
   1 -17  12   17.80    4.80
   1  17 -12   13.60    5.80
  -1 -17 -12   19.20    8.30
   1 -17  12   17.40    5.40
   1  17  12   18.70    5.50
  -1 -17  12   20.90    5.20
  -1 -17  12   20.60    5.50
  -1  17 -12   24.70    5.90
   3 -17  12   10.80    4.90
  -3 -17 -12   10.00    3.50
   3 -17  12    4.60    4.00
  -3  17  12   10.20    2.90
   3  17 -12    9.30    4.80
  -3 -17  12   10.50    3.70
  -3 -17  12    8.20    3.20
   3  17  12   10.60    4.40
  -3 -17  12    1.90    3.60
   3 -17 -12   10.70    5.20
  -5 -17 -12   22.30    6.40
   5 -17  12    8.80    5.30
   5  17 -12   22.30    6.50
   5 -17  12   23.80    5.60
  -5 -17  12   12.20    4.80
   5 -17 -12   11.40    4.80
  -5 -17  12   17.60    5.20
   5  17  12   26.10    6.50
  -5 -17  12   16.90    5.30
   0 -18  12   36.80    6.30
   0  18  12   27.90    6.20
   0 -18  12   40.60    5.90
   0 -18 -12   36.70    8.30
   0 -18  12   37.10    8.50
   0  18 -12   32.80    7.60
   2  18 -12   10.50    3.70
   2 -18  12    9.40    4.50
  -2  18  12    8.10    2.80
   2 -18  12    8.40    4.10
  -2 -18 -12    9.00    5.00
  -2 -18  12    6.40    3.30
  -2  18 -12   13.20    4.70
   2  18  12   12.40    4.00
   2 -18 -12   11.60    5.00
  -2 -18  12    1.80    3.10
  -4 -18 -12   18.20    5.50
   4  18 -12   20.50    6.20
   4 -18  12    8.00    4.30
   4 -18  12   15.40    4.60
  -4  18  12   17.10    3.80
   4  18  12   21.70    5.10
  -4 -18  12   41.10    9.30
  -4 -18  12   13.30    5.30
  -4 -18  12    8.10    4.30
  -6 -18 -12    9.10    5.60
   6 -18  12    9.30    5.00
   6  18 -12   11.10    4.70
   6  18  12    6.30    4.00
  -6 -18  12   16.90    4.70
  -6 -18  12   28.50    7.90
   6 -18 -12   16.50    5.40
  -6 -18  12   14.00    5.10
   1 -19  12   84.49    9.70
   1  19 -12   79.69    9.70
   1 -19  12   69.99    6.60
  -1  19  12   81.99    6.80
  -1 -19 -12   78.59   10.00
   1 -19  12   93.79    9.30
  -1 -19  12   90.19   10.00
   1 -19 -12   74.09    9.80
   1  19  12   75.79    7.20
  -1  19 -12   66.89    8.30
  -1 -19  12   70.19    7.70
   3  19 -12   86.99   10.60
  -3  19  12   71.49    7.10
  -3 -19 -12   92.39   10.20
   3 -19  12   71.79   10.10
   3 -19  12   87.99    9.50
   3  19  12  103.09    9.80
  -3 -19  12   82.09    8.50
   3 -19 -12   83.29   10.70
  -3 -19  12   91.29   10.10
   5 -19  12   37.90    8.90
  -5 -19 -12   35.50    7.30
   5  19 -12   28.50    9.20
  -5 -19  12   36.70    8.10
   5  19  12   47.00   11.50
  -5 -19  12   28.30    7.70
  -5 -19  12   26.90    6.30
   0  20  12   48.30    6.60
   0 -20  12   53.29    9.70
   0  20 -12   44.50    8.80
   0 -20 -12   57.59   10.60
   2  20 -12   44.00    9.20
   2 -20  12   55.69   10.50
   2 -20  12   57.39    7.90
  -2  20  12   57.59    6.00
  -2 -20 -12   43.50    9.20
   2 -20 -12   58.49    8.50
  -2 -20  12   63.39    7.70
  -2 -20  12   78.19    9.00
   2  20  12   59.59    7.40
  -2  20 -12   61.39    8.10
  -2 -20  12   60.39    7.60
   4 -20  12   19.50    7.30
  -4 -20 -12   22.30    6.90
   4  20 -12   42.90   14.60
   4  20  12   25.60    6.90
  -4 -20  12   29.40    7.30
  -4 -20  12   27.40    7.40
  -4 -20  12   20.80    5.90
   1 -21  12    1.90    4.20
   1  21 -12    0.20    4.20
  -1  21  12   12.30    3.50
  -1 -21 -12    3.60    4.00
   1 -21  12   12.10    6.10
  -1 -21  12    2.50    4.00
  -1 -21  12    6.50    4.80
   1 -21 -12    9.60    5.90
  -1  21 -12    6.70    3.80
  -1 -21  12   11.90    4.50
   1  21  12   10.20    3.60
   3 -21  12   17.60    6.40
  -3 -21 -12   21.30    6.20
   3  21 -12   12.10    6.60
  -3 -21  12   12.00    5.80
  -3 -21  12   10.70    5.60
  -3 -21  12   20.50    8.80
   3  21  12   13.40    4.50
   0  22 -12   83.39    9.80
   0 -22  12   65.09   17.90
   0 -22  12   64.89    9.50
   0  22  12   82.79    7.80
   0 -22 -12   87.49   12.00
   2 -22  12   41.30    9.20
   2  22 -12   29.40    9.50
  -2 -22  12   32.00    7.50
   2 -22 -12   35.70    7.90
  -2 -22  12   28.70    7.40
   2  22  12   35.80    7.30
  -2  22 -12   27.80    7.60
  -2 -22  12   13.30    6.00
   0   0  13    3.50    1.70
   0   0  13    0.00    2.00
   2   0  13    5.50    2.60
   2   0  13    3.00    2.00
  -2   0  13    5.00    1.80
   2   0  13    0.10    1.90
  -2   0  13    2.20    2.50
  -2   0  13    2.80    1.20
   2   0 -13    5.90    3.00
   4   0  13    2.40    2.30
  -4   0  13    1.30    1.30
   4   0 -13    4.80    3.10
   4   0  13    0.30    1.40
  -4   0  13    4.30    2.70
   4   0  13    2.00    2.00
  -6   0  13    4.10    2.60
  -6   0  13    3.90    2.30
   6   0 -13    2.50    2.90
   6   0  13    3.70    2.00
   6   0  13    1.70    2.00
   6   0  13    0.30    2.00
   8   0  13    0.40    2.10
  -8   0  13    1.30    3.00
   8   0 -13    3.40    3.40
   8   0  13    1.50    3.00
   8   0  13    4.10    2.50
  -8   0  13    1.50    2.40
  -8   0  13    1.90    2.80
   1  -1  13   66.19    6.10
  -1   1  13   57.79    4.20
  -1   1  13   55.19    4.20
  -1   1  13   59.59    5.90
   1  -1  13   59.89    5.40
  -1  -1  13   61.99    4.80
   1   1  13   57.19    5.00
   1   1  13   60.39    5.40
  -1  -1  13   55.39    6.10
   3  -1  13  117.89    8.20
  -3   1  13  105.69    8.40
   3   1 -13  112.29   10.00
  -3   1  13  111.39    7.40
   3  -1  13  105.89    7.90
   3  -1  13   93.29    8.40
   3   1  13  107.29    9.10
   3  -1 -13  100.09    9.50
   3   1  13  108.69    7.90
  -3  -1  13  101.39    7.00
  -3  -1  13  104.29    8.60
   3   1  13  112.69    7.20
  -5   1  13    1.00    2.40
   5  -1  13    6.40    2.60
  -5   1  13    5.00    3.00
   5  -1  13    9.60    3.60
   5   1 -13    4.60    3.00
   5  -1  13    3.40    2.30
  -5  -1  13    9.10    3.00
   5   1  13    5.60    2.50
   5   1  13    4.10    2.60
   5   1  13   -0.10    1.70
   5  -1 -13    5.10    2.80
  -5  -1  13    9.00    4.50
   7  -1  13   26.20    5.80
   7  -1  13   25.50    5.10
  -7   1  13   29.00    7.20
   7   1 -13   26.30    5.60
  -7   1  13   17.50    3.90
   7  -1  13   24.30    5.50
   7   1  13   25.70    5.60
  -7  -1  13   16.70    4.70
  -7  -1  13   21.50    6.10
  -7  -1  13   29.50    3.60
   7  -1 -13   26.90    5.70
   7   1  13   26.80    3.90
   7   1  13   30.40    6.80
   9   1 -13    2.10    3.80
   9  -1  13    1.90    3.30
  -9   1  13    5.90    3.50
   9  -1  13    4.70    2.70
   9  -1  13   -2.10    2.50
  -9  -1  13    1.80    3.90
   9   1  13    5.70    2.70
  -9  -1  13    5.40    3.60
   9   1  13    5.80    3.90
   9  -1 -13    9.00    3.90
   0   2  13  526.05   18.80
   0   2  13  525.65   16.50
   0  -2  13  482.75   20.30
   0  -2  13  533.75   18.00
   2  -2  13 1141.09   35.40
   2  -2  13 1213.48   34.60
   2   2 -13 1170.58   39.70
  -2   2  13 1177.68   32.70
  -2   2  13 1193.68   35.40
  -2   2  13 1132.69   34.80
  -2  -2  13 1187.58   31.70
   2   2  13 1207.08   33.50
   2   2  13 1195.78   37.30
  -2  -2  13 1112.19   32.90
  -2  -2  13 1210.28   37.00
   2   2  13 1077.59   32.40
  -2  -2  13 1112.09   31.30
  -4   2  13  421.86   18.60
   4  -2  13  388.66   17.40
  -4   2  13  399.86   17.20
   4  -2  13  406.46   18.40
   4   2 -13  434.06   21.20
   4  -2  13  369.96   17.00
   4   2  13  379.06   17.00
   4   2  13  375.26   14.50
  -4  -2  13  369.46   18.30
   4   2  13  396.46   18.60
   4  -2 -13  407.46   19.40
  -4  -2  13  403.16   16.80
  -4  -2  13  399.96   14.30
   6   2 -13  289.07   17.20
   6  -2  13  299.17   16.00
   6  -2  13  269.77   15.50
  -6   2  13  298.57   16.10
   6  -2  13  295.17   15.20
  -6  -2  13  316.77   18.50
   6  -2 -13  302.17   16.20
  -6  -2  13  295.27   16.20
  -6  -2  13  290.57   16.90
  -6  -2  13  287.47   13.30
   6   2  13  294.17   16.10
   6   2  13  271.87   15.80
  -8   2  13   98.49    7.00
  -8   2  13  117.99   11.00
   8   2 -13  120.79   10.50
   8  -2  13  107.19   10.00
   8  -2  13  101.69    8.60
  -8  -2  13  128.69   11.20
   8   2  13  113.49   10.00
   8  -2 -13  120.49    9.90
  -8  -2  13  122.89    8.40
  -8  -2  13  106.39   10.60
  -1   3  13  111.29    7.20
  -1   3  13  119.59    8.00
   1  -3  13  124.69    9.20
   1  -3  13  130.59    8.10
   1   3 -13  122.19   10.80
   1   3  13  125.99    7.10
  -1  -3  13  109.39    8.80
   1   3  13  109.79    7.00
   1   3  13  123.79    9.50
   1   3  13  147.29   11.60
  -1  -3  13  128.39    7.50
   3  -3  13   53.09    6.00
  -3   3  13   43.70    5.60
  -3   3  13   40.10    5.20
   3   3 -13   48.10    6.90
   3  -3  13   52.69    6.10
   3  -3  13   40.90    5.50
   3   3  13   45.10    5.20
   3   3  13   54.99    6.40
  -3  -3  13   46.30    4.60
  -3  -3  13   43.10    7.10
  -3  -3  13   47.10    4.60
  -5   3  13   48.40    5.80
   5  -3  13   56.49    6.40
   5   3 -13   57.49   10.10
   5  -3  13   50.49    6.00
   5  -3  13   62.99    6.70
   5   3  13   45.20    6.40
   5   3  13   44.80    5.80
  -5  -3  13   51.19    5.90
  -5  -3  13   55.59    5.00
  -5  -3  13   52.39    6.80
  -7   3  13   16.50    7.00
   7  -3  13   16.10    4.20
   7   3 -13    8.70    4.10
   7  -3  13   16.90    3.60
  -7  -3  13   10.90    5.00
  -7  -3  13   12.00    2.80
  -7  -3  13   12.40    3.30
  -7  -3  13    8.80    3.70
   7   3  13    6.50    3.00
   7   3  13   15.30    4.70
  -9   3  13    4.00    4.40
   9  -3  13    3.60    3.20
   9  -3  13    0.20    4.30
   9  -3  13    2.20    2.60
   9   3 -13    9.70    4.50
   9   3  13   11.30    4.10
  -9  -3  13    3.80    4.20
   9   3  13    3.20    3.50
  -9  -3  13    2.60    3.00
   0   4  13   37.80    5.40
   0   4 -13   53.79    9.90
   0   4  13   44.90    4.60
   0  -4  13   39.70    4.70
   0   4  13   49.60    4.60
   0  -4  13   49.00    6.20
   0   4  13   36.30    3.90
   0   4  13   41.70    3.70
   2   4 -13   30.60    7.10
  -2   4  13   30.40    6.20
   2  -4  13   31.30    6.20
   2  -4  13   22.50    4.70
  -2  -4  13   26.00    3.70
  -2  -4  13   23.00    3.80
  -2  -4  13   28.20    6.00
   2   4  13   20.70    3.80
   2   4  13   34.50    6.50
   4  -4  13   39.10    5.60
  -4   4  13   37.60    5.10
   4  -4  13   36.40    6.50
   4  -4  13   41.10    7.00
   4   4 -13   50.29    9.20
   4   4  13   37.40    5.20
  -4  -4  13   44.00    5.20
  -4  -4  13   42.00    4.40
  -4  -4  13   34.80    6.40
   4   4  13   43.00    6.10
   6  -4  13   17.30    4.90
  -6   4  13   15.50    5.10
   6  -4  13   17.00    4.50
   6   4 -13   24.50    7.00
   6  -4  13   11.50    4.20
   6   4  13   21.70    5.10
  -6  -4  13   16.20    3.90
  -6  -4  13   16.00    4.00
   6   4  13   12.60    4.10
  -6  -4  13   11.30    4.00
  -6  -4  13   13.30    5.40
  -8   4  13    9.30    3.50
   8  -4  13   11.00    3.00
   8   4 -13    3.50    4.40
   8  -4  13    7.70    3.60
   8   4  13    9.40    3.50
  -8  -4  13    8.40    4.10
  -8  -4  13   10.50    3.10
   8   4  13   10.10    3.90
  -8  -4  13    7.60    3.70
  -1   5  13  219.78   12.30
   1   5 -13  221.68   14.90
  -1   5  13  217.38   11.30
   1  -5  13  231.18   13.30
   1  -5  13  230.48   11.70
  -1   5  13  228.88   11.10
  -1  -5 -13  239.98   10.60
   1   5  13  229.58    9.60
   1   5  13  244.48   13.30
  -1  -5  13  240.28   11.40
   1   5  13  208.08    9.60
  -1  -5  13  254.57   13.90
   1   5  13  230.68   10.10
   1   5  13  214.08    9.80
   3  -5  13  202.18   11.80
   3  -5  13  197.58   12.40
  -3   5  13  199.28   11.50
   3   5 -13  193.18   14.20
  -3  -5  13  208.48   10.30
   3   5  13  199.48   11.00
  -3  -5  13  199.28   12.70
  -3  -5  13  199.18   10.40
   3   5  13  201.28   12.60
   5  -5  13   78.49    7.50
  -5   5  13   89.59    8.10
   5   5 -13   75.59    9.00
   5  -5  13   71.79    7.50
   5  -5  13   81.89    7.90
   5   5  13   81.09    7.80
  -5  -5  13   67.29    6.70
   5   5  13   70.49    7.90
  -5  -5  13   69.89    8.10
  -5  -5  13   71.89    6.20
   7  -5  13   60.79    6.20
  -7   5  13   44.40    8.50
   7  -5  13   55.79    7.00
   7  -5  13   33.00    6.70
   7   5 -13   51.59    7.40
  -7  -5  13   67.79    7.10
  -7  -5  13   33.80   10.70
  -7  -5  13   49.90    7.00
  -7  -5  13   46.90    5.40
   7   5  13   50.59    8.80
   7   5  13   36.30    7.50
   9   5 -13   14.30    4.70
  -9   5  13    3.80    3.80
   9  -5  13   13.00    4.70
   9  -5  13    9.00    3.20
   9   5  13    3.90    4.40
  -9  -5  13   11.30    4.90
  -9  -5  13   12.80    3.40
  -9  -5  13   10.50    6.90
   0   6  13  518.05   20.80
   0   6  13  512.05   17.00
   0   6  13  517.05   15.90
   0  -6 -13  534.45   19.10
   0   6  13  460.95   18.00
   0   6 -13  516.45   23.70
   0  -6  13  533.35   19.50
   0  -6  13  504.95   21.40
   0   6  13  468.45   17.30
   2  -6  13   82.89    8.10
  -2   6  13   90.39    8.10
  -2  -6 -13   92.69    6.40
   2   6 -13   77.69    9.00
   2  -6  13   88.59    7.50
  -2  -6  13   83.59    6.80
   2   6  13   83.59    8.10
  -2  -6  13   68.79    7.50
   2   6  13   61.29    4.80
   2   6  13   94.09    6.60
  -2  -6  13   78.19    5.70
  -2  -6  13   79.89    5.50
   4   6 -13  242.78   16.40
   4  -6  13  237.58   13.60
   4  -6  13  274.47   14.50
  -4   6  13  251.07   13.60
   4  -6  13  248.88   14.90
   4   6  13  251.37   14.90
  -4  -6  13  253.87   15.20
   4   6  13  262.07   13.60
  -4  -6  13  247.58   12.60
  -4  -6  13  245.18   12.30
   6   6 -13   85.09    9.90
   6  -6  13   71.49    8.00
   6  -6  13   73.19    8.10
   6  -6  13   79.69    7.30
  -6  -6 -13   89.69    6.90
  -6   6  13   85.79    8.50
  -6  -6  13   92.49    9.60
   6   6  13   78.49    7.90
  -6  -6  13   80.09    8.10
  -6  -6  13   85.29    7.20
   8  -6  13   57.19    5.70
  -8   6  13   44.20    9.00
   8   6 -13   69.99    8.30
  -8  -6 -13   45.10    6.60
   8  -6  13   51.09    7.30
   8  -6  13   51.89    7.40
  -8  -6  13   54.39    6.20
  -8  -6  13   55.99    7.90
   8   6  13   59.89    7.00
  -8  -6  13   70.19    8.20
   8   6  13   39.80    7.60
   1  -7  13   28.90    5.20
  -1   7  13   38.10    3.90
  -1   7  13   34.20    4.20
   1   7 -13   30.30    7.50
  -1  -7 -13   33.20    4.40
  -1   7  13   38.80    6.80
   1  -7  13   35.90    7.00
  -1  -7  13   34.80    4.80
  -1  -7  13   41.50    7.90
   1   7  13   28.60    4.70
   1   7  13   36.20    6.70
  -1   7 -13   29.40    6.70
   1   7  13   27.70    3.70
   3   7 -13   18.00    6.40
   3  -7  13   19.60    5.40
  -3  -7 -13   20.10    3.90
  -3   7  13   23.60    4.90
   3  -7  13   16.90    4.30
  -3  -7  13   18.90    4.00
  -3  -7  13   22.60    4.90
  -3  -7  13   26.00    6.10
   3   7  13   15.60    3.30
   3   7  13   22.40    5.60
   3   7  13   24.60    4.70
  -5   7  13   68.79    7.50
   5  -7  13   69.09    7.50
   5  -7  13   79.29    8.50
  -5  -7 -13   79.59    6.50
  -5  -7 -13   67.09    6.80
   5   7 -13   70.29    9.20
   5  -7  13   74.79    7.20
  -5  -7  13   78.49    7.10
   5   7  13   65.99    7.60
   5   7  13   59.19    6.80
  -5  -7  13   74.19    6.90
  -5  -7  13   64.19    8.00
   7   7 -13   43.90    9.20
  -7   7  13   30.30    7.60
   7  -7  13   20.50    5.00
  -7  -7 -13   40.20    5.60
   7  -7  13   23.10    4.70
   7   7  13   44.90    6.30
  -7  -7  13   37.50    5.40
  -7  -7  13   31.40    7.20
  -7  -7  13   23.40    5.30
   7   7  13   27.40    6.10
   9   7 -13   12.70    5.30
   9  -7  13    5.80    3.10
  -9   7  13   10.80    6.50
   9   7  13    2.90    3.60
  -9  -7  13   -0.60    2.80
  -9  -7  13    4.50    3.90
   9   7  13    3.90    5.10
  -9  -7  13    9.00    5.20
   0   8  13  214.28   12.50
   0   8 -13  229.18   15.20
   0  -8  13  221.98   12.10
   0  -8  13  220.18   13.70
   0  -8 -13  228.38   12.40
   0   8  13  186.78    8.80
   2  -8  13   50.59    5.90
  -2  -8 -13   65.89    6.30
  -2   8  13   56.09    5.30
  -2   8  13   50.79    5.60
   2   8 -13   50.39    9.10
   2  -8  13   45.80    6.50
  -2  -8  13   42.00    8.00
  -2  -8  13   57.89    4.90
   2   8  13   44.00    6.00
  -2  -8  13   58.09    6.10
   2   8  13   52.59    5.30
   4  -8  13   65.09    8.30
   4  -8  13   81.49    8.00
  -4   8  13   72.59    6.50
   4  -8  13   72.09    7.00
  -4  -8 -13   75.39    6.80
   4   8 -13   63.49    9.00
  -4  -8  13   72.69    6.80
   4   8  13   66.89    7.80
   4   8  13   75.59    7.20
  -4  -8  13   71.49    6.70
  -6   8  13   32.30    4.00
   6  -8  13   21.90    5.80
   6   8 -13   23.70    6.50
   6  -8  13   29.80    5.60
  -6  -8 -13   40.20    5.20
   6  -8  13   23.60    5.70
   6   8  13   20.50    5.70
  -6  -8  13   26.60    7.20
  -6  -8  13   22.30    4.70
  -6  -8  13   15.50    4.70
   8  -8  13    7.70    3.60
   8  -8  13    7.00    2.50
  -8   8  13   10.90    4.70
  -8  -8 -13   11.30    4.60
   8  -8  13   14.40    4.80
   8   8 -13   -0.40    3.80
  -8  -8  13    4.10    3.70
  -8  -8  13    5.60    3.50
   8   8  13   10.40    3.90
   8   8  13   -2.70    3.10
  -8  -8  13    0.80    2.90
   1   9 -13  111.79   10.70
  -1   9  13   93.99    6.30
  -1  -9 -13   95.49    9.70
   1  -9  13   95.79    9.30
   1  -9  13  107.79    8.60
  -1   9  13  105.79    8.30
  -1   9  13   85.99    6.20
   1  -9 -13  105.09    9.00
   1   9  13   99.39    7.00
   1   9  13  108.89    9.10
  -1  -9  13   99.09    9.30
  -1  -9  13  107.99    8.30
  -1   9 -13   98.89    9.80
  -3  -9 -13  102.99   10.30
   3   9 -13  106.79   11.00
   3  -9  13   90.29    8.30
   3  -9  13   93.39    9.50
  -3   9  13   89.69    7.20
   3   9  13   93.39    7.70
  -3  -9  13   99.89    9.40
   3   9  13   87.59    8.70
  -3  -9  13   89.99    7.60
  -3  -9  13   86.09    7.10
   5  -9  13   45.70    5.90
   5   9 -13   39.20   12.90
  -5  -9 -13   38.50    5.30
  -5   9  13   47.90    5.10
   5  -9  13   39.90    5.20
   5  -9  13   41.30    8.80
  -5  -9  13   32.10   10.50
  -5  -9  13   40.20    5.40
  -5  -9  13   41.90    5.90
   5   9  13   39.40    7.00
   7  -9  13   50.79    7.20
  -7   9  13   31.30    6.80
  -7  -9 -13   45.50    6.30
   7  -9  13   52.79    7.40
   7  -9  13   44.20    5.20
   7   9 -13   38.50    8.30
  -7  -9  13   31.40    6.70
   7   9  13   41.20    8.60
   7   9  13   45.20    8.30
  -7  -9  13   61.99    7.20
  -7  -9  13   55.49    6.20
   0 -10 -13  444.46   19.70
   0  10 -13  405.26   21.40
   0  10  13  412.16   15.20
   0  10  13  424.16   18.80
   0 -10  13  425.86   18.60
   0 -10  13  379.16   19.80
  -2  10  13  445.86   18.30
   2  10 -13  426.86   22.80
  -2 -10 -13  433.56   19.30
   2 -10  13  435.76   19.40
   2 -10  13  420.36   21.20
   2  10  13  431.36   20.10
  -2 -10  13  440.86   18.80
   2 -10 -13  454.65   20.90
  -2 -10  13  418.06   21.00
   2  10  13  458.85   17.90
  -2 -10  13  404.66   16.20
   4 -10  13  243.58   15.80
  -4  10  13  252.67   12.40
  -4 -10 -13  252.27   13.90
   4  10 -13  241.18   17.10
   4 -10  13  253.77   14.70
  -4 -10  13  241.18   15.60
   4  10  13  245.58   13.90
  -4 -10  13  227.88   13.30
  -4 -10  13  236.08   13.20
   4  10  13  231.38   14.90
  -6  10  13  132.99   11.80
   6 -10  13  143.59   12.50
   6 -10  13  140.09   11.20
   6 -10  13  144.39    9.40
   6  10 -13  161.38   14.10
  -6 -10 -13  144.89   10.60
  -6 -10  13  159.68   12.60
  -6 -10  13  134.09   10.10
  -6 -10  13  147.79   11.60
   6  10  13  149.19   11.90
   6  10  13  154.28   12.40
   8 -10  13   55.59   10.70
   8 -10  13   45.80    8.90
   8  10 -13   72.89    9.60
  -8  10  13   71.09    9.40
  -8 -10  13   76.49    9.70
  -8 -10  13   60.79    8.90
  -8 -10  13   55.09   10.40
   8  10  13   58.39    8.20
   8  10  13   71.39    8.50
   1  11 -13   10.00    4.80
   1 -11  13    8.50    3.40
   1 -11  13    3.00    3.90
  -1  11  13    5.30    2.30
  -1 -11 -13   10.30    3.80
  -1  11  13    5.40    3.00
  -1 -11  13    7.50    3.80
   1  11  13    2.70    1.80
  -1  11 -13   15.10    5.00
  -1 -11  13    3.30    2.70
   1 -11 -13    8.00    3.40
   1  11  13    2.00    2.50
  -3 -11 -13    8.10    3.40
   3 -11  13   -1.20    3.00
   3 -11  13    3.40    2.00
   3  11 -13   -0.60    2.50
  -3  11  13    1.90    1.60
  -3 -11  13    1.30    2.90
  -3 -11  13    1.70    2.40
  -3 -11  13    3.00    2.10
   3  11  13    8.00    2.90
   3  11  13    2.70    2.50
  -5  11  13    5.80    2.30
  -5 -11 -13    5.90    3.50
   5 -11  13    0.30    2.20
   5  11 -13    1.80    3.40
   5 -11  13    3.80    2.40
   5 -11  13    1.00    2.60
   5  11  13    4.60    3.00
  -5 -11  13   -1.50    2.80
  -5 -11  13   -1.20    2.00
   5  11  13   -1.40    2.00
  -5 -11  13    2.20    2.20
  -7  11  13    6.20    4.30
   7 -11  13    3.70    2.50
  -7 -11 -13    2.00    3.60
   7 -11  13    4.80    4.30
   7  11 -13    0.10    3.10
   7 -11  13   -3.30    3.40
   7  11  13    2.50    2.40
  -7 -11  13    4.40    3.60
   7  11  13    6.20    3.10
  -7 -11  13    6.30    2.80
  -7 -11  13   14.70    4.20
   0  12  13   30.80    6.00
   0 -12  13   48.20    6.20
   0 -12  13   38.60    7.90
   0 -12 -13   42.90    8.50
   0  12 -13   35.90    7.50
  -2  12  13    4.40    2.20
   2  12 -13    4.20    3.50
   2 -12  13   -0.40    1.80
   2 -12  13    2.10    3.10
  -2 -12 -13    5.30    3.30
  -2 -12  13    3.10    2.80
  -2  12 -13    2.10    2.90
  -2 -12  13    4.90    2.20
   2  12  13   -0.70    1.70
   2 -12 -13    3.30    3.00
  -2 -12  13    8.00    3.70
   2  12  13    3.80    2.50
  -4  12  13    4.00    1.90
   4 -12  13   -0.10    2.00
   4  12 -13    0.40    3.10
  -4 -12 -13    2.40    2.70
  -4 -12  13    1.50    2.40
  -4 -12  13    5.30    2.80
   4  12  13    0.70    2.10
  -4 -12  13    1.00    2.90
   4  12  13   -0.60    2.30
   6  12 -13    6.60    3.50
   6 -12  13   24.00    6.70
  -6 -12 -13    7.30    3.50
   6 -12  13   11.10    3.80
   6 -12  13   15.00    3.70
  -6 -12  13    4.10    4.00
   6  12  13    7.00    4.00
   6  12  13   13.10    4.20
  -6 -12  13   14.50    4.60
  -6 -12  13    3.20    3.20
   8 -12  13   -4.30    3.90
   8  12 -13    5.00    4.20
  -8  12  13   10.00    4.30
   8  12  13    1.50    3.20
  -8 -12  13    6.10    3.30
  -8 -12  13   17.20    5.00
  -8 -12  13    5.00    3.90
   1 -13  13   77.09    8.00
   1  13 -13   77.59    9.50
  -1 -13 -13   87.39    9.00
   1 -13  13   95.29    9.50
  -1  13  13  105.49    8.10
   1  13  13   81.19    7.90
   1 -13 -13   85.49    9.00
  -1  13 -13   98.09    9.80
  -1 -13  13   74.09    7.70
  -1 -13  13   97.99    9.90
   3 -13  13  103.19    9.50
  -3  13  13  102.99    7.60
   3  13 -13  105.69   12.10
  -3 -13 -13  127.89   10.40
  -3 -13  13  102.89   10.70
  -3 -13  13  104.39    8.40
  -3 -13  13   90.29    8.80
   5 -13  13   46.30    9.40
  -5 -13 -13   45.80    6.40
   5 -13  13   30.70    5.60
   5 -13  13   38.20    7.30
   5  13 -13   36.00    8.20
  -5 -13  13   38.10    7.60
  -5 -13  13   33.20    7.20
  -5 -13  13   36.60    6.60
   5  13  13   46.10    6.60
   7  13 -13   33.20    8.80
  -7 -13 -13   40.20    7.90
   7 -13  13   28.50    6.40
  -7  13  13   40.70    9.20
   7 -13  13   44.70    8.90
  -7 -13  13   49.40    6.70
   7  13  13   48.70    9.10
  -7 -13  13   45.70    8.50
  -7 -13  13   33.60    7.20
   0  14 -13   46.60    6.70
   0 -14 -13   37.50    7.50
   0 -14  13   30.30    6.40
   0 -14  13   40.20    9.30
   0  14  13   35.30    5.00
   2 -14  13  117.69   11.80
   2  14 -13  142.99   26.90
  -2  14  13  132.19    9.10
  -2 -14 -13  133.79   11.00
   2 -14  13  131.29   10.40
  -2  14 -13  128.59   11.10
   2  14  13  138.99   11.20
  -2 -14  13  123.89   11.30
   2 -14 -13  137.19   12.10
  -2 -14  13  127.29   10.20
  -2 -14  13  120.09    8.80
  -4  14  13   28.50    4.10
   4 -14  13   40.00    8.40
   4  14 -13   25.80    7.50
  -4 -14 -13   26.70    5.70
   4 -14  13   31.70    7.50
  -4 -14  13   34.50    6.90
  -4 -14  13   33.20    6.30
  -4 -14  13   33.60    7.20
   4  14  13   44.50    8.30
  -6 -14 -13   77.59    8.80
   6  14 -13   71.89   10.00
   6 -14  13   47.80    7.70
   6 -14  13   50.39   10.20
  -6 -14  13   58.19    7.50
  -6 -14  13   55.39    7.70
   6  14  13   60.39    8.50
  -6 -14  13   56.69    8.00
   1  15 -13   14.10    6.40
  -1 -15 -13   18.20    5.50
  -1  15  13   32.30    4.40
   1 -15  13   30.10    7.60
   1 -15  13   20.20    5.20
   1  15  13   19.50    4.80
   1 -15 -13   32.30    7.80
  -1  15 -13   20.00    6.10
  -1 -15  13   24.20    6.50
  -1 -15  13   17.30    5.00
  -3 -15 -13   10.10    4.40
   3  15 -13    5.70    3.50
   3 -15  13    4.80    4.20
  -3  15  13   12.50    3.00
   3 -15  13   10.00    3.70
  -3 -15  13    4.50    3.20
   3  15  13   15.40    4.50
  -3 -15  13   11.00    3.80
   3 -15 -13    9.40    3.90
  -3 -15  13   10.00    3.60
   5  15 -13   28.40    7.80
   5 -15  13   32.40    8.30
  -5 -15 -13   30.30    6.80
   5 -15  13   26.10    4.60
   5 -15  13   21.40    6.20
  -5 -15  13   18.20    5.30
  -5 -15  13   18.30    4.60
   5  15  13   21.80    6.10
  -5 -15  13   40.10    8.00
  -7  15  13    4.00    3.70
   7  15 -13    5.60    5.80
  -7 -15 -13   -3.30    5.00
   7 -15  13    8.50    4.40
  -7 -15  13    7.50    4.80
   7  15  13   -0.50    3.60
  -7 -15  13    6.00    3.90
   0  16 -13   22.70   10.10
   0 -16 -13   19.20    6.10
   0 -16  13   10.50    3.50
   0 -16  13    7.70    3.70
   0  16  13   17.70    3.70
   2 -16  13   32.00    6.90
   2  16 -13   43.50    9.60
  -2  16  13   42.70    5.00
   2 -16  13   29.20    8.00
  -2 -16 -13   26.20    6.80
  -2 -16  13   43.60    5.20
   2  16  13   46.50    8.80
  -2 -16  13   48.00    9.40
  -2 -16  13   32.30    6.50
   2 -16 -13   36.30    8.70
  -2  16 -13   55.99    7.80
  -4 -16 -13   14.40    4.10
   4  16 -13   13.80    4.40
   4 -16  13    7.40    3.60
   4 -16  13   18.90    5.40
  -4 -16  13    3.00    4.30
   4  16  13    6.90    3.40
  -4 -16  13   18.70    4.80
  -4 -16  13   12.50    5.10
   6 -16  13   -2.40    4.00
   6 -16  13    1.20    6.80
  -6 -16 -13    9.70    5.10
  -6 -16  13   -1.50    3.70
  -6 -16  13   11.50    4.20
  -6 -16  13   -3.00    3.30
   1 -17  13  195.98   15.50
   1 -17  13  204.98   13.50
  -1  17  13  245.58   13.30
  -1 -17 -13  217.88   15.70
   1  17 -13  213.08   16.10
  -1 -17  13  187.18   16.50
  -1 -17  13  183.18   11.20
   1 -17 -13  219.58   16.10
  -1 -17  13  207.78   15.40
   1  17  13  233.28   14.10
   3  17 -13  166.48   14.50
   3 -17  13  171.68   13.10
  -3  17  13  175.18   10.10
   3 -17  13  183.08   14.80
  -3 -17 -13  164.98   13.60
   3 -17 -13  183.88   14.60
   3  17  13  172.88   13.20
  -3 -17  13  164.38   12.30
  -3 -17  13  171.08   11.70
  -3 -17  13  172.58   13.80
   5 -17  13   91.69   11.50
   5  17 -13   98.89   11.60
  -5 -17 -13  101.29    9.80
   5 -17  13  115.49   10.60
   5  17  13  118.99   11.50
  -5 -17  13   79.89    9.50
  -5 -17  13  108.49   10.70
  -5 -17  13   99.39    9.90
   0 -18  13  103.39   11.80
   0 -18  13   93.39   10.00
   0 -18 -13   87.19    9.70
   0  18  13   98.59    8.60
   0  18 -13   90.39   10.10
   2  18 -13   53.49   10.50
   2 -18  13   51.49   10.50
  -2 -18 -13   72.69    8.80
  -2  18  13   63.69    6.30
   2 -18  13   55.29    9.60
  -2 -18  13   39.00    7.10
   2 -18 -13   44.20    8.50
   2  18  13   60.79    7.70
  -2 -18  13   51.19    8.70
  -2  18 -13   65.69    8.90
  -2 -18  13   63.69    8.80
   4 -18  13   73.39   10.10
   4 -18  13   52.49    9.60
   4  18 -13   73.29   10.20
  -4 -18 -13   60.79    8.80
   4  18  13   69.19    8.40
  -4 -18  13   49.00    8.70
  -4 -18  13   68.89    9.40
   1 -19  13    6.50    3.50
   1 -19  13    6.90    3.90
  -1  19  13    5.90    2.60
   1  19 -13    8.10    4.80
  -1 -19 -13    3.00    3.00
  -1 -19  13    8.50    4.40
  -1 -19  13   18.00    6.10
   1  19  13   11.80    4.50
  -1 -19  13   20.60    5.00
  -1  19 -13    9.10    4.30
   1 -19 -13    6.80    4.40
  -3  19  13   12.60    3.70
   3 -19  13   -1.20    3.40
  -3 -19 -13    9.70    4.50
  -3 -19  13    9.30    4.10
  -3 -19  13    0.60    3.10
   3  19  13   15.50    5.20
  -3 -19  13    8.20    4.80
   3 -19 -13   17.10    6.40
   0  20  13    4.20    3.30
   0 -20 -13    2.10    5.10
   0  20 -13    4.00    3.60
   0 -20  13   -2.40    3.90
   0 -20  13   -1.00    3.60
   2 -20  13   35.40    8.30
  -2 -20 -13   47.70    9.00
  -2  20  13   23.70    6.10
   2 -20  13   32.70    8.70
   2  20 -13   27.70    6.90
  -2 -20  13   26.10    6.10
   2  20  13   27.40    6.60
  -2 -20  13   26.60    8.40
  -2  20 -13   38.70    7.20
   2 -20 -13   24.20    7.60
  -2 -20  13   30.80    7.50
  -4 -20 -13    2.30    4.60
   4 -20  13    6.50    4.50
   4  20 -13   15.20    5.50
  -4 -20  13   -5.40    4.80
  -4 -20  13   17.10    5.60
   4  20  13    6.60    4.20
  -4 -20  13    5.40    3.90
   1 -21  13  110.49   14.10
   1  21 -13   87.59   10.60
  -1 -21 -13   95.39   10.90
   1 -21  13   86.09   10.10
  -1  21  13  100.59    8.50
   1  21  13  112.39    9.90
  -1  21 -13   89.99   10.60
  -1 -21  13   96.59    9.20
   1 -21 -13   98.69   11.60
   3  21 -13   69.49    9.70
   0  22 -13   11.30    6.60
   0 -22  13   18.00    7.20
   0 -22 -13   31.00    8.10
   0  22  13   13.10    5.70
   0 -22  13   33.70    8.00
   0   0  14 1031.20   29.00
   0   0  14 1008.10   33.60
   2   0  14  387.06   18.30
  -2   0  14  404.36   13.50
  -2   0  14  383.96   17.50
  -2   0  14  395.06   14.30
   2   0  14  401.56   16.50
  -2   0  14  372.06   16.60
   2   0  14  392.06   16.10
   4   0  14  576.84   23.70
  -4   0  14  553.24   23.30
  -4   0  14  601.74   21.80
   4   0 -14  538.95   24.70
   4   0  14  578.94   22.60
   4   0  14  565.64   20.80
  -6   0  14  180.58   11.90
   6   0  14  179.98   10.40
   6   0  14  157.58   11.50
   6   0 -14  170.48   12.40
   6   0  14  188.18   12.70
  -6   0  14  158.98   15.50
  -8   0  14   89.89    9.30
  -8   0  14   81.19    6.60
   8   0  14   90.19    9.00
   8   0  14   66.79    7.10
  -8   0  14   80.19    9.40
   8   0  14   77.49    8.90
   8   0 -14  107.59    9.60
   1  -1  14   10.80    3.70
  -1   1  14   17.50    4.40
   1  -1  14   12.50    3.30
  -1   1  14   12.80    2.50
  -1  -1  14   13.60    4.10
   1   1  14   16.00    3.60
   1   1  14   15.60    3.70
  -1  -1  14   15.20    3.10
   3  -1  14   75.19    7.70
  -3   1  14   78.19    7.50
   3  -1  14   88.69    7.40
  -3   1  14   76.59    6.10
   3   1 -14   68.09    8.20
   3   1  14   79.09    6.90
   3   1  14   85.99    6.50
  -3  -1  14   85.59    8.10
  -3  -1  14   81.39    5.40
  -3  -1  14   79.49    6.00
   3   1  14   80.19    8.10
   5  -1  14   12.00    3.60
  -5   1  14    6.90    3.10
  -5   1  14   12.50    3.30
   5  -1  14    9.40    2.90
   5  -1  14    4.80    2.50
   5   1 -14   10.50    3.60
   5   1  14    8.30    3.10
   5   1  14   12.30    3.50
  -5  -1  14    5.80    1.80
   5  -1 -14   10.90    3.70
  -5  -1  14   13.20    2.80
   5   1  14    9.00    2.80
  -5  -1  14   14.00    4.40
   7  -1  14   23.20    5.60
  -7   1  14   38.20    7.90
  -7   1  14   35.40    7.00
   7   1 -14   21.00    8.60
   7  -1  14   32.30    4.70
  -7  -1  14   29.80    4.00
  -7  -1  14   34.10    7.50
   7  -1 -14   56.79    7.00
  -7  -1  14   32.30    6.70
  -7  -1  14   42.80    4.80
   7   1  14   37.30    4.30
   7   1  14   39.40    5.60
   9  -1  14    7.30    3.20
  -9   1  14    0.60    4.60
   9  -1  14   -5.60    3.30
   9   1 -14    3.70    3.50
  -9   1  14    4.20    3.90
  -9  -1  14    4.40    3.60
   9   1  14   -5.60    2.70
   9   1  14    1.70    3.20
   9  -1 -14   12.80    5.00
  -9  -1  14    4.20    2.60
  -9  -1  14   -5.70    3.20
   0  -2  14  112.29    8.70
   0   2  14  110.79    6.40
   0   2  14  102.09    7.40
   0  -2  14  106.49    7.10
   2  -2  14  192.98   11.30
  -2   2  14  190.78    9.40
  -2   2  14  185.38   10.00
  -2   2  14  186.68   11.20
   2   2 -14  181.88   13.50
   2  -2  14  196.68   10.80
  -2  -2  14  187.38   11.80
   2   2  14  172.48    9.40
  -2  -2  14  178.28    9.30
  -2  -2  14  187.68    9.00
   2   2  14  192.48   12.40
   2   2  14  174.68    9.70
  -2  -2  14  175.68    8.30
  -4   2  14   49.00    6.40
  -4   2  14   63.49    6.00
   4   2 -14   62.19    8.20
   4  -2  14   76.19    7.30
   4  -2  14   60.79    6.40
   4  -2  14   57.19    6.70
  -4  -2  14   55.49    5.60
  -4  -2  14   66.79    5.20
   4   2  14   58.89    6.40
   4   2  14   60.69    7.30
  -4  -2  14   61.89    7.30
   4   2  14   63.99    5.00
   6  -2  14   32.00    6.40
   6  -2  14   32.90    6.60
  -6   2  14   42.50    5.60
   6   2 -14   41.40    7.90
   6  -2  14   41.70    5.60
   6   2  14   40.20    7.40
   6  -2 -14   45.50    6.00
  -6  -2  14   47.90    6.10
  -6  -2  14   42.20    7.70
  -6  -2  14   36.30    4.40
   6   2  14   40.30    7.40
  -6  -2  14   36.00    4.30
   8   2 -14    4.70    4.20
   8  -2  14   14.70    4.70
   8  -2  14   23.30    5.30
  -8   2  14    7.40    3.50
  -8   2  14    5.80    4.20
   8  -2  14    6.00    3.20
   8   2  14   11.00    3.50
  -8  -2  14    9.70    4.90
  -8  -2  14   14.60    3.00
   8   2  14   16.10    4.70
  -8  -2  14   12.00    5.70
   1  -3  14   66.69    7.00
   1   3 -14   52.99    7.60
   1  -3  14   65.29    6.00
  -1   3  14   67.49    5.00
   1   3  14   73.09    5.50
   1   3  14   60.89    5.10
  -1  -3  14   65.59    5.50
  -1  -3  14   72.89    7.20
   1   3  14   56.09    6.80
   1   3  14   63.89    5.70
  -3   3  14   73.69    6.30
   3  -3  14   72.49    7.50
   3   3 -14   88.99    9.40
   3  -3  14   62.39    6.80
   3  -3  14   66.69    6.80
  -3   3  14   68.69    6.60
   3   3  14   60.29    6.10
  -3  -3  14   71.99    5.70
   3   3  14   64.29    7.30
  -3  -3  14   64.99    7.40
  -3  -3  14   74.69    5.70
   3   3  14   69.89    5.10
   5  -3  14   44.50    5.80
   5  -3  14   56.19    5.90
   5   3 -14   46.20    8.70
  -5   3  14   36.60    6.60
  -5   3  14   50.59    6.70
   5  -3  14   40.20    5.70
  -5  -3  14   39.40    7.80
   5   3  14   42.50    5.90
  -5  -3  14   43.80    4.70
   5   3  14   40.00    7.30
  -5  -3  14   56.99    5.80
   7  -3  14   42.60    6.00
  -7   3  14   45.00    8.70
   7   3 -14   47.80    9.10
   7  -3  14   32.40    6.70
   7  -3  14   50.89    5.80
  -7  -3  14   44.60    6.10
  -7  -3  14   34.90    7.30
  -7  -3  14   31.30    4.20
   7   3  14   45.00    7.90
   7   3  14   38.20    7.30
  -9   3  14    6.70    4.80
   9  -3  14    4.70    3.80
   9  -3  14   18.60    5.70
   9  -3  14    7.60    3.50
   9   3 -14    4.90    5.00
  -9  -3  14   21.60    5.30
  -9  -3  14   12.20    4.60
   9   3  14   28.70    5.90
   9   3  14   18.20    5.20
   0  -4  14  439.16   16.90
   0  -4  14  446.36   19.40
   0   4  14  422.56   14.10
   0   4  14  369.06   14.50
   0   4  14  414.16   18.70
   0   4  14  430.26   16.20
  -2   4  14  376.96   15.00
   2  -4  14  393.36   18.10
   2  -4  14  375.56   16.30
   2   4 -14  369.56   20.20
  -2   4  14  365.96   16.00
  -2  -4  14  366.86   14.70
   2   4  14  336.67   13.20
   2   4  14  380.96   18.20
   2   4  14  349.47   14.70
  -2  -4  14  364.36   18.00
   4   4 -14  260.77   16.80
   4  -4  14  259.97   14.20
  -4   4  14  263.07   14.50
   4  -4  14  259.87   14.60
   4  -4  14  233.88   13.90
  -4   4  14  268.67   13.80
   4   4  14  257.47   15.20
  -4  -4  14  263.77   12.10
   4   4  14  255.57   13.70
  -4  -4  14  260.17   15.40
  -4  -4  14  267.77   13.20
   6  -4  14  137.79   11.10
   6   4 -14  145.49   14.60
   6  -4  14  143.89   11.00
  -6   4  14  164.28   11.60
   6  -4  14  164.48   11.30
  -6  -4  14  135.49    8.90
   6   4  14  135.99   11.70
  -6  -4  14  139.99   11.60
  -6  -4  14  156.18   11.00
   6   4  14  136.19   11.20
   8  -4  14   73.09    8.00
   8   4 -14   90.09    9.60
   8  -4  14   74.19    8.00
   8  -4  14   93.89    8.30
  -8   4  14   84.79    9.10
  -8  -4  14   75.69    7.00
   8   4  14   62.49    8.20
   8   4  14   76.59    8.20
  -8  -4  14   68.39    8.30
  -8  -4  14   75.79    9.30
   1  -5  14  202.18   11.10
   1   5 -14  198.28   14.00
   1  -5  14  199.38   12.60
  -1   5  14  200.48   10.50
  -1   5  14  193.18   11.90
   1   5  14  194.78   12.40
   1   5  14  190.98    9.30
   1   5  14  195.58    9.10
  -1  -5  14  200.98   10.80
   1   5  14  174.88    8.90
  -1  -5  14  202.98   12.80
   3  -5  14   87.99    8.40
   3   5 -14   93.49   10.20
   3  -5  14   93.49    8.00
  -3   5  14   94.39    7.30
  -3   5  14   99.09    8.00
   3   5  14   90.09    8.50
  -3  -5  14   84.29    6.40
  -3  -5  14   72.19    8.10
   3   5  14   86.69    7.30
  -3  -5  14   81.59    6.70
   5   5 -14  134.29   12.20
   5  -5  14  143.19   10.60
   5  -5  14  152.98   11.30
   5  -5  14  134.49   10.20
  -5   5  14  137.09   10.20
  -5  -5  14  132.49   11.30
  -5  -5  14  130.09    9.70
   5   5  14  128.89    9.90
   5   5  14  138.49   11.10
   7  -5  14   18.70    5.10
   7  -5  14   25.10    5.20
   7  -5  14   22.60    5.90
   7   5 -14   19.50    5.80
  -7   5  14   26.60    6.60
  -7  -5  14   23.90    5.10
  -7  -5  14   23.00    6.20
   7   5  14   18.80    4.50
  -7  -5  14   24.10    6.00
   7   5  14   22.60    5.50
   9   5 -14   18.10    6.70
   9  -5  14   32.80    7.90
  -9   5  14   17.50    5.60
   9  -5  14   19.60    4.90
   9  -5  14   35.10    7.20
   9   5  14   23.60    8.70
   9   5  14    9.50    5.30
  -9  -5  14   29.00    5.90
  -9  -5  14   20.90   11.80
  -9  -5  14   31.00    6.60
   0  -6  14    4.90    2.90
   0   6  14    1.00    1.70
   0  -6  14    0.00    1.70
   0   6  14    1.10    1.30
   0   6 -14    0.80    2.20
   0   6  14    2.60    2.70
   0   6  14    3.50    2.40
   0   6  14    2.90    1.90
   2   6 -14   30.00    7.80
   2  -6  14   17.40    4.90
  -2   6  14   16.90    4.30
   2  -6  14   24.60    5.80
  -2   6  14   21.50    4.50
  -2  -6  14   21.40    4.50
   2   6  14   17.20    3.40
   2   6  14   24.40    5.80
  -2  -6  14   15.10    4.70
  -4   6  14   -0.40    1.50
   4  -6  14    5.80    3.30
   4  -6  14    5.80    2.70
   4  -6  14    4.40    2.90
   4   6 -14    2.50    3.50
  -4  -6  14    3.30    1.90
   4   6  14    2.90    3.00
  -4  -6  14    3.00    2.90
  -4  -6  14    4.80    2.30
   4   6  14    2.50    1.80
   6  -6  14    3.50    2.10
  -6   6  14   10.50    3.80
   6  -6  14    2.80    3.70
   6   6 -14    3.70    3.10
   6  -6  14   -2.00    2.00
  -6  -6  14    1.00    3.60
   6   6  14    2.20    2.90
  -6  -6  14    4.90    2.50
   6   6  14    3.50    2.60
  -6  -6  14    3.70    2.30
  -8   6  14    3.60    3.50
   8   6 -14    0.60    3.70
   8  -6  14    6.00    2.70
   8  -6  14    9.60    3.70
   8  -6  14    7.40    3.40
  -8  -6  14    0.50    2.90
   8   6  14    3.80    3.20
   8   6  14   -2.40    2.40
  -8  -6  14    2.70    3.40
  -8  -6  14    4.80    2.90
  -1  -7 -14  497.35   18.60
   1  -7  14  502.35   22.10
  -1   7  14  490.15   20.50
   1   7 -14  530.15   25.10
  -1   7  14  483.75   17.80
   1  -7  14  487.55   19.90
  -1  -7  14  511.55   19.80
  -1  -7  14  491.35   22.20
   1   7  14  479.15   21.10
   1   7  14  482.15   17.10
   3   7 -14  270.17   17.70
   3  -7  14  260.47   15.60
  -3   7  14  287.57   14.10
  -3   7  14  284.77   14.10
  -3  -7 -14  278.47   12.50
   3  -7  14  273.37   14.70
  -3  -7  14  254.47   15.60
   3   7  14  261.97   13.20
  -3  -7  14  276.87   12.60
   3   7  14  276.07   15.90
  -3  -7  14  275.57   13.60
   5  -7  14  268.87   15.30
   5  -7  14  257.27   15.70
  -5   7  14  285.67   15.60
   5   7 -14  293.37   29.20
   5  -7  14  264.87   14.50
   5   7  14  261.17   16.70
  -5  -7  14  255.67   13.50
  -5  -7  14  270.87   14.40
   5   7  14  263.57   19.70
  -5  -7  14  278.57   18.10
   7  -7  14   76.99    7.00
  -7   7  14   77.29    8.80
   7   7 -14   83.09   10.40
   7  -7  14   81.19    9.30
   7  -7  14   60.29    8.40
   7   7  14   77.79    8.30
  -7  -7  14   75.19    7.10
   7   7  14   63.59    8.20
  -7  -7  14   78.39    8.70
   0   8  14  224.68   13.20
   0  -8  14  219.28   12.30
   0  -8  14  230.68   14.50
   0  -8 -14  215.08   12.90
   0   8 -14  212.18   15.10
   2  -8  14  408.86   18.40
   2  -8  14  406.46   20.30
  -2   8  14  431.26   16.80
  -2  -8 -14  412.96   17.00
   2   8 -14  424.16   22.40
  -2   8  14  405.56   17.90
   2   8  14  385.26   19.10
  -2  -8  14  401.56   17.50
   2   8  14  411.66   16.40
  -2  -8  14  402.16   20.20
   4  -8  14  167.58   11.70
  -4   8  14  175.48   10.60
   4  -8  14  175.18   13.20
   4   8 -14  165.08   14.20
  -4  -8 -14  186.78   10.40
   4  -8  14  172.78   11.50
   4   8  14  180.38   13.00
  -4  -8  14  166.68   12.10
  -4  -8  14  165.38   12.90
   4   8  14  163.98   11.00
  -4  -8  14  189.18   10.90
  -6   8  14  149.79    9.40
   6   8 -14  176.58   14.70
   6  -8  14  151.98   10.20
  -6  -8 -14  164.58    9.90
  -6   8  14  155.28   12.10
   6  -8  14  151.08   11.40
   6   8  14  142.29   12.10
   6   8  14  149.88   11.60
  -6  -8  14  164.88   11.30
  -6  -8  14  159.98   10.60
  -6  -8  14  144.79   12.40
   8  -8  14   69.59    8.10
   8  -8  14   59.89   10.60
   8   8 -14   65.39    9.50
  -8   8  14   82.89    9.70
   8   8  14   74.79    9.10
  -8  -8  14   82.29   10.30
  -8  -8  14   69.59    9.00
  -8  -8  14   72.69    8.90
   8   8  14   88.59    8.90
   1   9 -14    6.40    3.40
  -1   9  14   11.30    3.00
   1  -9  14    4.10    2.80
  -1   9  14    4.10    2.30
  -1  -9 -14    4.60    2.30
  -1   9  14    2.40    2.50
   1  -9  14    2.00    2.50
  -1  -9  14    2.70    2.30
   1  -9 -14    4.30    3.00
  -1  -9  14    6.80    2.90
   1   9  14    1.80    2.50
  -1   9 -14    2.00    2.90
   1   9  14    2.80    2.00
   3   9 -14   39.60    8.50
  -3   9  14   35.00    4.60
   3  -9  14   30.50    6.10
   3  -9  14   40.90    8.50
   3   9  14   26.90    5.10
  -3  -9  14   24.30    5.90
   3   9  14   31.30    6.90
  -3  -9  14   36.10    4.80
  -3  -9  14   40.30    5.30
   5  -9  14   10.00    3.80
  -5   9  14    7.30    3.50
   5   9 -14   11.40    5.10
  -5  -9 -14   13.90    3.50
   5  -9  14   10.50    4.90
   5  -9  14    9.90    3.70
  -5   9  14    8.20    2.80
  -5  -9  14   14.10    3.60
  -5  -9  14    7.20    4.60
   5   9  14    6.70    2.90
  -5  -9  14   16.70    5.10
   5   9  14   10.40    3.50
   7  -9  14   11.00    5.80
  -7   9  14    9.90    4.20
   7   9 -14    9.40    4.70
  -7   9  14    1.70    3.40
  -7  -9 -14    3.40    4.20
   7  -9  14    9.70    4.50
   7  -9  14   10.50    3.00
   7   9  14   19.20    5.40
  -7  -9  14   14.70    4.20
  -7  -9  14   15.30    4.50
   7   9  14    9.30    4.50
  -7  -9  14   13.60    4.20
   0  10  14   58.89    6.70
   0 -10  14   49.80    7.20
   0 -10  14   64.39    6.70
   0 -10 -14   62.09    6.60
   0  10 -14   58.29    8.10
  -2  10  14   11.90    3.40
  -2 -10 -14   25.40    5.40
  -2  10  14   13.70    3.40
   2  10 -14   18.60    5.90
   2 -10  14   12.10    3.80
   2 -10  14   17.50    5.70
   2  10  14   12.20    4.30
  -2 -10  14   10.90    3.30
  -2 -10  14   18.90    5.40
   2  10  14   12.00    3.30
   4 -10  14   17.50    6.50
  -4 -10 -14   28.70    5.90
  -4  10  14   18.00    4.70
   4 -10  14   11.90    3.90
   4  10 -14   23.90    6.90
   4  10  14   14.90    3.90
  -4 -10  14   22.20    4.60
   4  10  14   17.20    4.40
  -4 -10  14   18.00    4.40
  -6 -10 -14   21.50    5.50
   6 -10  14   16.20    5.50
  -6  10  14    8.10    2.70
   6 -10  14    5.30    2.70
   6 -10  14    7.60    2.60
   6  10 -14    6.30    3.40
  -6  10  14    0.40    2.80
   6  10  14   10.50    4.40
   6  10  14    8.40    3.90
  -6 -10  14    5.80    3.60
  -6 -10  14    8.20    3.50
  -6 -10  14   10.00    4.80
   8 -10  14   -0.90    5.20
  -8  10  14   -2.40    3.80
   8  10  14    0.10    3.30
   8  10  14    2.20    3.20
  -8 -10  14   11.30    4.60
  -8 -10  14    0.00    3.30
   1 -11  14  113.79   10.60
   1 -11  14  113.09    9.60
   1  11 -14  138.89   12.40
  -1 -11 -14  124.29    9.60
  -1  11  14  122.79    9.40
  -1  11 -14  129.89   11.70
   1 -11 -14  127.49   10.30
  -1 -11  14  121.49    9.60
   1  11  14  122.89   10.10
  -1 -11  14  126.79   10.90
   1  11  14  128.39    8.60
  -3  11  14   97.19    7.60
   3 -11  14   97.69    8.90
   3 -11  14   86.99    9.50
  -3 -11 -14   91.09    8.00
   3  11  14   79.29    7.60
  -3 -11  14   86.09    7.00
  -3 -11  14   94.89   18.10
   5 -11  14   84.89    8.20
  -5 -11 -14   85.29    8.10
  -5  11  14   71.09    6.10
   5  11 -14   78.79   10.10
   5 -11  14   81.09    6.90
   5 -11  14   66.39    8.90
  -5 -11  14   62.59    8.40
   5  11  14   58.59    7.60
   5  11  14   75.89    8.80
  -5 -11  14   78.19    7.70
  -5 -11  14   79.09    7.60
   7  11 -14   36.50    8.90
   7 -11  14   39.20   10.70
   7 -11  14   32.70    7.80
   7 -11  14   48.70    5.60
  -7  11  14   35.50    7.70
  -7 -11  14   35.70    7.20
   7  11  14   46.10    6.30
  -7 -11  14   31.20    5.90
   7  11  14   34.90    7.70
   0 -12 -14  194.28   13.10
   0  12 -14  203.08   15.30
   0  12  14  207.48   12.90
   0 -12  14  195.78   12.60
   0 -12  14  201.28   14.40
   2 -12  14   91.69    8.50
   2  12 -14   79.99   11.20
  -2 -12 -14   94.09    8.50
  -2  12  14   96.19    7.80
   2 -12  14   84.59    9.70
  -2  12  14   93.29    7.00
   2  12  14   89.49    7.70
  -2 -12  14   89.09    8.50
   2  12  14   84.89    8.90
   2 -12 -14   97.49    9.20
   4  12 -14  126.09   12.40
   4 -12  14  113.79    9.80
  -4  12  14  122.49    8.30
  -4 -12 -14  118.49    9.50
   4 -12  14  102.19   10.80
  -4 -12  14   92.39    8.90
   4  12  14  124.89   10.10
   4  12  14  107.19   10.30
  -4 -12  14  109.59    9.00
  -4 -12  14  122.39   11.40
   6 -12  14   46.70   10.00
  -6  12  14   38.10    7.60
   6 -12  14   56.19    6.00
   6 -12  14   34.30    7.10
  -6 -12 -14   43.50    7.80
   6  12 -14   41.30    9.50
  -6 -12  14   36.50    7.60
   6  12  14   55.79    7.60
  -6 -12  14   49.10    6.40
  -6 -12  14   53.29    9.80
   6  12  14   35.50    7.60
  -1  13  14   67.59    6.50
   1  13 -14   74.29   13.10
   1 -13  14   54.99   14.00
   1 -13  14   47.50    6.40
  -1 -13 -14   59.19    7.10
  -1  13 -14   53.29    7.60
  -1 -13  14   50.59   10.60
   1 -13 -14   70.19    7.60
   1  13  14   44.30    6.20
  -1 -13  14   43.60    6.30
   3  13 -14   62.99    9.10
   3 -13  14   66.09    8.60
  -3 -13 -14   72.99    7.30
  -3  13  14   60.79    5.90
   3 -13  14   62.79    7.20
   3  13  14   72.09    7.90
  -3 -13  14   78.29    9.00
  -3 -13  14   51.79    5.90
  -3 -13  14   58.29    7.00
   5  13 -14   26.80    7.40
  -5 -13 -14   37.80    6.60
   5 -13  14   30.10    5.70
   5 -13  14   27.00    6.90
   5 -13  14   30.60    6.80
  -5  13  14   30.90    4.30
   5  13  14   30.40    7.40
  -5 -13  14   32.90    7.90
  -5 -13  14   18.20    4.70
  -5 -13  14   32.50    6.30
   7 -13  14   22.60    6.80
  -7 -13 -14   20.10    5.70
   7  13 -14   18.50    6.50
   7 -13  14    7.90    5.30
   7  13  14   13.00    4.40
  -7 -13  14   33.20    7.50
  -7 -13  14    9.50    5.30
  -7 -13  14   11.30    4.80
   0 -14  14   11.90    4.10
   0 -14  14   20.10    6.20
   0  14 -14   11.20    5.70
   0  14  14   19.70    4.80
   0 -14 -14    9.10    3.30
   2 -14  14  105.09    9.60
  -2  14  14  130.99    9.80
  -2  14  14  125.69    9.00
  -2 -14 -14  122.89   10.70
   2 -14  14  134.99   12.10
   2  14 -14  112.39   11.50
   2  14  14  117.59   10.30
   2 -14 -14  123.49   11.40
  -2 -14  14  125.49   11.60
  -2 -14  14  106.89    7.90
  -2 -14  14  116.39    9.70
   4  14 -14   23.20    7.60
  -4  14  14    6.70    3.10
  -4 -14 -14   20.40    5.80
   4 -14  14    9.70    4.80
   4 -14  14   12.20    4.40
   4  14  14   12.80    4.50
  -4 -14  14   15.70    5.30
  -4 -14  14   19.40    5.60
  -4 -14  14   29.50    5.60
   6 -14  14   26.20    6.90
   6 -14  14   21.40    7.20
   6  14 -14   23.10    7.00
  -6 -14 -14   20.30    5.60
   6  14  14   29.90    6.50
  -6 -14  14   21.30    6.10
  -6 -14  14   16.80    5.20
  -6 -14  14   20.70    5.00
   1 -15  14  198.38   15.10
  -1  15  14  238.68   13.40
  -1 -15 -14  263.17   16.10
   1 -15  14  223.08   14.60
   1  15 -14  218.68   16.50
   1  15  14  241.38   14.40
  -1 -15  14  212.38   15.50
   1 -15 -14  222.08   15.50
  -1 -15  14  223.28   14.40
  -3 -15 -14  133.39   10.60
   3 -15  14  131.79   11.00
  -3  15  14  139.29    8.90
   3  15 -14  120.59   12.60
   3 -15  14  115.19   11.90
  -3 -15  14  124.89   10.40
   3  15  14  144.99   11.60
  -3 -15  14  131.79   11.60
  -3 -15  14  131.59    9.60
   5 -15  14  124.59    8.60
   5  15 -14  138.19   13.70
   5 -15  14  131.19   12.40
  -5 -15 -14  160.08   12.60
  -5 -15  14  123.59   10.40
   5  15  14  121.69   11.50
  -5 -15  14  126.69   12.10
  -5 -15  14  132.79   10.90
   0 -16  14   57.69    8.00
   0 -16 -14   62.99    8.90
   0  16 -14   56.99   11.20
   0 -16  14   80.69    8.00
   0  16  14   68.69    7.20
   2  16 -14   22.00    7.10
   2 -16  14   24.60    7.20
  -2 -16 -14   26.30    9.00
   2 -16  14   26.10    8.90
  -2  16  14   35.10    4.70
   2 -16 -14   20.20    5.40
  -2 -16  14   26.40    6.40
  -2 -16  14   30.50    8.10
   2  16  14   20.80    5.10
   4 -16  14   51.09    7.20
   4 -16  14   44.50   11.60
   4  16 -14   36.30    9.10
  -4  16  14   35.20    4.80
  -4 -16 -14   39.00    7.70
   4  16  14   40.90    8.10
  -4 -16  14   39.10    8.80
  -4 -16  14   31.50    6.50
  -4 -16  14   41.80    8.20
   6  16 -14   19.60    7.10
  -6 -16 -14   14.10    6.90
   6 -16  14   14.80    5.60
  -6 -16  14   12.10    5.40
  -6 -16  14    8.40    5.00
  -6 -16  14   15.20    4.80
   6  16  14   22.20    5.30
   1 -17  14   12.30    5.30
  -1 -17 -14   13.20    4.60
  -1  17  14   13.90    3.60
   1  17 -14    7.00    4.30
   1 -17  14    6.20    3.00
   1 -17 -14    3.30    3.50
  -1  17 -14   23.70    5.90
  -1 -17  14    5.50    4.40
  -1 -17  14   11.40    4.90
   1  17  14    7.70    3.40
   3 -17  14    9.80    3.60
  -3 -17 -14    4.50    3.80
   3 -17  14    4.50    4.20
   3  17 -14    5.70    4.60
   3  17  14    4.50    3.00
  -3 -17  14    0.20    2.90
  -3 -17  14   13.50    4.00
  -3 -17  14    7.90    3.50
   5  17 -14    5.60    5.30
   5 -17  14    6.70    6.00
  -5 -17 -14    7.80    5.90
   5 -17  14    8.20    5.30
  -5 -17  14    3.00    4.70
  -5 -17  14    7.10    4.60
  -5 -17  14   -1.30    3.60
   5  17  14    6.40    4.30
   0 -18  14   41.40    8.00
   0  18 -14   31.30    7.20
   0 -18 -14   36.60    7.80
   0  18  14   34.20    6.80
   0 -18  14   33.30    7.90
   2 -18  14    8.80    5.80
  -2 -18 -14   16.60    6.10
   2  18 -14    9.30    5.00
   2 -18  14    8.60    4.60
  -2  18  14   12.20    6.70
  -2 -18  14   22.60    6.00
   2  18  14   13.80    5.10
  -2 -18  14   12.60    5.00
   2 -18 -14   10.80    5.30
  -4 -18 -14   19.10    6.30
   4 -18  14   27.10   11.70
   4 -18  14   28.90    6.80
  -4 -18  14   31.80   13.00
  -4 -18  14   16.50    5.50
  -4 -18  14   16.90    5.50
   4  18  14   21.60    7.50
  -1 -19 -14  138.09   12.70
   1 -19  14  103.69   10.50
   1  19 -14  140.39   13.20
   1 -19  14  131.89   12.60
  -1  19  14  131.19    9.80
   1 -19 -14  118.99   11.90
  -1 -19  14  115.59   12.30
  -1  19 -14  138.59   11.90
  -1 -19  14  103.99   10.20
   1  19  14  119.89   10.40
   3  19 -14  170.88   34.00
   3 -19  14  121.99   11.40
  -3 -19 -14  118.69   11.90
   3 -19  14  116.69   14.80
  -3  19  14  137.39   12.40
   3 -19 -14  150.48   13.80
  -3 -19  14  111.49   10.80
   3  19  14  134.59   11.60
  -3 -19  14  105.99    9.90
  -3 -19  14  131.89   22.90
   0 -20  14   34.20   12.40
   0  20 -14   66.69   11.80
   0 -20 -14   36.00    8.00
   0  20  14   52.59    6.40
   0 -20  14   49.90    8.80
  -2 -20 -14   38.60    8.10
   2 -20  14   39.70    7.90
   2  20 -14   61.69   20.20
  -2  20  14   41.90    5.90
   2 -20  14   48.30    9.40
   2  20  14   68.19    7.90
  -2 -20  14   44.30    8.40
  -2 -20  14   71.09    9.50
   2 -20 -14   46.00   11.40
  -1  21  14    2.90    4.00
   1 -21  14    6.50    5.70
  -1 -21  14   10.30    4.70
   1 -21 -14    4.10    5.00
   1  21  14    3.00    3.60
   0   0  15   -1.60    1.50
   0   0  15    1.30    2.10
   2   0  15    1.60    1.50
   2   0  15    2.40    2.50
  -2   0  15    0.20    1.20
  -2   0  15    0.70    1.70
   2   0  15    1.50    2.80
   4   0 -15    4.60    3.60
   4   0  15   -3.30    2.10
   4   0  15   -2.00    1.60
   4   0  15    3.00    2.00
  -4   0  15   -2.80    1.40
  -4   0  15    2.90    2.90
   6   0 -15    2.60    3.30
  -6   0  15    5.10    3.10
   6   0  15    5.00    2.70
   6   0  15   -0.20    2.00
  -6   0  15    3.60    3.00
   8   0  15    2.70    2.60
  -8   0  15   -1.80    2.60
   8   0 -15    2.70    4.10
  -8   0  15    0.40    3.30
   8   0  15   -3.90    2.70
  -1   1  15  199.78   11.80
   1  -1  15  207.38   10.80
   1  -1  15  206.88   12.00
  -1   1  15  211.88    9.30
  -1  -1  15  218.38   12.50
  -1  -1  15  200.48    9.70
   1   1  15  212.58   10.50
  -3   1  15  131.99   10.10
   3  -1  15  131.49    9.20
   3  -1  15  124.69   10.30
   3  -1  15  127.89    8.90
   3   1 -15  113.49   10.80
   3   1  15  114.79    7.80
  -3  -1  15  122.39    7.60
   3   1  15  117.79    8.60
   3   1  15  125.29   10.30
  -3  -1  15  116.09    9.70
   5  -1  15  121.59    9.80
   5  -1  15  112.49    8.50
  -5   1  15  112.29    9.90
  -5   1  15  112.39    8.90
   5  -1  15  106.69    9.40
   5   1 -15  118.59   10.90
   5   1  15  102.69    7.20
  -5  -1  15  110.09   10.30
  -5  -1  15  114.19    8.70
  -5  -1  15  116.39    7.10
   5  -1 -15  109.09   10.20
   5   1  15   96.89    9.50
   5   1  15  120.39    9.70
   7  -1  15   41.40    5.50
   7  -1  15   47.00    6.60
   7  -1  15   56.69    7.20
  -7   1  15   50.39    9.60
  -7   1  15   61.09    7.20
   7   1 -15   66.79    7.70
  -7  -1  15   50.79    7.00
  -7  -1  15   53.29    7.30
   7   1  15   52.59    7.30
   7   1  15   67.29    7.20
   7  -1 -15   64.89    7.30
   0   2  15   94.19    6.10
   0   2  15   85.39    7.30
   0  -2  15  101.79    8.50
   0  -2  15   99.79    7.10
   2  -2  15  321.17   15.70
   2  -2  15  339.97   15.20
  -2   2  15  341.37   16.10
  -2   2  15  323.67   13.20
   2   2 -15  294.27   18.40
   2   2  15  306.77   13.70
   2   2  15  328.27   14.40
   2   2  15  340.07   17.50
  -2  -2  15  333.77   16.80
  -2  -2  15  327.37   13.10
   4  -2  15   75.89    7.10
  -4   2  15   76.69    7.80
   4  -2  15   73.19    7.50
   4  -2  15   67.69    7.70
  -4   2  15   76.89    6.70
   4   2 -15   86.19    9.50
  -4  -2  15   80.89    6.90
  -4  -2  15   77.79    5.70
   4   2  15   80.89    5.70
   4   2  15   79.19    7.50
  -4  -2  15   77.19    8.50
   4   2  15   73.19    8.10
   6  -2  15  135.69   16.10
   6  -2  15  138.69    9.60
  -6   2  15  130.49   10.10
  -6   2  15  136.29   11.30
   6   2 -15  151.18   14.30
   6   2  15  133.59   10.30
   6   2  15  139.19   11.30
  -6  -2  15  129.79   11.20
  -6  -2  15  121.79    7.80
  -6  -2  15  106.29    8.10
  -6  -2  15  152.78   10.70
   8  -2  15   44.30    7.10
  -8   2  15   57.39    8.20
  -8   2  15   51.89   10.10
   8  -2  15   56.79    6.30
   8  -2  15   54.19    7.40
   8   2 -15   47.00    8.50
  -8  -2  15   51.29    7.30
  -8  -2  15   42.20    8.40
   8   2  15   56.59    7.50
   8   2  15   42.90    8.50
  -8  -2  15   48.50    6.20
  -1   3  15  516.85   24.80
   1  -3  15  456.65   18.30
  -1   3  15  473.55   18.90
   1  -3  15  468.65   20.20
   1   3  15  454.65   16.60
   1   3  15  459.65   17.40
  -1  -3  15  445.46   20.20
   1   3  15  478.65   21.40
  -1  -3  15  465.45   17.40
   3  -3  15  257.57   14.00
   3  -3  15  219.88   13.80
  -3   3  15  268.97   14.10
   3  -3  15  226.68   12.90
   3   3 -15  242.98   16.10
  -3   3  15  234.28   12.00
  -3  -3  15  235.18   11.00
   3   3  15  227.98   12.30
   3   3  15  210.28   11.40
  -3  -3  15  239.48   11.20
  -3  -3  15  238.08   14.40
   3   3  15  249.08   14.80
  -5   3  15  257.57   14.40
   5  -3  15  265.47   15.20
  -5   3  15  261.67   15.50
   5  -3  15  265.87   14.60
   5  -3  15  257.87   15.00
   5   3 -15  258.87   17.70
  -5  -3  15  266.47   12.20
   5   3  15  266.67   16.10
  -5  -3  15  257.87   14.00
   5   3  15  260.27   23.80
  -7   3  15   65.69    7.50
   7  -3  15   64.79    7.10
   7  -3  15   71.89    7.90
   7  -3  15   64.99    7.10
  -7   3  15   67.59    8.40
   7   3 -15   75.49    9.00
  -7  -3  15   74.79    8.50
  -7  -3  15   71.89    6.20
   7   3  15   59.79    7.30
   7   3  15   82.69    8.40
  -7  -3  15   69.19    8.20
   0   4  15  139.19    7.30
   0   4  15  138.99   10.50
   0  -4  15  131.69   10.00
   0   4  15  151.18    8.80
   0  -4  15  135.99    8.80
   2  -4  15   21.40    5.00
   2   4 -15   28.40    7.00
   2  -4  15   24.80    4.90
  -2   4  15   25.50    3.60
  -2   4  15   29.40    5.50
  -2  -4  15   21.30    4.30
   2   4  15   18.70    4.00
  -2  -4  15   18.60    5.30
   2   4  15   23.00    5.90
  -4   4  15   45.90    5.30
   4  -4  15   52.99    6.20
   4  -4  15   46.30    6.10
   4   4 -15   50.09   10.40
   4  -4  15   48.30    6.20
  -4   4  15   45.90    6.00
  -4  -4  15   45.30    4.90
   4   4  15   51.59    6.70
  -4  -4  15   54.99    7.10
  -4  -4  15   47.10    5.40
   4   4  15   40.20    5.90
   6  -4  15   15.20    5.40
   6  -4  15   10.40    4.50
  -6   4  15   20.20    5.60
  -6   4  15   22.30    6.30
   6  -4  15   12.80    4.40
   6   4 -15   23.40    7.00
  -6  -4  15   17.30    3.70
  -6  -4  15   23.50    5.70
  -6  -4  15   25.30    6.10
   6   4  15   19.50    5.90
   6   4  15   16.30    5.40
   8   4 -15    5.40    4.60
   8  -4  15   -0.60    3.60
  -8   4  15   10.60    3.60
   8  -4  15    7.60    3.80
  -8   4  15   15.80    5.50
   8   4  15    6.50    3.80
   8   4  15    5.60    4.40
  -8  -4  15    7.50    4.70
  -8  -4  15    7.40    3.90
   1   5 -15  207.78   14.90
   1  -5  15  204.98   13.00
  -1   5  15  205.68   11.40
   1  -5  15  211.08   11.70
  -1   5  15  217.28   13.10
   1   5  15  225.88   13.70
  -1  -5  15  225.78   13.90
   1   5  15  198.18    9.50
   1   5  15  214.68   10.10
   1   5  15  172.18    9.50
  -1  -5  15  229.08   11.60
   3  -5  15  265.67   15.20
   3   5 -15  291.57   18.60
  -3   5  15  275.37   14.10
   3  -5  15  261.17   14.30
  -3   5  15  264.57   13.20
  -3  -5  15  245.58   15.30
  -3  -5  15  271.47   12.10
   3   5  15  278.47   13.60
  -3  -5  15  245.38   12.30
   3   5  15  272.57   15.80
  -5   5  15  120.29    9.40
   5  -5  15  117.69   10.00
   5   5 -15  121.29   12.40
   5  -5  15  123.09   10.20
   5  -5  15  112.89    9.50
  -5   5  15  122.09   10.40
  -5  -5  15  108.39    8.60
   5   5  15  107.49    9.20
  -5  -5  15   96.69    7.60
  -5  -5  15  106.59   10.30
   5   5  15  114.69   10.00
   7  -5  15  103.09    8.60
   7  -5  15  102.79   12.30
   7  -5  15   98.09    9.40
   7   5 -15  115.69   11.70
  -7   5  15  108.89    9.80
  -7  -5  15   87.99   10.00
  -7  -5  15   99.69    8.00
   7   5  15  106.59    9.90
  -7  -5  15   96.49    9.40
   7   5  15  101.19    9.50
   0   6  15  424.56   19.50
   0   6  15  429.16   14.40
   0   6 -15  406.66   21.90
   0  -6  15  407.56   19.80
   0   6  15  390.76   15.20
   0  -6  15  417.16   17.70
   2   6 -15  234.58   16.60
   2  -6  15  232.98   14.50
  -2   6  15  235.38   12.30
   2  -6  15  235.28   13.20
  -2   6  15  233.88   13.50
  -2  -6  15  237.28   14.70
   2   6  15  238.78   11.80
   2   6  15  230.48   14.50
  -2  -6  15  240.08   12.40
   4  -6  15  250.27   14.50
   4   6 -15  232.58   16.80
  -4   6  15  250.47   13.50
   4  -6  15  222.28   13.80
   4  -6  15  224.68   14.60
  -4   6  15  212.58   13.10
  -4  -6  15  218.48   11.90
  -4  -6  15  223.58   11.90
   4   6  15  233.08   17.60
  -4  -6  15  221.68   15.10
   4   6  15  228.08   19.20
   6  -6  15   91.29    9.70
   6  -6  15   80.69    8.40
  -6   6  15   99.19    9.30
   6   6 -15   86.19   10.60
   6   6  15   82.89    9.40
  -6  -6  15   83.49    9.40
   6   6  15   94.59    8.90
  -6  -6  15   87.59    7.70
  -6  -6  15  100.29    7.80
   8   6 -15   39.10    8.00
  -8   6  15   29.10    7.00
   8  -6  15   31.50    6.40
   8  -6  15   42.80    5.80
   8  -6  15   33.40    7.10
   8   6  15   21.20    6.80
  -8  -6  15   26.20    9.60
   8   6  15   30.40    7.20
  -8  -6  15   32.10    7.50
  -1  -7 -15   70.19    6.00
   1  -7  15   81.09    7.40
   1   7 -15   70.59    9.00
  -1   7  15   84.59    6.30
  -1   7  15   86.59    7.90
   1  -7  15   79.59    8.40
   1   7  15   79.79    6.00
   1   7  15   80.29    8.10
  -1  -7  15   85.29    8.90
  -1  -7  15   78.19    7.30
   3   7 -15  130.39   12.70
   3  -7  15  126.89    9.90
  -3   7  15  129.59    9.10
   3  -7  15  128.49   10.60
  -3   7  15  116.29    9.10
  -3  -7  15  118.69   10.50
  -3  -7  15  120.29    8.90
   3   7  15  125.89   10.70
  -3  -7  15  121.49    7.60
   3   7  15  110.89    8.50
  -5   7  15   25.60    5.30
   5  -7  15   19.90    5.80
   5   7 -15   18.20    6.40
   5  -7  15   20.90    4.60
   5  -7  15   30.30    7.10
   5   7  15   21.60    6.20
   5   7  15   33.60    4.90
  -5  -7  15   37.00    4.90
  -5  -7  15   24.40    6.30
  -5  -7  15   20.80    4.50
   7  -7  15   47.80    8.70
   7   7 -15   54.69   11.50
  -7   7  15   61.29    5.70
  -7   7  15   69.39    8.00
   7  -7  15   52.79    9.90
   7  -7  15   65.59    6.70
  -7  -7  15   63.19    6.50
  -7  -7  15   39.00    7.20
   7   7  15   57.49    7.30
  -7  -7  15   49.00    9.40
   7   7  15   51.79    7.20
   0  -8  15   33.10    7.30
   0   8  15   28.70    3.60
   0   8 -15   27.20    7.20
   0   8  15   31.10    6.50
   0  -8  15   37.20    6.70
   2  -8  15   97.99    9.40
  -2   8  15  105.69    7.60
   2  -8  15   98.99    8.80
  -2   8  15  116.89    8.80
   2   8 -15  116.49   11.30
  -2  -8 -15   98.99    7.30
  -2  -8  15  110.49    8.70
  -2  -8  15  108.69   10.00
   2   8  15  110.49    9.60
   2   8  15  111.49    7.90
   4  -8  15   27.30    6.30
  -4   8  15   33.40    6.20
   4  -8  15   24.40    5.60
   4  -8  15   30.80    7.00
   4   8 -15   31.90    8.00
  -4   8  15   29.30    5.70
  -4   8  15   29.30    6.10
  -4  -8  15   30.60    5.90
  -4  -8  15   22.30    6.20
   4   8  15   29.60    6.50
   4   8  15   24.00    5.40
  -4  -8  15   33.70    4.70
   6  -8  15   29.40    6.30
  -6   8  15   35.00    4.60
   6  -8  15   26.60    6.40
   6   8 -15   33.10    8.40
  -6   8  15   29.90    7.00
   6  -8  15   16.80    4.20
  -6  -8  15   27.10    5.50
   6   8  15   25.70    6.40
  -6  -8  15   33.60    6.70
   6   8  15   24.80    5.60
  -6  -8  15   31.30    6.90
   8  -8  15   17.70    5.20
   8  -8  15   22.70    4.80
   8  -8  15    3.40    4.40
  -8  -8  15   11.70    4.00
   8   8  15   10.20    4.20
   8   8  15   12.60    4.50
  -8  -8  15   19.90    5.40
  -8  -8  15   13.60    5.60
   1  -9  15  254.17   14.30
  -1   9  15  248.08   11.20
   1   9 -15  237.88   16.70
  -1   9  15  248.48   13.90
  -1  -9 -15  250.57   13.00
   1  -9  15  239.68   15.30
   1   9  15  266.67   15.40
   1   9  15  249.68   11.80
  -1  -9  15  250.07   13.80
  -1  -9  15  250.37   15.90
   3  -9  15  224.18   13.90
  -3  -9 -15  264.37   19.30
   3  -9  15  220.58   15.10
   3   9 -15  212.88   20.60
  -3   9  15  239.08   12.70
  -3   9  15  234.28   12.90
  -3  -9  15  203.18   11.50
  -3  -9  15  244.38   13.30
   3   9  15  243.48   12.90
   5  -9  15  145.29   12.00
  -5  -9 -15  164.98   10.10
   5  -9  15  149.88   10.50
  -5   9  15  138.89   11.50
   5  -9  15  138.29   11.60
  -5   9  15  159.78    9.60
   5   9 -15  141.29   13.60
  -5  -9  15  145.29   10.40
  -5  -9  15  135.29   11.80
   5   9  15  153.88   11.30
  -5  -9  15  133.49    9.50
   5   9  15  143.99   12.10
  -7   9  15   82.79    9.50
   7   9 -15   98.89   11.50
   7  -9  15   84.89    9.80
  -7   9  15   90.59    6.50
   7  -9  15   61.09    8.80
   7  -9  15   75.69    7.10
   7   9  15   77.89    9.20
  -7  -9  15   81.49    8.60
  -7  -9  15   82.69    9.60
   7   9  15   75.89    8.90
  -7  -9  15   77.69    8.60
   0  10  15   76.89    6.10
   0 -10  15   82.49    7.80
   0 -10  15   70.69    8.30
   0  10 -15   76.19    9.30
   0  10  15   72.99    7.50
   0 -10 -15   74.49    7.30
  -2  10  15  148.69    8.90
   2 -10  15  137.69   11.80
  -2 -10 -15  138.59    9.60
   2  10 -15  163.68   21.20
  -2  10  15  154.68   10.20
   2 -10  15  126.89   10.00
  -2 -10  15  134.99   14.00
   2  10  15  145.79   11.60
   2  10  15  146.09    9.30
   4 -10  15   80.29    9.20
   4  10 -15   95.49   11.20
   4 -10  15   80.99    7.70
   4 -10  15   85.29    8.80
  -4  10  15   98.29    7.40
  -4 -10 -15   89.29    7.80
  -4 -10  15   83.19    7.90
   4  10  15   84.29    8.10
   4  10  15   92.99    9.70
  -4 -10  15   82.69    9.60
  -4 -10  15   86.89    7.40
   6  10 -15   29.20    8.00
   6 -10  15   56.39    7.40
  -6  10  15   27.10    6.50
  -6 -10 -15   25.60    6.30
   6 -10  15   38.70    7.50
  -6  10  15   44.40    4.70
  -6 -10  15   39.00    5.60
  -6 -10  15   42.60    5.60
   6  10  15   32.20    6.60
   6  10  15   33.10    7.40
  -6 -10  15   33.10    7.10
  -1 -11 -15   26.40    5.40
   1 -11  15   17.20    4.40
   1 -11  15   13.70    4.90
   1  11 -15   19.90    7.40
  -1  11  15   21.40    5.10
   1 -11 -15   20.00    5.10
  -1 -11  15   15.40    5.20
  -1 -11  15   24.20    9.20
   1  11  15   20.60    5.70
  -1  11 -15   30.10    7.40
   1  11  15   14.10    3.90
  -3  11  15   10.80    2.70
   3  11 -15   19.10    6.00
   3 -11  15    8.60    4.20
  -3 -11 -15   21.20    4.60
  -3  11  15   29.30    3.70
   3 -11  15   16.10    4.70
  -3 -11  15   14.00    5.50
   3  11  15   14.40    4.70
   3  11  15   18.40    4.30
  -3 -11  15   23.30    5.60
  -3 -11  15   21.10    3.80
   5 -11  15   18.50    4.30
  -5  11  15   13.60    3.10
   5 -11  15    7.30    3.80
   5 -11  15   11.80    5.00
  -5  11  15   11.50    3.90
  -5 -11 -15   16.10    5.20
   5  11 -15   10.80    4.40
   5  11  15   14.20    4.70
  -5 -11  15   21.10    5.40
   5  11  15   20.80    5.80
  -5 -11  15   16.40    4.40
  -5 -11  15   15.50    5.40
  -7  11  15    1.00    3.40
   7 -11  15   13.70    5.60
   7 -11  15    2.60    4.00
   7  11  15    2.90    4.00
   7  11  15    8.70    4.80
  -7 -11  15    8.50    4.70
  -7 -11  15    6.40    5.10
  -7 -11  15    4.40    3.30
   0 -12  15  167.08   14.00
   0 -12 -15  180.08   12.20
   0 -12  15  178.58   13.70
   0  12 -15  148.99   17.00
   0  12  15  166.98   11.80
   2 -12  15  186.28   14.00
  -2  12  15  172.78   11.10
   2  12 -15  187.98   15.20
   2 -12  15  174.08   12.20
  -2 -12 -15  182.08   12.10
  -2  12  15  164.88    9.20
  -2 -12  15  168.58   11.80
  -2 -12  15  143.39   12.50
   2  12  15  178.18   12.80
   2  12  15  175.48   11.10
   4  12 -15   94.79   11.30
  -4 -12 -15  116.49    9.30
  -4  12  15  138.99    8.60
   4 -12  15  108.39   11.10
  -4 -12  15  112.19    8.70
  -4 -12  15  108.69   11.00
  -4 -12  15   97.99    9.00
   4  12  15  107.69    9.70
   4  12  15  132.09   11.40
  -6  12  15   61.09    8.10
   6 -12  15   73.29    9.80
   6  12 -15   45.30   10.40
   6 -12  15   77.29    8.70
  -6 -12 -15   82.39    9.20
   6 -12  15   64.79    7.20
  -6 -12  15   79.29    9.40
   6  12  15   72.59    8.30
  -6 -12  15   63.29    7.30
   6  12  15   84.79    9.40
  -6 -12  15   61.59    7.40
  -1 -13 -15  167.28   11.80
   1 -13  15  148.79   12.80
  -1  13  15  168.98   11.10
   1  13 -15  135.29   13.30
   1  13  15  169.68   12.00
  -1 -13  15  149.29   11.20
   1 -13 -15  161.58   12.30
  -1 -13  15  153.58   13.00
  -3 -13 -15  143.39   10.90
   3  13 -15  145.79   13.90
  -3  13  15  149.09    9.80
   3 -13  15  149.99   13.30
  -3  13  15  144.39    9.20
   3  13  15  168.88   12.60
  -3 -13  15  136.69   10.80
  -3 -13  15  144.09    9.40
  -3 -13  15  131.29   12.10
  -5  13  15   91.19    6.80
  -5 -13 -15   86.89    9.10
   5 -13  15   98.69   10.90
   5  13 -15   71.99   10.30
   5 -13  15   87.89    9.10
   5 -13  15   63.19    9.30
  -5 -13  15   70.39    9.20
   5  13  15   65.19    8.00
  -5 -13  15   78.59    8.20
  -5 -13  15   66.29    8.40
   5  13  15   87.29    9.50
   0  14 -15   49.70    9.90
   0  14  15   58.59    6.50
   0 -14  15   47.70    6.60
   0 -14  15   38.60    7.90
   0 -14 -15   52.19    7.10
   2 -14  15  128.29   10.20
  -2  14  15  117.99    9.20
   2  14 -15   85.69   11.00
   2 -14  15  107.19   10.90
  -2 -14 -15  114.89   10.00
   2  14  15  110.79   10.20
  -2 -14  15  108.19    9.90
  -2 -14  15   92.09   10.10
   4 -14  15   28.20    7.60
  -4  14  15   37.90    6.70
  -4 -14 -15   34.40    6.80
   4  14 -15   37.10    9.40
   4 -14  15   22.10    6.00
  -4 -14  15   23.60    7.40
   4  14  15   27.20    6.30
  -4 -14  15   26.50    6.50
  -4 -14  15   32.10    6.20
   6 -14  15   25.80    6.50
  -6  14  15   34.30    8.30
   6  14 -15   43.70    9.90
  -6 -14 -15   44.90    8.70
   6  14  15   54.89   10.30
  -6 -14  15   28.00    6.50
  -6 -14  15   39.30    9.20
  -6 -14  15   44.10    6.40
   1 -15  15   44.00    7.80
  -1  15  15   44.40    5.20
  -1 -15 -15   54.29    6.80
   1  15 -15   36.20    8.60
   1 -15  15   39.70    8.90
  -1  15 -15   38.90    8.50
   1 -15 -15   54.89    7.20
  -1 -15  15   42.00    5.90
  -1 -15  15   30.80    7.60
   1  15  15   29.50    6.20
  -3  15  15   42.60    5.20
  -3  15  15   36.40    6.00
   3 -15  15   35.20    7.50
   3  15 -15   45.00    9.60
   3 -15  15   27.60    7.50
  -3 -15  15   23.90    5.90
   3  15  15   36.40    7.70
  -3 -15  15   20.10    7.10
  -3 -15  15   25.80    5.60
   5 -15  15   26.30    5.40
   5 -15  15   16.50    5.70
   5  15 -15   28.60   13.10
  -5 -15 -15   15.30    5.60
   5 -15  15   19.10    5.30
  -5 -15  15   25.80    5.50
   5  15  15    6.10    8.00
  -5 -15  15   21.80    9.70
  -5 -15  15   15.50    5.20
   0 -16  15  178.98   12.60
   0 -16  15  161.48   14.00
   0  16 -15  158.48   14.00
   0 -16 -15  192.28   14.20
   0  16  15  181.88   12.20
   2 -16  15   45.60    8.20
  -2 -16 -15   30.70    7.40
   2 -16  15   34.50    8.50
   2  16 -15   45.60   10.30
   2  16  15   33.50    7.10
  -2 -16  15   42.10    7.30
   2 -16 -15   40.50    8.90
  -2 -16  15   35.10    8.00
   4  16 -15   95.19   11.70
   4 -16  15   77.59    9.10
  -4 -16 -15  100.69    9.80
  -4  16  15   93.79    7.30
   4 -16  15   97.79   10.60
  -4 -16  15  100.49   10.90
  -4 -16  15   81.09    8.70
   4  16  15   97.19   10.40
  -4 -16  15   70.49    9.90
  -1 -17 -15  130.29   11.50
   1 -17  15  123.09   10.90
   1  17 -15  112.39   12.00
   1 -17  15  118.79   12.60
  -1  17  15  153.88   10.70
  -1 -17  15  115.19   10.00
  -1  17 -15  128.49   12.10
   1 -17 -15  132.49   11.80
   1  17  15  146.29   11.40
  -1 -17  15  132.99   12.40
   3 -17  15   78.59    9.10
  -3 -17 -15   87.09    9.80
   3 -17  15   82.79   10.70
   3  17 -15   87.79   11.30
  -3  17  15  103.59    8.10
  -3 -17  15   80.29    7.80
  -3 -17  15   75.89   10.40
  -3 -17  15   62.29    7.70
   3  17  15   93.19    9.60
   0 -18  15   41.40    9.00
   0  18 -15   27.70    7.90
   0 -18 -15   29.10    7.30
   0 -18  15   33.50    6.60
   2 -18  15    7.30    3.30
   2  18 -15   10.30    5.50
   2 -18  15    7.20    5.90
  -2  18  15   12.00    3.90
  -2 -18 -15   24.50    5.80
  -2 -18  15    8.20    4.70
  -2 -18  15   20.70    5.30
   2 -18 -15   21.10    6.60
   2  18  15   10.90    4.40
   4  18 -15   -2.70    4.30
  -1  19  15    1.10    3.50
   1 -19  15   -3.60    3.10
   1 -19  15   13.90    5.80
  -1 -19 -15    3.90    5.10
   1  19 -15   -3.00    4.70
   1 -19 -15   -2.20    4.40
   1  19  15   11.30    5.60
  -1  19 -15   -1.40    4.60
  -1 -19  15    3.00    4.60
  -1 -19  15    6.20    4.00
   0 -20  15   38.30    9.40
   0 -20  15   44.00    8.40
   0  20 -15   62.99   13.00
   0  20  15   47.40    6.30
   0 -20 -15   47.50   13.10
   0   0  16   47.00    5.70
   0   0  16   58.89    5.10
   2   0  16   30.90    7.00
   2   0  16   35.60    5.00
  -2   0  16   41.20    7.50
   2   0  16   45.60    5.40
   4   0  16   60.09    7.30
   4   0  16   67.09    6.00
  -4   0  16   64.59    6.10
  -4   0  16   52.89    9.50
   4   0  16   40.80    8.90
   6   0  16   17.30    5.40
   6   0  16    9.90    2.80
  -6   0  16   11.80    4.60
   6   0  16   11.50    3.70
  -6   0  16   10.20    3.40
   6   0 -16   17.30    4.90
  -8   0  16   11.00    4.20
  -8   0  16   27.20    7.40
   8   0  16    8.50    4.60
   8   0  16   16.60    4.40
   8   0 -16   26.50    7.60
   1  -1  16  284.17   13.30
  -1   1  16  285.87   14.60
  -1   1  16  277.67   11.30
   1  -1  16  264.87   14.20
   1   1  16  276.07   15.90
  -1  -1  16  277.97   14.90
   1   1  16  273.47   13.60
   1   1  16  280.37   12.80
  -1  -1  16  269.47   11.90
   3  -1  16  218.68   14.20
   3  -1  16  228.78   12.70
  -3   1  16  218.58   11.10
  -3   1  16  244.08   14.20
   3  -1  16  231.28   13.00
   3   1  16  212.08   14.10
   3   1  16  229.18   12.70
   3   1  16  283.07   18.20
  -3  -1  16  210.48   13.70
  -3  -1  16  219.48   10.70
  -5   1  16  148.19   10.30
  -5   1  16  140.69   11.20
   5  -1  16  140.49   10.90
   5   1 -16  162.38   16.30
   5  -1  16  146.29    9.60
   5  -1  16  146.29   11.00
   5   1  16  144.09   11.00
   5   1  16  156.38   11.90
   5   1  16  164.28   13.00
  -5  -1  16  161.18   10.70
  -5  -1  16  165.98   12.60
   7  -1  16   75.79    8.40
  -7   1  16   85.09    9.00
  -7   1  16   93.49    9.10
   7   1 -16   84.89    9.50
   7  -1  16   70.19    6.90
   7  -1  16   82.19    8.60
   7   1  16   91.19    9.10
  -7  -1  16   82.79    8.30
  -7  -1  16   97.69    6.40
   7   1  16   90.09    9.10
  -7  -1  16   60.39    8.20
  -7  -1  16   65.89    5.60
   0   2  16   49.80    4.70
   0  -2  16   54.89    5.30
   0   2  16   40.80    4.90
   0  -2  16   42.60    5.70
   2  -2  16  148.79   10.30
  -2   2  16  165.68    8.50
   2  -2  16  156.48   10.10
  -2   2  16  163.08   10.70
   2   2  16  138.69    8.80
  -2  -2  16  138.69   10.90
   2   2  16  158.98    9.70
   2   2  16  147.49   11.60
  -2  -2  16  164.88    8.70
   4  -2  16   16.20    4.70
  -4   2  16   24.50    5.80
   4  -2  16   24.00    6.10
  -4   2  16   26.90    3.90
   4   2 -16   28.80    7.10
   4  -2  16   21.70    5.00
  -4  -2  16   15.90    3.40
   4   2  16   22.40    6.60
  -4  -2  16   27.90    5.40
  -4  -2  16   22.00    6.30
  -6   2  16   42.60    6.10
   6  -2  16   44.00    8.10
   6   2 -16   43.20    8.50
   6  -2  16   29.90    5.60
   6  -2  16   29.40    6.00
  -6  -2  16   23.10    6.60
  -6  -2  16   33.20    3.90
   6   2  16   24.90    5.50
  -6  -2  16   34.10    6.90
   8  -2  16    7.20    4.70
  -8   2  16   13.40    8.00
  -8   2  16   12.80    5.70
   8   2 -16   17.70    5.30
   8  -2  16    5.90    3.70
   8   2  16   14.40    5.00
  -8  -2  16   10.30    3.00
  -8  -2  16    7.90    4.50
   8   2  16   12.90    4.40
  -8  -2  16   16.30    5.20
   1  -3  16  184.08   10.80
   1  -3  16  198.38   12.20
  -1   3  16  174.18   10.50
  -1  -3  16  163.58   11.80
   1   3  16  165.78    9.20
   1   3  16  168.38    9.80
   1   3  16  183.18   12.70
  -1  -3  16  188.68   10.10
   3  -3  16  133.49   11.00
   3  -3  16  144.89   10.20
  -3   3  16  152.98    9.10
   3  -3  16  137.19   10.00
  -3   3  16  138.39   10.30
   3   3 -16  132.59   12.10
  -3  -3  16  126.39    7.60
  -3  -3  16  141.99    9.50
   3   3  16  143.49    9.80
  -3  -3  16  149.99   11.30
   3   3  16  140.69   11.30
   5  -3  16  116.19   10.10
   5  -3  16  100.49   10.60
  -5   3  16  120.59   11.00
   5   3 -16  122.29   11.80
  -5   3  16  116.99    9.10
   5  -3  16  121.79    9.40
  -5  -3  16  105.69    9.90
   5   3  16  108.89   10.40
  -5  -3  16  118.69    7.70
  -5  -3  16  106.99    8.60
   5   3  16  106.99    9.60
   7   3 -16   47.80    9.30
   7  -3  16   34.00    6.40
  -7   3  16   53.29    7.10
   7  -3  16   47.10    6.70
   7  -3  16   36.80    6.20
  -7   3  16   51.69    6.70
  -7  -3  16   46.20    8.10
   7   3  16   53.59    7.40
  -7  -3  16   40.60    7.70
  -7  -3  16   39.70    5.00
   7   3  16   52.59    7.60
   0   4  16  131.99   10.60
   0  -4  16  124.09    8.70
   0   4  16  107.19    8.20
   0  -4  16  112.49    9.60
   0   4  16  114.29    6.70
   2  -4  16   67.29    7.50
  -2   4  16   61.09    6.40
   2  -4  16   64.49    6.70
   2   4 -16   64.29    8.80
  -2  -4  16   51.19    6.90
   2   4  16   74.29    8.10
   2   4  16   77.29    6.40
  -2  -4  16   67.59    6.10
   4  -4  16   73.09    7.50
   4   4 -16   79.39   17.90
  -4   4  16   70.29    6.90
  -4   4  16   61.39    6.80
   4  -4  16   56.49    7.30
   4  -4  16   58.29    8.00
   4   4  16   65.59    7.70
  -4  -4  16   65.49    5.90
  -4  -4  16   67.69    6.30
   4   4  16   60.69    6.60
   6   4 -16   39.40    8.80
   6  -4  16   26.50    6.20
  -6   4  16   22.20    6.30
   6  -4  16   25.80    5.90
  -6   4  16   25.60    5.60
   6  -4  16   38.50    5.50
  -6  -4  16   29.10    7.00
   6   4  16   26.00    5.90
  -6  -4  16   22.80    5.90
   6   4  16   25.50    6.20
  -6  -4  16   33.70    4.50
   8  -4  16   16.10    4.90
   8   4 -16    7.50    6.30
   8  -4  16    8.00    4.00
  -8   4  16   12.40    5.10
   8  -4  16   10.90    5.20
   8   4  16   10.10    7.80
  -8  -4  16   17.80    3.80
  -8  -4  16    0.30    3.90
   8   4  16   13.70    5.00
  -8  -4  16    8.80    4.30
  -1   5  16  131.09   10.40
   1  -5  16  114.79    9.70
   1  -5  16  118.49    8.70
  -1   5  16  119.09    7.20
  -1   5  16  126.69    8.40
   1   5 -16  107.59   11.10
   1   5  16   86.19    7.10
   1   5  16  103.69    6.60
  -1  -5  16  122.49   10.20
   1   5  16  118.79    9.90
   1   5  16  118.69    7.40
  -1  -5  16  112.09    8.30
   3   5 -16  105.79   11.40
   3  -5  16   98.59    9.00
   3  -5  16   90.39    8.80
   3  -5  16   97.39    8.90
  -3   5  16  114.99    8.60
  -3   5  16  120.99    8.00
   3   5  16   96.09    9.70
  -3  -5  16   99.79    9.80
  -3  -5  16   83.09    6.20
   3   5  16  114.59   12.20
  -3  -5  16   96.89    7.50
   5  -5  16   73.99    8.10
   5  -5  16   65.19    7.70
   5   5 -16   72.99    9.20
   5  -5  16   57.99    8.10
  -5   5  16   70.89    8.10
  -5   5  16   70.79    7.00
   5   5  16   72.49    7.70
  -5  -5  16   57.09    5.80
  -5  -5  16   58.39    6.20
   5   5  16   67.49    7.90
  -5  -5  16   67.59    8.40
   7   5 -16   38.90    8.60
   7  -5  16   16.70    4.50
  -7   5  16   37.80    7.80
   7  -5  16   28.10    6.10
  -7   5  16   34.30    8.10
   7  -5  16   35.50    6.70
  -7  -5  16   26.20    5.10
   7   5  16   32.20    6.90
  -7  -5  16   26.30    6.90
   7   5  16   34.30    7.30
  -7  -5  16   43.40    5.90
   0   6  16   94.99    8.80
   0  -6  16   78.29    7.30
   0   6  16   98.99    6.60
   0  -6  16   88.49    8.70
   2  -6  16   82.49    7.70
  -2   6  16   62.39    6.40
   2   6 -16   85.89   10.10
  -2   6  16   71.19    6.00
  -2   6  16   68.59    7.60
   2  -6  16   85.49    8.50
  -2  -6  16   70.89    8.20
   2   6  16   84.29    8.70
   2   6  16   68.19    9.60
  -2  -6  16   80.89   10.70
   4   6 -16   66.79    9.00
   4  -6  16   61.49    7.40
  -4   6  16   57.49    6.20
   4  -6  16   57.99    7.30
  -4   6  16   69.89    6.80
  -4  -6  16   58.09    8.00
   4   6  16   55.69    7.50
  -4  -6  16   62.69    5.90
   4   6  16   60.39    6.60
  -4  -6  16   58.99    5.80
  -6   6  16   23.40    5.70
   6  -6  16   21.30    5.30
   6  -6  16   19.30    4.80
   6   6 -16   24.20    7.30
  -6   6  16   10.30    4.10
   6  -6  16   19.30    5.00
  -6  -6  16   16.20    5.30
   6   6  16   15.20    5.00
   6   6  16   15.20    4.90
  -6  -6  16   17.10    4.90
  -6  -6  16   16.80    3.90
   8  -6  16   17.20    4.80
   8  -6  16   -0.40    3.20
  -8   6  16   19.40    6.30
   8   6 -16   -1.10    7.30
  -8   6  16   11.30    8.40
   8  -6  16    9.90    5.20
   8   6  16   18.30    5.50
  -8  -6  16   19.70    5.20
  -8  -6  16   16.20    6.60
  -8  -6  16    6.70    4.60
  -1   7  16   62.69    5.50
   1  -7  16   65.29    7.10
   1  -7  16   49.10    7.10
   1   7 -16   52.29   10.10
  -1   7  16   61.69    6.70
  -1  -7  16   58.39    7.40
  -1  -7  16   58.39    6.60
   1   7  16   67.99    6.60
   1   7  16   74.89    7.70
   3  -7  16   37.30    7.90
   3   7 -16   42.50    9.70
  -3   7  16   40.10    5.50
  -3   7  16   42.30    5.30
  -3   7  16   51.69    5.80
   3  -7  16   58.69    7.10
   3   7  16   40.90    5.40
  -3  -7  16   41.10    5.40
  -3  -7  16   47.60   12.40
   3   7  16   44.00    6.20
   5  -7  16   44.90    6.20
   5  -7  16   37.00   11.90
   5  -7  16   59.29    6.70
  -5   7  16   48.90    5.50
   5   7 -16   35.00    7.60
  -5   7  16   32.60    7.10
  -5  -7  16   54.39    6.40
   5   7  16   56.49    6.60
   5   7  16   43.00    8.40
  -5  -7  16   41.50    8.50
  -5  -7  16   50.29    5.70
   7   7 -16   19.40    6.50
  -7   7  16   24.40    7.10
   7  -7  16   20.10    4.70
  -7   7  16   16.90    5.30
   7  -7  16   23.10    5.00
  -7  -7  16   28.60    7.80
  -7  -7  16   16.60    5.40
   7   7  16   24.90    5.90
   7   7  16   21.90    5.10
  -7  -7  16   24.90    6.30
   0  -8  16   23.80    5.20
   0   8 -16   29.60    7.70
   0   8  16   28.80    6.30
   0   8  16   38.00    5.30
   0  -8  16   24.10    6.50
  -2   8  16   44.90    5.00
   2  -8  16   36.30    6.80
  -2   8  16   37.80    7.00
   2   8 -16   40.30    9.20
   2  -8  16   43.90    8.50
  -2  -8  16   52.29    6.10
   2   8  16   35.70    4.80
  -2  -8  16   43.20    9.40
  -4   8  16   17.00    4.90
   4  -8  16   11.10    4.00
  -4   8  16   11.50    4.00
  -4   8  16   12.40    3.50
   4   8 -16   15.70    5.80
   4  -8  16   15.60    8.10
   4  -8  16    6.90    5.90
  -4  -8  16   10.00    3.30
   4   8  16   17.20    4.90
  -4  -8  16    4.40    3.90
  -4  -8  16   20.60    4.00
   4   8  16    9.70    4.00
   6   8 -16   41.90    9.20
  -6   8  16   28.40    5.50
   6  -8  16   21.80    5.10
  -6   8  16   31.00    7.00
   6  -8  16   47.30    6.80
   6  -8  16   36.20    5.10
  -6   8  16   24.70    5.60
  -6  -8  16   18.60    5.70
  -6  -8  16   22.00    4.70
  -6  -8  16   29.40    7.10
   6   8  16   24.80    6.10
   6   8  16   21.80    5.60
  -1   9  16  145.69    8.60
  -1   9  16  167.48   11.30
   1  -9  16  158.78   12.50
  -1  -9 -16  165.48   10.20
   1   9 -16  131.89   15.80
   1  -9  16  154.38   16.50
  -1  -9  16  153.08   14.30
   1   9  16  140.59   12.90
  -1  -9  16  161.88   11.00
   1   9  16  160.48    9.20
  -3   9  16  137.99    9.50
   3   9 -16  119.19   12.10
   3  -9  16  129.89   12.80
  -3   9  16  139.89    9.30
  -3  -9  16  123.09    9.50
   3   9  16  136.69   11.20
   3   9  16  135.89    9.70
  -3  -9  16  113.69   11.10
  -5   9  16   47.20    6.50
   5  -9  16   53.99    7.20
   5   9 -16   66.29    9.30
   5  -9  16   50.19    6.00
   5  -9  16   54.39    7.40
  -5   9  16   62.59    5.90
  -5   9  16   57.99    7.00
  -5  -9  16   63.49    7.90
  -5  -9  16   55.09    6.10
   5   9  16   52.89    6.60
   5   9  16   56.69   10.60
  -5  -9  16   50.09    6.40
  -7   9  16   32.10    7.50
   7  -9  16   36.00    6.90
   7  -9  16   27.00    5.70
   7  -9  16   24.00    6.10
   7   9  16   44.50    9.70
  -7  -9  16   19.80    5.70
  -7  -9  16   54.89    9.60
   7   9  16   38.90    8.10
  -7  -9  16   27.70    5.90
   0  10  16  135.89   10.90
   0 -10  16  121.79    9.80
   0  10  16  131.49    8.10
   0  10 -16  142.79   15.30
   0 -10  16  134.79   14.80
   2  10 -16   96.49   11.10
  -2 -10 -16   98.39    7.90
  -2  10  16   96.89    7.20
   2 -10  16  107.39   10.60
  -2  10  16  120.89    9.00
   2 -10  16   90.39    9.20
  -2 -10  16   84.19    9.40
  -2 -10  16  105.59    8.80
   2  10  16  106.59    7.90
   2  10  16   86.99    9.10
  -4  10  16   61.99    6.80
   4 -10  16   83.59    9.00
  -4  10  16   64.79    6.40
   4 -10  16   57.89    7.10
  -4 -10 -16   65.99    7.10
   4  10 -16   53.49   10.60
   4 -10  16   73.69    7.60
  -4 -10  16   54.49    8.00
  -4 -10  16   68.69    7.30
  -4 -10  16   61.39    6.00
   4  10  16   63.99    7.90
   4  10  16   56.79    6.70
   6 -10  16   44.00    6.10
   6 -10  16   48.20    9.60
   6  10 -16   41.20    8.00
   6 -10  16   37.60    7.50
  -6  10  16   40.40    8.10
  -6 -10  16   40.50    7.50
   6  10  16   55.99    7.50
  -6 -10  16   59.09    7.80
  -6 -10  16   49.80    7.10
   6  10  16   57.09    7.40
  -1  11  16  222.58   14.10
   1  11 -16  228.28   17.00
  -1 -11 -16  258.27   13.80
   1 -11  16  221.18   13.70
   1 -11  16  226.48   16.00
  -1 -11  16  219.48   13.70
   1  11  16  235.78   12.30
   1  11  16  239.88   15.00
  -1 -11  16  195.68   15.00
   3  11 -16  185.18   15.40
   3 -11  16  172.68   14.10
  -3  11  16  213.28   12.30
  -3  11  16  192.78   11.00
  -3 -11 -16  226.28   12.60
   3 -11  16  175.88   12.90
  -3 -11  16  187.88   14.60
   3  11  16  180.48   13.40
   3  11  16  215.18   12.80
  -3 -11  16  192.48   12.60
   5  11 -16  109.69   12.50
  -5  11  16   87.39    9.40
  -5 -11 -16  117.49    9.40
   5 -11  16  105.29   10.10
   5 -11  16  114.29   11.40
  -5  11  16  102.39    9.20
   5 -11  16  112.29    8.80
  -5  11  16  126.09    8.60
  -5 -11  16  124.29   11.80
   5  11  16  106.99   11.00
   5  11  16   97.79    9.70
  -5 -11  16  107.69    8.90
  -5 -11  16   95.49    8.90
   0 -12  16  112.39   11.10
   0 -12 -16  121.69    9.80
   0  12  16  128.99   10.30
   0 -12  16  122.69   10.10
   0  12 -16  131.19   12.80
  -2  12  16   54.69    5.20
   2 -12  16   61.89    8.60
   2  12 -16   71.89    9.80
  -2  12  16   62.39    7.50
   2 -12  16   66.69    7.80
  -2 -12 -16   59.19    7.10
  -2 -12  16   67.09    8.40
   2  12  16   61.29    6.50
   2  12  16   62.19    8.00
  -2 -12  16   62.89    7.10
  -4  12  16   62.89    6.30
   4 -12  16   74.29    9.90
   4 -12  16   51.59    6.10
  -4 -12 -16   52.09    7.20
  -4  12  16   60.79    6.80
   4  12 -16   68.59    9.70
   4 -12  16   55.19    9.50
   4  12  16   65.49    8.20
  -4 -12  16   51.99    8.50
  -4 -12  16   64.09    8.70
  -4 -12  16   44.80    5.80
   4  12  16   60.89    7.70
  -6  12  16   31.60    6.80
   6 -12  16   30.80    6.20
   6 -12  16   22.60    8.10
   6  12 -16   23.20    7.90
  -6 -12  16   32.10    7.40
  -6 -12  16   30.50    6.40
   6  12  16   42.30    8.80
  -6 -12  16   21.30    5.80
   6  12  16   30.70    8.70
  -1  13  16   24.10    5.30
   1  13 -16   21.00    7.10
   1 -13  16   31.30    6.80
   1 -13  16   26.20    6.80
  -1 -13 -16   24.00    5.10
  -1  13 -16   29.70    8.00
  -1 -13  16   18.60    5.60
  -1 -13  16   19.90    5.00
   1  13  16   16.70    5.20
  -3  13  16   25.30    4.40
   3  13 -16   19.70    6.30
   3 -13  16   13.10    3.90
   3 -13  16   18.50    5.40
  -3 -13 -16   36.50    6.80
  -3 -13  16   33.80    7.80
  -3 -13  16   23.80    5.50
   3  13  16   31.90    6.40
   5 -13  16   12.80    4.60
   5  13 -16    6.50    4.90
   5 -13  16    9.80    5.00
   5 -13  16   21.00    4.90
  -5 -13 -16   12.40    6.00
  -5  13  16   13.50    4.30
   5  13  16   12.10    5.60
  -5 -13  16   26.50    5.40
  -5 -13  16   23.90    6.80
  -5 -13  16   19.30    5.40
   5  13  16   14.90    5.40
   0 -14 -16   62.99    7.90
   0  14 -16   59.49    8.40
   0 -14  16   44.30    9.60
   0  14  16   64.09    7.30
   0 -14  16   63.59    7.40
   2  14 -16   89.09   11.00
  -2 -14 -16   92.19    9.00
  -2  14  16   93.79    7.80
   2 -14  16   85.09   10.00
   2 -14  16   93.69    8.80
   2  14  16   81.19    8.70
  -2 -14  16   85.79    8.50
  -2 -14  16   76.69    9.60
   4 -14  16   29.00    7.60
   4  14 -16   46.60   11.00
   4 -14  16   19.40    6.00
  -4  14  16   33.80    7.20
  -4 -14 -16   32.60   12.10
  -4 -14  16   25.80    6.80
  -4 -14  16   29.60    5.40
   4  14  16   43.70    8.80
  -4 -14  16   36.80    7.00
  -1  15  16   50.09    6.10
   1  15 -16   41.30    9.90
  -1 -15 -16   47.60    8.90
   1 -15  16   46.40    6.50
   1 -15  16   33.60    7.30
   1  15  16   43.70    6.30
  -1 -15  16   37.60    8.10
   1 -15 -16   48.30    6.90
  -1 -15  16   46.20    6.00
  -1  15 -16   47.00   10.90
  -3 -15 -16   29.90    7.10
   3 -15  16   35.90    7.20
   3 -15  16   32.90    8.10
  -3  15  16   41.40    4.60
   3  15 -16   40.90    9.30
  -3  15  16   39.60    6.00
  -3 -15  16   36.20    8.20
  -3 -15  16   21.60    6.00
   3  15  16   53.69    6.90
   5  15 -16   39.40    9.50
   5 -15  16   26.30    6.80
  -5 -15 -16   37.20    8.10
   5 -15  16   17.00    5.90
  -5 -15  16   20.60    5.80
   5  15  16   31.90    7.70
  -5 -15  16   31.20    7.60
  -5 -15  16   18.30    5.60
   0  16  16  100.79    8.80
   0 -16  16  109.69   11.50
   0 -16  16   77.39    9.10
   0  16 -16   88.09   10.60
   0 -16 -16  103.39    9.70
  -2 -16 -16   49.10    9.10
   2  16 -16   54.79   10.80
   2 -16  16   49.30    9.40
   2 -16  16   52.69    7.10
   2  16  16   50.79    7.00
  -2 -16  16   52.59    7.00
  -2 -16  16   68.39    9.10
  -4  16  16   62.49   10.70
   4  16 -16   50.79   11.70
   4 -16  16   68.59    8.90
   4 -16  16   39.90    8.60
  -4 -16 -16   56.59    9.20
  -4 -16  16   57.89   10.80
   4  16  16   55.89    8.00
  -4 -16  16   63.39    8.00
  -1 -17 -16    2.70    5.00
  -1  17  16   22.20    6.00
   1 -17  16   18.40    4.70
   1 -17  16   14.50    6.00
   1  17 -16    1.20    5.60
   1 -17 -16   13.20    4.50
  -1 -17  16   12.60    5.60
   1  17  16   16.70    4.90
  -1 -17  16   31.80    7.40
  -1  17 -16   12.50    4.80
   3  17 -16   24.50    7.00
  -3  17  16   25.40    6.10
  -3 -17 -16   22.80    6.60
   3 -17  16   17.00    6.70
   3  17  16   22.10    8.50
   0 -18  16   63.69    8.80
   0 -18 -16   67.69    9.20
   0  18 -16   96.09   11.20
   0  18  16   95.09    8.50
   0 -18  16   78.99    9.80
   2 -18  16   50.29   10.10
   2  18 -16   57.89   12.10
  -2 -18 -16   82.79   10.60
   2 -18  16   79.39    9.00
  -2  18  16   84.69    7.80
  -2 -18  16   63.19   11.60
  -2 -18  16   69.79   15.00
   0   0  17    1.10    1.40
   0   0  17    3.30    1.90
   2   0  17   -0.70    1.70
  -2   0  17    2.50    3.20
   2   0  17    1.40    2.60
   2   0  17    0.80    2.30
  -4   0  17    4.70    4.30
   4   0  17    5.20    2.70
   4   0  17   -2.90    2.40
   6   0  17    3.50    2.10
  -6   0  17    9.50    3.20
  -6   0  17    3.10    2.50
   6   0  17    6.80    2.80
   6   0  17   -4.80    2.40
   1  -1  17  260.37   14.30
  -1   1  17  267.67   14.50
   1  -1  17  295.07   17.20
  -1   1  17  287.77   11.90
   1   1  17  278.27   13.90
   1   1  17  263.17   16.20
  -1  -1  17  261.57   15.20
   1   1  17  284.07   18.60
  -1  -1  17  274.77   13.70
  -3   1  17  273.57   15.60
  -3   1  17  273.57   12.70
   3  -1  17  297.27   15.20
   3  -1  17  284.07   20.20
   3  -1  17  282.87   14.50
  -3  -1  17  272.17   13.70
   3   1  17  265.67   13.10
  -3  -1  17  286.67   16.40
   3   1  17  292.97   17.20
   3   1  17  288.77   14.80
   5   1 -17   98.89   10.30
   5  -1  17  112.09    9.80
  -5   1  17  101.39    9.70
   5  -1  17  108.59    7.90
   5  -1  17  108.39    9.60
  -5   1  17   94.39    8.20
  -5  -1  17   99.79    9.70
  -5  -1  17  103.29    7.90
   5   1  17   96.09    9.10
   5   1  17   91.89    9.60
  -7   1  17   69.09    9.00
   7  -1  17   70.79    8.00
   7   1 -17   61.69   10.40
  -7   1  17   88.69    8.80
   7  -1  17   69.89    8.40
  -7  -1  17   58.79    7.80
   7   1  17   55.89    8.10
   7   1  17   50.99    7.40
  -7  -1  17   71.99    8.40
   0   2  17   17.60    4.90
   0  -2  17   12.00    4.10
   0   2  17    7.50    2.60
   0   2  17   13.20    3.70
   0  -2  17    9.00    3.60
   2  -2  17   10.60    4.00
   2  -2  17   15.10    5.40
  -2   2  17   18.10    4.90
   2  -2  17   15.70    5.50
   2   2  17   17.70    4.00
  -2  -2  17   14.50    4.40
  -2  -2  17   18.30    3.70
   2   2  17   20.70    8.00
   2   2  17   17.50    4.20
   4  -2  17   13.30    3.80
   4  -2  17    4.40    2.60
   4   2 -17    6.30    3.40
  -4   2  17   13.10    4.30
   4  -2  17    9.80    3.10
  -4   2  17    5.10    2.70
  -4  -2  17   13.80    3.50
   4   2  17    5.60    2.70
   4   2  17    7.10    2.70
  -4  -2  17    6.80    3.20
   6   2 -17    0.60    4.10
   6  -2  17   12.70    4.00
  -6   2  17    7.60    4.70
   6  -2  17   12.60    3.90
  -6   2  17   14.90    4.10
   6  -2  17   17.30    4.80
  -6  -2  17   17.30    5.20
  -6  -2  17   23.70    7.00
   6   2  17    8.70    4.10
   6   2  17    9.70    4.50
  -6  -2  17   13.50    3.40
   1  -3  17   70.49    7.10
  -1   3  17   61.59    6.40
   1   3  17   64.89    7.90
   1   3  17   63.59    5.80
  -1  -3  17   63.59    7.40
   3  -3  17   76.89    7.60
   3  -3  17   80.89   10.80
  -3   3  17   82.59    8.00
   3  -3  17   78.99    8.00
   3   3 -17   78.29    9.20
  -3   3  17   82.49    6.70
  -3  -3  17   95.39    6.80
   3   3  17   89.49    9.10
   3   3  17   73.89    7.20
  -3  -3  17   75.49    8.80
  -5   3  17   30.50    6.20
   5  -3  17   24.70    5.10
  -5   3  17   25.40    5.70
   5   3 -17   19.70    4.70
   5  -3  17   24.70    5.50
   5  -3  17   26.70    5.00
   5   3  17   13.40    4.20
  -5  -3  17   28.70    6.70
  -5  -3  17   24.70    5.20
   5   3  17   23.50    5.90
  -7   3  17   31.90    6.30
   7   3 -17   33.10    7.30
   7  -3  17   32.40    6.30
   7  -3  17   47.70    6.90
  -7   3  17   25.10    7.10
   7  -3  17   16.50    5.60
  -7  -3  17   20.80    6.00
  -7  -3  17   37.90    8.10
   7   3  17   27.70    6.80
   0   4  17   26.80    3.70
   0  -4  17   22.40    5.50
   0   4  17   24.90    6.20
  -2   4  17   66.19    6.50
  -2   4  17   46.40    4.80
   2  -4  17   66.39    7.20
   2   4 -17   59.79   13.90
   2  -4  17   50.99    6.20
   2   4  17   61.79    8.00
   2   4  17   46.20    5.40
  -2  -4  17   52.49    9.10
  -2  -4  17   57.79    5.50
  -4   4  17    7.70    4.20
   4   4 -17   12.60    4.70
   4  -4  17    7.60    2.90
   4  -4  17    8.80    3.80
  -4   4  17    8.20    3.50
  -4  -4  17   18.10    3.30
  -4  -4  17   16.50    5.00
   4   4  17   18.80    5.20
  -4  -4  17   12.60    3.30
   4   4  17    7.10    3.10
   6  -4  17   -0.80    3.50
   6  -4  17   -0.30    2.90
   6  -4  17    2.70    2.80
  -6   4  17    8.70    3.40
  -6   4  17    2.50    2.50
   6   4 -17    8.50    4.40
  -6  -4  17    7.20    2.80
   6   4  17    6.50    3.70
  -6  -4  17   -0.40    1.90
  -6  -4  17    6.30    3.40
   6   4  17    7.60    3.80
  -1   5  17   44.50    5.20
   1  -5  17   42.10    8.20
   1  -5  17   37.90    7.00
  -1   5  17   35.00    3.90
  -1   5  17   40.90    7.80
   1   5  17   41.60    4.60
   1   5  17   36.20    4.20
  -1  -5  17   32.30    6.60
  -1  -5  17   40.40    5.00
   3  -5  17   18.70    5.60
   3  -5  17   31.00    6.50
   3  -5  17   21.30    4.90
  -3   5  17   33.10    4.80
   3   5 -17   23.50    7.80
  -3   5  17   34.20    4.10
   3   5  17   24.60    5.20
  -3  -5  17   27.00    3.90
   3   5  17   22.30    5.30
  -3  -5  17   19.10    5.50
   5  -5  17   27.50    5.70
  -5   5  17   27.90    6.00
   5  -5  17   22.00    6.60
  -5   5  17   35.10    7.00
   5   5 -17   35.60    8.30
   5  -5  17   35.60    7.10
   5   5  17   33.50    7.10
  -5  -5  17   31.80    5.50
  -5  -5  17   29.20    6.80
   5   5  17   30.70    6.30
  -5  -5  17   39.40    7.30
   7   5 -17   10.50    6.00
   7  -5  17   17.20    4.80
  -7   5  17   13.40    4.50
   7  -5  17   15.70    5.20
   7  -5  17   17.00    5.70
  -7   5  17   15.90    5.40
   7   5  17    8.80    4.50
   7   5  17    7.60    4.60
  -7  -5  17   11.10    4.50
  -7  -5  17   15.80    5.70
  -7  -5  17   15.30    3.80
   0  -6  17  262.37   13.90
   0  -6  17  240.68   15.60
   0   6  17  251.37   10.90
   0   6  17  263.57   17.70
  -2   6  17  156.88   11.70
   2   6 -17  149.09   13.30
   2  -6  17  163.78   12.20
  -2   6  17  165.48    9.50
  -2   6  17  172.18   10.30
   2  -6  17  168.08   11.40
   2   6  17  169.98   10.00
  -2  -6  17  149.99   10.00
   2   6  17  167.98   12.60
   4  -6  17  153.48   11.40
   4  -6  17  138.79   11.10
  -4   6  17  143.89   12.90
  -4   6  17  160.68   11.40
   4   6 -17  141.89   13.50
   4  -6  17  152.18   11.90
  -4   6  17  157.38   10.20
   4   6  17  145.79   10.50
  -4  -6  17  131.99   11.90
  -4  -6  17  138.49    9.20
  -4  -6  17  128.99    8.70
   4   6  17  131.79   11.60
  -6   6  17   57.09    7.70
  -6   6  17   51.49    7.20
   6  -6  17   49.99    7.20
   6   6 -17   60.19   12.30
   6  -6  17   56.79    6.60
   6  -6  17   49.90    7.30
  -6  -6  17   59.39    6.40
   6   6  17   52.69    7.30
   6   6  17   50.69    9.30
  -6  -6  17   69.79    8.30
  -6  -6  17   57.29    6.60
  -1   7  17  145.69    8.90
   1  -7  17  137.89   10.20
  -1   7  17  130.69   12.80
   1  -7  17  149.79   11.70
   1   7 -17  134.59   12.90
   1   7  17  153.28   11.60
  -1  -7  17  134.99   13.80
  -1  -7  17  160.38   10.60
   1   7  17  149.09    8.70
  -3   7  17   64.59    6.90
   3  -7  17   63.89    8.30
  -3   7  17   59.79    6.30
  -3   7  17   84.09   16.20
   3  -7  17   78.29    8.20
   3   7 -17   70.09    9.20
  -3  -7  17   67.59    8.40
   3   7  17   72.59    8.10
  -3  -7  17   61.99    6.40
   3   7  17   70.89    6.80
  -5   7  17   82.29    8.30
   5  -7  17   83.49    8.60
   5  -7  17   81.39    8.10
   5   7 -17   87.09   14.80
   5  -7  17   92.59    9.20
  -5   7  17   82.99    7.70
  -5   7  17   88.69    8.10
  -5  -7  17   79.19    7.50
   5   7  17   84.89    9.80
  -5  -7  17   84.79    9.30
  -5  -7  17   71.89    7.10
   5   7  17   75.49    8.10
   7   7 -17   33.70    9.00
  -7   7  17   36.90   10.20
  -7   7  17   27.80    6.80
   7  -7  17   49.00    8.00
  -7   7  17   20.40    4.10
   7  -7  17   35.10    6.10
   7  -7  17   17.80    5.30
  -7  -7  17   35.40    6.00
  -7  -7  17   24.50    4.70
   7   7  17   20.50    7.30
   7   7  17   33.60    6.80
  -7  -7  17   30.10    7.20
   0   8  17  167.48   12.00
   0   8  17  143.89    8.10
   0  -8  17  153.58   10.70
   2   8 -17   83.19   10.20
   2  -8  17   82.29    8.30
  -2   8  17   91.69    7.00
  -2  -8  17   70.09    8.70
  -2  -8  17   63.99    7.10
   2   8  17   70.39    8.10
   2   8  17   72.99    6.50
  -4   8  17   83.29    7.50
   4  -8  17   74.09    8.00
  -4   8  17   62.19    7.00
   4   8 -17   88.59   10.80
   4  -8  17   73.89    8.10
   4  -8  17   66.39    7.40
  -4   8  17   66.39    7.30
   4   8  17   71.09    7.00
  -4  -8  17   70.29    5.90
  -4  -8  17   58.99    6.70
  -4  -8  17   64.39    8.30
   4   8  17   64.39    7.70
   6  -8  17   33.00    7.00
  -6   8  17   27.10    6.30
  -6   8  17   33.10    7.20
   6  -8  17   27.50    6.40
   6   8 -17   18.60    7.90
  -6   8  17   36.80    5.10
   6  -8  17   32.60    5.60
   6   8  17   31.40    7.00
  -6  -8  17   39.70    7.30
  -6  -8  17   31.30    6.70
   6   8  17   28.40    7.70
  -1   9  17   34.60    4.70
   1  -9  17   42.60    8.00
   1   9 -17   47.60   10.70
  -1   9  17   50.19    6.20
   1  -9  17   45.80    6.30
  -1  -9  17   47.90    6.30
   1   9  17   56.49    5.20
  -1  -9  17   59.39    8.00
   1   9  17   51.19    6.80
   3  -9  17   67.19    7.40
   3   9 -17   32.60    8.70
  -3   9  17   45.60    6.00
   3  -9  17   49.20    9.80
  -3   9  17   49.00    5.30
  -3   9  17   46.20    5.70
  -3  -9  17   49.70   10.00
  -3  -9  17   51.99    6.00
   3   9  17   38.70    5.30
   3   9  17   49.50    6.90
  -5   9  17   23.10    5.40
   5   9 -17   24.10    6.80
  -5   9  17   22.30    5.70
   5  -9  17   22.90    5.50
   5  -9  17   21.80    4.60
  -5   9  17   34.70    4.70
   5  -9  17   34.30    5.70
  -5  -9  17   22.60    6.20
  -5  -9  17   26.00    5.50
  -5  -9  17   30.70    6.00
   5   9  17   35.60    8.00
   5   9  17   24.10    5.40
   0 -10  17   32.60    7.40
   0 -10  17   32.30    6.60
   0  10  17   32.30    6.60
   0  10 -17   31.40    8.70
  -2  10  17   48.80    4.80
  -2 -10 -17   53.09    6.10
  -2  10  17   47.40    5.90
   2 -10  17   50.99    7.40
   2  10 -17   41.00    9.10
   2 -10  17   48.90    6.50
   2  10  17   47.20    6.80
   2  10  17   41.30    5.40
  -2 -10  17   37.30    6.80
  -2 -10  17   43.50    9.00
  -4  10  17   12.10    4.30
   4 -10  17   32.90    6.90
   4 -10  17   19.70    4.70
  -4  10  17   21.60    4.70
   4 -10  17   17.20    4.90
   4  10 -17   27.40    8.10
   4  10  17   21.80    5.20
   4  10  17   23.40    6.50
  -4 -10  17   12.00    3.60
  -4 -10  17   20.00    5.00
  -4 -10  17   18.90    5.80
  -6  10  17   12.20    2.80
  -6  10  17   16.20    4.30
   6 -10  17    8.90    5.40
   6 -10  17   17.00    5.40
   6  10 -17   17.30    6.90
  -6 -10  17   27.90    6.10
  -6 -10  17   21.50    4.60
  -6 -10  17   11.00    4.60
   6  10  17    9.90    4.40
   6  10  17   20.50    5.40
  -1 -11 -17   81.29    7.60
  -1  11  17   82.39    7.80
   1 -11  17   62.69    7.10
   1 -11  17   80.39    9.20
   1  11 -17   76.79   10.10
  -1 -11  17   66.39    7.40
  -1 -11  17   65.09    8.80
   1  11  17   71.59    6.80
   1  11  17   74.89    8.20
  -3 -11 -17   60.09    7.10
  -3  11  17   69.09    6.60
   3 -11  17   57.19    8.20
   3  11 -17   62.89   12.30
   3 -11  17   76.29    8.10
  -3  11  17   71.39    6.20
  -3 -11  17   63.59    8.60
  -3 -11  17   57.89    7.10
   3  11  17   62.19    7.90
   3  11  17   67.29    7.10
   5 -11  17   29.70    6.50
  -5  11  17   42.20    5.20
   5  11 -17   39.90    8.50
  -5  11  17   19.50    5.60
   5 -11  17   32.10    6.50
  -5  11  17   31.70    7.30
  -5 -11  17   24.60    7.20
  -5 -11  17   32.50    6.70
   5  11  17   41.10    7.80
   5  11  17   29.40    7.10
   0 -12  17   62.39    8.30
   0 -12  17   50.19    6.70
   0  12  17   66.79    7.30
   0  12 -17   65.29   12.40
   2 -12  17   22.80    5.60
  -2  12  17   38.60    4.00
  -2 -12 -17   27.40    5.30
  -2  12  17   39.00    7.50
   2  12 -17   24.90    8.20
   2 -12  17   24.90    6.80
  -2 -12  17   22.80    5.70
   2  12  17   25.40    6.90
  -2 -12  17   25.00    5.50
   2  12  17   27.60    5.30
   4 -12  17   30.20    6.30
  -4 -12 -17   37.30    6.70
   4  12 -17   46.50   10.60
   4 -12  17   42.80    9.90
   4 -12  17   33.50    7.00
  -4  12  17   55.79    6.80
  -4 -12  17   43.50    6.10
  -4 -12  17   35.40    8.10
   4  12  17   37.50    8.40
   4  12  17   39.10    7.30
  -4 -12  17   59.29    7.90
  -1  13  17   92.29    7.90
   1  13 -17   62.79    8.90
   1 -13  17   62.19    7.30
  -1 -13 -17   68.99    8.00
   1 -13  17   59.59    8.70
   1  13  17   53.49    7.20
  -1 -13  17   72.89    8.90
  -1 -13  17   73.19    8.00
   3 -13  17   53.59    8.90
   3 -13  17   47.80    9.30
   3  13 -17   39.20   10.30
  -3 -13 -17   53.09    7.20
  -3  13  17   49.50    6.30
  -3  13  17   47.00    5.20
   3  13  17   51.29    7.30
  -3 -13  17   35.30    7.20
  -3 -13  17   47.60    6.80
   5 -13  17   37.50    7.40
   5 -13  17   50.09    6.50
  -5  13  17   30.00    7.00
   5 -13  17   35.10   12.30
  -5  13  17   34.30    6.30
  -5  13  17   33.20    6.60
   5  13 -17   59.49   12.40
   5  13  17   37.80    8.80
  -5 -13  17   33.10    8.40
  -5 -13  17   23.50    6.00
   0  14  17  101.89    9.70
   0 -14  17  109.69   10.10
   0 -14  17  104.69   11.20
   0  14 -17   93.89   11.50
   0 -14 -17  117.69   10.90
   2 -14  17  120.09   11.40
   2 -14  17  116.59   10.60
  -2 -14 -17   95.29   10.30
   2  14 -17  101.89   12.50
  -2  14  17  126.19    9.40
  -2 -14  17  105.99    9.90
   2  14  17  122.09   11.00
  -2 -14  17   91.49   10.80
   4 -14  17   73.39    7.60
  -4  14  17   70.49    6.40
  -4  14  17   77.29    7.00
   4 -14  17   73.49    9.60
   4 -14  17   63.99   18.00
  -4 -14 -17   69.39    9.20
   4  14 -17   76.09   10.90
  -4 -14  17   61.99    7.90
  -4 -14  17   78.89    9.60
   4  14  17   62.59    8.30
   1  15 -17   23.50    7.20
  -1 -15 -17   28.50    5.80
   1 -15  17   13.70    4.90
   1 -15  17   24.60    6.30
  -1  15  17   21.70    4.60
  -1 -15  17   12.90    5.30
   1  15  17   17.20    5.30
  -1 -15  17   11.80    5.00
  -3  15  17   15.20    4.30
   3 -15  17    7.30    9.00
  -3 -15 -17   12.60    5.40
   3  15 -17    9.70    8.60
  -3 -15  17   20.10    6.10
   3  15  17   26.20    8.50
   0  16  17   52.89    7.20
   0 -16  17   43.00    8.30
   0  16 -17   62.79   12.90
   0 -16  17   81.09   16.10
  -2  16  17   37.00    6.60
   2 -16  17   48.00    8.00
  -2 -16 -17   54.89    8.80
   2 -16  17   46.90    9.30
  -2 -16  17   94.99   18.50
   2  16  17   54.19   10.30
  -2 -16  17   49.99    9.30
   1 -17  17   22.10    6.80
  -1 -17 -17   14.40    7.30
   1  17 -17   37.00   10.00
   1 -17  17   15.20    5.70
  -1 -17  17   30.30    7.10
   1  17  17   25.80    7.20
   0   0  18   37.50    6.80
   0   0  18   46.20    5.10
   2   0  18  232.88   12.80
  -2   0  18  222.18   10.20
  -2   0  18  217.68   13.70
   2   0  18  218.68   12.10
   2   0  18  221.38   15.20
  -4   0  18   59.69    5.30
   4   0  18   47.80    6.50
  -4   0  18   48.40    6.70
   4   0  18   46.60    5.10
   4   0  18   58.89    7.30
   6   0  18   40.70    7.80
   6   0  18   43.00    8.20
  -6   0  18   42.30    8.50
  -6   0  18   53.09    6.40
  -1   1  18   74.99    7.20
  -1   1  18   73.09    5.70
   1  -1  18   70.99    7.30
   1  -1  18   72.69    6.60
   1   1  18   64.79    6.20
  -1  -1  18   67.29    7.40
   1   1  18   83.39    7.20
   1   1  18   68.99    8.20
  -1  -1  18   66.39    5.70
   3  -1  18   25.20    5.50
  -3   1  18   22.60    4.60
  -3   1  18   37.20    6.90
   3  -1  18   24.40    5.70
   3  -1  18   32.10    7.40
   3   1  18   35.90    7.90
   3   1  18   23.50    5.30
   3   1  18   33.30    4.40
  -3  -1  18   28.20    7.10
   5  -1  18   54.99   10.00
  -5   1  18   52.59    7.30
   5  -1  18   48.00    6.80
  -5   1  18   47.60    5.40
   5  -1  18   52.59    6.20
   5   1  18   51.79    7.40
  -5  -1  18   27.40    6.80
  -5  -1  18   40.90    5.80
   5   1  18   50.89    6.80
  -7   1  18    9.20    3.60
   7  -1  18    3.90    5.40
   7  -1  18   11.30    4.40
  -7   1  18   10.50    4.30
  -7  -1  18    9.20    4.70
  -7  -1  18   10.90    4.40
   0  -2  18  138.99   10.40
   0   2  18  144.79    8.50
   0   2  18  141.39   11.70
   0  -2  18  149.19    9.40
   0   2  18  146.79    9.60
   2  -2  18   14.10    5.10
   2  -2  18   24.60    4.70
  -2   2  18   28.20    6.20
   2  -2  18   17.30    4.40
  -2  -2  18   28.50    3.90
   2   2  18   18.10    4.60
  -2  -2  18   35.70    7.10
   2   2  18   17.00    4.80
  -4   2  18   56.79    7.20
  -4   2  18   62.89    6.30
   4  -2  18   66.89    7.30
   4  -2  18   64.39    7.70
   4  -2  18   51.39    6.00
  -4  -2  18   66.19    7.80
   4   2  18   70.29    7.30
  -4  -2  18   69.39    5.90
   4   2  18   67.39    8.00
  -4  -2  18   63.69    5.20
   6  -2  18    6.50    3.50
   6   2 -18    9.80    5.70
  -6   2  18   13.70    4.20
  -6   2  18   10.20    3.70
   6  -2  18    7.90    4.20
   6  -2  18   10.70    3.80
  -6  -2  18   -0.40    3.30
  -6  -2  18   -0.60    3.40
   6   2  18   10.70    4.40
   6   2  18   14.90    5.00
   1  -3  18  174.68   11.00
   1  -3  18  174.68   11.70
  -1   3  18  164.18   10.80
  -1   3  18  170.18   12.70
   1   3  18  158.58    9.80
  -1  -3  18  148.69   11.60
   1   3  18  170.78    9.90
  -1  -3  18  168.58    9.80
   1   3  18  164.08   12.60
   3  -3  18  106.09    9.20
   3  -3  18  105.69    9.10
  -3   3  18  131.39   10.30
   3  -3  18  117.99   10.70
  -3   3  18  116.49    7.80
  -3  -3  18  106.59    7.50
   3   3  18  131.09    9.40
  -3  -3  18  116.29   10.40
   3   3  18  109.89   10.20
   5  -3  18   78.09    8.60
   5  -3  18   73.99    7.60
  -5   3  18   64.49    7.50
  -5   3  18   82.39    8.90
   5  -3  18   77.59    8.70
   5   3 -18   78.19    9.80
   5   3  18   89.79    9.50
  -5  -3  18   70.99    6.00
  -5  -3  18   84.49    9.20
   5   3  18   74.59    7.90
  -5  -3  18   78.89    6.90
   7  -3  18   82.09   17.70
  -7   3  18   58.89    7.80
  -7   3  18   71.09    8.60
   7  -3  18   55.49    7.70
  -7  -3  18   54.19   10.90
  -7  -3  18   62.49    6.10
  -7  -3  18   52.69    9.10
   7   3  18   66.59    8.70
   7   3  18   59.79    8.40
   0   4  18  364.96   15.80
   0  -4  18  330.67   18.30
   0   4  18  351.56   19.30
   0   4  18  360.06   14.10
   0  -4  18  361.26   16.30
  -2   4  18  258.97   11.70
  -2   4  18  243.58   14.00
  -2   4  18  244.88   15.30
   2  -4  18  252.27   14.30
   2  -4  18  231.18   14.40
  -2  -4  18  260.97   12.60
   2   4  18  269.47   16.40
  -2  -4  18  266.27   17.10
   2   4  18  270.77   13.10
  -4   4  18  205.88   13.70
   4  -4  18  205.78   14.30
   4   4 -18  210.18   16.50
   4  -4  18  232.88   14.20
  -4   4  18  218.38   12.10
   4  -4  18  210.48   13.50
  -4  -4  18  210.48   10.70
   4   4  18  209.68   13.20
   4   4  18  231.78   15.60
  -4  -4  18  211.88   11.10
  -4  -4  18  195.48   14.40
   6  -4  18  107.69   10.10
  -6   4  18  104.39   10.00
   6   4 -18  104.79   11.90
  -6   4  18  109.89    9.60
   6  -4  18  108.59   10.20
   6  -4  18  116.29    9.70
  -6  -4  18   93.09    8.60
  -6  -4  18  111.89   10.80
   6   4  18  110.59   11.00
   6   4  18  119.99   10.60
   1  -5  18   92.39    8.70
  -1   5  18   90.09    9.00
   1  -5  18   99.79    8.20
  -1   5  18  105.59    7.30
   1   5  18   91.09    6.80
  -1  -5  18   92.79    7.70
   1   5  18   83.59    8.80
   3   5 -18   81.79   10.30
  -3   5  18   77.99    6.50
   3  -5  18   71.79    7.70
  -3   5  18   72.69    7.80
  -3   5  18   78.79    7.70
   3  -5  18   68.49    8.60
   3  -5  18   72.69    8.90
   3   5  18   72.89    8.50
  -3  -5  18   79.19    8.70
   3   5  18   78.79    7.40
  -3  -5  18   68.09    6.20
   5  -5  18   36.80    7.40
  -5   5  18   39.20    5.40
   5  -5  18   36.80    6.70
  -5   5  18   47.30    6.70
   5  -5  18   34.60    6.60
   5   5 -18   31.80    8.40
   5   5  18   39.60    8.40
  -5  -5  18   55.49    5.50
   5   5  18   31.00    6.40
  -5  -5  18   38.10    4.80
  -5  -5  18   61.99    7.70
   0   6  18   38.40    5.40
   0   6  18   32.30    3.80
   0   6  18   27.80    3.90
   0  -6  18   18.60    4.40
  -2   6  18   21.60    5.70
   2  -6  18   28.00    9.60
  -2   6  18   21.20    5.00
  -2   6  18   34.80    4.10
   2   6 -18   38.40    9.10
   2  -6  18   26.70    5.90
  -2  -6  18   23.30    5.60
   2   6  18   36.80    7.80
   2   6  18   33.90    4.70
  -2  -6  18   35.10    4.80
   4  -6  18   30.50    6.90
  -4   6  18   26.70    5.70
   4   6 -18   20.40    7.10
  -4   6  18   37.40    5.30
  -4   6  18   27.70    5.10
   4  -6  18   27.50    6.50
   4  -6  18   36.80    6.90
  -4  -6  18   25.10    6.40
   4   6  18   28.80    6.00
   4   6  18   29.60    6.60
  -4  -6  18   31.60    4.40
  -6   6  18    2.50    3.20
  -6   6  18   10.20    4.00
   6  -6  18    8.90    4.20
  -6   6  18    7.20    2.80
   6  -6  18    2.70    3.40
   6   6 -18    7.20    5.00
  -6  -6  18   10.80    3.30
  -6  -6  18    7.50    3.20
  -6  -6  18   36.70   12.70
  -1   7  18  114.79    9.70
   1  -7  18  109.29   10.20
  -1   7  18  126.49    7.90
   1  -7  18  101.49    9.00
   1   7  18  121.09   10.60
  -1  -7  18  119.29    9.20
   1   7  18  118.89    7.90
  -1  -7  18  107.89   10.20
  -3   7  18   90.89    7.30
   3  -7  18   72.49    7.80
  -3   7  18   92.79    8.30
   3  -7  18   91.39    9.10
  -3   7  18   90.29    7.90
   3  -7  18   81.09    9.20
   3   7 -18   85.29   10.70
  -3  -7  18   85.99    7.90
  -3  -7  18   82.99    9.70
   3   7  18   86.79    7.60
   3   7  18   99.59    9.80
   5  -7  18   59.39    8.10
  -5   7  18   60.69    7.30
   5   7 -18   57.19   11.20
   5  -7  18   53.89    9.40
   5  -7  18   74.79    8.20
  -5   7  18   60.09    7.00
  -5   7  18   62.49    6.90
  -5  -7  18   61.99    6.00
  -5  -7  18   69.69    8.30
  -5  -7  18   61.09    6.40
   5   7  18   64.99    8.60
   5   7  18   60.19    7.10
   0   8  18  256.47   15.70
   0  -8  18  272.77   15.00
   0  -8  18  257.07   16.60
   2  -8  18  132.49   10.50
   2  -8  18  124.39   10.90
  -2   8  18  108.69    8.10
  -2   8  18  131.99   10.00
   2   8 -18  130.59   12.50
  -2   8  18  114.09    8.60
  -2  -8  18  109.29   10.70
  -2  -8  18  126.39    9.70
   2   8  18  124.79    8.60
   2   8  18  137.99   11.30
  -4   8  18  174.58   11.30
   4  -8  18  125.99   10.80
   4   8 -18  150.18   14.50
  -4   8  18  157.78   11.10
  -4   8  18  173.68   11.00
   4  -8  18  150.08   11.60
   4  -8  18  168.98   12.90
  -4  -8  18  161.48   10.80
   4   8  18  156.28   12.90
  -4  -8  18  161.68   13.10
   4   8  18  168.78   11.50
   6  -8  18   81.49    8.20
  -6   8  18   94.49    8.60
  -6   8  18   64.69    7.90
   6  -8  18   69.89    8.80
   6   8 -18   84.29   14.50
   6  -8  18   65.79   10.80
  -6   8  18   92.39    8.00
  -6  -8  18   75.59    7.00
   6   8  18   60.39   10.90
   6   8  18   73.29    8.80
  -6  -8  18   78.69    8.90
  -6  -8  18   75.89    7.80
   1   9 -18   43.20    9.10
  -1   9  18   46.30    6.00
   1  -9  18   37.90    7.70
   1  -9  18   42.30    6.00
   1   9  18   42.30    4.90
  -1  -9  18   32.70    7.90
  -1  -9  18   40.60    5.70
   1   9  18   39.70    8.00
  -3   9  18   53.79    6.40
   3  -9  18   44.40    8.50
   3   9 -18   53.19   11.30
  -3   9  18   49.70    6.20
   3  -9  18   53.49    7.10
  -3   9  18   50.79    5.90
  -3  -9  18   50.49    6.20
  -3  -9  18   50.19    9.00
   3   9  18   55.49    6.30
   3   9  18   66.19    8.00
   5  -9  18    9.30    3.90
   5  -9  18   12.50    5.90
   5   9 -18   14.30   10.50
  -5   9  18   18.30    4.70
  -5   9  18   21.00    4.90
   5  -9  18   22.50    6.50
  -5   9  18   18.00    5.30
  -5  -9  18   17.80    7.10
  -5  -9  18   17.90    4.60
   0 -10  18   18.90    5.40
   0  10  18   15.10    4.10
   0 -10  18    6.10    3.70
   2 -10  18   68.29    8.00
   2 -10  18   93.59   10.40
  -2  10  18   87.99    7.80
   2  10 -18  101.69   11.70
  -2 -10  18   82.09    8.10
   2  10  18   81.89    7.50
  -2 -10  18   84.59    9.50
   2  10  18   81.99    8.90
   4 -10  18    6.30    4.20
   4 -10  18    6.00    4.50
  -4  10  18   12.70    4.00
  -4  10  18   13.60    4.40
  -4  10  18   13.50    3.60
   4 -10  18    7.80    4.40
   4  10 -18   11.20    6.00
   4  10  18   19.30    4.30
  -4 -10  18   18.90    5.50
   4  10  18   15.30    4.40
  -4 -10  18   14.90    4.60
   1 -11  18   73.29    9.60
   1 -11  18   75.29    8.00
  -1  11  18   92.99    8.50
   1  11 -18   73.09    9.70
  -1 -11  18   76.79    8.00
   1  11  18   71.69    7.10
   1  11  18   97.49    9.30
  -1 -11  18   66.79    9.20
   3 -11  18   90.39    9.50
  -3  11  18   91.49    7.70
  -3  11  18  106.99    8.70
   3  11 -18   81.09   10.80
   3 -11  18   78.19   10.40
  -3 -11  18   82.39    8.90
   3  11  18   97.79    9.60
  -3 -11  18   96.59   10.00
   3  11  18   95.69    8.60
  -5  11  18   26.00    5.60
  -5  11  18   31.70    5.90
   5 -11  18   55.99    7.90
   5  11 -18   50.39   11.00
   5 -11  18   29.50    8.10
   5 -11  18   53.39    6.80
  -5  11  18   49.20    5.80
   5  11  18   38.80    7.70
   5  11  18   32.80    6.70
  -5 -11  18   30.90    7.50
  -5 -11  18   38.80    6.50
   0 -12  18   31.40    7.00
   0 -12  18   31.10    6.50
   2 -12  18   62.09    8.80
  -2  12  18   80.19    7.70
   2 -12  18   58.19    7.70
  -2 -12 -18   73.69    7.80
   2  12 -18   71.79    9.20
  -2 -12  18   71.79    8.90
   2  12  18   80.19    7.70
  -2 -12  18   77.99    8.30
   2  12  18   76.69    8.30
  -4  12  18   40.10    5.50
   4 -12  18   29.30    7.10
   4 -12  18   14.40    7.00
   4  12 -18   25.40    9.00
  -4  12  18   19.10    5.30
   4 -12  18   28.30    6.30
  -4 -12  18   20.70    5.20
  -4 -12  18   22.70    6.70
   4  12  18   28.90    7.40
   4  12  18   31.60    6.40
   1  13 -18    8.80    5.30
   1 -13  18    6.80    3.70
  -1  13  18   19.60    5.50
   1 -13  18   11.80    3.90
   1  13  18   15.50    4.90
  -1 -13  18   17.20    4.90
  -1 -13  18   16.90    5.80
  -3  13  18    2.50    3.50
   3 -13  18   16.70    4.60
   3 -13  18   11.30    5.80
   3  13  18    9.00    7.60
  -3 -13  18    2.60    4.90
  -3 -13  18    1.70    7.80
   0 -14  18   65.89    8.40
   0  14  18   86.09    8.50
   0  14 -18   71.89   10.30
   0 -14  18   71.79    9.50
  -2  14  18   32.20    6.50
  -2 -14 -18   25.20    6.50
   2 -14  18   19.00    6.00
   2 -14  18   21.40    8.10
  -2 -14  18   25.90   10.00
   2  14  18   27.60    8.20
  -1  15  18   73.89    8.10
   1 -15  18   77.49    9.40
   1 -15  18  107.09   12.00
  -1 -15 -18   80.99    9.20
  -1 -15  18   73.29    9.70
   1  15  18   66.89    9.50
   0  16 -18   69.59   13.20
   0 -16  18   59.79    8.60
   0 -16  18   62.69    9.10
   0   0  19    3.70    3.00
   0   0  19    5.40    2.10
   2   0  19    3.00    2.60
   2   0  19    1.50    2.00
   2   0  19    2.90    2.50
  -4   0  19   -3.80    2.50
   4   0  19    3.20    3.40
   4   0  19    0.90    2.20
  -4   0  19   -0.80    3.60
   4   0  19    0.10    3.20
   6   0  19    2.90    7.50
  -6   0  19   -1.40    3.60
  -1   1  19   52.49    6.50
   1  -1  19   39.70    8.50
   1  -1  19   34.90    4.90
  -1   1  19   43.20    4.40
   1  -1  19   53.19    6.20
   1   1  19   51.49    7.00
  -1  -1  19   53.49    5.20
  -1  -1  19   40.60    8.20
   1   1  19   47.80    5.70
   1   1  19   41.70    5.10
   3  -1  19   61.59    6.30
  -3   1  19   60.99   10.20
   3  -1  19   55.49    7.30
   3  -1  19   61.99    7.00
  -3  -1  19   63.89    7.40
   3   1  19   44.40    5.50
   3   1  19   59.09    7.70
   3   1  19   68.69    7.10
  -5   1  19   27.60    5.50
   5  -1  19   17.80    5.40
   5  -1  19   20.80    5.80
  -5   1  19   21.40    6.10
   5   1  19   18.10    6.50
  -5  -1  19   21.70    6.10
   5   1  19   19.10    5.10
  -5  -1  19    9.80    4.10
   0  -2  19  406.46   20.20
   0   2  19  421.36   22.10
   0   2  19  396.56   18.30
   0   2  19  428.96   16.50
   0  -2  19  442.96   18.10
   2  -2  19  245.28   14.00
   2  -2  19  236.18   16.10
   2  -2  19  239.28   13.70
  -2   2  19  244.98   14.60
  -2  -2  19  247.98   11.80
   2   2  19  257.17   12.40
   2   2  19  267.67   13.70
   2   2  19  231.48   15.80
  -2  -2  19  215.98   14.70
   4  -2  19  249.28   13.80
   4  -2  19  235.58   15.90
   4  -2  19  245.08   15.00
  -4   2  19  283.47   16.50
  -4   2  19  210.58   11.90
   4   2  19  234.98   14.20
  -4  -2  19  220.98   15.50
   4   2  19  256.37   16.50
  -6   2  19  144.19   10.70
   6  -2  19   95.59   18.60
  -6   2  19  134.89   16.80
  -6  -2  19  127.49   12.20
  -6  -2  19   96.39    9.10
   6   2  19  114.59   12.80
   6   2  19  137.69   11.70
  -1   3  19   88.79    7.60
   1  -3  19   80.29    7.50
  -1   3  19   52.49    7.30
   1  -3  19   89.99    8.60
  -1  -3  19   85.69    6.80
   1   3  19   64.69    6.10
  -1  -3  19   61.39    7.10
   1   3  19   84.99    6.50
   1   3  19   94.49    9.60
   3  -3  19   62.49    7.30
   3  -3  19   47.30    8.70
  -3   3  19   53.49    6.80
  -3   3  19   57.59    5.40
   3  -3  19   66.19    7.10
  -3  -3  19   52.69    5.20
  -3  -3  19   62.79    7.70
   3   3  19   57.49    7.80
   3   3  19   58.99    6.30
  -5   3  19   29.60    6.00
   5  -3  19   23.90    6.00
   5  -3  19   29.00    6.30
   5  -3  19   28.30    6.00
  -5   3  19   17.20    4.90
   5   3  19   24.10    6.20
  -5  -3  19   20.80    4.40
  -5  -3  19   29.00    6.40
   5   3  19   26.60    6.40
   0   4  19   29.90    4.90
   0   4  19   20.50    6.00
   0  -4  19   17.60    5.30
   0   4  19   20.70    3.80
   0  -4  19   17.00    4.10
  -2   4  19   53.19    6.20
  -2   4  19   60.69    7.70
   2  -4  19   71.09    7.50
   2  -4  19   78.79    9.10
   2  -4  19   52.79    9.60
  -2  -4  19   62.69    5.90
  -2  -4  19   50.29    7.20
   2   4  19   67.19    6.40
   2   4  19   59.19    6.90
   4  -4  19   13.30    4.00
   4  -4  19   10.10    4.80
  -4   4  19    8.40    3.20
  -4   4  19    8.30    4.40
   4  -4  19   22.70    5.50
   4   4  19   16.80    4.70
  -4  -4  19   14.20    5.10
   4   4  19   15.80    5.20
  -4  -4  19    5.30    2.90
   6   4 -19   19.80    6.50
  -6   4  19    4.40    5.20
   6  -4  19    8.40    5.40
  -6   4  19   18.00    6.30
   6  -4  19   19.10    6.40
  -6  -4  19   10.20    4.70
  -6  -4  19   20.30    5.70
   6   4  19    9.10    4.60
   6   4  19    9.20    4.00
  -1   5  19  136.39   11.50
   1  -5  19  145.59   11.40
   1  -5  19  128.09    9.70
  -1   5  19  135.79    9.40
   1   5  19  132.09   11.60
  -1  -5  19  122.29   10.80
  -1  -5  19  138.49    9.70
   1   5  19  141.29    8.70
   3  -5  19   77.49    8.70
   3  -5  19  100.29    8.90
  -3   5  19   98.69    9.40
  -3   5  19  104.99    7.40
  -3   5  19  114.59    9.90
   3  -5  19   72.89    8.40
  -3  -5  19   65.09   11.20
  -3  -5  19  101.69    7.70
   3   5  19   90.79    9.60
   3   5  19   87.89    8.00
   5   5 -19   85.69   10.70
   5  -5  19   55.39    8.10
  -5   5  19   71.69    7.90
   5  -5  19   51.79    8.80
   5  -5  19   76.59    8.50
  -5   5  19   63.19    7.20
  -5   5  19   62.39    8.40
   5   5  19   86.39   11.80
  -5  -5  19   80.69    6.90
  -5  -5  19   73.29    9.40
   0  -6  19  121.09    9.20
   0   6  19  114.69   10.50
   0   6  19  102.99    7.30
   0  -6  19  104.69    9.90
   2  -6  19  221.38   13.70
  -2   6  19  231.68   14.70
   2  -6  19  211.68   14.50
  -2   6  19  216.68   12.60
  -2   6  19  214.98   10.60
   2   6  19  236.78   12.60
  -2  -6  19  212.78   12.30
   2   6  19  243.28   15.90
  -2  -6  19  200.18   14.70
  -4   6  19   87.19    8.80
   4   6 -19   86.59   10.80
   4  -6  19   87.89    9.10
   4  -6  19  106.69   10.10
   4  -6  19   97.89    9.40
  -4   6  19   86.49    8.60
   4   6  19   86.49    9.90
  -4  -6  19   89.19    9.80
   4   6  19   89.69    8.50
  -4  -6  19   89.29    7.70
  -1   7  19   12.70    4.40
   1  -7  19    5.50    3.30
   1  -7  19    5.30    3.60
  -1   7  19    0.50    2.60
   1   7  19    0.10    2.60
  -1  -7  19    3.40    3.30
   1   7  19   13.10    3.10
  -1  -7  19    6.00    3.90
  -3   7  19    7.00    3.50
  -3   7  19   15.60    4.10
   3  -7  19   14.00    4.30
   3  -7  19   12.80    4.30
   3  -7  19   11.00    4.40
   3   7 -19   26.20    7.80
  -3  -7  19   12.70    4.00
  -3  -7  19   21.50    6.80
   3   7  19   12.40    4.10
   3   7  19    6.00    3.80
  -5   7  19   14.00    3.90
  -5   7  19   -5.60    3.10
   5  -7  19    4.90    3.60
  -5   7  19    5.60    3.10
   5  -7  19   -3.20    3.80
   5   7 -19   -7.70    4.10
   5  -7  19    4.30    4.30
   5   7  19   11.00    3.20
   5   7  19   11.50    4.70
  -5  -7  19    9.00    5.00
  -5  -7  19   18.50    3.90
   0   8  19   23.70    4.90
   0  -8  19   15.40    5.70
   0  -8  19   11.50    4.00
  -2   8  19   36.30    6.50
   2  -8  19   41.40    7.00
  -2   8  19   28.00    5.00
   2  -8  19   54.39    6.80
  -2   8  19   30.10    5.20
   2   8 -19   35.30    9.30
   2   8  19   39.70    5.20
  -2  -8  19   34.70    6.60
  -2  -8  19   31.90    7.30
   2   8  19   33.10    7.50
  -4   8  19    4.50    3.60
  -4   8  19    4.40    3.10
  -4   8  19    9.00    3.90
   4  -8  19    0.60    4.20
   4   8 -19    9.20    6.00
   4  -8  19   16.00    4.50
   4  -8  19   10.90    3.70
  -4  -8  19    6.10    4.70
   4   8  19   13.80    6.00
  -4  -8  19    5.40    4.20
  -1   9  19   96.89    7.60
   1  -9  19  104.69   10.40
  -1   9  19  113.29    9.80
   1  -9  19   93.89    9.40
   1   9  19  100.19    9.80
  -1  -9  19   76.99    9.60
   1   9  19   83.99    7.10
  -1  -9  19  100.29    8.80
   3  -9  19   78.79    8.90
  -3   9  19   79.69    8.30
   3  -9  19   76.59    9.60
   3   9 -19   90.89   11.30
   3  -9  19   70.49    8.80
  -3   9  19   89.29    7.70
   3   9  19   94.79    9.90
  -3  -9  19   68.49    8.70
  -3  -9  19   76.19    9.10
   3   9  19   93.39   10.00
   0 -10  19  138.89   10.80
   0  10  19  156.68   12.20
   0 -10  19  141.49   12.30
   2 -10  19  124.29   12.60
  -2  10  19  140.29    9.60
   2  10 -19  171.28   15.20
  -2  10  19  169.18   11.70
  -2  10  19  138.39    9.90
   2 -10  19  154.18   12.30
   2  10  19  154.88   10.50
  -2 -10  19  158.18   13.40
   2  10  19  164.28   13.10
  -2 -10  19  153.28   11.40
   4 -10  19   82.69    9.20
   4 -10  19   68.79   11.50
  -4  10  19   97.29    8.80
   4  10 -19  122.49   12.80
  -4  10  19   96.49    8.40
   4 -10  19   85.89   11.50
  -4  10  19  107.89    8.90
   4  10  19  117.89   11.10
  -4 -10  19   65.59    9.30
  -4 -10  19   97.79    8.60
   4  10  19  108.89    9.20
   1 -11  19    0.60    3.00
  -1  11  19   -2.90    2.30
   1 -11  19   -5.30    3.20
   1  11  19    1.80    2.80
  -1 -11  19    6.30    4.20
  -1 -11  19   -4.70    2.10
   1  11  19    6.50    3.70
  -3  11  19   -0.50    3.10
  -3  11  19    4.10    3.50
   3 -11  19   -2.90    3.20
   3 -11  19   -1.30    4.80
   3  11 -19    4.00    4.80
   3  11  19   -1.40    3.40
  -3 -11  19    3.50    3.10
   3  11  19    4.00    3.20
  -3 -11  19    1.50    4.50
   0 -12  19   19.20    5.10
   0 -12  19   21.60    6.00
   0  12  19   23.90    5.50
   2 -12  19   19.30    6.10
  -2  12  19   19.10    5.70
   2 -12  19   20.60    6.20
   2  12 -19   14.60    8.90
   2  12  19   19.80    4.70
  -2 -12  19   19.30    4.80
   1  13 -19  136.39   16.80
  -1  13  19  123.99   10.40
  -1 -13  19  100.29   10.30
  -1 -13  19  134.49   13.20
   0 -14  19   38.90    7.80
   0 -14  19   36.30    8.20
   0   0  20  239.98   12.30
   0   0  20  246.58   14.40
   0   0  20  223.08   15.90
   2   0  20  457.85   20.00
  -2   0  20  479.45   22.70
   2   0  20  518.55   25.20
   2   0  20  519.85   21.30
   4   0  20  192.68   14.30
  -4   0  20  158.58   12.80
   4   0  20  187.88   13.60
   1  -1  20   34.50    4.70
  -1   1  20   27.70    3.80
   1  -1  20   31.30    7.80
   1  -1  20   16.00    5.10
  -1  -1  20   26.00    4.60
   1   1  20   14.20    4.30
   1   1  20   26.80    6.80
  -1  -1  20   27.70    6.20
   1   1  20   23.60    5.00
   3  -1  20    5.60    4.80
   3  -1  20   15.00    4.40
   3  -1  20   13.40    4.40
  -3   1  20   20.30    5.40
  -3  -1  20   14.40    4.00
   3   1  20   16.50    3.50
   3   1  20   14.90    5.10
   3   1  20   15.80    4.20
   5  -1  20   22.90    8.90
  -5   1  20   30.20    6.70
   5  -1  20   20.80    6.10
   5   1  20   20.80    5.40
  -5  -1  20   16.70    6.60
   5   1  20   29.60    7.10
   0  -2  20   33.60    6.00
   0   2  20   22.30    5.30
   0  -2  20   23.40    5.50
   0   2  20   25.50    6.40
   0   2  20   32.60    4.40
  -2   2  20   -2.40    2.50
   2  -2  20   -0.40    2.10
   2  -2  20    1.80    2.10
   2  -2  20    7.60    3.90
   2   2  20    8.90    2.90
   2   2  20   -1.80    3.00
  -2  -2  20   -1.10    1.90
   2   2  20   -2.30    3.00
  -2  -2  20    1.50    3.20
   4  -2  20    5.80    7.90
   4  -2  20    4.60    3.60
   4  -2  20   15.10    5.00
  -4   2  20   14.60    4.40
  -4  -2  20   18.10    4.20
   4   2  20    7.70    4.10
  -1   3  20   22.20    5.60
  -1   3  20   25.70    6.80
   1  -3  20   20.80    5.00
   1  -3  20   20.70    6.00
   1   3  20   32.00    4.30
  -1  -3  20   20.50    5.60
   1   3  20   11.30    3.90
   1   3  20   17.70    4.70
  -1  -3  20   20.80    4.40
   3  -3  20    9.60    5.30
   3  -3  20   24.90    5.60
  -3   3  20   12.00    4.20
   3  -3  20   15.90    4.80
  -3  -3  20    9.80    5.20
  -3  -3  20   27.20    5.20
   3   3  20   21.00    5.50
   3   3  20   21.80    4.90
  -5   3  20    9.80    5.40
  -5   3  20   14.30    4.80
   5  -3  20   21.80    5.50
   5  -3  20   24.90    5.50
   5  -3  20   22.50    5.80
   5   3  20   23.20    5.20
  -5  -3  20   24.20    6.60
   0   4  20   89.69    6.40
   0  -4  20   81.09    7.40
   0   4  20   83.49    7.20
   0   4  20   85.19    9.20
   0  -4  20   71.89    8.50
   2  -4  20   41.10    8.30
  -2   4  20   41.10    8.10
  -2   4  20   40.90    8.00
   2  -4  20   30.70    7.70
   2  -4  20   34.90    6.50
  -2  -4  20   29.90    8.00
   2   4  20   40.50    7.40
   2   4  20   39.10    4.80
  -2  -4  20   43.80    5.10
  -4   4  20   54.59    7.40
   4  -4  20   57.99    7.30
   4  -4  20   53.79    7.70
  -4   4  20   58.19    9.80
  -4   4  20   55.39    7.20
   4   4  20   50.89    8.70
  -4  -4  20   60.59   10.60
  -1   5  20   19.50    5.20
   1  -5  20   27.40    5.40
   1  -5  20   13.80    4.70
  -1   5  20   16.50    4.90
   1   5  20   26.40    4.40
  -1  -5  20   19.90    5.00
  -1  -5  20   21.90    4.40
   1   5  20   31.50    7.70
   3  -5  20   35.60    7.20
   3  -5  20   29.90    6.60
   3  -5  20   26.90    7.00
  -3   5  20   22.30    5.50
  -3   5  20   23.10    8.00
  -3   5  20   27.00    7.70
   3   5  20   31.50    7.30
   3   5  20   29.30    6.30
  -3  -5  20   50.19    7.30
  -3  -5  20   21.80    5.60
   0   6  20   16.30    4.50
   0  -6  20   29.10    5.40
   0   6  20   10.80    3.30
   0  -6  20   21.90    5.30
  -2   6  20   11.60    3.80
   2  -6  20    3.00    3.40
  -2   6  20   19.20    4.60
   2  -6  20    6.40    5.00
   2  -6  20    5.20    4.60
  -2  -6  20   12.50    4.20
  -2  -6  20    6.00    2.80
   2   6  20    1.90    2.60
   2   6  20    3.40    2.70
  -4   6  20   10.90    4.80
  -4   6  20    5.20    3.80
   4  -6  20    4.00    3.70
   4  -6  20   16.10    5.30
   4  -6  20   -1.60    4.30
  -4   6  20    1.40    4.20
  -4  -6  20    7.30    2.80
   4   6  20    9.40    4.10
   4   6  20   11.30    4.30
   1  -7  20  104.49   10.10
   1  -7  20  110.59    9.70
  -1   7  20   89.59    7.40
  -1   7  20  132.19   10.80
   1   7  20  115.09    7.90
  -1  -7  20  108.69   11.20
  -1  -7  20  114.09    9.40
   1   7  20  119.09   10.60
   3  -7  20   74.99    9.70
  -3   7  20   68.49    7.50
  -3   7  20  105.19    8.30
  -3   7  20   92.99    9.10
   3  -7  20   84.89   10.70
   3  -7  20   86.79   10.10
  -3  -7  20   88.89    7.90
   3   7  20   89.19    8.50
  -3  -7  20   84.79   10.30
   0  -8  20  124.89   11.50
   0  -8  20  113.59    9.70
   0   8  20  129.19   11.10
   2  -8  20   44.10    8.20
  -2   8  20   38.30    7.60
  -2   8  20   37.60    5.80
   2  -8  20   33.90    8.20
   2   8  20   30.90    7.90
  -2  -8  20   24.10    7.40
   2   8  20   35.40    7.80
  -4   8  20   75.09    7.80
  -4   8  20   50.29    7.10
   4  -8  20   65.49    8.50
  -4   8  20   58.79    9.40
   4  -8  20   52.89   11.10
   4   8 -20   78.79   11.10
   4  -8  20   66.09   10.20
  -4  -8  20   87.09    9.90
   4   8  20   76.19    7.60
  -4  -8  20   63.39    7.00
   4   8  20   62.79    8.40
   1  -9  20   14.10    5.80
   1  -9  20    7.60    4.70
  -1   9  20   23.40    5.70
   1   9  20   19.10    6.20
  -1  -9  20   12.80    5.90
   3   9 -20   12.30    5.20
   3  -9  20   -0.70    4.50
   3  -9  20    4.70    5.40
  -3   9  20    7.00    3.60
   3  -9  20    5.20    3.50
  -3  -9  20   13.00    3.40
   3   9  20    0.20    3.10
   3   9  20    5.30    2.90
  -3  -9  20   10.20    4.20
   0  10  20   -1.70    3.00
   0 -10  20   18.30    5.40
   0 -10  20    2.70    4.10
  -2  10  20   15.50    4.30
   2 -10  20   25.10    6.10
  -2  10  20   15.90    5.80
   2 -10  20    9.40    5.30
  -2 -10  20   39.50   12.70
   2  10  20   24.50    5.40
   2  10  20   27.60    4.70
  -2 -10  20   25.80    5.80
  -1  11  20   26.50    6.20
   1 -11  20   46.40    8.10
  -1 -11  20   49.20   10.40
  -1 -11  20   43.80    7.90
   1  11  20   62.99    8.00
   0  12  20   78.79    8.10
   0 -12  20   54.29    9.50
   0 -12  20   78.39    9.60
   0   0  21    4.50    3.20
   0   0  21   -1.20    2.20
   0   0  21    8.90    3.60
   2   0  21    0.00    3.90
  -2   0  21   10.00    3.80
   4   0  21    3.70    3.10
   4   0  21    1.60    3.10
  -4   0  21    0.10    3.60
   1  -1  21   10.30    4.60
   1  -1  21   10.60    3.80
  -1   1  21   12.90    4.70
   1  -1  21   14.90    4.10
  -1   1  21   19.40    3.90
   1   1  21   15.80    4.80
  -1  -1  21    8.60    3.10
  -1  -1  21   15.50    3.90
   1   1  21    9.30    5.10
   1   1  21   19.30    4.20
   3  -1  21   20.70    5.30
   3  -1  21   32.50    6.50
  -3   1  21   16.00    5.70
   3   1  21    6.20    7.50
   3   1  21   17.50    4.80
  -3  -1  21    7.80    5.20
   0   2  21  123.69    8.20
   0   2  21  110.69   10.80
   0  -2  21  118.49    8.90
   0  -2  21  120.89   10.30
   0   2  21  105.39   10.70
   2  -2  21   68.79    8.50
  -2   2  21   77.29    9.30
  -2   2  21   76.89    8.10
   2  -2  21   71.49    7.70
   2   2  21   67.99   13.30
   2   2  21   77.89    9.30
  -2  -2  21   70.69    8.40
   4  -2  21   80.79    8.40
  -4   2  21   81.49    8.90
   4  -2  21   62.59    8.20
   4   2  21   68.29    8.80
   4   2  21   67.29    7.90
   1  -3  21   49.20    6.90
  -1   3  21   45.10    5.90
   1  -3  21   60.59    8.30
  -1   3  21   48.60    8.40
   1  -3  21   64.09   12.50
   1   3  21   61.69    8.20
  -1  -3  21   55.69    7.50
   1   3  21   59.89    6.40
  -3   3  21   46.10    8.50
   3  -3  21   45.90   13.10
  -3   3  21   57.39   12.10
   3  -3  21   62.49    7.90
   3  -3  21   67.49    7.50
   3   3  21   58.49    7.70
  -3  -3  21   70.89    8.70
  -3  -3  21   52.29    5.50
   3   3  21   44.70    6.40
   0  -4  21   20.50    5.70
   0   4  21   17.90    5.80
   2  -4  21   65.79    8.00
   2  -4  21   36.50    9.80
  -2   4  21   36.70    6.10
   2  -4  21   48.00    8.20
  -2   4  21   35.30    8.20
   2   4  21   43.50    5.60
   2   4  21   43.30   13.40
  -2  -4  21   44.80    5.40
   1  -5  21   74.69    9.60
   1  -5  21  103.19   10.10
  -1   5  21   91.39   10.00
  -1   5  21   85.79    8.00
  -1  -5  21   64.09    8.80
   1   5  21   88.99    8.00
  -1  -5  21   84.29    8.90
   1   5  21   76.89    9.90
  -3   5  21   38.30    7.20
   3  -5  21   29.40    6.30
   3  -5  21   31.10    7.10
   3  -5  21   44.60    8.00
   3   5  21   38.00    8.50
  -3  -5  21   42.60    5.10
   3   5  21   51.39    6.50
  -3  -5  21   51.19   16.10
   0  -6  21   48.70    9.30
   0   6  21   31.20    9.10
   0  -6  21   36.90    7.00
   2  -6  21   50.29   12.90
  -2   6  21   57.79   10.90
   2  -6  21   34.80    8.40
   2  -6  21   66.19    7.60
  -2   6  21   45.50    6.40
   2   6  21   62.79    8.30
  -2  -6  21   58.89   10.00
  -2  -6  21   67.19    6.50
   2   6  21   59.49    6.30
   1  -7  21    8.30    5.20
   1  -7  21   28.30    6.00
  -1   7  21   15.80    6.40
   1   7  21   26.30    6.50
  -1  -7  21   29.80    5.80
   1   7  21   18.60    4.20
  -1  -7  21   20.60    7.40
   0  -8  21    1.20    5.10
   0  -8  21    3.60    3.50
   0   8  21    0.10    3.60
   2  -8  21    8.60    4.30
   2  -8  21   12.00    5.00
   2  -8  21   10.80    4.30
  -2  -8  21    9.10    4.80
   2   8  21   -1.10    2.70
   2   8  21    5.70    4.10
  -2  -8  21    3.50    4.20
   1  -9  21   84.29    9.00
  -1   9  21   83.19    8.40
  -1  -9  21   70.59    7.70
  -1  -9  21   74.39    9.50
   1   9  21   63.59    8.20
   0   0  22    5.60    4.70
   0   0  22   -1.00    4.00
   0   0  22   10.20    3.20
   2   0  22   51.49    6.60
   2   0  22   45.30    9.20
  -2   0  22   61.19    6.80
  -1   1  22   29.30    7.10
   1  -1  22   57.49    6.20
   1  -1  22   38.00    8.70
   1  -1  22   31.10    5.90
  -1   1  22   48.30    9.00
  -1  -1  22   42.30    8.30
   1   1  22   40.50    5.50
  -1  -1  22   46.40    5.20
  -1  -1  22   31.40    6.70
   1   1  22   35.40    7.20
   1   1  22   48.30    9.50
   0   2  22   29.20    5.00
   0  -2  22   31.10    6.10
   0   2  22   37.20    7.70
   0   2  22   32.50    4.50
   0  -2  22   22.80    6.70
   0  -2  22   31.70    7.20
  -2   2  22   -5.70    3.90
  -2   2  22    3.30    3.90
   2  -2  22    6.00    3.00
   2  -2  22   -2.70    3.70
   2  -2  22    5.10    4.00
   2   2  22    0.70    3.40
   2   2  22   -3.20    2.70
  -2  -2  22    3.70    3.90
   1  -3  22   86.29   10.60
  -1   3  22   75.79    9.10
  -1   3  22   87.79   10.00
   1  -3  22  101.59    8.60
  -1  -3  22  100.59    7.90
   1   3  22  100.69   10.40
  -1  -3  22   75.59    9.10
   1   3  22   89.89    7.10
   0   4  22   78.49    9.10
   0  -4  22   78.59    7.70
   0  -4  22   69.59    9.00
   0   0   0    0.00    0.00

_computing_structure_solution     'SHELXT 2014/5 (Sheldrick, 2014)'
;
_shelx_hkl_checksum              49932
_olex2_submission_special_instructions 'No special instructions were received'
loop_
_space_group_symop_operation_xyz
'x, y, z'
'-x, -y, z+1/2'
'x, -y, z+1/2'
'-x, y, z'
'x+1/2, y+1/2, z'
'-x+1/2, -y+1/2, z+1/2'
'x+1/2, -y+1/2, z+1/2'
'-x+1/2, y+1/2, z'
loop_
_atom_site_label
_atom_site_type_symbol
_atom_site_fract_x
_atom_site_fract_y
_atom_site_fract_z
_atom_site_U_iso_or_equiv
_atom_site_adp_type
_atom_site_occupancy
_atom_site_site_symmetry_order
_atom_site_calc_flag
_atom_site_refinement_flags_posn
_atom_site_refinement_flags_adp
_atom_site_refinement_flags_occupancy
_atom_site_disorder_assembly
_atom_site_disorder_group
Ce1 Ce 0.5000 0.63159(3) 0.33901(5) 0.01383(13) Uani 1 2 d S T P . .
Cs1 Cs 0.5000 0.11023(6) 0.49383(7) 0.0350(2) Uani 1 2 d S T P . .
Cs2 Cs 0.5000 0.22173(8) 0.18995(8) 0.0488(3) Uani 1 2 d S T P . .
Si2 Si 0.5000 0.5465(2) 0.5920(3) 0.0146(6) Uani 1 2 d S T P . .
Si3 Si 0.5000 0.35679(18) 0.5707(2) 0.0109(6) Uani 1 2 d S T P . .
Si1 Si 0.7826(4) 0.54257(15) 0.76366(19) 0.0224(5) Uani 1 1 d . . . . .
Si4 Si 0.2056(3) 0.31547(15) 0.4153(2) 0.0217(5) Uani 1 1 d . . . . .
O8 O 0.0000 0.3385(6) 0.4524(7) 0.026(2) Uani 1 2 d S T P . .
O10 O 0.2168(9) 0.2263(4) 0.3685(5) 0.0267(16) Uani 1 1 d . . . . .
O5 O 0.5000 0.4544(6) 0.5560(9) 0.052(4) Uani 1 2 d S T P . .
O9 O 0.2753(9) 0.3838(4) 0.3375(7) 0.0352(15) Uani 1 1 d . . . . .
O4 O 0.5000 0.6067(7) 0.5008(8) 0.038(3) Uani 1 2 d S T P . .
O3 O 0.6799(12) 0.5612(6) 0.6590(6) 0.048(2) Uani 1 1 d . . . . .
O2 O 1.0000 0.5494(6) 0.7387(7) 0.027(2) Uani 1 2 d S T P . .
O6 O 0.5000 0.3292(6) 0.6829(7) 0.033(2) Uani 1 2 d S T P . .
O1 O 0.7271(13) 0.4554(4) 0.8085(5) 0.041(2) Uani 1 1 d . . . . .
O7 O 0.3259(14) 0.3191(6) 0.5160(7) 0.059(3) Uani 1 1 d . U . . .
loop_
_atom_site_aniso_label
_atom_site_aniso_U_11
_atom_site_aniso_U_22
_atom_site_aniso_U_33
_atom_site_aniso_U_23
_atom_site_aniso_U_13
_atom_site_aniso_U_12
Ce1 0.0236(3) 0.0090(2) 0.0089(3) -0.0009(3) 0.000 0.000
Cs1 0.0317(5) 0.0446(5) 0.0287(5) 0.0108(4) 0.000 0.000
Cs2 0.0552(6) 0.0698(8) 0.0213(5) -0.0093(5) 0.000 0.000
Si2 0.0232(15) 0.0120(14) 0.0085(15) 0.0016(11) 0.000 0.000
Si3 0.0102(13) 0.0122(13) 0.0104(15) -0.0016(11) 0.000 0.000
Si1 0.0315(12) 0.0182(11) 0.0176(12) 0.0012(9) -0.0020(11) -0.0144(10)
Si4 0.0181(12) 0.0207(12) 0.0262(13) 0.0026(9) -0.0134(10) -0.0070(10)
O8 0.029(5) 0.030(5) 0.021(5) -0.013(4) 0.000 0.000
O10 0.016(3) 0.020(3) 0.044(4) 0.001(2) -0.001(3) 0.001(2)
O5 0.109(11) 0.010(5) 0.035(7) 0.004(4) 0.000 0.000
O9 0.029(3) 0.029(3) 0.048(4) 0.016(4) -0.007(4) -0.011(3)
O4 0.074(8) 0.032(5) 0.009(4) 0.009(4) 0.000 0.000
O3 0.045(5) 0.064(5) 0.034(5) 0.020(4) -0.023(4) -0.037(4)
O2 0.031(5) 0.024(5) 0.025(5) 0.007(4) 0.000 0.000
O6 0.065(7) 0.024(5) 0.009(4) -0.005(4) 0.000 0.000
O1 0.068(6) 0.023(3) 0.032(4) 0.004(3) 0.006(4) -0.028(4)
O7 0.062(5) 0.059(5) 0.055(5) 0.015(4) -0.037(4) -0.031(4)
loop_
_atom_type_symbol
_atom_type_description
_atom_type_scat_dispersion_real
_atom_type_scat_dispersion_imag
_atom_type_scat_source
Ce Ce -0.2486 2.6331 'International Tables Vol C Tables 4.2.6.8 and 6.1.1.4'
Cs Cs -0.3680 2.1192 'International Tables Vol C Tables 4.2.6.8 and 6.1.1.4'
O O 0.0106 0.0060 'International Tables Vol C Tables 4.2.6.8 and 6.1.1.4'
Si Si 0.0817 0.0704 'International Tables Vol C Tables 4.2.6.8 and 6.1.1.4'
loop_
_geom_angle_atom_site_label_1
_geom_angle_atom_site_label_2
_geom_angle_atom_site_label_3
_geom_angle
_geom_angle_site_symmetry_1
_geom_angle_site_symmetry_3
_geom_angle_publ_flag
Cs1 Ce1 Cs1 119.67(3) 5 5_455 ?
Cs1 Ce1 Cs2 165.26(3) 5_455 5 ?
Cs1 Ce1 Cs2 165.26(3) 5 5_455 ?
Cs1 Ce1 Cs2 62.594(16) 5 5 ?
Cs1 Ce1 Cs2 62.594(16) 5_455 5_455 ?
Cs2 Ce1 Cs2 111.27(3) 5_455 5 ?
Si4 Ce1 Cs1 107.13(5) 5 5_455 ?
Si4 Ce1 Cs1 63.64(4) 8 5_455 ?
Si4 Ce1 Cs1 63.64(4) 5 5 ?
Si4 Ce1 Cs1 107.13(5) 8 5 ?
Si4 Ce1 Cs2 101.61(4) 8 5 ?
Si4 Ce1 Cs2 59.75(5) 8 5_455 ?
Si4 Ce1 Cs2 59.75(5) 5 5 ?
Si4 Ce1 Cs2 101.61(4) 5 5_455 ?
Si4 Ce1 Si4 50.57(9) 5 8 ?
O10 Ce1 Cs1 125.28(18) 8 5 ?
O10 Ce1 Cs1 125.28(18) 5 5_455 ?
O10 Ce1 Cs1 50.27(16) 5 5 ?
O10 Ce1 Cs1 50.27(16) 8 5_455 ?
O10 Ce1 Cs2 115.61(16) 8 5 ?
O10 Ce1 Cs2 115.61(16) 5 5_455 ?
O10 Ce1 Cs2 43.16(18) 8 5_455 ?
O10 Ce1 Cs2 43.16(18) 5 5 ?
O10 Ce1 Si4 70.13(17) 5 8 ?
O10 Ce1 Si4 19.78(17) 8 8 ?
O10 Ce1 Si4 70.13(17) 8 5 ?
O10 Ce1 Si4 19.78(17) 5 5 ?
O10 Ce1 O10 89.4(3) 5 8 ?
O4 Ce1 Cs1 59.840(14) . 5_455 ?
O4 Ce1 Cs1 59.840(14) . 5 ?
O4 Ce1 Cs2 120.59(8) . 5 ?
O4 Ce1 Cs2 120.59(8) . 5_455 ?
O4 Ce1 Si4 82.4(3) . 5 ?
O4 Ce1 Si4 82.4(3) . 8 ?
O4 Ce1 O10 87.2(3) . 5 ?
O4 Ce1 O10 87.2(3) . 8 ?
O6 Ce1 Cs1 119.89(2) 2_664 5_455 ?
O6 Ce1 Cs1 119.89(2) 2_664 5 ?
O6 Ce1 Cs2 57.81(6) 2_664 5 ?
O6 Ce1 Cs2 57.81(6) 2_664 5_455 ?
O6 Ce1 Si4 91.9(2) 2_664 8 ?
O6 Ce1 Si4 91.9(2) 2_664 5 ?
O6 Ce1 O10 88.3(3) 2_664 8 ?
O6 Ce1 O10 88.3(3) 2_664 5 ?
O6 Ce1 O4 173.7(4) 2_664 . ?
O6 Ce1 O1 90.5(3) 2_664 3_564 ?
O6 Ce1 O1 90.5(3) 2_664 2_664 ?
O1 Ce1 Cs1 133.2(2) 2_664 5 ?
O1 Ce1 Cs1 52.7(2) 3_564 5 ?
O1 Ce1 Cs1 133.2(2) 3_564 5_455 ?
O1 Ce1 Cs1 52.7(2) 2_664 5_455 ?
O1 Ce1 Cs2 60.8(2) 3_564 5 ?
O1 Ce1 Cs2 138.1(2) 2_664 5 ?
O1 Ce1 Cs2 60.8(2) 2_664 5_455 ?
O1 Ce1 Cs2 138.1(2) 3_564 5_455 ?
O1 Ce1 Si4 156.9(2) 2_664 5 ?
O1 Ce1 Si4 106.4(2) 2_664 8 ?
O1 Ce1 Si4 156.9(2) 3_564 8 ?
O1 Ce1 Si4 106.4(2) 3_564 5 ?
O1 Ce1 O10 87.0(3) 2_664 8 ?
O1 Ce1 O10 176.3(3) 2_664 5 ?
O1 Ce1 O10 176.3(3) 3_564 8 ?
O1 Ce1 O10 87.0(3) 3_564 5 ?
O1 Ce1 O4 93.8(3) 3_564 . ?
O1 Ce1 O4 93.8(3) 2_664 . ?
O1 Ce1 O1 96.5(5) 2_664 3_564 ?
O10 Cs1 Si2 153.25(13) . 5_545 ?
O10 Cs1 Si2 75.40(12) 4_655 5_545 ?
O10 Cs1 O10 78.2(2) . 4_655 ?
O10 Cs1 O4 130.7(2) 4_655 5_445 ?
O10 Cs1 O4 52.6(2) . 5_445 ?
O10 Cs1 O4 130.7(2) . 5_545 ?
O10 Cs1 O4 52.55(19) 4_655 5_545 ?
O10 Cs1 O3 158.2(2) . 8_645 ?
O10 Cs1 O3 92.48(19) . 5_445 ?
O10 Cs1 O3 158.2(2) 4_655 5_445 ?
O10 Cs1 O3 92.48(19) 4_655 8_645 ?
O10 Cs1 O2 131.43(15) . 5_445 ?
O10 Cs1 O2 131.43(15) 4_655 5_445 ?
O10 Cs1 O1 99.93(19) . 6_654 ?
O10 Cs1 O1 99.93(18) 4_655 7_454 ?
O10 Cs1 O1 55.10(16) 4_655 6_654 ?
O10 Cs1 O1 55.10(16) . 7_454 ?
O10 Cs1 O7 73.81(19) 4_655 . ?
O10 Cs1 O7 73.81(19) . 4_655 ?
O10 Cs1 O7 44.14(17) . . ?
O10 Cs1 O7 44.14(17) 4_655 4_655 ?
O4 Cs1 Si2 23.09(16) 5_545 5_545 ?
O4 Cs1 Si2 153.49(17) 5_445 5_545 ?
O4 Cs1 O4 176.6(3) 5_545 5_445 ?
O4 Cs1 O7 70.4(2) 5_545 4_655 ?
O4 Cs1 O7 70.4(2) 5_445 . ?
O4 Cs1 O7 111.1(2) 5_445 4_655 ?
O4 Cs1 O7 111.1(2) 5_545 . ?
O3 Cs1 Si2 22.97(13) 8_645 5_545 ?
O3 Cs1 Si2 110.71(15) 5_445 5_545 ?
O3 Cs1 O4 43.7(2) 5_445 5_445 ?
O3 Cs1 O4 132.9(2) 8_645 5_445 ?
O3 Cs1 O4 43.7(2) 8_645 5_545 ?
O3 Cs1 O4 132.9(2) 5_445 5_545 ?
O3 Cs1 O3 89.2(3) 8_645 5_445 ?
O3 Cs1 O2 44.66(13) 5_445 5_445 ?
O3 Cs1 O2 44.66(13) 8_645 5_445 ?
O3 Cs1 O1 90.39(19) 5_445 7_454 ?
O3 Cs1 O1 146.65(19) 5_445 6_654 ?
O3 Cs1 O1 146.65(19) 8_645 7_454 ?
O3 Cs1 O1 90.39(19) 8_645 6_654 ?
O3 Cs1 O7 114.5(2) 5_445 4_655 ?
O3 Cs1 O7 85.7(2) 8_645 4_655 ?
O3 Cs1 O7 85.7(2) 5_445 . ?
O3 Cs1 O7 114.5(2) 8_645 . ?
O2 Cs1 Si2 67.01(5) 5_445 5_545 ?
O2 Cs1 O4 88.33(16) 5_445 5_545 ?
O2 Cs1 O4 88.33(16) 5_445 5_445 ?
O2 Cs1 O7 101.0(2) 5_445 4_655 ?
O2 Cs1 O7 101.0(2) 5_445 . ?
O1 Cs1 Si2 134.31(13) 7_454 5_545 ?
O1 Cs1 Si2 68.09(15) 6_654 5_545 ?
O1 Cs1 O4 127.2(2) 7_454 5_545 ?
O1 Cs1 O4 54.8(2) 6_654 5_545 ?
O1 Cs1 O4 54.8(2) 7_454 5_445 ?
O1 Cs1 O4 127.2(2) 6_654 5_445 ?
O1 Cs1 O2 128.27(18) 7_454 5_445 ?
O1 Cs1 O2 128.27(17) 6_654 5_445 ?
O1 Cs1 O1 72.3(3) 7_454 6_654 ?
O1 Cs1 O7 98.74(17) 6_654 4_655 ?
O1 Cs1 O7 124.2(2) 6_654 . ?
O1 Cs1 O7 98.74(17) 7_454 . ?
O1 Cs1 O7 124.2(2) 7_454 4_655 ?
O7 Cs1 Si2 122.04(14) . 5_545 ?
O7 Cs1 Si2 84.20(16) 4_655 5_545 ?
O7 Cs1 O7 40.7(3) 4_655 . ?
O8 Cs2 O9 136.50(18) 6_554 4_655 ?
O8 Cs2 O9 136.50(18) 6_554 . ?
O8 Cs2 O4 64.7(2) 6_554 2_664 ?
O8 Cs2 O3 99.68(19) 6_554 2_664 ?
O8 Cs2 O3 99.68(19) 6_554 3_564 ?
O8 Cs2 O6 84.86(15) 6_554 6_554 ?
O8 Cs2 O6 84.86(15) 6_554 6_654 ?
O8 Cs2 O7 44.23(14) 6_554 7_554 ?
O8 Cs2 O7 44.23(14) 6_554 6_554 ?
O10 Cs2 O8 137.12(13) 4_655 6_554 ?
O10 Cs2 O8 137.12(13) . 6_554 ?
O10 Cs2 O10 81.2(2) 4_655 . ?
O10 Cs2 O9 44.39(16) 4_655 4_655 ?
O10 Cs2 O9 44.39(16) . . ?
O10 Cs2 O9 82.08(17) 4_655 . ?
O10 Cs2 O9 82.08(17) . 4_655 ?
O10 Cs2 O4 119.61(16) 4_655 2_664 ?
O10 Cs2 O4 119.62(16) . 2_664 ?
O10 Cs2 O3 106.61(17) . 3_564 ?
O10 Cs2 O3 106.61(17) 4_655 2_664 ?
O10 Cs2 O3 80.63(16) . 2_664 ?
O10 Cs2 O3 80.63(16) 4_655 3_564 ?
O10 Cs2 O6 52.46(18) . 6_554 ?
O10 Cs2 O6 52.46(18) 4_655 6_654 ?
O10 Cs2 O6 131.19(19) 4_655 6_554 ?
O10 Cs2 O6 131.19(19) . 6_654 ?
O10 Cs2 O7 94.27(18) 4_655 7_554 ?
O10 Cs2 O7 94.27(18) . 6_554 ?
O10 Cs2 O7 169.0(2) . 7_554 ?
O10 Cs2 O7 169.0(2) 4_655 6_554 ?
O9 Cs2 O9 52.6(2) 4_655 . ?
O9 Cs2 O4 80.46(19) . 2_664 ?
O9 Cs2 O4 80.46(19) 4_655 2_664 ?
O9 Cs2 O3 62.92(16) . 3_564 ?
O9 Cs2 O3 62.92(16) 4_655 2_664 ?
O9 Cs2 O3 40.44(17) . 2_664 ?
O9 Cs2 O3 40.44(17) 4_655 3_564 ?
O9 Cs2 O6 74.98(17) 4_655 6_654 ?
O9 Cs2 O6 127.24(18) . 6_654 ?
O9 Cs2 O6 74.98(17) . 6_554 ?
O9 Cs2 O6 127.24(18) 4_655 6_554 ?
O4 Cs2 O3 40.29(17) 2_664 2_664 ?
O4 Cs2 O3 40.29(17) 2_664 3_564 ?
O3 Cs2 O3 40.4(2) 3_564 2_664 ?
O6 Cs2 O4 98.46(14) 6_554 2_664 ?
O6 Cs2 O4 98.46(14) 6_654 2_664 ?
O6 Cs2 O3 122.73(18) 6_554 3_564 ?
O6 Cs2 O3 122.73(18) 6_654 2_664 ?
O6 Cs2 O3 82.43(18) 6_554 2_664 ?
O6 Cs2 O3 82.43(18) 6_654 3_564 ?
O6 Cs2 O6 154.1(3) 6_554 6_654 ?
O7 Cs2 O9 145.2(2) 6_554 4_655 ?
O7 Cs2 O9 101.7(2) 7_554 4_655 ?
O7 Cs2 O9 101.7(2) 6_554 . ?
O7 Cs2 O9 145.2(2) 7_554 . ?
O7 Cs2 O4 71.32(18) 7_554 2_664 ?
O7 Cs2 O4 71.32(18) 6_554 2_664 ?
O7 Cs2 O3 82.3(2) 6_554 2_664 ?
O7 Cs2 O3 110.30(19) 7_554 2_664 ?
O7 Cs2 O3 82.3(2) 7_554 3_564 ?
O7 Cs2 O3 110.30(19) 6_554 3_564 ?
O7 Cs2 O6 42.2(2) 6_554 6_554 ?
O7 Cs2 O6 128.2(2) 7_554 6_554 ?
O7 Cs2 O6 128.2(2) 6_554 6_654 ?
O7 Cs2 O6 42.2(2) 7_554 6_654 ?
O7 Cs2 O7 88.4(3) 6_554 7_554 ?
Cs1 Si2 Cs1 130.40(9) 5_455 5 ?
Cs2 Si2 Cs1 82.21(5) 2_665 5_455 ?
Cs2 Si2 Cs1 82.21(5) 2_665 5 ?
O5 Si2 Cs1 98.32(19) . 5_455 ?
O5 Si2 Cs1 98.32(19) . 5 ?
O5 Si2 Cs2 178.7(5) . 2_665 ?
O5 Si2 O3 108.3(5) . 4_655 ?
O5 Si2 O3 108.3(5) . . ?
O4 Si2 Cs1 65.20(5) . 5_455 ?
O4 Si2 Cs1 65.20(5) . 5 ?
O4 Si2 Cs2 70.7(4) . 2_665 ?
O4 Si2 O5 110.7(6) . . ?
O4 Si2 O3 110.3(4) . 4_655 ?
O4 Si2 O3 110.3(4) . . ?
O3 Si2 Cs1 152.4(4) . 5_455 ?
O3 Si2 Cs1 53.7(3) 4_655 5_455 ?
O3 Si2 Cs1 152.4(4) 4_655 5 ?
O3 Si2 Cs1 53.7(3) . 5 ?
O3 Si2 Cs2 71.0(4) 4_655 2_665 ?
O3 Si2 Cs2 71.0(4) . 2_665 ?
O3 Si2 O3 109.0(7) 4_655 . ?
Cs1 Si3 Cs2 78.44(5) . 6_655 ?
Cs1 Si3 Cs2 78.44(5) . 6 ?
Cs2 Si3 Cs2 121.13(8) 6_655 6 ?
O5 Si3 Cs1 158.4(5) . . ?
O5 Si3 Cs2 110.58(18) . 6_655 ?
O5 Si3 Cs2 110.58(18) . 6 ?
O6 Si3 Cs1 87.9(4) . . ?
O6 Si3 Cs2 62.89(8) . 6 ?
O6 Si3 Cs2 62.89(8) . 6_655 ?
O6 Si3 O5 113.7(6) . . ?
O6 Si3 O7 109.6(4) . 4_655 ?
O6 Si3 O7 109.6(4) . . ?
O7 Si3 Cs1 60.6(4) . . ?
O7 Si3 Cs1 60.6(4) 4_655 . ?
O7 Si3 Cs2 50.7(4) . 6 ?
O7 Si3 Cs2 50.7(4) 4_655 6_655 ?
O7 Si3 Cs2 139.0(4) 4_655 6 ?
O7 Si3 Cs2 139.0(4) . 6_655 ?
O7 Si3 O5 109.0(4) 4_655 . ?
O7 Si3 O5 109.0(4) . . ?
O7 Si3 O7 105.7(8) . 4_655 ?
Cs1 Si1 Cs1 130.84(7) 5 6_655 ?
O9 Si1 Cs1 116.5(3) 2_665 5 ?
O9 Si1 Cs1 94.7(4) 2_665 6_655 ?
O9 Si1 O3 106.0(5) 2_665 . ?
O9 Si1 O2 109.4(4) 2_665 . ?
O3 Si1 Cs1 155.2(3) . 6_655 ?
O3 Si1 Cs1 50.2(3) . 5 ?
O2 Si1 Cs1 80.2(3) . 6_655 ?
O2 Si1 Cs1 54.8(3) . 5 ?
O2 Si1 O3 104.8(5) . . ?
O1 Si1 Cs1 132.1(3) . 5 ?
O1 Si1 Cs1 45.7(3) . 6_655 ?
O1 Si1 O9 111.2(4) . 2_665 ?
O1 Si1 O3 112.2(4) . . ?
O1 Si1 O2 112.7(5) . . ?
Ce1 Si4 Cs1 66.57(4) 5_445 . ?
Ce1 Si4 Cs2 71.39(5) 5_445 . ?
Ce1 Si4 Cs2 88.99(6) 5_445 6 ?
Cs2 Si4 Cs1 66.88(5) . . ?
Cs2 Si4 Cs1 80.51(5) 6 . ?
Cs2 Si4 Cs2 146.43(7) . 6 ?
O8 Si4 Ce1 83.9(3) . 5_445 ?
O8 Si4 Cs1 126.1(4) . . ?
O8 Si4 Cs2 144.4(3) . . ?
O8 Si4 Cs2 53.8(4) . 6 ?
O10 Si4 Ce1 28.6(2) . 5_445 ?
O10 Si4 Cs1 48.0(3) . . ?
O10 Si4 Cs2 47.4(3) . . ?
O10 Si4 Cs2 104.3(3) . 6 ?
O10 Si4 O8 112.5(4) . . ?
O10 Si4 O9 111.0(4) . . ?
O10 Si4 O7 109.8(5) . . ?
O9 Si4 Ce1 122.3(3) . 5_445 ?
O9 Si4 Cs1 124.4(3) . . ?
O9 Si4 Cs2 66.6(3) . . ?
O9 Si4 Cs2 144.8(3) . 6 ?
O9 Si4 O8 109.4(5) . . ?
O9 Si4 O7 110.5(5) . . ?
O7 Si4 Ce1 120.6(3) . 5_445 ?
O7 Si4 Cs1 62.0(4) . . ?
O7 Si4 Cs2 55.7(4) . 6 ?
O7 Si4 Cs2 111.1(4) . . ?
O7 Si4 O8 103.4(5) . . ?
Si4 O8 Cs2 103.1(4) . 6 ?
Si4 O8 Cs2 103.1(4) 4 6 ?
Si4 O8 Si4 134.6(6) 4 . ?
Ce1 O10 Cs1 97.9(2) 5_445 . ?
Ce1 O10 Cs2 107.9(2) 5_445 . ?
Cs2 O10 Cs1 88.20(16) . . ?
Si4 O10 Ce1 131.6(4) . 5_445 ?
Si4 O10 Cs1 110.9(3) . . ?
Si4 O10 Cs2 110.9(3) . . ?
Si2 O5 Si3 154.9(9) . . ?
Si1 O9 Cs2 108.4(4) 2_664 . ?
Si4 O9 Cs2 89.7(3) . . ?
Si4 O9 Si1 146.3(5) . 2_664 ?
Ce1 O4 Cs1 88.39(17) . 5_455 ?
Ce1 O4 Cs1 88.39(17) . 5 ?
Ce1 O4 Cs2 121.8(4) . 2_665 ?
Cs1 O4 Cs1 176.6(3) 5 5_455 ?
Cs1 O4 Cs2 90.33(18) 5_455 2_665 ?
Cs1 O4 Cs2 90.33(18) 5 2_665 ?
Si2 O4 Ce1 151.9(7) . . ?
Si2 O4 Cs1 91.71(16) . 5_455 ?
Si2 O4 Cs1 91.71(16) . 5 ?
Si2 O4 Cs2 86.2(4) . 2_665 ?
Cs1 O3 Cs2 95.25(19) 5 2_665 ?
Si2 O3 Cs1 103.3(3) . 5 ?
Si2 O3 Cs2 85.4(4) . 2_665 ?
Si2 O3 Si1 146.5(5) . . ?
Si1 O3 Cs1 107.7(4) . 5 ?
Si1 O3 Cs2 103.7(4) . 2_665 ?
Si1 O2 Cs1 102.6(3) . 5 ?
Si1 O2 Cs1 102.6(3) 4_755 5 ?
Si1 O2 Si1 154.7(7) . 4_755 ?
Ce1 O6 Cs2 92.30(15) 2_665 6 ?
Ce1 O6 Cs2 92.30(15) 2_665 6_655 ?
Cs2 O6 Cs2 154.1(3) 6 6_655 ?
Si3 O6 Ce1 146.6(6) . 2_665 ?
Si3 O6 Cs2 95.04(16) . 6_655 ?
Si3 O6 Cs2 95.04(16) . 6 ?
Ce1 O1 Cs1 95.7(2) 2_665 6_655 ?
Si1 O1 Ce1 145.9(6) . 2_665 ?
Si1 O1 Cs1 114.5(4) . 6_655 ?
Cs2 O7 Cs1 96.7(2) 6 . ?
Si3 O7 Cs1 97.0(4) . . ?
Si3 O7 Cs2 108.1(4) . 6 ?
Si3 O7 Si4 146.7(6) . . ?
Si4 O7 Cs1 94.9(4) . . ?
Si4 O7 Cs2 101.2(4) . 6 ?
loop_
_geom_bond_atom_site_label_1
_geom_bond_atom_site_label_2
_geom_bond_distance
_geom_bond_site_symmetry_2
_geom_bond_publ_flag
Ce1 Cs1 4.1966(6) 5 ?
Ce1 Cs1 4.1966(6) 5_455 ?
Ce1 Cs2 4.3953(8) 5 ?
Ce1 Cs2 4.3953(8) 5_455 ?
Ce1 Si4 3.493(2) 5 ?
Ce1 Si4 3.493(2) 8 ?
Ce1 O10 2.236(6) 8 ?
Ce1 O10 2.236(6) 5 ?
Ce1 O4 2.211(10) . ?
Ce1 O6 2.192(9) 2_664 ?
Ce1 O1 2.209(7) 2_664 ?
Ce1 O1 2.209(7) 3_564 ?
Cs1 Si2 3.9968(15) 5_545 ?
Cs1 O10 3.258(6) . ?
Cs1 O10 3.258(6) 4_655 ?
Cs1 O4 3.6299(4) 5_545 ?
Cs1 O4 3.6299(3) 5_445 ?
Cs1 O3 3.310(8) 8_645 ?
Cs1 O3 3.310(8) 5_445 ?
Cs1 O2 3.435(9) 5_445 ?
Cs1 O1 3.355(8) 7_454 ?
Cs1 O1 3.355(8) 6_654 ?
Cs1 O7 3.633(10) . ?
Cs1 O7 3.632(10) 4_655 ?
Cs2 O8 3.338(10) 6_554 ?
Cs2 O10 3.159(7) 4_655 ?
Cs2 O10 3.159(7) . ?
Cs2 O9 3.677(8) . ?
Cs2 O9 3.677(8) 4_655 ?
Cs2 O4 3.772(11) 2_664 ?
Cs2 O3 3.783(10) 2_664 ?
Cs2 O3 3.783(10) 3_564 ?
Cs2 O6 3.723(2) 6_654 ?
Cs2 O6 3.723(2) 6_554 ?
Cs2 O7 3.390(11) 6_554 ?
Cs2 O7 3.390(11) 7_554 ?
Si2 Cs1 3.9968(15) 5 ?
Si2 Cs1 3.9968(15) 5_455 ?
Si2 Cs2 3.988(4) 2_665 ?
Si2 O5 1.573(11) . ?
Si2 O4 1.568(10) . ?
Si2 O3 1.603(8) 4_655 ?
Si2 O3 1.603(8) . ?
Si3 Cs2 4.1661(16) 6 ?
Si3 Cs2 4.1661(16) 6_655 ?
Si3 O5 1.598(11) . ?
Si3 O6 1.572(10) . ?
Si3 O7 1.586(8) . ?
Si3 O7 1.586(8) 4_655 ?
Si1 Cs1 4.104(3) 5 ?
Si1 Cs1 4.267(3) 6_655 ?
Si1 O9 1.610(8) 2_665 ?
Si1 O3 1.620(8) . ?
Si1 O2 1.616(3) . ?
Si1 O1 1.592(6) . ?
Si4 Ce1 3.493(2) 5_445 ?
Si4 Cs2 4.026(3) 6 ?
Si4 O8 1.617(4) . ?
Si4 O10 1.581(7) . ?
Si4 O9 1.606(8) . ?
Si4 O7 1.611(8) . ?
O8 Cs2 3.338(10) 6 ?
O8 Si4 1.617(4) 4 ?
O10 Ce1 2.236(6) 5_445 ?
O9 Si1 1.610(8) 2_664 ?
O4 Cs1 3.6299(3) 5 ?
O4 Cs1 3.6299(3) 5_455 ?
O4 Cs2 3.772(11) 2_665 ?
O3 Cs1 3.310(8) 5 ?
O3 Cs2 3.783(10) 2_665 ?
O2 Cs1 3.435(9) 5 ?
O2 Si1 1.616(3) 4_755 ?
O6 Ce1 2.192(9) 2_665 ?
O6 Cs2 3.723(2) 6_655 ?
O6 Cs2 3.723(2) 6 ?
O1 Ce1 2.209(7) 2_665 ?
O1 Cs1 3.355(8) 6_655 ?
O7 Cs2 3.390(11) 6 ?
loop_
_twin_individual_id
_twin_individual_mass_fraction_refined
1 0.55(3)
2 0.45(3)
