#------------------------------------------------------------------------------
#$Date: 2016-03-26 16:21:06 +0200 (Sat, 26 Mar 2016) $
#$Revision: 180334 $
#$URL: svn://www.crystallography.net/cod/cif/7/20/03/7200323.cif $
#------------------------------------------------------------------------------
#
# This file is available in the Crystallography Open Database (COD),
# http://www.crystallography.net/
#
# All data on this site have been placed in the public domain by the
# contributors.
#
data_7200323
loop_
_publ_author_name
'Gao, Tao'
'Fjellv\%ag, Helmer'
'Norby, Poul'
_publ_section_title
;
 Protonic titanate derived from CsxTi2&#x2212;x/2Mgx/2O4 (x = 0.7) with
 lepidocrocite-type layered structure
;
_journal_issue                   6
_journal_name_full               'Journal of Materials Chemistry'
_journal_page_first              787
_journal_page_last               794
_journal_paper_doi               10.1039/b813147c
_journal_volume                  19
_journal_year                    2009
_chemical_formula_sum            'Cs0.16 Mg0.09 O Ti0.41'
_chemical_formula_weight         59.19
_chemical_name_systematic        ' ?'
_space_group_IT_number           71
_symmetry_cell_setting           orthorhombic
_symmetry_space_group_name_Hall  '-I 2 2'
_symmetry_space_group_name_H-M   'I m m m'
_audit_creation_date             2008-11-07T01:04
_audit_creation_method           'from EXP file using GSAS2CIF'
_audit_update_record
' 2008-11-07T01:04  Initial CIF as created by GSAS2CIF'
_cell_angle_alpha                90.0
_cell_angle_beta                 90.0
_cell_angle_gamma                90.0
_cell_formula_units_Z            8
_cell_length_a                   3.828325(23)
_cell_length_b                   17.00643(11)
_cell_length_c                   2.981444(20)
_cell_volume                     194.110(2)
_computing_structure_refinement  GSAS
_diffrn_radiation_polarisn_ratio 0.97
_diffrn_radiation_probe          x-ray
_diffrn_radiation_wavelength     0.520193
_exptl_absorpt_correction_T_max  0.14956
_exptl_absorpt_correction_T_min  0.13458
_exptl_absorpt_process_details
;   GSAS Absorption/surface roughness correction: function number 0
 Debye-Scherrer absorption correction
Term (= MU.r/wave) =      2.4000    
Correction is not refined.
;
_pd_block_id                     2008-11-07T01:04|CSMGTIOFINALBG2|TG|SNBL
_pd_calc_method                  'Rietveld Refinement'
_pd_instr_location               ' ?'
_pd_meas_2theta_range_inc        0.002
_pd_meas_2theta_range_max        45.54
_pd_meas_2theta_range_min        1.024
_pd_meas_number_of_points        22259
_pd_phase_name                   'from D:/Refine/UiO/MgCsTiO/NI35C_P4.cif'
_pd_proc_2theta_range_inc        0.002
_pd_proc_2theta_range_max        45.53758
_pd_proc_2theta_range_min        1.021577
_pd_proc_info_datetime           2008-11-07T01:04:45
_pd_proc_info_excluded_regions   ' ?'
_pd_proc_ls_background_function
;   GSAS Background function number 1 with 36 terms.
 Shifted Chebyshev function of 1st kind
      1:    365.463     2:   -56.8018     3:   -120.840     4:    111.393    
      5:   -55.6748     6:    22.0417     7:    17.0035     8:   -37.9194    
      9:    51.7310    10:   -40.5710    11:    10.8174    12:    17.8521    
     13:   -33.9009    14:    34.3678    15:   -9.19740    16:   -23.9074    
     17:    40.5323    18:   -29.4650    19:   0.238777    20:    21.9015    
     21:   -20.7870    22:    9.62968    23:    4.78535    24:   -10.7870    
     25:    13.6322    26:   -3.68974    27:   0.935640    28:    2.21477    
     29:    4.18099    30:   -1.20758    31:   -3.71537    32:    12.3609    
     33:    3.48048    34:   -13.3443    35:    15.7930    36:  -0.609806    
;
_pd_proc_ls_peak_cutoff          0.00010
_pd_proc_ls_profile_function
;
 CW Profile function number 4 with  18 terms
 Pseudovoigt profile coefficients as parameterized in
 P. Thompson, D.E. Cox & J.B. Hastings (1987). J. Appl. Cryst.,20,79-83.
 Asymmetry correction of L.W. Finger, D.E. Cox & A. P. Jephcoat (1994).
 J. Appl. Cryst.,27,892-900.
 Microstrain broadening by P.W. Stephens,  (1999). J. Appl. Cryst.,32,281-289.
 Peak tails are ignored  where the intensity is below 0.0001 times the peak
   Aniso. broadening axis   0.0   0.0   1.0
;
_pd_proc_ls_prof_R_factor        0.0564
_pd_proc_ls_prof_wR_expected     0.0405
_pd_proc_ls_prof_wR_factor       0.0754
_pd_proc_number_of_points        22259
_pd_spec_mounting                ' ?'
_refine_ls_goodness_of_fit_all   1.87
_refine_ls_matrix_type           full
_refine_ls_number_parameters     62
_refine_ls_number_restraints     0
_refine_ls_R_Fsqd_factor         0.05844
_refine_ls_shift/su_max          0.05
_refine_ls_shift/su_mean         0.00
_reflns_d_resolution_high        0.726
_reflns_d_resolution_low         8.503
_reflns_limit_h_max              5
_reflns_limit_h_min              0
_reflns_limit_k_max              24
_reflns_limit_k_min              0
_reflns_limit_l_max              4
_reflns_limit_l_min              0
_reflns_number_total             185
_cod_data_source_file            b813147c.txt
_cod_data_source_block           CSMGTIOFINALBG2_publ
_cod_original_cell_volume        194.1100(30)
_cod_database_code               7200323
#BEGIN Tags that were not found in dictionaries:
_gsas_exptl_extinct_corr_t_min   1.00000
_gsas_exptl_extinct_corr_t_max   1.00000
#END Tags that were not found in dictionaries
loop_
_symmetry_equiv_pos_site_id
_symmetry_equiv_pos_as_xyz
1 +x,+y,+z
2 -x,+y,+z
3 +x,-y,+z
4 -x,-y,+z
-1 -x,-y,-z
-2 +x,-y,-z
-3 -x,+y,-z
-4 +x,+y,-z
101 +x+1/2,+y+1/2,+z+1/2
102 -x+1/2,+y+1/2,+z+1/2
103 +x+1/2,-y+1/2,+z+1/2
104 -x+1/2,-y+1/2,+z+1/2
-101 -x+1/2,-y+1/2,-z+1/2
-102 +x+1/2,-y+1/2,-z+1/2
-103 -x+1/2,+y+1/2,-z+1/2
-104 +x+1/2,+y+1/2,-z+1/2
loop_
_atom_site_aniso_label
_atom_site_aniso_U_11
_atom_site_aniso_U_12
_atom_site_aniso_U_13
_atom_site_aniso_U_22
_atom_site_aniso_U_23
_atom_site_aniso_U_33
Cs1 0.0182(4) 0.0 0.0 0.0236(5) 0.0 0.0834(9)
loop_
_atom_site_type_symbol
_atom_site_label
_atom_site_fract_x
_atom_site_fract_y
_atom_site_fract_z
_atom_site_occupancy
_atom_site_thermal_displace_type
_atom_site_U_iso_or_equiv
_atom_site_symmetry_multiplicity
Cs Cs1 0.0 0.0 0.16099(25) 0.3206(4) Uani 0.04171 4
Ti Ti1 0.0 0.31032(4) 0.5 0.825 Uiso 0.01554(17) 4
O O1 0.0 0.21933(10) 0.0 1.0 Uiso 0.0139(5) 4
O O2 0.0 0.37880(10) 0.0 1.0 Uiso 0.0176(6) 4
Mg Mg1 0.0 0.31032(4) 0.5 0.175 Uiso 0.01555(17) 4
loop_
_atom_type_symbol
_atom_type_number_in_cell
_atom_type_scat_dispersion_real
_atom_type_scat_dispersion_imag
_atom_type_scat_Cromer_Mann_a1
_atom_type_scat_Cromer_Mann_a2
_atom_type_scat_Cromer_Mann_a3
_atom_type_scat_Cromer_Mann_a4
_atom_type_scat_Cromer_Mann_b1
_atom_type_scat_Cromer_Mann_b2
_atom_type_scat_Cromer_Mann_b3
_atom_type_scat_Cromer_Mann_b4
_atom_type_scat_Cromer_Mann_c
_atom_type_scat_source
Cs 1.282 0.000 0.000 20.3892 3.56900 19.1062 0.31070 10.6620 24.3879 1.49530
213.904 3.33520 International_Tables_Vol_C
Ti 3.3 0.000 0.000 9.75950 7.85080 7.35580 0.50000 1.69910 35.6338 1.90210
116.105 1.28070 International_Tables_Vol_C
O 8.0 0.000 0.000 3.04850 13.2771 2.28680 5.70110 1.54630 0.32390 0.86700
32.9089 0.25080 International_Tables_Vol_C
Mg 0.7 0.000 0.000 5.42040 2.82750 2.17350 79.2611 1.22690 0.38080 2.30730
7.19370 0.85840 International_Tables_Vol_C
loop_
_geom_angle_atom_site_label_1
_geom_angle_atom_site_label_2
_geom_angle_atom_site_label_3
_geom_angle
_geom_angle_site_symmetry_1
_geom_angle_site_symmetry_2
_geom_angle_site_symmetry_3
_geom_angle_publ_flag
? ? ? ? ? ? ? ?
loop_
_geom_bond_atom_site_label_1
_geom_bond_atom_site_label_2
_geom_bond_distance
_geom_bond_site_symmetry_1
_geom_bond_site_symmetry_2
_geom_bond_publ_flag
? ? ? ? ? ?
loop_
_pd_meas_intensity_total
_pd_proc_ls_weight
_pd_proc_intensity_bkg_calc
_pd_calc_intensity_total
525(31) . . .
527(43) . . .
492(49) . . .
479(49) . . .
504(49) . . .
563(53) . . .
584(52) . . .
552(53) . . .
488(50) . . .
520(52) . . .
555(52) . . .
529(50) . . .
527(51) . . .
536(53) . . .
501(50) . . .
594(54) . . .
632(55) . . .
542(52) . . .
486(51) . . .
501(50) . . .
513(50) . . .
477(48) . . .
566(54) . . .
506(52) . . .
553(53) . . .
558(53) . . .
486(48) . . .
573(54) . . .
454(49) . . .
490(50) . . .
461(48) . . .
491(49) . . .
467(48) . . .
557(54) . . .
617(56) . . .
518(50) . . .
452(47) . . .
456(49) . . .
463(50) . . .
560(53) . . .
548(53) . . .
505(49) . . .
488(50) . . .
549(54) . . .
525(51) . . .
489(49) . . .
412(44) . . .
536(53) . . .
527(53) . . .
524(52) . . .
486(49) . . .
514(50) . . .
470(49) . . .
383(45) . . .
428(47) . . .
511(51) . . .
509(50) . . .
405(45) . . .
398(46) . . .
409(46) . . .
472(48) . . .
444(46) . . .
579(55) . . .
486(51) . . .
489(49) . . .
568(54) . . .
527(50) . . .
486(50) . . .
399(46) . . .
507(51) . . .
500(50) . . .
440(46) . . .
456(49) . . .
491(50) . . .
446(48) . . .
537(52) . . .
399(44) . . .
520(51) . . .
587(56) . . .
551(53) . . .
507(50) . . .
451(47) . . .
492(50) . . .
449(49) . . .
405(45) . . .
483(49) . . .
483(48) . . .
487(50) . . .
539(54) . . .
480(49) . . .
453(48) . . .
426(45) . . .
429(47) . . .
474(49) . . .
515(51) . . .
433(47) . . .
421(45) . . .
425(47) . . .
399(46) . . .
508(51) . . .
486(49) . . .
433(46) . . .
438(47) . . .
372(45) . . .
395(45) . . .
441(47) . . .
438(46) . . .
483(50) . . .
410(47) . . .
459(48) . . .
497(50) . . .
503(49) . . .
532(52) . . .
419(48) . . .
380(43) . . .
466(48) . . .
531(51) . . .
432(47) . . .
476(50) . . .
401(46) . . .
415(46) . . .
490(49) . . .
469(49) . . .
426(48) . . .
480(49) . . .
454(48) . . .
437(45) . . .
464(49) . . .
425(47) . . .
462(48) . . .
428(46) . . .
405(45) . . .
433(47) . . .
453(49) . . .
386(45) . . .
357(42) . . .
422(46) . . .
464(49) . . .
344(43) . . .
438(47) . . .
523(52) . . .
514(49) . . .
375(44) . . .
376(45) . . .
414(46) . . .
390(44) . . .
302(38) . . .
472(49) . . .
454(49) . . .
405(46) . . .
384(44) . . .
434(46) . . .
381(44) . . .
339(43) . . .
389(45) . . .
525(51) . . .
422(46) . . .
409(46) . . .
379(45) . . .
393(44) . . .
399(45) . . .
392(43) . . .
422(46) . . .
449(49) . . .
466(49) . . .
457(47) . . .
422(46) . . .
408(46) . . .
387(46) . . .
398(45) . . .
414(46) . . .
372(43) . . .
387(44) . . .
494(52) . . .
443(48) . . .
365(42) . . .
420(45) . . .
377(44) . . .
379(45) . . .
306(40) . . .
325(41) . . .
379(42) . . .
401(46) . . .
400(46) . . .
373(44) . . .
400(45) . . .
449(47) . . .
349(42) . . .
385(46) . . .
375(44) . . .
363(43) . . .
435(45) . . .
355(42) . . .
387(46) . . .
303(39) . . .
370(43) . . .
404(44) . . .
409(46) . . .
321(41) . . .
365(44) . . .
423(45) . . .
448(47) . . .
405(46) . . .
373(45) . . .
385(44) . . .
431(47) . . .
426(45) . . .
498(51) . . .
467(50) . . .
348(42) . . .
434(47) . . .
421(45) . . .
336(41) . . .
411(47) . . .
408(46) . . .
392(45) . . .
391(43) . . .
419(47) . . .
465(50) . . .
407(46) . . .
387(44) . . .
394(45) . . .
386(44) . . .
378(45) . . .
352(42) . . .
361(43) . . .
354(41) . . .
358(44) . . .
379(45) . . .
374(44) . . .
390(44) . . .
425(46) . . .
371(43) . . .
417(47) . . .
358(43) . . .
323(41) . . .
336(40) . . .
319(40) . . .
366(45) . . .
478(50) . . .
382(44) . . .
350(41) . . .
350(42) . . .
335(42) . . .
346(42) . . .
407(46) . . .
349(41) . . .
399(46) . . .
295(40) . . .
333(41) . . .
366(43) . . .
410(45) . . .
375(44) . . .
354(44) . . .
263(37) . . .
387(45) . . .
417(45) . . .
368(43) . . .
388(46) . . .
392(45) . . .
302(39) . . .
408(45) . . .
335(42) . . .
313(41) . . .
317(41) . . .
333(41) . . .
393(43) . . .
363(44) . . .
371(45) . . .
353(43) . . .
368(43) . . .
314(39) . . .
336(42) . . .
393(46) . . .
390(44) . . .
350(42) . . .
303(39) . . .
395(45) . . .
331(42) . . .
391(45) . . .
365(43) . . .
323(40) . . .
376(44) . . .
461(49) . . .
334(42) . . .
342(42) . . .
357(42) . . .
375(44) . . .
407(47) . . .
394(45) . . .
431(47) . . .
388(43) . . .
336(42) . . .
409(47) . . .
424(46) . . .
362(43) . . .
360(42) . . .
240(35) . . .
281(39) . . .
375(44) . . .
408(45) . . .
286(38) . . .
318(40) . . .
320(41) . . .
310(40) . . .
300(39) . . .
294(37) . . .
379(44) . . .
369(44) . . .
390(45) . . .
440(47) . . .
364(42) . . .
372(44) . . .
312(41) . . .
289(39) . . .
391(44) . . .
334(40) . . .
390(45) . . .
315(42) . . .
314(39) . . .
328(41) . . .
334(41) . . .
316(40) . . .
449(49) . . .
343(42) . . .
380(44) . . .
371(42) . . .
401(46) . . .
285(39) . . .
328(41) . . .
328(41) . . .
360(42) . . .
309(40) . . .
322(42) . . .
430(48) . . .
318(40) . . .
423(45) . . .
357(43) . . .
369(45) . . .
370(43) . . .
349(42) . . .
388(43) . . .
332(41) . . .
315(41) . . .
350(42) . . .
375(43) . . .
311(39) . . .
418(47) . . .
435(48) . . .
352(43) . . .
310(40) . . .
373(43) . . .
354(42) . . .
310(42) . . .
378(44) . . .
337(41) . . .
330(40) . . .
370(44) . . .
330(42) . . .
347(42) . . .
320(40) . . .
382(43) . . .
280(38) . . .
393(46) . . .
307(39) . . .
339(41) . . .
337(41) . . .
287(39) . . .
361(44) . . .
326(41) . . .
350(42) . . .
378(43) . . .
384(44) . . .
332(42) . . .
348(42) . . .
322(40) . . .
324(40) . . .
267(37) . . .
307(40) . . .
291(39) . . .
304(39) . . .
324(40) . . .
357(43) . . .
384(46) . . .
311(40) . . .
345(42) . . .
311(39) . . .
312(41) . . .
314(41) . . .
280(38) . . .
340(41) . . .
347(41) . . .
324(41) . . .
319(42) . . .
323(40) . . .
303(39) . . .
366(43) . . .
366(43) . . .
368(44) . . .
300(40) . . .
328(41) . . .
339(40) . . .
329(42) . . .
240(36) . . .
332(42) . . .
337(41) . . .
336(40) . . .
355(43) . . .
225(35) . . .
259(36) . . .
254(36) . . .
288(37) . . .
263(37) . . .
340(43) . . .
333(41) . . .
322(41) . . .
308(39) . . .
323(41) . . .
346(43) . . .
326(42) . . .
382(44) . . .
396(44) . . .
330(40) . . .
343(44) . . .
351(42) . . .
348(42) . . .
278(37) . . .
287(39) . . .
295(39) . . .
328(41) . . .
319(40) . . .
299(38) . . .
341(42) . . .
347(44) . . .
316(40) . . .
331(41) . . .
324(40) . . .
347(42) . . .
309(41) . . .
351(42) . . .
297(39) . . .
356(41) . . .
290(39) . . .
326(42) . . .
323(41) . . .
330(41) . . .
316(40) . . .
316(40) . . .
318(42) . . .
309(41) . . .
255(36) . . .
323(40) . . .
245(36) . . .
330(43) . . .
322(40) . . .
362(42) . . .
349(41) . . .
351(43) . . .
331(42) . . .
348(43) . . .
298(39) . . .
316(39) . . .
307(40) . . .
271(38) . . .
311(40) . . .
380(44) . . .
351(42) . . .
298(39) . . .
302(41) . . .
289(39) . . .
405(45) . . .
240(34) . . .
288(38) . . .
277(39) . . .
346(42) . . .
300(39) . . .
317(39) . . .
310(40) . . .
304(41) . . .
280(38) . . .
281(38) . . .
351(42) . . .
242(36) . . .
303(41) . . .
293(39) . . .
273(37) . . .
287(38) . . .
279(38) . . .
312(41) . . .
309(40) . . .
240(35) . . .
311(39) . . .
298(39) . . .
268(38) . . .
330(42) . . .
338(42) . . .
372(43) . . .
302(40) . . .
328(42) . . .
264(38) . . .
270(37) . . .
340(41) . . .
283(38) . . .
293(40) . . .
274(38) . . .
324(40) . . .
339(41) . . .
316(41) . . .
277(39) . . .
292(39) . . .
274(38) . . .
295(38) . . .
296(40) . . .
291(40) . . .
319(41) . . .
279(38) . . .
310(39) . . .
317(41) . . .
294(40) . . .
249(36) . . .
278(38) . . .
306(38) . . .
322(41) . . .
307(41) . . .
329(41) . . .
275(37) . . .
332(41) . . .
277(38) . . .
332(43) . . .
386(45) . . .
318(40) . . .
252(36) . . .
310(40) . . .
257(38) . . .
328(41) . . .
251(36) . . .
274(37) . . .
243(35) . . .
288(39) . . .
341(42) . . .
323(40) . . .
282(37) . . .
239(36) . . .
248(37) . . .
288(39) . . .
282(38) . . .
323(40) . . .
300(40) . . .
314(42) . . .
288(39) . . .
367(44) . . .
285(37) . . .
259(37) . . .
274(38) . . .
286(38) . . .
240(35) . . .
298(22) . . .
278(24) . . .
320(30) . . .
250(26) . . .
302(28) . . .
290(28) . . .
332(29) . . .
320(30) . . .
330(30) . . .
262(27) . . .
265(26) . . .
277(27) . . .
305(29) . . .
275(27) . . .
343(30) . . .
319(29) . . .
311(29) . . .
329(30) . . .
302(29) . . .
253(26) . . .
248(26) . . .
239(26) . . .
316(30) . . .
241(26) . . .
265(27) . . .
258(26) . . .
263(27) . . .
253(27) . . .
321(30) . . .
263(27) . . .
245(25) . . .
299(29) . . .
293(28) . . .
310(29) . . .
277(28) . . .
257(26) . . .
275(27) . . .
340(31) . . .
240(26) . . .
274(27) . . .
269(27) . . .
313(29) . . .
252(27) . . .
305(29) . . .
317(29) . . .
282(27) . . .
274(27) . . .
251(27) . . .
246(26) . . .
239(25) . . .
238(25) . . .
303(28) . . .
267(27) . . .
269(27) . . .
284(28) . . .
293(28) . . .
294(28) . . .
272(27) . . .
265(28) . . .
263(27) . . .
280(27) . . .
267(27) . . .
300(29) . . .
295(29) . . .
286(28) . . .
246(26) . . .
260(26) . . .
304(29) . . .
252(27) . . .
284(28) . . .
295(28) . . .
248(26) . . .
259(27) . . .
247(26) . . .
248(26) . . .
308(28) . . .
269(27) . . .
296(29) . . .
288(28) . . .
268(27) . . .
267(27) . . .
329(30) . . .
286(28) . . .
251(26) . . .
272(27) . . .
251(26) . . .
289(28) . . .
281(28) . . .
249(27) . . .
349(31) . . .
327(30) . . .
285(28) . . .
291(29) . . .
287(28) . . .
329(30) . . .
327(29) . . .
343(30) . . .
298(29) . . .
332(30) . . .
282(27) . . .
319(29) . . .
321(29) . . .
318(30) . . .
321(30) . . .
349(31) . . .
335(30) . . .
269(27) . . .
308(30) . . .
354(32) . . .
310(29) . . .
334(30) . . .
280(27) . . .
297(29) . . .
257(27) . . .
319(29) . . .
297(28) . . .
333(30) . . .
289(29) . . .
291(28) . . .
317(29) . . .
337(30) . . .
349(30) . . .
366(32) . . .
352(31) . . .
305(29) . . .
271(27) . . .
234(25) . . .
248(27) . . .
298(29) . . .
274(27) . . .
337(30) . . .
281(28) . . .
270(27) . . .
244(26) . . .
288(28) . . .
275(27) . . .
281(27) . . .
260(27) . . .
310(30) . . .
306(29) . . .
290(28) . . .
265(26) . . .
303(29) . . .
290(28) . . .
278(28) . . .
290(28) . . .
284(28) . . .
261(27) . . .
295(29) . . .
269(27) . . .
239(25) . . .
279(28) . . .
299(29) . . .
328(30) . . .
290(28) . . .
266(27) . . .
233(25) . . .
266(28) . . .
298(29) . . .
264(27) . . .
268(27) . . .
254(26) . . .
225(25) . . .
304(29) . . .
273(27) . . .
284(27) . . .
280(28) . . .
299(29) . . .
286(28) . . .
336(30) . . .
242(25) . . .
257(26) . . .
298(29) . . .
266(28) . . .
302(29) . . .
282(27) . . .
231(25) . . .
257(27) . . .
250(27) . . .
270(27) . . .
251(26) . . .
286(27) . . .
283(28) . . .
281(28) . . .
281(28) . . .
262(26) . . .
310(29) . . .
287(28) . . .
266(27) . . .
270(27) . . .
260(26) . . .
255(26) . . .
273(28) . . .
267(27) . . .
325(30) . . .
274(27) . . .
226(25) . . .
235(26) . . .
325(30) . . .
250(26) . . .
274(27) . . .
249(26) . . .
263(27) . . .
290(28) . . .
265(27) . . .
281(27) . . .
245(26) . . .
238(26) . . .
281(28) . . .
202(23) . . .
249(26) . . .
220(24) . . .
241(26) . . .
267(27) . . .
253(26) . . .
286(28) . . .
253(26) . . .
266(27) . . .
267(28) . . .
276(27) . . .
236(25) . . .
230(25) . . .
230(25) . . .
259(27) . . .
269(27) . . .
249(26) . . .
286(28) . . .
267(28) . . .
242(26) . . .
274(27) . . .
247(26) . . .
249(26) . . .
284(28) . . .
248(26) . . .
199(23) . . .
259(27) . . .
251(26) . . .
213(24) . . .
280(28) . . .
266(27) . . .
258(26) . . .
219(24) . . .
263(27) . . .
218(25) . . .
252(26) . . .
256(26) . . .
244(25) . . .
190(23) . . .
228(25) . . .
228(25) . . .
248(26) . . .
264(27) . . .
236(26) . . .
297(29) . . .
223(25) . . .
208(24) . . .
272(27) . . .
240(26) . . .
251(27) . . .
238(26) . . .
209(24) . . .
235(25) . . .
242(26) . . .
278(28) . . .
225(25) . . .
257(26) . . .
220(24) . . .
250(27) . . .
230(26) . . .
246(26) . . .
240(25) . . .
295(28) . . .
222(25) . . .
271(27) . . .
196(23) . . .
274(27) . . .
225(25) . . .
244(26) . . .
245(26) . . .
229(25) . . .
216(24) . . .
252(26) . . .
236(25) . . .
281(28) . . .
237(26) . . .
268(27) . . .
266(27) . . .
219(25) . . .
286(29) . . .
224(25) . . .
252(26) . . .
239(25) . . .
262(27) . . .
243(26) . . .
205(23) . . .
234(25) . . .
238(25) . . .
220(25) . . .
222(25) . . .
244(26) . . .
250(26) . . .
269(27) . . .
249(26) . . .
234(26) . . .
245(26) . . .
245(26) . . .
209(24) . . .
272(28) . . .
242(26) . . .
224(25) . . .
229(25) . . .
247(26) . . .
248(26) . . .
218(25) . . .
232(25) . . .
237(25) . . .
246(26) . . .
212(24) . . .
232(26) . . .
232(25) . . .
269(27) . . .
220(24) . . .
247(26) . . .
186(23) . . .
237(25) . . .
226(25) . . .
240(26) . . .
254(27) . . .
209(24) . . .
220(24) . . .
222(24) . . .
245(25) . . .
213(24) . . .
197(24) . . .
204(24) . . .
256(26) . . .
215(24) . . .
236(26) . . .
263(27) . . .
258(26) . . .
173(21) . . .
222(24) . . .
236(26) . . .
254(27) . . .
207(24) . . .
240(25) . . .
231(25) . . .
232(26) . . .
212(24) . . .
257(27) . . .
275(27) . . .
209(24) . . .
257(27) . . .
193(23) . . .
244(26) . . .
239(25) . . .
229(25) . . .
278(28) . . .
249(26) . . .
232(25) . . .
274(27) . . .
225(25) . . .
231(26) . . .
217(25) . . .
258(26) . . .
269(27) . . .
221(24) . . .
216(25) . . .
244(26) . . .
208(24) . . .
260(26) . . .
242(25) . . .
210(24) . . .
224(25) . . .
202(23) . . .
204(23) . . .
206(24) . . .
233(25) . . .
237(26) . . .
224(25) . . .
240(25) . . .
213(24) . . .
212(24) . . .
222(25) . . .
213(24) . . .
209(24) . . .
254(26) . . .
290(29) . . .
225(25) . . .
216(24) . . .
220(24) . . .
200(23) . . .
220(25) . . .
218(25) . . .
241(26) . . .
231(25) . . .
247(26) . . .
201(24) . . .
208(24) . . .
247(26) . . .
260(26) . . .
266(27) . . .
193(23) . . .
230(26) . . .
188(23) . . .
215(24) . . .
206(23) . . .
193(23) . . .
199(24) . . .
199(23) . . .
200(23) . . .
218(24) . . .
209(24) . . .
224(25) . . .
229(24) . . .
220(24) . . .
183(22) . . .
213(25) . . .
230(25) . . .
195(23) . . .
204(23) . . .
206(24) . . .
229(25) . . .
208(24) . . .
225(25) . . .
191(23) . . .
240(25) . . .
224(25) . . .
243(26) . . .
192(23) . . .
188(22) . . .
240(25) . . .
216(25) . . .
234(26) 0.001502 271.0 271.8
214(24) 0.001751 267.0 267.8
243(25) 0.001550 263.1 263.9
190(23) 0.001941 259.3 260.1
186(23) 0.001941 255.7 256.5
196(24) 0.001811 252.1 252.9
232(25) 0.001613 248.7 249.5
199(23) 0.001874 245.4 246.2
184(22) 0.002066 242.2 243.0
172(22) 0.002047 239.1 239.9
225(25) 0.001587 236.1 236.9
203(23) 0.001842 233.2 234.0
251(26) 0.001502 230.4 231.3
226(25) 0.001666 227.7 228.6
193(23) 0.001890 225.1 226.0
216(25) 0.001652 222.6 223.5
203(24) 0.001795 220.2 221.1
211(24) 0.001780 217.8 218.8
193(23) 0.001975 215.6 216.5
222(25) 0.001575 213.5 214.4
213(24) 0.001680 211.4 212.3
217(24) 0.001722 209.4 210.3
192(22) 0.001993 207.5 208.4
186(22) 0.002011 205.6 206.6
206(24) 0.001722 203.9 204.8
227(25) 0.001600 202.2 203.2
213(24) 0.001708 200.6 201.6
198(23) 0.001924 199.0 200.0
174(22) 0.002163 197.5 198.6
191(23) 0.001826 196.1 197.1
241(26) 0.001538 194.8 195.8
206(24) 0.001780 193.5 194.5
199(23) 0.001941 192.3 193.3
209(24) 0.001736 191.1 192.2
177(22) 0.002066 190.0 191.1
226(25) 0.001575 188.9 190.0
202(24) 0.001811 187.9 189.0
194(23) 0.001975 187.0 188.1
178(22) 0.002104 186.1 187.2
212(24) 0.001722 185.2 186.4
235(26) 0.001502 184.5 185.6
163(21) 0.002246 183.7 184.8
205(23) 0.001858 183.0 184.1
211(24) 0.001751 182.3 183.5
204(24) 0.001751 181.7 182.9
206(24) 0.001722 181.2 182.3
162(21) 0.002334 180.6 181.8
159(20) 0.002403 180.1 181.3
184(22) 0.002011 179.7 180.9
226(25) 0.001587 179.3 180.5
225(25) 0.001575 178.9 180.1
223(25) 0.001666 178.5 179.8
214(24) 0.001765 178.2 179.5
188(23) 0.001958 177.9 179.2
238(26) 0.001526 177.7 179.0
191(23) 0.001890 177.5 178.8
217(24) 0.001708 177.3 178.6
233(25) 0.001613 177.1 178.4
250(26) 0.001502 177.0 178.3
213(24) 0.001680 176.9 178.2
214(25) 0.001666 176.8 178.2
223(25) 0.001652 176.7 178.1
268(27) 0.001403 176.7 178.1
267(26) 0.001435 176.7 178.1
290(29) 0.001206 176.7 178.1
244(26) 0.001502 176.7 178.2
239(26) 0.001514 176.8 178.2
240(25) 0.001575 176.8 178.3
196(23) 0.001924 176.9 178.4
190(23) 0.001858 177.0 178.6
181(22) 0.001993 177.2 178.7
229(25) 0.001587 177.3 178.9
222(24) 0.001765 177.5 179.0
215(24) 0.001722 177.6 179.2
240(26) 0.001468 177.8 179.4
189(23) 0.001907 178.0 179.6
178(22) 0.002047 178.2 179.9
222(24) 0.001708 178.4 180.1
167(21) 0.002225 178.7 180.4
221(25) 0.001639 178.9 180.6
204(24) 0.001736 179.2 180.9
223(25) 0.001666 179.4 181.2
214(24) 0.001765 179.7 181.5
232(25) 0.001600 180.0 181.8
177(22) 0.002011 180.3 182.1
186(23) 0.001924 180.6 182.4
177(22) 0.002066 180.9 182.7
199(23) 0.001874 181.2 183.1
209(23) 0.001842 181.5 183.4
189(23) 0.001890 181.8 183.8
214(25) 0.001639 182.2 184.1
219(24) 0.001694 182.5 184.5
236(25) 0.001587 182.8 184.8
230(25) 0.001613 183.2 185.2
211(24) 0.001680 183.5 185.6
164(21) 0.002204 183.9 185.9
181(22) 0.002011 184.2 186.3
215(24) 0.001765 184.6 186.7
217(24) 0.001751 184.9 187.1
219(25) 0.001587 185.3 187.4
227(25) 0.001575 185.6 187.8
175(22) 0.002124 186.0 188.2
197(23) 0.001924 186.3 188.6
181(22) 0.002047 186.7 189.0
202(24) 0.001780 187.0 189.4
237(26) 0.001538 187.4 189.7
192(23) 0.001874 187.7 190.1
170(21) 0.002246 188.1 190.5
177(22) 0.002104 188.4 190.9
191(23) 0.001842 188.8 191.3
175(22) 0.002029 189.1 191.7
178(22) 0.002047 189.5 192.0
190(22) 0.002011 189.8 192.4
194(23) 0.001907 190.2 192.8
191(23) 0.001874 190.5 193.2
184(20) 0.002451 190.8 193.5
187(14) 0.00482 191.1 193.9
184(18) 0.003121 191.5 194.3
218(20) 0.002475 191.8 194.6
204(20) 0.002603 192.1 195.0
209(20) 0.002551 192.4 195.3
182(18) 0.003019 192.7 195.7
193(19) 0.002860 193.0 196.0
230(21) 0.002311 193.3 196.4
229(21) 0.002311 193.6 196.7
206(20) 0.002551 193.9 197.1
182(18) 0.003019 194.2 197.4
209(19) 0.002657 194.5 197.7
209(20) 0.002577 194.7 198.0
246(22) 0.002143 195.0 198.4
217(20) 0.002427 195.3 198.7
201(19) 0.002713 195.5 199.0
196(19) 0.002829 195.8 199.3
183(19) 0.002891 196.0 199.6
202(20) 0.002603 196.2 199.9
188(19) 0.002799 196.5 200.2
212(20) 0.002577 196.7 200.5
204(19) 0.002713 196.9 200.8
186(19) 0.002891 197.1 201.1
203(20) 0.002577 197.3 201.3
176(18) 0.002954 197.5 201.6
210(20) 0.002603 197.7 201.9
212(20) 0.002577 197.9 202.1
186(19) 0.002891 198.1 202.4
220(21) 0.002334 198.2 202.6
188(19) 0.002829 198.4 202.9
152(17) 0.00359 198.6 203.1
173(18) 0.003192 198.7 203.4
184(19) 0.002922 198.9 203.6
204(20) 0.002525 199.0 203.8
182(19) 0.002922 199.1 204.1
212(20) 0.002525 199.3 204.3
177(18) 0.003121 199.4 204.5
220(20) 0.002427 199.5 204.7
198(20) 0.002630 199.6 204.9
215(20) 0.002475 199.7 205.1
167(18) 0.003228 199.8 205.4
191(19) 0.002891 199.9 205.6
179(18) 0.002954 199.9 205.8
203(20) 0.002603 200.0 206.0
233(21) 0.002246 200.1 206.1
200(19) 0.002713 200.1 206.3
177(18) 0.003121 200.2 206.5
175(18) 0.003019 200.2 206.7
187(19) 0.002860 200.2 206.9
190(19) 0.002741 200.3 207.1
211(20) 0.002577 200.3 207.3
200(19) 0.002713 200.3 207.5
209(20) 0.002577 200.3 207.6
221(21) 0.002380 200.3 207.8
221(21) 0.002334 200.3 208.0
192(19) 0.002829 200.3 208.2
211(20) 0.002630 200.3 208.4
218(20) 0.002427 200.3 208.6
200(20) 0.002603 200.2 208.7
197(19) 0.002657 200.2 208.9
206(19) 0.002657 200.2 209.1
192(19) 0.002829 200.1 209.3
203(19) 0.002657 200.1 209.5
212(20) 0.002451 200.0 209.7
191(19) 0.002770 199.9 209.9
156(17) 0.003460 199.8 210.2
225(20) 0.002427 199.8 210.4
213(20) 0.002500 199.7 210.6
197(19) 0.002657 199.6 210.9
211(20) 0.002475 199.5 211.1
184(18) 0.002986 199.4 211.4
176(18) 0.003086 199.3 211.6
195(19) 0.002741 199.2 211.9
232(21) 0.002225 199.1 212.2
237(21) 0.002225 198.9 212.5
171(18) 0.003121 198.8 212.9
206(19) 0.002685 198.7 213.2
206(20) 0.002603 198.5 213.6
189(19) 0.002713 198.4 214.0
188(19) 0.002829 198.2 214.4
193(19) 0.002860 198.1 214.9
204(19) 0.002685 197.9 215.3
218(20) 0.002427 197.8 215.8
178(19) 0.002922 197.6 216.4
227(21) 0.002334 197.4 217.0
180(18) 0.002986 197.2 217.6
218(20) 0.002551 197.1 218.2
184(19) 0.002891 196.9 219.0
213(20) 0.002427 196.7 219.7
230(21) 0.002311 196.5 220.6
229(21) 0.002380 196.3 221.5
225(20) 0.002403 196.1 222.4
245(21) 0.002204 195.9 223.5
222(21) 0.002334 195.7 224.6
207(20) 0.002525 195.5 225.9
263(22) 0.002047 195.2 227.2
211(20) 0.002630 195.0 228.7
195(19) 0.002741 194.8 230.3
223(21) 0.002356 194.6 232.0
211(20) 0.002475 194.3 233.9
229(21) 0.002380 194.1 236.0
239(21) 0.002289 193.9 238.3
241(21) 0.002204 193.6 240.9
244(22) 0.002124 193.4 243.7
246(22) 0.002143 193.1 246.8
230(21) 0.002356 192.9 250.3
225(20) 0.002427 192.6 254.1
213(20) 0.002475 192.4 258.4
212(20) 0.002475 192.1 263.3
229(21) 0.002311 191.9 268.8
246(21) 0.002184 191.6 274.9
259(22) 0.002143 191.3 281.9
257(22) 0.002047 191.1 290.0
279(23) 0.001907 190.8 299.2
291(24) 0.001795 190.5 309.8
317(24) 0.001722 190.3 322.2
342(25) 0.001600 190.0 336.6
333(25) 0.001587 189.7 353.7
389(27) 0.001342 189.4 374.1
420(28) 0.001249 189.2 398.7
489(30) 0.001111 188.9 428.8
578(32) 0.000953 188.6 466.1
643(35) 0.000826 188.3 513.7
703(37) 0.000738 188. 576.
753(38) 0.000700 188. 661.
921(41) 0.000589 187. 780.
960(42) 0.000572 187. 949.
1227(49) 0.000425 187. 1188.
1267(49) 0.000420 187. 1517.
1643(56) 0.0003166 186. 1949.
1973(60) 0.0002750 186. 2458.
2343(65) 0.0002338 186. 2957.
2845(73) 0.0001856 185. 3360.
3347(80) 0.0001547 185. 3711.
3797(86) 0.0001358 185. 4096.
4291(90) 0.0001243 185. 4422.
4103(87) 0.0001312 184. 4405.
3588(82) 0.0001473 184. 3910.
2854(74) 0.0001807 184. 3156.
2098(64) 0.0002480 183. 2421.
1444(52) 0.000376 183. 1827.
1083(44) 0.000512 183. 1389.
810(39) 0.000651 183. 1081.
650(35) 0.000812 182. 871.
532(32) 0.000989 181.9 726.4
461(29) 0.001189 181.6 624.7
425(28) 0.001294 181.4 550.4
426(28) 0.001240 181.1 494.0
314(24) 0.001680 180.8 449.7
348(26) 0.001491 180.5 414.1
316(24) 0.001722 180.2 385.1
265(22) 0.002066 179.9 361.0
314(24) 0.001694 179.6 340.8
284(24) 0.001811 179.3 323.7
241(21) 0.002184 179.1 309.1
228(21) 0.002356 178.8 296.5
256(22) 0.002143 178.5 285.6
273(23) 0.001975 178.2 276.0
216(20) 0.002451 177.9 267.6
226(21) 0.002289 177.7 260.2
248(21) 0.002225 177.4 253.6
237(21) 0.002311 177.1 247.7
195(19) 0.002713 176.8 242.4
244(22) 0.002163 176.6 237.6
186(19) 0.002799 176.3 233.3
198(19) 0.002741 176.0 229.3
197(19) 0.002741 175.7 225.7
226(21) 0.002356 175.5 222.4
197(19) 0.002657 175.2 219.4
228(21) 0.002289 175.0 216.6
229(21) 0.002380 174.7 214.1
229(21) 0.002356 174.4 211.7
202(20) 0.002630 174.2 209.5
221(21) 0.002380 173.9 207.4
164(18) 0.003156 173.7 205.5
183(18) 0.002986 173.4 203.7
176(18) 0.003121 173.2 202.0
224(21) 0.002380 172.9 200.4
228(21) 0.002311 172.7 198.9
192(19) 0.002713 172.4 197.5
203(19) 0.002685 172.2 196.2
190(19) 0.002860 172.0 194.9
166(18) 0.003265 171.7 193.7
182(19) 0.002799 171.5 192.6
212(20) 0.002500 171.3 191.5
217(20) 0.002475 171.0 190.5
172(18) 0.003192 170.8 189.5
184(19) 0.002891 170.6 188.6
160(18) 0.003265 170.4 187.7
184(19) 0.002860 170.2 186.9
191(19) 0.002891 170.0 186.1
218(20) 0.002525 169.7 185.3
191(19) 0.002770 169.5 184.6
191(19) 0.002741 169.3 183.8
183(19) 0.002891 169.1 183.2
181(18) 0.002986 168.9 182.5
215(20) 0.002577 168.7 181.9
192(19) 0.002799 168.5 181.3
204(20) 0.002525 168.4 180.7
199(19) 0.002657 168.2 180.1
193(19) 0.002799 168.0 179.6
204(19) 0.002657 167.8 179.0
190(19) 0.002799 167.6 178.5
226(21) 0.002311 167.4 178.0
167(18) 0.003156 167.3 177.6
188(19) 0.002860 167.1 177.1
189(19) 0.002922 166.9 176.7
170(18) 0.003156 166.8 176.2
205(20) 0.002551 166.6 175.8
205(20) 0.002577 166.5 175.4
194(19) 0.002829 166.3 175.0
202(19) 0.002713 166.2 174.6
190(19) 0.002799 166.0 174.3
201(20) 0.002577 165.9 173.9
213(20) 0.002500 165.7 173.6
211(20) 0.002551 165.6 173.3
196(19) 0.002799 165.5 172.9
157(17) 0.003341 165.3 172.6
173(18) 0.003019 165.2 172.3
164(18) 0.003192 165.1 172.0
175(18) 0.003086 165.0 171.8
185(19) 0.002922 164.8 171.5
189(19) 0.002799 164.7 171.2
188(19) 0.002829 164.6 171.0
224(21) 0.002356 164.5 170.7
208(20) 0.002603 164.4 170.5
203(19) 0.002713 164.3 170.2
197(19) 0.002685 164.2 170.0
216(20) 0.002451 164.1 169.8
164(18) 0.003121 164.0 169.6
198(19) 0.002799 163.9 169.4
172(18) 0.003156 163.9 169.2
181(18) 0.002954 163.8 169.0
150(17) 0.003420 163.7 168.8
176(18) 0.002954 163.6 168.7
185(18) 0.002954 163.6 168.5
186(19) 0.002922 163.5 168.3
195(19) 0.002713 163.4 168.2
174(18) 0.002954 163.4 168.0
174(18) 0.003019 163.3 167.9
193(19) 0.002829 163.3 167.7
200(19) 0.002741 163.2 167.6
202(20) 0.002630 163.2 167.5
196(19) 0.002685 163.1 167.4
197(19) 0.002685 163.1 167.2
195(19) 0.002799 163.1 167.1
206(20) 0.002630 163.0 167.0
204(20) 0.002603 163.0 166.9
195(19) 0.002685 163.0 166.8
206(20) 0.002500 163.0 166.8
180(18) 0.003019 162.9 166.7
172(18) 0.003156 162.9 166.6
173(18) 0.003086 162.9 166.5
196(20) 0.002630 162.9 166.5
160(18) 0.003265 162.9 166.4
194(19) 0.002770 162.9 166.3
216(20) 0.002551 162.9 166.3
179(18) 0.002954 162.9 166.2
196(19) 0.002685 162.9 166.2
205(20) 0.002551 162.9 166.1
200(19) 0.002741 163.0 166.1
198(19) 0.002770 163.0 166.1
164(18) 0.003192 163.0 166.1
195(19) 0.002685 163.0 166.0
191(19) 0.002741 163.1 166.0
167(18) 0.003228 163.1 166.0
194(19) 0.002770 163.1 166.0
224(21) 0.002356 163.2 166.0
206(20) 0.002525 163.2 166.0
241(22) 0.002163 163.2 166.0
202(19) 0.002741 163.3 166.0
205(20) 0.002603 163.3 166.0
184(18) 0.002954 163.4 166.0
201(20) 0.002603 163.5 166.0
179(19) 0.002922 163.5 166.1
165(18) 0.003228 163.6 166.1
188(18) 0.002954 163.6 166.1
195(19) 0.002741 163.7 166.2
201(20) 0.002577 163.8 166.2
191(19) 0.002713 163.9 166.2
186(18) 0.002954 163.9 166.3
209(20) 0.002551 164.0 166.3
226(21) 0.002380 164.1 166.4
197(20) 0.002603 164.2 166.4
201(20) 0.002603 164.3 166.5
192(19) 0.002799 164.4 166.6
189(19) 0.002922 164.5 166.6
184(19) 0.002829 164.6 166.7
216(20) 0.002403 164.7 166.8
200(19) 0.002657 164.8 166.9
180(18) 0.003052 164.9 166.9
182(18) 0.002954 165.0 167.0
210(20) 0.002577 165.1 167.1
219(20) 0.002427 165.2 167.2
214(20) 0.002427 165.3 167.3
180(18) 0.003019 165.4 167.4
182(18) 0.003019 165.6 167.5
207(20) 0.002577 165.7 167.6
154(17) 0.003420 165.8 167.7
189(19) 0.002799 166.0 167.8
188(19) 0.002829 166.1 167.9
176(18) 0.003086 166.2 168.0
181(18) 0.002954 166.4 168.1
197(20) 0.002603 166.5 168.2
182(19) 0.002860 166.6 168.4
208(20) 0.002630 166.8 168.5
150(17) 0.00367 166.9 168.6
189(19) 0.002799 167.1 168.7
179(18) 0.002954 167.2 168.9
170(18) 0.003086 167.4 169.0
186(19) 0.002922 167.5 169.2
173(18) 0.003156 167.7 169.3
194(19) 0.002741 167.9 169.4
197(20) 0.002630 168.0 169.6
204(20) 0.002577 168.2 169.7
211(20) 0.002577 168.4 169.9
217(20) 0.002475 168.5 170.0
177(18) 0.002986 168.7 170.2
182(19) 0.002891 168.9 170.3
188(19) 0.002799 169.0 170.5
203(20) 0.002630 169.2 170.7
172(18) 0.003192 169.4 170.8
228(21) 0.002334 169.6 171.0
191(19) 0.002770 169.8 171.2
181(19) 0.002922 169.9 171.3
194(19) 0.002770 170.1 171.5
171(18) 0.003228 170.3 171.7
189(19) 0.002799 170.5 171.8
228(21) 0.002289 170.7 172.0
218(20) 0.002403 170.9 172.2
189(19) 0.002860 171.1 172.4
165(17) 0.003341 171.3 172.6
203(20) 0.002630 171.5 172.7
193(20) 0.002630 171.7 172.9
193(19) 0.002741 171.9 173.1
191(19) 0.002799 172.1 173.3
204(19) 0.002685 172.3 173.5
163(18) 0.003192 172.5 173.7
197(19) 0.002741 172.7 173.9
209(20) 0.002525 172.9 174.1
195(19) 0.002770 173.1 174.3
193(19) 0.002860 173.3 174.5
182(19) 0.002922 173.5 174.7
169(18) 0.003086 173.7 174.9
197(19) 0.002685 174.0 175.1
199(19) 0.002713 174.2 175.3
181(18) 0.002986 174.4 175.5
170(18) 0.003192 174.6 175.7
187(19) 0.002770 174.8 175.9
184(19) 0.002799 175.0 176.1
187(19) 0.002891 175.3 176.3
186(18) 0.002986 175.5 176.5
188(19) 0.002770 175.7 176.8
182(19) 0.002860 175.9 177.0
194(19) 0.002685 176.2 177.2
215(20) 0.002551 176.4 177.4
197(19) 0.002770 176.6 177.6
170(18) 0.003156 176.8 177.8
195(20) 0.002630 177.1 178.1
170(18) 0.003121 177.3 178.3
176(18) 0.003121 177.5 178.5
197(19) 0.002741 177.8 178.7
198(19) 0.002685 178.0 179.0
185(19) 0.002799 178.2 179.2
199(19) 0.002657 178.5 179.4
175(18) 0.003086 178.7 179.6
176(18) 0.003052 178.9 179.9
183(18) 0.002954 179.2 180.1
201(20) 0.002577 179.4 180.3
196(19) 0.002657 179.6 180.5
167(18) 0.003228 179.9 180.8
196(19) 0.002829 180.1 181.0
177(18) 0.003019 180.3 181.2
180(19) 0.002891 180.6 181.5
212(20) 0.002475 180.8 181.7
150(17) 0.00359 181.1 181.9
185(18) 0.002986 181.3 182.1
178(18) 0.002986 181.5 182.4
202(20) 0.002577 181.8 182.6
184(19) 0.002860 182.0 182.8
148(17) 0.00367 182.3 183.1
160(17) 0.003420 182.5 183.3
222(21) 0.002380 182.7 183.5
187(19) 0.002799 183.0 183.8
217(20) 0.002403 183.2 184.0
151(17) 0.00363 183.5 184.2
189(19) 0.002860 183.7 184.5
202(20) 0.002630 183.9 184.7
219(20) 0.002427 184.2 185.0
179(19) 0.002922 184.4 185.2
187(19) 0.002891 184.7 185.4
196(19) 0.002829 184.9 185.7
176(18) 0.002986 185.1 185.9
201(20) 0.002630 185.4 186.1
169(18) 0.003121 185.6 186.4
193(19) 0.002770 185.9 186.6
162(17) 0.003420 186.1 186.8
186(19) 0.002860 186.3 187.1
175(18) 0.002954 186.6 187.3
187(19) 0.002799 186.8 187.5
175(18) 0.003086 187.1 187.8
171(18) 0.003192 187.3 188.0
179(18) 0.002986 187.5 188.2
194(19) 0.002657 187.8 188.5
148(17) 0.00359 188.0 188.7
182(18) 0.003019 188.2 188.9
157(17) 0.003460 188.5 189.2
183(19) 0.002922 188.7 189.4
178(19) 0.002891 189.0 189.6
179(18) 0.002986 189.2 189.8
184(19) 0.002922 189.4 190.1
133(16) 0.00416 189.7 190.3
218(21) 0.002380 189.9 190.5
179(18) 0.002954 190.1 190.8
196(19) 0.002657 190.4 191.0
199(19) 0.002713 190.6 191.2
171(18) 0.003156 190.8 191.4
149(17) 0.00363 191.1 191.7
185(19) 0.002799 191.3 191.9
178(18) 0.002954 191.5 192.1
192(19) 0.002799 191.7 192.3
188(18) 0.002986 192.0 192.6
177(18) 0.002954 192.2 192.8
223(21) 0.002334 192.4 193.0
161(18) 0.003228 192.6 193.2
163(17) 0.003341 192.9 193.5
169(18) 0.003228 193.1 193.7
174(18) 0.003086 193.3 193.9
200(20) 0.002630 193.5 194.1
196(19) 0.002657 193.8 194.3
191(19) 0.002860 194.0 194.5
184(18) 0.002986 194.2 194.8
189(19) 0.002741 194.4 195.0
210(20) 0.002500 194.6 195.2
196(19) 0.002685 194.9 195.4
178(18) 0.003019 195.1 195.6
187(19) 0.002891 195.3 195.8
200(19) 0.002657 195.5 196.0
175(18) 0.002986 195.7 196.2
189(19) 0.002770 195.9 196.5
164(17) 0.003303 196.1 196.7
201(19) 0.002713 196.3 196.9
195(19) 0.002713 196.5 197.1
169(18) 0.003086 196.8 197.3
167(18) 0.003156 197.0 197.5
197(19) 0.002713 197.2 197.7
159(17) 0.003460 197.4 197.9
170(18) 0.003121 197.6 198.1
188(19) 0.002741 197.8 198.3
192(19) 0.002713 198.0 198.5
180(18) 0.002986 198.2 198.7
179(18) 0.003086 198.4 198.9
199(20) 0.002603 198.6 199.1
202(20) 0.002577 198.8 199.2
169(18) 0.003192 198.9 199.4
198(19) 0.002685 199.1 199.6
157(17) 0.003501 199.3 199.8
186(19) 0.002829 199.5 200.0
198(20) 0.002630 199.7 200.2
201(20) 0.002603 199.9 200.4
178(18) 0.003086 200.1 200.6
190(19) 0.002829 200.3 200.7
179(18) 0.003019 200.5 200.9
186(19) 0.002799 200.6 201.1
183(19) 0.002829 200.8 201.3
176(18) 0.003052 201.0 201.4
195(19) 0.002799 201.2 201.6
228(21) 0.002334 201.3 201.8
188(19) 0.002741 201.5 202.0
189(19) 0.002770 201.7 202.1
191(19) 0.002829 201.9 202.3
224(20) 0.002427 202.0 202.5
206(20) 0.002603 202.2 202.6
211(20) 0.002427 202.4 202.8
194(19) 0.002713 202.5 203.0
187(19) 0.002922 202.7 203.1
178(18) 0.003052 202.9 203.3
187(19) 0.002860 203.0 203.4
183(19) 0.002860 203.2 203.6
225(21) 0.002334 203.3 203.8
195(19) 0.002770 203.5 203.9
213(20) 0.002525 203.7 204.1
166(18) 0.003192 203.8 204.2
188(19) 0.002741 204.0 204.4
183(19) 0.002860 204.1 204.5
180(18) 0.002986 204.3 204.7
192(19) 0.002860 204.4 204.4
183(19) 0.002860 204.6 204.6
196(19) 0.002685 204.7 204.7
209(20) 0.002500 204.8 204.8
164(18) 0.003228 205.0 205.0
179(18) 0.003086 205.1 205.1
189(19) 0.002799 205.3 205.3
207(20) 0.002525 205.4 205.4
180(19) 0.002891 205.5 205.5
162(17) 0.003380 205.7 205.7
211(20) 0.002525 205.8 205.8
176(18) 0.003019 205.9 205.9
185(19) 0.002770 206.1 206.1
165(18) 0.003156 206.2 206.2
194(19) 0.002770 206.3 206.3
188(19) 0.002922 206.4 206.4
159(17) 0.003303 206.6 206.6
168(18) 0.003086 206.7 206.7
198(20) 0.002630 206.8 206.8
175(18) 0.003156 206.9 206.9
152(17) 0.003501 207.0 207.0
171(18) 0.003052 207.1 207.1
238(21) 0.002184 207.3 207.3
199(19) 0.002657 207.4 207.4
189(19) 0.002891 207.5 207.5
196(19) 0.002770 207.6 207.6
149(17) 0.00354 207.7 207.7
199(20) 0.002603 207.8 207.8
173(18) 0.002986 207.9 207.9
183(18) 0.002954 208.0 208.0
198(19) 0.002685 208.1 208.1
176(18) 0.003052 208.2 208.2
208(20) 0.002475 208.3 208.3
166(18) 0.003156 208.4 208.4
175(18) 0.003086 208.5 208.5
172(18) 0.003192 208.6 208.6
194(19) 0.002741 208.7 208.7
189(19) 0.002741 208.8 208.8
202(20) 0.002603 208.8 208.8
203(19) 0.002657 208.9 208.9
222(20) 0.002500 209.0 209.0
222(21) 0.002356 209.1 209.1
199(20) 0.002630 209.2 209.2
217(20) 0.002403 209.2 209.2
196(19) 0.002741 209.3 209.3
186(19) 0.002922 209.4 209.4
204(20) 0.002551 209.5 209.5
214(20) 0.002427 209.5 209.5
246(22) 0.002143 209.6 209.6
199(19) 0.002713 209.7 209.7
198(19) 0.002741 209.8 209.8
214(20) 0.002451 209.8 209.8
187(19) 0.002829 209.9 209.9
180(19) 0.002891 209.9 209.9
205(20) 0.002630 210.0 210.0
199(19) 0.002741 210.1 210.1
234(16) 0.00406 210.1 210.1
206(17) 0.003501 210.2 210.2
210(18) 0.003156 210.2 210.2
229(18) 0.003019 210.3 210.3
210(17) 0.003303 210.3 210.3
211(18) 0.003192 210.4 210.4
180(16) 0.00372 210.4 210.4
177(16) 0.00372 210.5 210.5
196(17) 0.003501 210.5 210.5
194(17) 0.003501 210.6 210.6
178(16) 0.00386 210.6 210.6
175(16) 0.00381 210.7 210.7
191(17) 0.003460 210.7 210.7
201(17) 0.003420 210.7 210.7
199(17) 0.003420 210.8 210.8
223(18) 0.003052 210.8 210.8
199(17) 0.003380 210.8 210.8
230(19) 0.002891 210.9 210.9
212(18) 0.003192 210.9 210.9
229(18) 0.003052 210.9 210.9
221(18) 0.003052 211.0 211.0
242(19) 0.002741 211.0 211.0
227(19) 0.002922 211.0 211.0
230(19) 0.002922 211.0 211.0
255(19) 0.002685 211.1 211.1
279(20) 0.002427 211.1 211.1
294(21) 0.002268 211.1 211.1
256(20) 0.002630 211.1 211.1
344(23) 0.001941 211.1 211.1
380(23) 0.001826 211.2 211.2
380(24) 0.001780 211.2 211.2
361(23) 0.001858 211.2 211.2
368(24) 0.001811 211.2 211.2
315(22) 0.002163 211.2 211.2
294(21) 0.002311 211.2 211.2
304(21) 0.002246 211.2 211.2
245(19) 0.002741 211.2 211.2
215(18) 0.003052 211.2 211.2
253(20) 0.002630 211.3 211.3
195(17) 0.00354 211.3 211.3
224(18) 0.002954 211.3 211.3
229(19) 0.002922 211.3 211.3
211(18) 0.003121 211.3 211.3
176(16) 0.00391 211.3 211.3
196(17) 0.003460 211.3 211.3
192(17) 0.00359 211.2 211.2
177(16) 0.00376 211.2 211.2
199(17) 0.003341 211.2 211.2
190(17) 0.00354 211.2 211.2
177(16) 0.00381 211.2 211.2
204(17) 0.003341 211.2 211.2
209(18) 0.003192 211.2 211.2
223(18) 0.003019 211.2 211.2
210(18) 0.003228 211.2 211.2
234(19) 0.002891 211.2 211.2
208(18) 0.003228 211.1 211.1
214(18) 0.003121 211.1 211.1
203(18) 0.003228 211.1 211.1
222(18) 0.003019 211.1 211.1
234(18) 0.002954 211.1 211.1
197(17) 0.003420 211.1 211.1
214(18) 0.003086 211.0 211.0
225(18) 0.002986 211.0 211.0
183(17) 0.00367 211.0 211.0
198(17) 0.003501 211.0 211.0
214(18) 0.003121 210.9 210.9
204(17) 0.003303 210.9 210.9
199(17) 0.003303 210.9 210.9
220(18) 0.003086 210.9 210.9
192(17) 0.00359 210.8 210.8
185(17) 0.00363 210.8 210.8
192(17) 0.003420 210.8 210.8
184(17) 0.00359 210.7 210.7
208(18) 0.003192 210.7 210.7
173(16) 0.00396 210.7 210.7
217(18) 0.003052 210.6 210.6
188(17) 0.00359 210.6 210.6
211(18) 0.003156 210.6 210.6
183(17) 0.00367 210.5 210.5
204(17) 0.003420 210.5 210.5
195(17) 0.003460 210.5 210.5
201(17) 0.003303 210.4 210.4
189(17) 0.00359 210.4 210.4
201(17) 0.003303 210.3 210.3
225(18) 0.003086 210.3 210.3
203(17) 0.003303 210.3 210.3
200(17) 0.003380 210.2 210.2
180(17) 0.00359 210.2 210.2
179(16) 0.00381 210.1 210.1
213(18) 0.003192 210.1 210.1
170(16) 0.00396 210.0 210.0
195(17) 0.003420 210.0 210.0
168(16) 0.00391 209.9 209.9
193(17) 0.00354 209.9 209.9
221(18) 0.003086 209.9 209.9
199(17) 0.003380 209.8 209.8
213(18) 0.003192 209.8 209.8
211(18) 0.003156 209.7 209.7
200(17) 0.003380 209.7 209.7
174(16) 0.00391 209.6 209.6
203(17) 0.003341 209.6 209.6
205(17) 0.003303 209.5 209.5
197(17) 0.003341 209.5 209.5
196(17) 0.003420 209.4 209.4
237(19) 0.002891 209.4 209.4
225(18) 0.002954 209.3 209.3
187(17) 0.00359 209.2 209.2
194(17) 0.003341 209.2 209.2
209(18) 0.003265 209.1 209.1
212(18) 0.003265 209.1 209.1
189(17) 0.00354 209.0 209.0
191(17) 0.003501 209.0 209.0
198(17) 0.003303 208.9 208.9
185(17) 0.00367 208.9 208.9
199(17) 0.003460 208.8 208.8
188(17) 0.00354 208.8 208.8
222(18) 0.003019 208.7 208.7
210(18) 0.003156 208.6 208.6
205(17) 0.003303 208.6 208.6
225(18) 0.003086 208.5 208.5
215(18) 0.003086 208.5 208.5
227(18) 0.002954 208.4 208.4
213(18) 0.003121 208.4 208.4
190(17) 0.00354 208.3 208.3
199(17) 0.003420 208.2 208.2
198(17) 0.003420 208.2 208.2
198(17) 0.003420 208.1 208.1
196(17) 0.003341 208.1 208.1
178(16) 0.00381 208.0 208.0
202(17) 0.003380 207.9 208.0
178(16) 0.00381 207.9 207.9
177(16) 0.00372 207.8 207.8
195(17) 0.003420 207.8 207.8
184(17) 0.00367 207.7 207.7
204(17) 0.003380 207.7 207.7
202(17) 0.003341 207.6 207.6
199(17) 0.003341 207.5 207.5
199(17) 0.003303 207.5 207.5
196(17) 0.003460 207.4 207.4
196(17) 0.00354 207.4 207.4
161(16) 0.00406 207.3 207.3
202(17) 0.003380 207.2 207.2
222(18) 0.002986 207.2 207.2
214(18) 0.003192 207.1 207.1
202(17) 0.003380 207.1 207.1
165(16) 0.00406 207.0 207.0
196(17) 0.003420 207.0 207.0
202(17) 0.003341 206.9 206.9
213(18) 0.003156 206.8 206.8
228(18) 0.002986 206.8 206.8
179(16) 0.00381 206.7 206.7
193(17) 0.003460 206.7 206.7
168(16) 0.00391 206.6 206.6
165(16) 0.00406 206.6 206.6
206(17) 0.003303 206.5 206.5
193(17) 0.003501 206.4 206.4
188(17) 0.003501 206.4 206.4
177(16) 0.00376 206.3 206.3
170(16) 0.00396 206.3 206.3
185(16) 0.00381 206.2 206.2
181(17) 0.00367 206.2 206.2
180(16) 0.00372 206.1 206.1
178(16) 0.00372 206.1 206.1
205(17) 0.003341 206.0 206.0
184(16) 0.00372 205.9 205.9
234(19) 0.002891 205.9 205.9
174(16) 0.00386 205.8 205.8
185(17) 0.00359 205.8 205.8
217(18) 0.003086 205.7 205.7
188(17) 0.00367 205.7 205.7
203(18) 0.003265 205.6 205.6
227(19) 0.002922 205.6 205.6
205(18) 0.003265 205.5 205.5
186(17) 0.00354 205.5 205.5
189(17) 0.00367 205.4 205.4
195(17) 0.003460 205.4 205.4
182(16) 0.00372 205.3 205.3
198(17) 0.003341 205.3 205.3
228(18) 0.002986 205.2 205.2
217(18) 0.003192 205.2 205.2
229(19) 0.002922 205.1 205.1
187(17) 0.00363 205.1 205.1
200(17) 0.003303 205.1 205.1
200(17) 0.003380 205.0 205.0
219(18) 0.003156 205.0 205.0
193(17) 0.003460 204.9 204.9
211(18) 0.003121 204.9 204.9
190(17) 0.003501 204.8 204.8
192(17) 0.003501 204.8 204.8
193(17) 0.00354 204.8 204.8
195(17) 0.003420 204.7 204.7
182(17) 0.00367 204.7 204.7
201(17) 0.003341 204.6 204.6
213(18) 0.003156 204.6 204.6
201(17) 0.003460 204.6 204.6
179(16) 0.00372 204.5 204.5
222(18) 0.003052 204.5 204.5
215(18) 0.003086 204.5 204.5
234(19) 0.002860 204.4 204.4
210(18) 0.003265 204.4 204.4
210(18) 0.003265 204.3 204.3
203(18) 0.003228 204.3 204.3
163(16) 0.00406 204.3 204.3
197(17) 0.003420 204.3 204.3
205(17) 0.003380 204.2 204.2
209(18) 0.003156 204.2 204.2
222(18) 0.003052 204.2 204.2
208(18) 0.003156 204.1 204.1
217(18) 0.003156 204.1 204.1
196(17) 0.003501 204.1 204.1
179(16) 0.00376 204.1 204.1
183(17) 0.00363 204.0 204.0
217(18) 0.003052 204.0 204.0
188(17) 0.00363 204.0 204.0
209(18) 0.003265 204.0 204.0
206(18) 0.003265 203.9 203.9
213(18) 0.003156 203.9 203.9
188(17) 0.00359 203.9 203.9
204(18) 0.003265 203.9 203.9
192(17) 0.00354 203.9 203.9
175(16) 0.00391 203.9 203.9
230(19) 0.002860 203.8 203.8
214(18) 0.003121 203.8 203.8
173(16) 0.00391 203.8 203.8
239(19) 0.002891 203.8 203.8
238(19) 0.002860 203.8 203.8
199(17) 0.003380 203.8 203.8
201(18) 0.003265 203.8 203.8
195(17) 0.003501 203.8 203.8
208(17) 0.003303 203.8 203.8
219(18) 0.003086 203.8 203.8
177(16) 0.00376 203.7 203.7
164(16) 0.00411 203.7 203.7
206(18) 0.003265 203.7 203.7
214(18) 0.003228 203.7 203.7
191(17) 0.003460 203.7 203.7
210(18) 0.003192 203.7 203.7
217(18) 0.003086 203.7 203.7
227(18) 0.002954 203.7 203.7
196(17) 0.003501 203.7 203.7
174(16) 0.00386 203.7 203.7
206(18) 0.003228 203.7 203.7
187(17) 0.00359 203.8 203.8
203(17) 0.003303 203.8 203.8
218(18) 0.003156 203.8 203.8
190(17) 0.00354 203.8 203.8
196(17) 0.003420 203.8 203.8
221(18) 0.003019 203.8 203.8
214(18) 0.003156 203.8 203.8
204(17) 0.003380 203.8 203.8
189(17) 0.00359 203.8 203.8
178(16) 0.00376 203.9 203.9
204(18) 0.003228 203.9 203.9
206(18) 0.003265 203.9 203.9
219(18) 0.003156 203.9 203.9
219(18) 0.003052 203.9 203.9
225(18) 0.002954 204.0 204.0
200(17) 0.003341 204.0 204.0
240(19) 0.002799 204.0 204.0
212(18) 0.003228 204.0 204.0
220(18) 0.003086 204.1 204.1
190(17) 0.003460 204.1 204.1
202(17) 0.003341 204.1 204.1
254(20) 0.002630 204.1 204.1
237(19) 0.002922 204.2 204.2
210(18) 0.003192 204.2 204.2
222(18) 0.003052 204.2 204.2
197(17) 0.003380 204.3 204.3
201(17) 0.003341 204.3 204.3
218(18) 0.003121 204.4 204.4
210(18) 0.003265 204.4 204.4
227(19) 0.002891 204.4 204.4
209(18) 0.003156 204.5 204.5
234(19) 0.002860 204.5 204.5
188(16) 0.00372 204.6 204.6
187(17) 0.00359 204.6 204.6
205(18) 0.003265 204.7 204.7
197(17) 0.003420 204.7 204.7
191(17) 0.003501 204.7 204.7
233(18) 0.002986 204.8 204.8
246(19) 0.002741 204.9 204.9
212(18) 0.003121 204.9 204.9
230(19) 0.002922 205.0 205.0
215(18) 0.003156 205.0 205.0
199(17) 0.003420 205.1 205.1
199(17) 0.003341 205.1 205.1
201(17) 0.003380 205.2 205.2
234(19) 0.002799 205.2 205.2
219(18) 0.003086 205.3 205.3
229(18) 0.002954 205.4 205.4
226(18) 0.002986 205.4 205.4
202(17) 0.003380 205.5 205.5
224(18) 0.002954 205.6 205.6
235(19) 0.002860 205.6 205.6
211(17) 0.003303 205.7 205.7
217(18) 0.003086 205.8 205.8
206(18) 0.003265 205.8 205.8
170(16) 0.00391 205.9 205.9
218(18) 0.003121 206.0 206.0
197(17) 0.003501 206.1 206.1
220(18) 0.003086 206.1 206.1
213(18) 0.003086 206.2 206.2
214(18) 0.003121 206.3 206.3
230(19) 0.002922 206.4 206.4
221(18) 0.003121 206.5 206.5
197(17) 0.003380 206.5 206.5
222(18) 0.003019 206.6 206.6
217(18) 0.003086 206.7 206.7
235(19) 0.002922 206.8 206.8
211(18) 0.003228 206.9 206.9
241(19) 0.002799 207.0 207.0
207(18) 0.003228 207.1 207.1
229(19) 0.002922 207.2 207.2
208(18) 0.003228 207.3 207.3
228(18) 0.003019 207.4 207.4
226(18) 0.003019 207.4 207.4
230(19) 0.002891 207.5 207.5
219(18) 0.003052 207.6 207.6
217(18) 0.003086 207.7 207.7
223(18) 0.003086 207.8 207.8
213(18) 0.003121 207.9 207.9
203(17) 0.003303 208.1 208.1
228(18) 0.002954 208.2 208.2
216(18) 0.003052 208.3 208.3
234(18) 0.003019 208.4 208.4
215(18) 0.003086 208.5 208.5
252(19) 0.002657 208.6 208.6
221(18) 0.003019 208.7 208.7
224(18) 0.003052 208.8 208.8
272(20) 0.002525 208.9 208.9
219(18) 0.003086 209.0 209.0
205(18) 0.003265 209.2 209.2
225(18) 0.002986 209.3 209.3
226(18) 0.002986 209.4 209.4
227(18) 0.003019 209.5 209.5
217(18) 0.003121 209.6 209.6
228(19) 0.002891 209.8 209.8
228(18) 0.002954 209.9 209.9
218(18) 0.003052 210.0 210.0
203(17) 0.003341 210.1 210.1
225(18) 0.003019 210.3 210.3
247(19) 0.002713 210.4 210.4
244(19) 0.002741 210.5 210.5
243(19) 0.002770 210.7 210.7
223(18) 0.003086 210.8 210.8
208(18) 0.003265 210.9 210.9
270(20) 0.002475 211.1 211.1
221(18) 0.003052 211.2 211.2
225(18) 0.002986 211.3 211.3
227(18) 0.003086 211.5 211.5
279(20) 0.002427 211.6 211.6
262(20) 0.002525 211.8 211.8
213(18) 0.003156 211.9 211.9
235(19) 0.002860 212.0 212.0
238(19) 0.002891 212.2 212.2
216(18) 0.003086 212.3 212.3
221(18) 0.003052 212.5 212.5
204(18) 0.003265 212.6 212.6
266(20) 0.002551 212.8 212.8
277(20) 0.002475 212.9 212.9
256(20) 0.002630 213.1 213.1
215(18) 0.003121 213.2 213.2
228(19) 0.002922 213.4 213.4
244(19) 0.002770 213.5 213.5
216(18) 0.003228 213.7 213.7
234(19) 0.002891 213.9 213.9
258(20) 0.002603 214.0 214.0
259(20) 0.002577 214.2 214.2
240(19) 0.002829 214.3 214.3
238(19) 0.002860 214.5 214.5
213(18) 0.003192 214.7 214.7
215(18) 0.003086 214.8 214.8
229(19) 0.002891 215.0 215.0
261(20) 0.002630 215.2 215.2
221(18) 0.003086 215.3 215.3
236(19) 0.002860 215.5 215.5
230(19) 0.002891 215.7 215.7
258(20) 0.002603 215.8 215.8
227(18) 0.003019 216.0 216.0
242(19) 0.002860 216.2 216.2
245(19) 0.002741 216.4 216.4
215(18) 0.003156 216.5 216.5
222(18) 0.002986 216.7 216.7
248(19) 0.002713 216.9 216.9
274(20) 0.002551 217.1 217.1
291(21) 0.002268 217.3 217.3
234(19) 0.002891 217.4 217.4
256(20) 0.002551 217.6 217.6
229(18) 0.002954 217.8 217.8
262(20) 0.002630 218.0 218.0
264(20) 0.002577 218.2 218.2
215(18) 0.003121 218.4 218.4
234(19) 0.002860 218.5 218.5
231(19) 0.002922 218.7 218.7
259(19) 0.002685 218.9 218.9
239(19) 0.002829 219.1 219.1
238(19) 0.002799 219.3 219.3
239(19) 0.002829 219.5 219.5
248(19) 0.002713 219.7 219.7
215(18) 0.003228 219.9 219.9
286(21) 0.002356 220.1 220.1
238(19) 0.002799 220.3 220.3
269(20) 0.002451 220.5 220.5
278(20) 0.002427 220.7 220.7
240(19) 0.002829 220.9 220.9
248(19) 0.002741 221.1 221.1
242(19) 0.002770 221.3 221.3
254(20) 0.002630 221.5 221.5
252(19) 0.002685 221.7 221.7
253(19) 0.002713 221.9 221.9
250(19) 0.002713 222.1 222.1
224(18) 0.003052 222.3 222.3
252(20) 0.002630 222.5 222.5
293(21) 0.002334 222.7 222.7
223(18) 0.003086 222.9 222.9
248(19) 0.002741 223.1 223.1
238(19) 0.002799 223.3 223.3
226(18) 0.002954 223.5 223.5
257(20) 0.002603 223.7 223.7
222(18) 0.003086 223.9 223.9
240(19) 0.002799 224.2 224.2
279(20) 0.002403 224.4 224.4
245(19) 0.002685 224.6 224.6
257(19) 0.002657 224.8 224.8
269(20) 0.002551 225.0 225.0
242(19) 0.002799 225.2 225.2
266(20) 0.002500 225.5 225.5
250(19) 0.002685 225.7 225.7
245(19) 0.002770 225.9 225.9
258(19) 0.002685 226.1 226.1
232(19) 0.002891 226.3 226.3
230(18) 0.002954 226.5 226.5
218(18) 0.003052 226.8 226.8
286(21) 0.002356 227.0 227.0
230(18) 0.003019 227.2 227.2
259(20) 0.002551 227.4 227.4
233(19) 0.002891 227.7 227.7
262(20) 0.002525 227.9 227.9
273(20) 0.002451 228.1 228.1
244(19) 0.002860 228.3 228.3
254(19) 0.002657 228.6 228.6
254(19) 0.002657 228.8 228.8
276(20) 0.002403 229.0 229.0
285(21) 0.002356 229.3 229.3
268(20) 0.002577 229.5 229.5
243(19) 0.002799 229.7 229.7
260(20) 0.002525 229.9 229.9
246(19) 0.002741 230.2 230.2
271(20) 0.002500 230.4 230.4
231(18) 0.002954 230.6 230.6
257(20) 0.002630 230.9 230.9
241(19) 0.002741 231.1 231.1
236(19) 0.002799 231.3 231.3
249(19) 0.002741 231.6 231.6
238(19) 0.002891 231.8 231.8
239(19) 0.002799 232.1 232.1
232(19) 0.002922 232.3 232.3
222(18) 0.002986 232.5 232.5
214(18) 0.003192 232.8 232.8
229(18) 0.002986 233.0 233.0
257(20) 0.002630 233.2 233.2
275(20) 0.002451 233.5 233.5
231(19) 0.002829 233.7 233.7
260(20) 0.002603 234.0 234.0
259(19) 0.002657 234.2 234.2
243(19) 0.002770 234.4 234.4
226(18) 0.002954 234.7 234.7
257(20) 0.002577 234.9 234.9
247(19) 0.002741 235.2 235.2
263(20) 0.002603 235.4 235.4
254(20) 0.002630 235.7 235.7
243(19) 0.002741 235.9 235.9
245(19) 0.002713 236.1 236.1
277(20) 0.002451 236.4 236.4
236(19) 0.002922 236.6 236.6
238(19) 0.002799 236.9 236.9
259(20) 0.002603 237.1 237.1
214(18) 0.003086 237.4 237.4
249(19) 0.002741 237.6 237.6
223(18) 0.003019 237.9 237.9
260(20) 0.002603 238.1 238.1
248(19) 0.002713 238.4 238.4
256(20) 0.002551 238.6 238.6
254(19) 0.002685 238.8 238.8
269(20) 0.002500 239.1 239.1
260(20) 0.002603 239.3 239.3
252(20) 0.002630 239.6 239.6
265(20) 0.002475 239.8 239.8
250(19) 0.002741 240.1 240.1
253(19) 0.002713 240.3 240.3
252(19) 0.002685 240.6 240.6
256(20) 0.002577 240.8 240.8
283(21) 0.002380 241.1 241.1
277(20) 0.002427 241.3 241.3
263(20) 0.002603 241.6 241.6
271(20) 0.002475 241.8 241.8
264(20) 0.002500 242.1 242.1
255(20) 0.002630 242.3 242.3
271(20) 0.002500 242.6 242.6
270(20) 0.002500 242.8 242.8
258(20) 0.002630 243.1 243.1
242(19) 0.002713 243.3 243.3
258(20) 0.002577 243.6 243.6
260(20) 0.002577 243.8 243.8
243(19) 0.002799 244.1 244.1
217(18) 0.003156 244.3 244.3
232(19) 0.002891 244.6 244.6
217(18) 0.003052 244.9 244.9
254(20) 0.002630 245.1 245.1
255(19) 0.002713 245.4 245.4
249(19) 0.002657 245.6 245.6
245(19) 0.002770 245.9 245.9
247(19) 0.002657 246.1 246.1
264(20) 0.002525 246.4 246.4
260(19) 0.002685 246.6 246.6
259(20) 0.002577 246.9 246.9
216(18) 0.003086 247.1 247.1
265(20) 0.002500 247.4 247.4
243(19) 0.002770 247.6 247.6
262(20) 0.002630 247.9 247.9
240(19) 0.002770 248.1 248.1
219(18) 0.003052 248.4 248.4
276(20) 0.002427 248.6 248.6
237(19) 0.002860 248.9 248.9
248(19) 0.002741 249.1 249.1
245(19) 0.002799 249.4 249.4
239(19) 0.002741 249.6 249.6
234(19) 0.002829 249.9 249.9
217(18) 0.003086 250.1 250.1
254(19) 0.002685 250.4 250.4
273(20) 0.002475 250.6 250.7
255(20) 0.002630 250.9 250.9
280(21) 0.002356 251.2 251.2
237(19) 0.002829 251.4 251.4
221(18) 0.003121 251.7 251.7
250(19) 0.002685 251.9 251.9
282(21) 0.002356 252.2 252.2
238(19) 0.002799 252.4 252.4
242(19) 0.002770 252.7 252.7
248(19) 0.002770 252.9 252.9
281(20) 0.002427 253.2 253.2
267(20) 0.002475 253.4 253.4
242(19) 0.002741 253.7 253.7
267(20) 0.002500 253.9 253.9
253(19) 0.002741 254.2 254.2
266(20) 0.002500 254.4 254.4
253(20) 0.002630 254.7 254.7
259(20) 0.002603 254.9 254.9
259(20) 0.002577 255.1 255.1
265(20) 0.002603 255.4 255.4
252(20) 0.002630 255.6 255.6
234(19) 0.002860 255.9 255.9
235(19) 0.002799 256.1 256.1
267(20) 0.002525 256.4 256.4
232(18) 0.002954 256.6 256.6
271(20) 0.002500 256.9 256.9
288(21) 0.002289 257.1 257.1
269(20) 0.002500 257.4 257.4
264(20) 0.002525 257.6 257.6
265(16) 0.00391 257.9 257.9
238(17) 0.003501 258.1 258.1
281(19) 0.002770 258.3 258.3
288(19) 0.002713 258.6 258.6
275(19) 0.002922 258.8 258.8
252(18) 0.003192 259.1 259.1
259(18) 0.003086 259.3 259.3
222(17) 0.003501 259.6 259.6
242(18) 0.003228 259.8 259.8
251(18) 0.003156 260.0 260.0
254(18) 0.003156 260.3 260.3
256(18) 0.003086 260.5 260.5
284(19) 0.002799 260.8 260.8
267(19) 0.002922 261.0 261.0
279(19) 0.002829 261.2 261.2
265(18) 0.003052 261.5 261.5
297(19) 0.002685 261.7 261.7
270(19) 0.002891 262.0 262.0
269(19) 0.002860 262.2 262.2
275(19) 0.002860 262.4 262.4
295(19) 0.002770 262.7 262.7
222(17) 0.00354 262.9 262.9
272(19) 0.002891 263.1 263.1
287(19) 0.002657 263.4 263.4
276(19) 0.002891 263.6 263.6
243(17) 0.003303 263.8 263.8
279(19) 0.002860 264.1 264.1
301(20) 0.002603 264.3 264.3
301(20) 0.002603 264.5 264.5
281(19) 0.002829 264.8 264.8
258(18) 0.003156 265.0 265.0
277(19) 0.002829 265.2 265.2
269(18) 0.002954 265.5 265.5
252(18) 0.003052 265.7 265.7
286(19) 0.002770 265.9 265.9
275(19) 0.002891 266.1 266.1
282(19) 0.002829 266.4 266.4
271(19) 0.002860 266.6 266.6
262(18) 0.002954 266.8 266.8
251(18) 0.003156 267.1 267.1
290(19) 0.002741 267.3 267.3
294(19) 0.002685 267.5 267.5
326(20) 0.002427 267.7 267.7
291(20) 0.002630 268.0 268.0
310(20) 0.002577 268.2 268.2
269(18) 0.002986 268.4 268.4
275(19) 0.002891 268.6 268.6
292(19) 0.002685 268.8 268.8
280(19) 0.002770 269.1 269.1
245(18) 0.003265 269.3 269.3
268(18) 0.002986 269.5 269.5
281(19) 0.002829 269.7 269.7
234(17) 0.003341 269.9 269.9
261(18) 0.002986 270.1 270.1
267(19) 0.002922 270.4 270.4
301(19) 0.002657 270.6 270.6
267(18) 0.002986 270.8 270.8
255(18) 0.003052 271.0 271.0
277(19) 0.002799 271.2 271.2
242(17) 0.003303 271.4 271.4
252(18) 0.003156 271.6 271.6
273(18) 0.002954 271.9 271.9
267(19) 0.002922 272.1 272.1
268(19) 0.002922 272.3 272.3
253(18) 0.003121 272.5 272.5
289(19) 0.002799 272.7 272.7
274(19) 0.002922 272.9 272.9
247(18) 0.003156 273.1 273.1
258(18) 0.003019 273.3 273.3
262(18) 0.003019 273.5 273.5
274(19) 0.002922 273.7 273.7
271(18) 0.002954 273.9 273.9
282(19) 0.002770 274.1 274.1
258(18) 0.003019 274.3 274.3
276(19) 0.002891 274.5 274.5
257(18) 0.003086 274.7 274.7
271(18) 0.002954 274.9 274.9
315(20) 0.002475 275.1 275.1
284(19) 0.002713 275.3 275.3
237(17) 0.003380 275.5 275.5
274(18) 0.002954 275.7 275.7
259(18) 0.003052 275.9 275.9
282(19) 0.002770 276.1 276.1
272(19) 0.002891 276.3 276.3
262(18) 0.003019 276.5 276.5
218(17) 0.00367 276.7 276.7
279(19) 0.002860 276.9 276.9
271(19) 0.002860 277.1 277.1
250(18) 0.003156 277.3 277.3
269(19) 0.002891 277.5 277.5
261(18) 0.003121 277.6 277.6
267(18) 0.002954 277.8 277.8
277(19) 0.002799 278.0 278.0
267(19) 0.002922 278.2 278.2
264(18) 0.002954 278.4 278.4
292(19) 0.002770 278.6 278.6
290(19) 0.002770 278.8 278.8
265(18) 0.002954 278.9 278.9
295(19) 0.002657 279.1 279.1
278(19) 0.002829 279.3 279.3
243(17) 0.003341 279.5 279.5
285(19) 0.002770 279.7 279.7
282(19) 0.002770 279.8 279.8
252(18) 0.003121 280.0 280.0
281(19) 0.002770 280.2 280.2
278(18) 0.002954 280.4 280.4
277(19) 0.002829 280.5 280.5
298(20) 0.002603 280.7 280.7
265(19) 0.002922 280.9 280.9
239(17) 0.003303 281.1 281.1
238(17) 0.003341 281.2 281.2
247(18) 0.003228 281.4 281.4
261(18) 0.002986 281.6 281.6
256(18) 0.003019 281.7 281.7
288(19) 0.002770 281.9 281.9
256(18) 0.003156 282.1 282.1
280(19) 0.002860 282.2 282.2
295(20) 0.002603 282.4 282.4
267(18) 0.002954 282.6 282.6
265(18) 0.002954 282.7 282.7
261(18) 0.003052 282.9 282.9
267(18) 0.002986 283.0 283.0
271(19) 0.002891 283.2 283.2
308(20) 0.002500 283.4 283.4
277(19) 0.002860 283.5 283.5
261(18) 0.003086 283.7 283.7
293(19) 0.002685 283.8 283.8
280(19) 0.002799 284.0 284.0
242(18) 0.003192 284.1 284.1
256(18) 0.003121 284.3 284.3
249(18) 0.003228 284.4 284.4
244(17) 0.003303 284.6 284.6
279(19) 0.002770 284.7 284.7
282(19) 0.002770 284.9 284.9
266(18) 0.002954 285.0 285.0
280(19) 0.002860 285.2 285.2
274(19) 0.002922 285.3 285.3
283(19) 0.002741 285.5 285.5
277(19) 0.002829 285.6 285.6
298(19) 0.002657 285.8 285.8
295(19) 0.002741 285.9 285.9
250(18) 0.003156 286.1 286.1
254(18) 0.003086 286.2 286.2
262(18) 0.002954 286.3 286.3
266(18) 0.002954 286.5 286.5
264(18) 0.003052 286.6 286.6
273(18) 0.002954 286.8 286.8
240(18) 0.003228 286.9 286.9
246(18) 0.003192 287.0 287.0
268(19) 0.002922 287.2 287.2
287(19) 0.002829 287.3 287.3
274(19) 0.002891 287.4 287.4
256(18) 0.003086 287.6 287.6
271(19) 0.002860 287.7 287.7
259(18) 0.003052 287.8 287.8
277(19) 0.002922 288.0 288.0
271(19) 0.002922 288.1 288.1
258(18) 0.002986 288.2 288.2
247(18) 0.003192 288.3 288.3
259(18) 0.003019 288.5 288.5
245(18) 0.003265 288.6 288.6
241(17) 0.003341 288.7 288.7
292(19) 0.002657 288.8 288.8
293(19) 0.002685 288.9 289.0
285(19) 0.002770 289.1 289.1
278(19) 0.002891 289.2 289.2
287(19) 0.002770 289.3 289.3
242(18) 0.003228 289.4 289.4
251(18) 0.003086 289.5 289.5
248(18) 0.003192 289.7 289.7
272(18) 0.002954 289.8 289.8
249(18) 0.003228 289.9 289.9
256(18) 0.003052 290.0 290.0
279(19) 0.002770 290.1 290.1
241(17) 0.003303 290.2 290.2
246(18) 0.003192 290.3 290.3
243(17) 0.003303 290.4 290.4
284(19) 0.002713 290.6 290.6
282(19) 0.002770 290.7 290.7
280(19) 0.002829 290.8 290.8
282(19) 0.002829 290.9 290.9
299(19) 0.002685 291.0 291.0
266(19) 0.002922 291.1 291.1
244(18) 0.003228 291.2 291.2
255(18) 0.003052 291.3 291.3
266(18) 0.003052 291.4 291.4
260(18) 0.003019 291.5 291.5
263(18) 0.002986 291.6 291.6
294(19) 0.002685 291.7 291.7
247(18) 0.003192 291.8 291.8
245(18) 0.003265 291.9 291.9
275(19) 0.002891 292.0 292.0
267(19) 0.002922 292.1 292.1
245(18) 0.003156 292.2 292.2
261(18) 0.003019 292.3 292.3
264(18) 0.003052 292.4 292.4
256(18) 0.003121 292.5 292.5
267(19) 0.002922 292.5 292.5
297(20) 0.002630 292.6 292.6
276(19) 0.002860 292.7 292.7
228(17) 0.00354 292.8 292.8
267(18) 0.002954 292.9 292.9
261(18) 0.002986 293.0 293.0
296(20) 0.002630 293.1 293.1
292(19) 0.002741 293.2 293.2
281(19) 0.002829 293.2 293.2
275(19) 0.002922 293.3 293.3
275(19) 0.002829 293.4 293.4
262(18) 0.002954 293.5 293.5
280(19) 0.002799 293.6 293.6
280(19) 0.002891 293.7 293.7
277(19) 0.002829 293.7 293.7
293(19) 0.002713 293.8 293.8
270(19) 0.002860 293.9 293.9
266(18) 0.003019 294.0 294.0
293(19) 0.002741 294.0 294.0
269(18) 0.002954 294.1 294.1
309(20) 0.002551 294.2 294.2
270(19) 0.002829 294.3 294.3
313(20) 0.002525 294.3 294.3
266(18) 0.003052 294.4 294.4
285(19) 0.002799 294.5 294.5
287(19) 0.002741 294.6 294.6
275(19) 0.002799 294.6 294.6
269(19) 0.002922 294.7 294.7
294(19) 0.002685 294.8 294.8
266(18) 0.003019 294.8 294.8
280(19) 0.002770 294.9 294.9
266(19) 0.002891 295.0 295.0
290(19) 0.002770 295.0 295.0
285(19) 0.002799 295.1 295.1
262(18) 0.003052 295.2 295.2
261(18) 0.002986 295.2 295.2
266(19) 0.002922 295.3 295.3
267(18) 0.002986 295.4 295.4
290(19) 0.002741 295.4 295.4
271(18) 0.002954 295.5 295.5
277(19) 0.002860 295.5 295.5
297(20) 0.002603 295.6 295.6
278(19) 0.002860 295.7 295.7
238(17) 0.003341 295.7 295.7
248(18) 0.003192 295.8 295.8
282(19) 0.002770 295.8 295.8
276(19) 0.002770 295.9 295.9
251(18) 0.003156 295.9 295.9
269(18) 0.002986 296.0 296.0
279(19) 0.002891 296.0 296.1
278(19) 0.002799 296.1 296.1
274(19) 0.002860 296.2 296.2
291(19) 0.002685 296.2 296.2
274(19) 0.002922 296.3 296.3
274(19) 0.002922 296.3 296.3
274(19) 0.002829 296.4 296.4
260(18) 0.003019 296.4 296.4
274(19) 0.002891 296.5 296.5
273(19) 0.002922 296.5 296.5
273(19) 0.002891 296.6 296.6
274(19) 0.002860 296.6 296.6
287(19) 0.002657 296.7 296.7
277(19) 0.002860 296.7 296.7
296(19) 0.002685 296.7 296.7
258(18) 0.003086 296.8 296.8
287(19) 0.002741 296.8 296.8
282(19) 0.002770 296.9 296.9
259(18) 0.003086 296.9 296.9
269(18) 0.002986 297.0 297.0
278(19) 0.002860 297.0 297.0
266(18) 0.002954 297.0 297.0
274(19) 0.002799 297.1 297.1
289(19) 0.002741 297.1 297.1
273(18) 0.002954 297.2 297.2
270(18) 0.002954 297.2 297.2
275(19) 0.002860 297.2 297.2
273(19) 0.002799 297.3 297.3
286(19) 0.002799 297.3 297.3
267(18) 0.002986 297.4 297.4
290(19) 0.002713 297.4 297.4
270(19) 0.002922 297.4 297.4
245(18) 0.003121 297.5 297.5
260(18) 0.003086 297.5 297.5
272(18) 0.002986 297.5 297.5
256(18) 0.003086 297.6 297.6
273(19) 0.002860 297.6 297.6
298(20) 0.002630 297.6 297.6
281(19) 0.002770 297.7 297.7
259(18) 0.003086 297.7 297.7
287(19) 0.002713 297.7 297.7
287(19) 0.002770 297.8 297.8
274(19) 0.002829 297.8 297.8
270(18) 0.002954 297.8 297.8
283(19) 0.002799 297.9 297.9
284(19) 0.002829 297.9 297.9
247(18) 0.003121 297.9 297.9
251(18) 0.003086 298.0 298.0
272(19) 0.002891 298.0 298.0
291(19) 0.002799 298.0 298.0
279(19) 0.002891 298.1 298.1
311(20) 0.002525 298.1 298.1
266(19) 0.002922 298.1 298.1
261(18) 0.003052 298.1 298.1
275(19) 0.002891 298.2 298.2
281(19) 0.002829 298.2 298.2
285(19) 0.002741 298.2 298.2
277(19) 0.002829 298.3 298.3
305(20) 0.002603 298.3 298.3
298(19) 0.002713 298.3 298.3
289(19) 0.002741 298.3 298.3
305(20) 0.002551 298.4 298.4
301(20) 0.002577 298.4 298.4
285(19) 0.002770 298.4 298.4
283(19) 0.002829 298.4 298.4
272(19) 0.002922 298.5 298.5
280(19) 0.002829 298.5 298.5
274(19) 0.002829 298.5 298.5
291(19) 0.002741 298.5 298.5
292(19) 0.002741 298.6 298.6
268(19) 0.002922 298.6 298.6
306(20) 0.002577 298.6 298.6
274(19) 0.002799 298.6 298.6
299(19) 0.002657 298.7 298.7
241(17) 0.003303 298.7 298.7
242(17) 0.003341 298.7 298.7
249(18) 0.003121 298.7 298.7
270(19) 0.002891 298.8 298.8
289(19) 0.002741 298.8 298.8
288(19) 0.002770 298.8 298.8
290(19) 0.002770 298.8 298.8
240(18) 0.003265 298.9 298.9
265(18) 0.002954 298.9 298.9
278(19) 0.002860 298.9 298.9
273(18) 0.002986 298.9 298.9
257(18) 0.003086 298.9 298.9
260(18) 0.003019 299.0 299.0
270(19) 0.002829 299.0 299.0
320(20) 0.002475 299.0 299.0
282(19) 0.002829 299.0 299.0
271(19) 0.002922 299.1 299.1
277(19) 0.002829 299.1 300.1
296(20) 0.002630 299.1 300.1
293(19) 0.002713 299.1 300.2
295(19) 0.002685 299.1 300.2
263(18) 0.003019 299.2 300.2
298(20) 0.002630 299.2 300.3
313(20) 0.002475 299.2 300.3
305(20) 0.002603 299.2 300.3
262(18) 0.003086 299.3 300.3
264(18) 0.003052 299.3 300.4
307(20) 0.002577 299.3 300.4
287(19) 0.002713 299.3 300.4
288(19) 0.002713 299.4 300.4
287(19) 0.002799 299.4 300.5
295(19) 0.002685 299.4 300.5
274(19) 0.002829 299.4 300.5
268(19) 0.002922 299.4 300.6
255(18) 0.003121 299.5 300.6
291(19) 0.002770 299.5 300.6
273(19) 0.002891 299.5 300.7
257(18) 0.003019 299.5 300.7
263(19) 0.002922 299.6 300.7
289(19) 0.002741 299.6 300.7
305(20) 0.002630 299.6 300.8
317(20) 0.002525 299.6 300.8
280(19) 0.002829 299.7 300.8
308(20) 0.002525 299.7 300.9
296(19) 0.002685 299.7 300.9
303(20) 0.002630 299.7 300.9
311(20) 0.002551 299.8 301.0
272(19) 0.002891 299.8 301.0
286(19) 0.002713 299.8 301.0
283(19) 0.002770 299.9 301.1
269(18) 0.003019 299.9 301.1
318(20) 0.002525 299.9 301.1
266(19) 0.002922 299.9 301.2
307(20) 0.002525 300.0 301.2
301(20) 0.002603 300.0 301.2
266(18) 0.003019 300.0 301.3
281(19) 0.002829 300.1 301.3
279(19) 0.002770 300.1 301.3
291(19) 0.002685 300.1 301.4
276(19) 0.002891 300.1 301.4
296(19) 0.002713 300.2 301.4
295(19) 0.002741 300.2 301.5
283(19) 0.002713 300.2 301.5
306(20) 0.002551 300.3 301.6
313(20) 0.002525 300.3 301.6
331(20) 0.002403 300.3 301.6
295(19) 0.002713 300.4 301.7
302(20) 0.002577 300.4 301.7
289(19) 0.002685 300.4 301.7
301(20) 0.002630 300.5 301.8
316(20) 0.002525 300.5 301.8
301(19) 0.002657 300.5 301.9
322(20) 0.002427 300.6 301.9
268(19) 0.002860 300.6 302.0
314(20) 0.002551 300.6 302.0
333(20) 0.002427 300.7 302.0
301(19) 0.002657 300.7 302.1
320(20) 0.002451 300.8 302.1
303(20) 0.002551 300.8 302.2
298(20) 0.002630 300.8 302.2
294(19) 0.002741 300.9 302.3
293(19) 0.002685 300.9 302.3
304(20) 0.002577 301.0 302.4
268(19) 0.002860 301.0 302.4
285(19) 0.002829 301.0 302.5
303(20) 0.002630 301.1 302.5
300(20) 0.002630 301.1 302.6
297(20) 0.002630 301.2 302.6
272(19) 0.002829 301.2 302.7
305(20) 0.002603 301.3 302.7
275(19) 0.002891 301.3 302.8
288(19) 0.002770 301.3 302.8
261(18) 0.003019 301.4 302.9
278(19) 0.002829 301.4 302.9
304(20) 0.002603 301.5 303.0
283(19) 0.002799 301.5 303.1
298(19) 0.002657 301.6 303.1
315(20) 0.002475 301.6 303.2
318(20) 0.002427 301.7 303.2
313(20) 0.002475 301.7 303.3
266(18) 0.003052 301.8 303.3
293(19) 0.002713 301.8 303.4
301(20) 0.002630 301.9 303.5
317(20) 0.002403 302.0 303.5
274(19) 0.002891 302.0 303.6
311(20) 0.002577 302.1 303.7
291(19) 0.002713 302.1 303.7
330(21) 0.002356 302.2 303.8
302(20) 0.002577 302.2 303.9
319(20) 0.002500 302.3 303.9
315(20) 0.002525 302.4 304.0
316(20) 0.002525 302.4 304.1
318(20) 0.002427 302.5 304.1
358(22) 0.002143 302.5 304.2
340(21) 0.002334 302.6 304.3
319(20) 0.002475 302.7 304.4
310(20) 0.002577 302.7 304.4
312(20) 0.002500 302.8 304.5
314(20) 0.002475 302.9 304.6
303(20) 0.002603 302.9 304.7
288(19) 0.002770 303.0 304.7
312(20) 0.002551 303.1 304.8
326(20) 0.002403 303.1 304.9
290(20) 0.002630 303.2 305.0
277(19) 0.002891 303.3 305.1
301(19) 0.002685 303.4 305.1
295(19) 0.002713 303.4 305.2
293(19) 0.002657 303.5 305.3
263(18) 0.002954 303.6 305.4
302(20) 0.002551 303.7 305.5
316(20) 0.002577 303.7 305.6
299(19) 0.002657 303.8 305.7
288(19) 0.002685 303.9 305.8
295(20) 0.002603 304.0 305.9
342(21) 0.002334 304.1 305.9
307(20) 0.002603 304.1 306.0
332(21) 0.002356 304.2 306.1
284(19) 0.002741 304.3 306.2
312(20) 0.002500 304.4 306.3
319(20) 0.002451 304.5 306.4
310(20) 0.002603 304.6 306.5
314(20) 0.002500 304.7 306.6
314(20) 0.002525 304.8 306.7
346(21) 0.002246 304.8 306.8
302(20) 0.002603 304.9 306.9
304(20) 0.002603 305.0 307.0
293(19) 0.002713 305.1 307.2
301(20) 0.002603 305.2 307.3
302(20) 0.002525 305.3 307.4
306(20) 0.002603 305.4 307.5
340(21) 0.002334 305.5 307.6
318(20) 0.002525 305.6 307.7
304(20) 0.002577 305.7 307.8
342(21) 0.002246 305.8 307.9
318(20) 0.002475 305.9 308.1
314(20) 0.002525 306.0 308.2
293(19) 0.002713 306.1 308.3
311(20) 0.002500 306.2 308.4
304(20) 0.002577 306.3 308.5
330(21) 0.002380 306.5 308.7
272(18) 0.002986 306.6 308.8
307(20) 0.002577 306.7 308.9
287(19) 0.002685 306.8 309.0
292(19) 0.002657 306.9 309.2
285(19) 0.002741 307.0 309.3
316(20) 0.002525 307.1 309.4
324(20) 0.002451 307.3 309.6
293(19) 0.002657 307.4 309.7
325(20) 0.002403 307.5 309.8
312(20) 0.002551 307.6 310.0
326(20) 0.002403 307.7 310.1
290(19) 0.002741 307.9 310.3
306(20) 0.002551 308.0 310.4
328(21) 0.002334 308.1 310.5
349(21) 0.002268 308.2 310.7
309(20) 0.002603 308.4 310.8
302(19) 0.002657 308.5 311.0
280(19) 0.002770 308.6 311.1
301(20) 0.002577 308.8 311.3
336(21) 0.002289 308.9 311.4
318(20) 0.002551 309.0 311.6
297(20) 0.002630 309.2 311.7
314(20) 0.002475 309.3 311.9
317(20) 0.002451 309.5 312.1
294(19) 0.002657 309.6 312.2
320(20) 0.002551 309.8 312.4
303(20) 0.002577 309.9 312.5
317(20) 0.002451 310.0 312.7
331(21) 0.002311 310.2 312.9
318(20) 0.002500 310.3 313.0
331(21) 0.002380 310.5 313.2
340(21) 0.002356 310.6 313.4
318(20) 0.002451 310.8 313.6
300(20) 0.002603 311.0 313.7
317(20) 0.002475 311.1 313.9
300(19) 0.002657 311.3 314.1
352(21) 0.002225 311.4 314.3
317(20) 0.002475 311.6 314.5
298(20) 0.002577 311.7 314.6
324(20) 0.002427 311.9 314.8
323(20) 0.002475 312.1 315.0
314(20) 0.002551 312.2 315.2
331(21) 0.002380 312.4 315.4
338(21) 0.002268 312.6 315.6
360(22) 0.002163 312.8 315.8
326(20) 0.002475 312.9 316.0
377(22) 0.002066 313.1 316.2
348(21) 0.002246 313.3 316.4
365(22) 0.002124 313.5 316.6
365(22) 0.002163 313.6 316.8
376(22) 0.002143 313.8 317.0
406(23) 0.001958 314.0 317.2
363(22) 0.002124 314.2 317.4
373(22) 0.002104 314.4 317.6
401(23) 0.001941 314.6 317.8
413(23) 0.001941 314.7 318.0
381(22) 0.002066 314.9 318.2
435(24) 0.001811 315.1 318.5
407(23) 0.001907 315.3 318.7
355(21) 0.002225 315.5 318.9
394(22) 0.002011 315.7 319.1
388(22) 0.002047 315.9 319.4
364(22) 0.002163 316.1 319.6
351(22) 0.002163 316.3 319.8
357(21) 0.002246 316.5 320.0
360(21) 0.002184 316.7 320.3
373(22) 0.002143 316.9 320.5
346(21) 0.002268 317.1 320.8
337(21) 0.002268 317.3 321.0
350(16) 0.00406 317.6 321.2
340(18) 0.003086 317.8 321.5
360(19) 0.002741 318.0 321.7
375(20) 0.002603 318.2 322.0
376(20) 0.002603 318.4 322.2
380(20) 0.002630 318.6 322.5
374(19) 0.002685 318.9 322.7
401(20) 0.002475 319.1 323.0
343(19) 0.002829 319.3 323.2
389(20) 0.002500 319.5 323.5
384(20) 0.002603 319.8 323.8
362(19) 0.002770 320.0 324.0
342(19) 0.002922 320.2 324.3
383(20) 0.002525 320.5 324.6
374(20) 0.002630 320.7 324.8
350(19) 0.002829 320.9 325.1
388(20) 0.002603 321.2 325.4
380(20) 0.002577 321.4 325.7
394(20) 0.002475 321.7 326.0
378(20) 0.002577 321.9 326.2
376(19) 0.002657 322.1 326.5
400(20) 0.002525 322.4 326.8
375(20) 0.002630 322.6 327.1
371(20) 0.002603 322.9 327.4
396(20) 0.002451 323.2 327.7
360(19) 0.002713 323.4 328.0
365(19) 0.002770 323.7 328.3
396(20) 0.002500 323.9 328.6
363(19) 0.002657 324.2 328.9
365(19) 0.002657 324.4 329.2
380(20) 0.002603 324.7 329.5
381(20) 0.002630 325.0 329.8
370(19) 0.002685 325.2 330.1
368(20) 0.002630 325.5 330.5
428(21) 0.002246 325.8 330.8
466(22) 0.002143 326.1 331.1
411(20) 0.002451 326.3 331.4
430(21) 0.002268 326.6 331.8
458(22) 0.002124 326.9 332.1
498(23) 0.001958 327.2 332.4
487(22) 0.002011 327.5 332.8
484(22) 0.002085 327.7 333.1
500(23) 0.001941 328.0 333.4
599(25) 0.001639 328.3 333.8
502(23) 0.001924 328.6 334.1
497(22) 0.001993 328.9 334.5
493(22) 0.002047 329.2 334.8
482(22) 0.002029 329.5 335.2
455(22) 0.002163 329.8 335.5
425(21) 0.002268 330.1 335.9
408(20) 0.002427 330.4 336.3
414(20) 0.002427 330.7 336.6
420(21) 0.002356 331.0 337.0
412(21) 0.002356 331.3 337.4
395(20) 0.002427 331.6 337.7
353(19) 0.002829 331.9 338.1
397(20) 0.002525 332.2 338.5
406(20) 0.002403 332.6 338.9
381(20) 0.002551 332.9 339.3
400(20) 0.002403 333.2 339.7
389(20) 0.002577 333.5 340.1
369(19) 0.002685 333.8 340.4
364(19) 0.002713 334.2 340.8
394(20) 0.002451 334.5 341.3
383(20) 0.002577 334.8 341.7
361(19) 0.002713 335.1 342.1
378(19) 0.002657 335.5 342.5
401(20) 0.002451 335.8 342.9
348(19) 0.002799 336.1 343.3
369(20) 0.002603 336.5 343.7
340(19) 0.002922 336.8 344.2
352(19) 0.002829 337.2 344.6
378(20) 0.002630 337.5 345.0
397(20) 0.002451 337.9 345.5
349(19) 0.002770 338.2 345.9
368(19) 0.002685 338.6 346.3
355(19) 0.002860 338.9 346.8
354(19) 0.002770 339.3 347.2
371(20) 0.002603 339.6 347.7
362(19) 0.002685 340.0 348.2
359(19) 0.002799 340.3 348.6
401(20) 0.002500 340.7 349.1
368(19) 0.002685 341.1 349.6
367(20) 0.002630 341.4 350.0
368(19) 0.002657 341.8 350.5
386(20) 0.002551 342.2 351.0
415(20) 0.002427 342.5 351.5
404(20) 0.002427 342.9 352.0
432(21) 0.002246 343.3 352.5
441(21) 0.002225 343.7 353.0
452(21) 0.002184 344.0 353.5
449(21) 0.002225 344.4 354.0
460(22) 0.002124 344.8 354.5
480(22) 0.002047 345.2 355.0
501(23) 0.001907 345.6 355.5
499(22) 0.001993 346.0 356.1
507(22) 0.001993 346.4 356.6
505(23) 0.001958 346.8 357.1
520(23) 0.001874 347.2 357.7
562(24) 0.001708 347.6 358.2
613(25) 0.001626 348.0 358.8
653(26) 0.001526 348.4 359.3
634(25) 0.001575 348.8 359.9
663(26) 0.001446 349.2 360.5
655(26) 0.001468 349.6 361.0
649(25) 0.001550 350.0 361.6
632(25) 0.001587 350.4 362.2
593(25) 0.001652 350.8 362.8
575(24) 0.001694 351.2 363.4
496(23) 0.001941 351.6 364.0
516(23) 0.001941 352.1 364.6
435(21) 0.002289 352.5 365.2
473(22) 0.002085 352.9 365.9
432(21) 0.002268 353.3 366.5
437(21) 0.002204 353.8 367.1
417(20) 0.002403 354.2 367.8
413(20) 0.002403 354.6 368.4
399(20) 0.002475 355.1 369.1
409(21) 0.002380 355.5 369.8
415(21) 0.002334 355.9 370.4
412(21) 0.002380 356.4 371.1
392(20) 0.002577 356.8 371.8
412(21) 0.002380 357.3 372.5
414(21) 0.002356 357.7 373.2
394(20) 0.002427 358.2 373.9
374(19) 0.002657 358.6 374.7
387(20) 0.002603 359.1 375.4
359(19) 0.002741 359.5 376.1
369(19) 0.002657 360.0 376.9
363(19) 0.002657 360.4 377.7
387(20) 0.002577 360.9 378.4
397(20) 0.002525 361.4 379.2
410(20) 0.002403 361.8 380.0
402(20) 0.002403 362.3 380.8
405(21) 0.002380 362.8 381.7
366(19) 0.002713 363.2 382.5
387(20) 0.002577 363.7 383.3
346(19) 0.002829 364.2 384.2
425(21) 0.002289 364.7 385.1
403(20) 0.002427 365.1 385.9
377(20) 0.002603 365.6 386.9
389(20) 0.002603 366.1 387.8
404(20) 0.002451 366.6 388.7
379(20) 0.002577 367.1 389.6
379(20) 0.002551 367.6 390.6
406(20) 0.002451 368.0 391.6
418(20) 0.002403 368.5 392.6
390(20) 0.002551 369.0 393.6
392(20) 0.002500 369.5 394.6
412(21) 0.002356 370.0 395.7
415(21) 0.002380 370.5 396.8
432(21) 0.002334 371.0 397.9
414(21) 0.002380 371.5 399.0
423(21) 0.002268 372.0 400.1
410(21) 0.002356 372.6 401.3
396(20) 0.002500 373.1 402.5
395(20) 0.002551 373.6 403.7
388(20) 0.002551 374.1 404.9
401(20) 0.002403 374.6 406.2
408(20) 0.002403 375.1 407.5
419(21) 0.002380 375.7 408.9
432(21) 0.002311 376.2 410.2
393(20) 0.002551 376.7 411.6
415(21) 0.002334 377.2 413.1
391(20) 0.002475 377.8 414.6
383(20) 0.002603 378.3 416.1
392(20) 0.002525 378.8 417.6
438(21) 0.002246 379.4 419.2
399(20) 0.002451 379.9 420.9
414(21) 0.002311 380.4 422.6
365(19) 0.002713 381.0 424.4
426(21) 0.002356 381.5 426.2
412(20) 0.002403 382.1 428.0
407(21) 0.002380 382.6 430.0
400(20) 0.002403 383.2 432.0
408(20) 0.002427 383.7 434.0
443(21) 0.002289 384.3 436.2
421(21) 0.002334 384.8 438.4
446(21) 0.002184 385.4 440.7
384(20) 0.002551 385.9 443.1
443(21) 0.002225 386.5 445.6
446(21) 0.002289 387.1 448.1
437(21) 0.002225 387.6 450.8
405(21) 0.002380 388.2 453.6
448(22) 0.002163 388.7 456.6
436(21) 0.002246 389.3 459.6
465(22) 0.002143 389.9 462.8
480(22) 0.002066 390.5 466.2
439(21) 0.002204 391.0 469.7
442(21) 0.002204 391.6 473.4
475(22) 0.002085 392.2 477.2
457(21) 0.002225 392.8 481.3
464(22) 0.002124 393.4 485.6
451(22) 0.002163 394.0 490.2
494(23) 0.001958 394.5 495.0
489(22) 0.002029 395.1 500.1
473(22) 0.002143 395.7 505.5
495(22) 0.001993 396.3 511.3
499(23) 0.001941 396.9 517.4
474(22) 0.002047 397.5 523.9
482(22) 0.002066 398.1 530.9
505(23) 0.001958 398.7 538.4
500(23) 0.001975 399.3 546.4
521(23) 0.001858 399.9 555.0
507(23) 0.001907 400.5 564.3
537(23) 0.001858 401.1 574.4
565(24) 0.001765 401.7 585.3
545(24) 0.001811 402.3 597.1
536(24) 0.001811 403.0 610.0
584(25) 0.001666 403.6 624.1
546(24) 0.001811 404.2 639.5
568(24) 0.001795 404.8 656.5
604(25) 0.001600 405.4 675.2
612(25) 0.001626 406.1 695.9
666(26) 0.001446 406.7 719.0
688(26) 0.001435 407.3 744.7
690(26) 0.001457 407.9 773.5
765(28) 0.001266 408.6 806.0
769(28) 0.001240 409.2 842.9
807(29) 0.001206 409.8 884.8
865(30) 0.001141 410.5 932.8
926(30) 0.001082 411.1 988.1
939(31) 0.001047 411.8 1052.4
1087(34) 0.000891 412.4 1127.6
1131(34) 0.000860 413.0 1216.3
1304(36) 0.000755 414. 1322.
1461(38) 0.000685 414. 1450.
1682(41) 0.000586 415. 1608.
1975(45) 0.000489 416. 1807.
2383(50) 0.000402 416. 2067.
2740(52) 0.000366 417. 2416.
3403(59) 0.0002883 418. 2899.
4141(65) 0.0002367 418. 3578.
5041(73) 0.0001866 419. 4532.
6166(81) 0.0001532 420. 5844.
7765(90) 0.0001237 420. 7589.
9486(99) 0.0001016 421. 9785.
11560(110) 0.0000804 422. 12335.
13730(120) 0.0000672 422. 14888.
15900(130) 0.0000575 423. 16734.
16850(140) 0.0000550 424. 17078.
16360(130) 0.0000581 424. 15742.
14510(130) 0.0000637 425. 13366.
11670(110) 0.0000803 426. 10754.
9151(99) 0.0001020 426. 8399.
6768(84) 0.0001431 427. 6477.
5080(72) 0.0001956 428. 5005.
3898(63) 0.0002496 428. 3923.
3040(56) 0.0003155 429. 3147.
2461(51) 0.000389 430. 2597.
1977(45) 0.000494 430. 2204.
1675(41) 0.000595 431. 1915.
1422(38) 0.000685 432. 1696.
1342(37) 0.000719 432. 1526.
1148(35) 0.000840 433.1 1388.3
1093(33) 0.000907 433.8 1275.8
1001(32) 0.001001 434.5 1182.3
872(30) 0.001126 435.2 1103.5
865(30) 0.001126 435.9 1036.6
796(29) 0.001214 436.6 979.3
798(28) 0.001240 437.3 929.9
780(28) 0.001303 438.0 887.1
735(27) 0.001332 438.8 849.8
662(26) 0.001491 439.5 817.0
635(26) 0.001526 440.2 788.2
634(26) 0.001538 440.9 762.6
636(25) 0.001587 441.6 739.9
614(25) 0.001600 442.3 719.6
568(24) 0.001680 443.0 701.5
597(25) 0.001639 443.8 685.2
588(25) 0.001666 444.5 670.6
563(24) 0.001795 445.2 657.3
514(23) 0.001907 445.9 645.3
551(24) 0.001751 446.6 634.4
559(24) 0.001751 447.4 624.5
523(23) 0.001874 448.1 615.5
502(22) 0.001993 448.8 607.2
527(23) 0.001890 449.6 599.7
531(24) 0.001811 450.3 592.8
535(23) 0.001826 451.0 586.4
566(24) 0.001751 451.8 580.6
499(22) 0.002011 452.5 575.2
500(23) 0.001975 453.2 570.3
526(23) 0.001842 454.0 565.7
514(23) 0.001874 454.7 561.5
511(23) 0.001924 455.5 557.6
540(23) 0.001858 456.2 554.1
499(23) 0.001975 456.9 550.7
442(21) 0.002184 457.7 547.7
522(23) 0.001874 458.4 544.8
501(22) 0.001993 459.2 542.2
549(23) 0.001826 459.9 539.8
503(23) 0.001975 460.7 537.5
502(23) 0.001941 461.4 535.4
520(23) 0.001874 462.2 533.5
517(23) 0.001924 463.0 531.7
551(23) 0.001842 463.7 530.1
576(24) 0.001708 464.5 528.5
555(24) 0.001751 465.2 527.1
578(25) 0.001666 466.0 525.8
588(24) 0.001680 466.8 524.6
580(24) 0.001708 467.5 523.5
581(24) 0.001708 468.3 522.5
634(26) 0.001514 469.1 521.6
628(25) 0.001550 469.8 520.8
672(26) 0.001479 470.6 520.0
672(26) 0.001502 471.4 519.3
694(27) 0.001424 472.1 518.7
682(27) 0.001424 472.9 518.1
691(27) 0.001403 473.7 517.6
677(26) 0.001479 474.5 517.1
692(26) 0.001446 475.2 516.7
737(27) 0.001352 476.0 516.3
663(26) 0.001457 476.8 516.0
674(26) 0.001446 477.6 515.8
680(26) 0.001457 478.4 515.6
623(25) 0.001600 479.2 515.4
641(26) 0.001526 479.9 515.2
597(25) 0.001613 480.7 515.1
609(25) 0.001575 481.5 515.0
588(24) 0.001694 482.3 515.0
584(24) 0.001722 483.1 515.0
599(25) 0.001652 483.9 515.0
546(24) 0.001780 484.7 515.1
595(25) 0.001626 485.5 515.2
537(23) 0.001842 486.3 515.3
552(23) 0.001826 487.1 515.4
549(24) 0.001795 487.9 515.5
517(23) 0.001874 488.7 515.7
520(23) 0.001874 489.5 515.9
543(23) 0.001826 490.3 516.1
466(22) 0.002163 491.1 516.4
489(22) 0.002011 491.9 516.6
460(22) 0.002085 492.7 516.9
472(22) 0.002029 493.5 517.2
477(22) 0.002085 494.3 517.5
456(21) 0.002184 495.1 517.8
479(22) 0.002047 495.9 518.2
508(23) 0.001924 496.7 518.5
490(22) 0.001993 497.5 518.9
480(22) 0.002047 498.3 519.3
457(21) 0.002225 499.1 519.7
460(22) 0.002124 499.9 520.1
491(23) 0.001975 500.8 520.5
463(22) 0.002104 501.6 521.0
473(22) 0.002104 502.4 521.4
463(21) 0.002184 503.2 521.9
478(22) 0.002066 504.0 522.4
489(22) 0.001993 504.8 522.8
491(23) 0.001958 505.7 523.3
450(21) 0.002184 506.5 523.8
463(22) 0.002163 507.3 524.4
492(22) 0.001993 508.1 524.9
531(24) 0.001811 509.0 525.4
501(23) 0.001958 509.8 525.9
483(22) 0.002047 510.6 526.5
507(22) 0.001993 511.4 527.0
500(23) 0.001958 512.3 527.6
515(23) 0.001907 513.1 528.2
464(22) 0.002066 513.9 528.8
496(22) 0.002011 514.8 529.3
500(22) 0.002011 515.6 529.9
494(22) 0.002011 516.4 530.5
491(23) 0.001975 517.2 531.1
502(23) 0.001941 518.1 531.8
469(22) 0.002104 518.9 532.4
513(23) 0.001941 519.8 533.0
469(22) 0.002104 520.6 533.6
482(22) 0.002011 521.4 534.3
462(22) 0.002085 522.3 534.9
522(23) 0.001907 523.1 535.5
448(21) 0.002268 523.9 536.2
501(23) 0.001958 524.8 536.8
496(23) 0.001975 525.6 537.5
514(23) 0.001874 526.5 538.6
508(23) 0.001958 527.3 539.2
533(23) 0.001874 528.1 539.9
505(23) 0.001958 529.0 540.6
517(23) 0.001907 529.8 541.3
504(23) 0.001907 530.7 542.0
497(22) 0.002011 531.5 542.7
522(23) 0.001907 532.4 543.3
557(24) 0.001765 533.2 544.1
510(23) 0.001874 534.1 544.8
496(23) 0.001958 534.9 545.5
478(22) 0.002047 535.8 546.2
505(22) 0.001993 536.6 546.9
477(22) 0.002066 537.5 547.6
462(22) 0.002104 538.3 548.3
508(23) 0.001924 539.2 549.1
460(22) 0.002143 540.0 549.8
470(22) 0.002163 540.9 550.5
515(23) 0.001890 541.7 551.3
486(22) 0.001993 542.6 552.0
502(23) 0.001958 543.4 552.7
529(23) 0.001874 544.3 553.5
494(22) 0.002047 545.2 554.2
531(23) 0.001842 546.0 555.0
488(22) 0.001993 546.9 555.7
532(24) 0.001811 547.7 556.5
501(23) 0.001958 548.6 557.2
494(22) 0.002047 549.4 558.0
510(23) 0.001907 550.3 558.8
481(22) 0.002011 551.2 559.5
503(23) 0.001941 552.0 560.3
500(23) 0.001975 552.9 561.1
494(22) 0.002047 553.7 561.8
505(23) 0.001958 554.6 562.6
542(24) 0.001780 555.5 563.4
489(22) 0.001993 556.3 564.2
526(23) 0.001858 557.2 564.9
546(23) 0.001874 558.1 565.7
509(23) 0.001924 558.9 566.5
509(23) 0.001907 559.8 567.3
497(23) 0.001958 560.6 568.1
547(24) 0.001795 561.5 568.9
542(23) 0.001842 562.4 569.7
493(22) 0.001993 563.2 570.5
513(23) 0.001874 564.1 571.2
510(23) 0.001890 565.0 572.0
532(23) 0.001858 565.8 572.8
505(22) 0.001993 566.7 573.6
508(23) 0.001941 567.6 574.4
528(23) 0.001842 568.4 575.2
532(24) 0.001811 569.3 576.0
538(23) 0.001858 570.2 576.9
532(23) 0.001874 571.0 577.7
546(24) 0.001795 571.9 578.5
552(24) 0.001780 572.8 579.3
565(24) 0.001694 573.7 580.1
541(23) 0.001842 574.5 580.9
529(23) 0.001874 575.4 581.7
510(23) 0.001924 576.3 582.5
526(23) 0.001826 577.1 583.3
533(23) 0.001826 578.0 584.2
542(24) 0.001795 578.9 585.0
505(22) 0.001993 579.7 585.8
545(23) 0.001826 580.6 586.6
555(24) 0.001722 581.5 587.4
512(23) 0.001890 582.4 588.3
568(24) 0.001722 583.2 589.1
591(24) 0.001708 584.1 589.9
519(23) 0.001874 585.0 590.7
535(24) 0.001795 585.8 591.5
534(23) 0.001826 586.7 592.4
556(24) 0.001780 587.6 593.2
562(24) 0.001795 588.5 594.0
561(24) 0.001736 589.3 594.9
534(24) 0.001811 590.2 595.7
553(24) 0.001736 591.1 596.5
543(24) 0.001795 592.0 597.4
555(23) 0.001826 592.8 598.2
564(24) 0.001708 593.7 599.0
557(24) 0.001765 594.6 599.8
538(24) 0.001795 595.4 600.7
560(24) 0.001751 596.3 601.5
582(24) 0.001722 597.2 602.4
564(24) 0.001751 598.1 603.2
571(24) 0.001680 598.9 604.0
581(25) 0.001652 599.8 604.9
540(23) 0.001826 600.7 605.7
552(23) 0.001826 601.6 606.5
588(24) 0.001680 602.4 607.4
555(24) 0.001722 603.3 608.2
521(23) 0.001858 604.2 609.1
565(24) 0.001736 605.0 609.9
589(24) 0.001680 605.9 610.7
577(24) 0.001708 606.8 611.6
615(26) 0.001538 607.7 612.4
591(25) 0.001666 608.5 613.3
570(24) 0.001722 609.4 614.1
588(24) 0.001708 610.3 615.0
573(24) 0.001708 611.2 615.8
568(24) 0.001694 612.0 616.6
586(25) 0.001652 612.9 617.5
585(24) 0.001680 613.8 618.3
577(24) 0.001722 614.6 619.2
586(24) 0.001680 615.5 620.0
566(24) 0.001722 616.4 620.9
588(25) 0.001652 617.3 621.7
573(24) 0.001708 618.1 622.6
623(25) 0.001600 619.0 623.4
636(26) 0.001538 619.9 624.3
581(25) 0.0 620.7 .
575(25) 0.0 621.6 .
620(25) 0.0 622.5 .
621(25) 0.0 623.3 .
615(25) 0.0 624.2 .
602(25) 0.0 625.1 .
603(25) 0.0 625.9 .
636(25) 0.0 626.8 .
593(24) 0.0 627.7 .
566(24) 0.0 628.5 .
629(26) 0.0 629.4 .
612(25) 0.0 630.3 .
585(24) 0.0 631.1 .
622(25) 0.0 632.0 .
645(26) 0.0 632.9 .
578(24) 0.0 633.7 .
605(25) 0.0 634.6 .
639(26) 0.0 635.5 .
639(25) 0.0 636.3 .
587(25) 0.0 637.2 .
632(26) 0.0 638.1 .
638(26) 0.0 638.9 .
652(26) 0.0 639.8 .
609(25) 0.0 640.7 .
623(25) 0.0 641.5 .
633(26) 0.0 642.4 .
678(27) 0.0 643.2 .
630(25) 0.0 644.1 .
643(25) 0.0 645.0 .
649(26) 0.0 645.8 .
639(26) 0.0 646.7 .
642(26) 0.0 647.5 .
659(26) 0.0 648.4 .
659(26) 0.0 649.2 .
661(26) 0.0 650.1 .
703(27) 0.0 651.0 .
658(26) 0.0 651.8 .
687(27) 0.0 652.7 .
701(26) 0.0 653.5 .
700(27) 0.0 654.4 .
690(27) 0.0 655.2 .
683(27) 0.0 656.1 .
689(27) 0.0 656.9 .
686(26) 0.0 657.8 .
708(27) 0.0 658.6 .
707(27) 0.0 659.5 .
718(27) 0.0 660.3 .
704(27) 0.0 661.2 .
689(26) 0.0 662.0 .
737(28) 0.0 662.9 .
721(27) 0.0 663.7 .
703(27) 0.0 664.6 .
707(27) 0.0 665.4 .
720(27) 0.0 666.3 .
699(27) 0.0 667.1 .
686(27) 0.0 667.9 .
739(28) 0.0 668.8 .
746(27) 0.0 669.6 .
720(27) 0.0 670.5 .
732(28) 0.0 671.3 .
738(28) 0.0 672.1 .
773(28) 0.0 673.0 .
760(28) 0.0 673.8 .
761(28) 0.0 674.7 .
744(28) 0.0 675.5 .
734(28) 0.0 676.3 .
806(29) 0.0 677.2 .
729(27) 0.0 678.0 .
799(28) 0.0 678.8 .
777(28) 0.0 679.7 .
788(29) 0.0 680.5 .
779(28) 0.0 681.3 .
757(28) 0.0 682.2 .
781(28) 0.0 683.0 .
829(29) 0.0 683.8 .
859(30) 0.0 684.6 .
853(30) 0.0 685.5 .
791(28) 0.0 686.3 .
840(29) 0.0 687.1 .
832(29) 0.0 687.9 .
792(29) 0.0 688.8 .
882(30) 0.0 689.6 .
910(31) 0.0 690.4 .
877(30) 0.0 691.2 .
863(30) 0.0 692.0 .
875(30) 0.0 692.9 .
904(31) 0.0 693.7 .
863(30) 0.0 694.5 .
907(30) 0.0 695.3 .
916(31) 0.0 696.1 .
893(30) 0.0 696.9 .
919(31) 0.0 697.7 .
942(31) 0.0 698.5 .
996(31) 0.0 699.4 .
923(31) 0.0 700.2 .
895(30) 0.0 701.0 .
890(30) 0.0 701.8 .
975(32) 0.0 702.6 .
977(31) 0.0 703.4 .
973(32) 0.0 704.2 .
991(32) 0.0 705.0 .
997(32) 0.0 705.8 .
982(32) 0.0 706.6 .
997(32) 0.0 707.4 .
1061(33) 0.0 708.2 .
976(32) 0.0 709.0 .
1047(33) 0.0 709.8 .
1004(32) 0.0 710.6 .
1041(32) 0.0 711.4 .
1061(33) 0.0 712.2 .
1069(33) 0.0 712.9 .
1115(34) 0.0 713.7 .
1137(34) 0.0 714.5 .
1164(34) 0.0 715.3 .
1124(34) 0.0 716.1 .
1128(34) 0.0 716.9 .
1172(35) 0.0 717.7 .
1176(35) 0.0 718.4 .
1160(34) 0.0 719.2 .
1159(34) 0.0 720.0 .
1254(36) 0.0 721. .
1173(35) 0.0 721.6 .
1274(36) 0.0 722. .
1218(35) 0.0 723.1 .
1226(36) 0.0 724. .
1245(36) 0.0 725. .
1232(36) 0.0 725. .
1251(36) 0.0 726. .
1304(36) 0.0 727. .
1284(36) 0.0 728. .
1311(37) 0.0 728. .
1290(37) 0.0 729. .
1387(38) 0.0 730. .
1363(37) 0.0 731. .
1362(38) 0.0 732. .
1366(37) 0.0 732. .
1470(39) 0.0 733. .
1430(38) 0.0 734. .
1428(38) 0.0 735. .
1386(38) 0.0 735. .
1463(39) 0.0 736. .
1396(38) 0.0 737. .
1414(38) 0.0 738. .
1444(38) 0.0 738. .
1426(38) 0.0 739. .
1477(39) 0.0 740. .
1488(39) 0.0 741. .
1444(39) 0.0 741. .
1491(39) 0.0 742. .
1525(40) 0.0 743. .
1680(42) 0.0 744. .
1552(41) 0.0 744. .
1537(39) 0.0 745. .
1569(40) 0.0 746. .
1603(40) 0.0 746. .
1585(41) 0.0 747. .
1547(40) 0.0 748. .
1583(40) 0.0 749. .
1664(41) 0.0 749. .
1634(41) 0.0 750. .
1594(41) 0.0 751. .
1676(42) 0.0 752. .
1754(42) 0.0 752. .
1650(41) 0.0 753. .
1664(41) 0.0 754. .
1718(42) 0.0 754. .
1619(41) 0.0 755. .
1621(41) 0.0 756. .
1603(40) 0.0 757. .
1639(41) 0.0 757. .
1663(41) 0.0 758. .
1692(42) 0.0 759. .
1698(41) 0.0 759. .
1735(42) 0.0 760. .
1740(43) 0.0 761. .
1703(42) 0.0 761. .
1669(42) 0.0 762. .
1727(42) 0.0 763. .
1644(40) 0.0 764. .
1657(42) 0.0 764. .
1643(41) 0.0 765. .
1706(42) 0.0 766. .
1712(42) 0.0 766. .
1652(41) 0.0 767. .
1660(41) 0.0 768. .
1615(41) 0.0 768. .
1640(41) 0.0 769. .
1693(42) 0.0 770. .
1644(41) 0.0 770. .
1621(41) 0.0 771. .
1655(42) 0.0 772. .
1665(42) 0.0 772. .
1641(41) 0.0 773. .
1670(41) 0.0 774. .
1685(42) 0.0 774. .
1665(42) 0.0 775. .
1753(43) 0.0 776. .
1631(41) 0.0 776. .
1589(40) 0.0 777. .
1595(41) 0.0 778. .
1591(41) 0.0 778. .
1595(41) 0.0 779. .
1554(40) 0.0 780. .
1613(40) 0.0 780. .
1636(41) 0.0 781. .
1630(41) 0.0 782. .
1670(42) 0.0 782. .
1613(40) 0.0 783. .
1576(40) 0.0 784. .
1533(39) 0.0 784. .
1565(40) 0.0 785. .
1690(42) 0.0 786. .
1621(41) 0.0 786. .
1575(40) 0.0 787. .
1571(40) 0.0 787. .
1569(41) 0.0 788. .
1575(41) 0.0 789. .
1482(39) 0.0 789. .
1573(40) 0.0 790. .
1548(40) 0.0 791. .
1591(41) 0.0 791. .
1556(40) 0.0 792. .
1615(40) 0.0 792. .
1556(40) 0.0 793. .
1544(40) 0.0 794. .
1541(40) 0.0 794. .
1575(41) 0.0 795. .
1634(41) 0.0 796. .
1626(40) 0.0 796. .
1698(42) 0.0 797. .
1635(41) 0.0 797. .
1726(43) 0.0 798. .
1819(43) 0.0 799. .
1965(45) 0.0 799. .
2085(46) 0.0 800. .
2244(48) 0.0 800. .
2522(51) 0.0 801. .
2663(53) 0.0 802. .
3049(55) 0.0 802. .
3426(60) 0.0 803. .
4047(65) 0.0 803. .
4512(69) 0.0 804. .
5202(73) 0.0 804. .
5518(75) 0.0 805. .
5492(75) 0.0 806. .
5183(74) 0.0 806. .
4518(69) 0.0 807. .
4036(64) 0.0 807. .
3394(59) 0.0 808. .
3140(57) 0.0 808. .
2752(54) 0.0 809. .
2531(51) 0.0 810. .
2390(49) 0.0 810. .
2126(46) 0.0 811. .
2022(46) 0.0 811. .
2007(46) 0.0 812. .
1907(45) 0.0 812. .
1741(42) 0.0 813. .
1701(41) 0.0 813. .
1641(41) 0.0 814. .
1521(40) 0.0 815. .
1488(39) 0.0 815. .
1565(40) 0.0 816. .
1498(39) 0.0 816. .
1473(39) 0.0 817. .
1483(39) 0.0 817. .
1359(38) 0.0 818. .
1398(38) 0.0 818. .
1429(38) 0.0 819. .
1436(38) 0.0 819. .
1369(38) 0.0 820. .
1334(38) 0.0 820. .
1340(37) 0.0 821. .
1263(36) 0.0 821. .
1262(36) 0.0 822. .
1241(36) 0.0 823. .
1273(36) 0.0 823. .
1326(37) 0.0 824. .
1317(36) 0.0 824. .
1274(36) 0.0 825. .
1220(36) 0.0 825. .
1196(35) 0.0 826. .
1196(35) 0.0 826.1 .
1267(36) 0.0 827. .
1310(37) 0.0 827. .
1252(36) 0.0 828. .
1193(35) 0.0 828.0 .
1293(36) 0.0 829. .
1294(36) 0.0 829. .
1278(36) 0.0 830. .
1324(37) 0.0 830. .
1367(38) 0.0 830. .
1335(37) 0.0 831. .
1449(38) 0.0 831. .
1378(38) 0.0 832. .
1384(38) 0.0 832. .
1421(39) 0.0 833. .
1385(38) 0.0 833. .
1377(37) 0.0 834. .
1357(37) 0.0 834. .
1333(37) 0.0 835. .
1307(37) 0.0 835. .
1324(37) 0.0 836. .
1335(36) 0.0 836. .
1279(36) 0.0 837. .
1221(36) 0.0 837. .
1257(36) 0.0 837. .
1307(36) 0.0 838. .
1272(36) 0.0 838. .
1206(35) 0.0 839. .
1287(37) 0.0 839. .
1232(36) 0.0 840. .
1200(35) 0.0 840.1 .
1227(35) 0.0 841. .
1209(35) 0.0 841. .
1166(35) 0.0 841.4 .
1160(35) 0.0 841.9 .
1169(35) 0.0 842.3 .
1167(34) 0.0 842.7 .
1190(35) 0.0 843.1 .
1192(35) 0.0 844. .
1143(34) 0.0 844.0 .
1200(35) 0.0 844.4 .
1165(34) 0.0 844.8 .
1225(35) 0.0 845. .
1170(35) 0.0 845.6 .
1259(36) 0.0 846. .
1260(36) 0.0 846. .
1344(37) 0.0 847. .
1314(37) 0.0 847. .
1358(38) 0.0 848. .
1372(38) 0.0 848. .
1392(38) 0.0 848. .
1474(38) 0.0 849. .
1407(38) 0.0 849. .
1349(38) 0.0 850. .
1309(37) 0.0 850. .
1303(37) 0.0 850. .
1209(35) 0.0 850.8 .
1191(35) 0.0 851.2 .
1155(35) 0.0 851.5 .
1131(34) 0.0 851.9 .
1149(34) 0.0 852.3 .
1092(33) 0.0 852.7 .
1133(34) 0.0 853.0 .
1088(34) 0.0 853.4 .
998(32) 0.0 853.8 .
1010(32) 0.0 854.1 .
1005(32) 0.0 854.5 .
1025(33) 0.0 854.8 .
1073(33) 0.0 855.2 .
981(32) 0.0 855.6 .
972(32) 0.0 855.9 .
1006(32) 0.0 856.3 .
1060(33) 0.0 856.6 .
1007(32) 0.0 857.0 .
981(32) 0.0 857.3 .
1012(32) 0.0 857.6 .
1038(32) 0.0 858.0 .
1006(32) 0.0 858.3 .
1012(33) 0.0 858.7 .
996(32) 0.0 859.0 .
958(31) 0.0 859.3 .
1021(32) 0.0 859.7 .
971(32) 0.0 860.0 .
997(32) 0.0 860.3 .
971(32) 0.0 860.6 .
969(31) 0.0 860.9 .
999(32) 0.0 861.3 .
939(31) 0.0 861.6 .
944(31) 0.0 861.9 .
980(32) 0.0 862.2 .
1017(32) 0.0 862.5 .
1014(32) 0.0 862.8 .
1004(32) 0.0 863.1 .
1017(33) 0.0 863.4 .
944(31) 0.0 863.7 .
961(31) 0.0 864.0 .
927(30) 0.0 864.3 .
949(31) 0.0 864.6 .
890(30) 0.0 864.9 .
979(32) 0.0 865.2 .
976(32) 0.0 865.5 .
1017(32) 0.0 865.8 .
999(32) 0.0 866.1 .
985(32) 0.0 866.4 .
1001(32) 0.0 866.6 .
943(31) 0.0 866.9 .
950(31) 0.0 867.2 .
971(32) 0.0 867.5 .
938(31) 0.0 867.7 .
937(31) 0.0 868.0 .
995(32) 0.0 868.3 .
948(31) 0.0 868.5 .
1015(32) 0.0 868.8 .
943(31) 0.0 869.0 .
939(31) 0.0 869.3 .
978(32) 0.0 869.6 .
957(31) 0.0 869.8 .
931(31) 0.0 870.1 .
950(31) 0.0 870.3 .
922(31) 0.0 870.6 .
965(31) 0.0 870.8 .
901(30) 0.0 871.1 .
979(32) 0.0 871.3 .
970(32) 0.0 871.5 .
955(32) 0.0 871.8 .
951(31) 0.0 872.0 .
928(31) 0.0 872.2 .
987(32) 0.0 872.5 .
972(32) 0.0 872.7 .
960(32) 0.0 872.9 .
957(31) 0.0 873.1 .
930(30) 0.0 873.4 .
977(32) 0.0 873.6 .
936(31) 0.0 873.8 .
921(31) 0.0 874.0 .
971(31) 0.0 874.2 .
962(31) 0.0 874.4 .
921(31) 0.0 874.7 .
938(31) 0.0 874.9 .
977(32) 0.0 875.1 .
982(31) 0.0 875.3 .
849(29) 0.0 875.5 .
893(30) 0.0 875.7 .
908(31) 0.0 875.9 .
931(31) 0.0 876.1 .
925(31) 0.0 876.3 .
933(31) 0.0 876.4 .
949(31) 0.0 876.6 .
955(31) 0.0 876.8 .
950(32) 0.0 877.0 .
967(31) 0.0 877.2 .
941(31) 0.0 877.4 .
957(31) 0.0 877.5 .
951(32) 0.0 877.7 .
986(32) 0.0 877.9 .
941(31) 0.0 878.1 .
952(31) 0.0 878.2 .
951(31) 0.0 878.4 .
941(31) 0.0 878.6 .
910(31) 0.0 878.7 .
970(31) 0.0 878.9 .
922(30) 0.0 879.0 .
935(31) 0.0 879.2 .
950(31) 0.0 879.4 .
935(31) 0.0 879.5 .
957(31) 0.0 879.7 .
900(30) 0.0 879.8 .
995(32) 0.0 880.0 .
964(32) 0.0 880.1 .
946(31) 0.0 880.2 .
900(30) 0.0 880.4 .
948(31) 0.0 880.5 .
945(31) 0.0 880.7 .
926(31) 0.0 880.8 .
913(31) 0.0 880.9 .
916(31) 0.0 881.1 .
939(31) 0.0 881.2 .
891(30) 0.0 881.3 .
929(31) 0.0 881.4 .
971(32) 0.0 881.6 .
937(31) 0.0 881.7 .
929(30) 0.0 881.8 .
909(31) 0.0 881.9 .
948(32) 0.0 882.0 .
921(31) 0.0 882.1 .
965(31) 0.0 882.2 .
913(30) 0.0 882.3 .
927(31) 0.0 882.5 .
976(32) 0.0 882.6 .
928(31) 0.0 882.7 .
892(30) 0.0 882.8 .
919(30) 0.0 882.9 .
922(31) 0.0 882.9 .
954(31) 0.0 883.0 .
924(31) 0.0 883.1 .
893(30) 0.0 883.2 .
919(30) 0.0 883.3 .
884(30) 0.0 883.4 .
945(31) 0.0 883.5 .
949(32) 0.0 883.6 .
973(32) 0.0 883.6 .
967(31) 0.0 883.7 .
953(31) 0.0 883.8 .
887(30) 0.0 883.9 .
887(30) 0.0 883.9 .
934(31) 0.0 884.0 .
922(30) 0.0 884.1 .
934(31) 0.0 884.1 .
937(31) 0.0 884.2 .
943(32) 0.0 884.3 .
923(31) 0.0 884.3 .
973(31) 0.0 884.4 .
943(31) 0.0 884.4 .
918(31) 0.0 884.5 .
931(31) 0.0 884.6 .
963(31) 0.0 884.6 .
896(30) 0.0 884.6 .
899(31) 0.0 884.7 .
872(30) 0.0 884.7 .
892(31) 0.0 884.8 .
935(31) 0.0 884.8 .
931(31) 0.0 884.9 .
990(32) 0.0 884.9 .
999(32) 0.0 884.9 .
930(31) 0.0 885.0 .
900(30) 0.0 885.0 .
912(30) 0.0 885.0 .
938(31) 0.0 885.1 .
931(31) 0.0 885.1 .
923(31) 0.0 885.1 .
945(31) 0.0 885.1 .
923(31) 0.0 885.1 .
933(31) 0.0 885.2 .
919(31) 0.0 885.2 .
925(31) 0.0 885.2 .
924(31) 0.0 885.2 .
933(31) 0.0 885.2 .
999(32) 0.0 885.2 .
889(30) 0.0 885.2 .
928(31) 0.0 885.2 .
999(32) 0.0 885.2 .
919(30) 0.0 885.2 .
912(31) 0.0 885.2 .
954(32) 0.0 885.2 .
897(31) 0.0 885.2 .
981(31) 0.0 885.2 .
970(31) 0.0 885.2 .
955(31) 0.0 885.2 .
974(32) 0.0 885.2 .
912(31) 0.0 885.2 .
941(31) 0.0 885.2 .
937(31) 0.0 885.1 .
946(31) 0.0 885.1 .
992(32) 0.0 885.1 .
958(32) 0.0 885.1 .
986(32) 0.0 885.1 .
952(31) 0.0 885.0 .
993(32) 0.0 885.0 .
989(32) 0.0 885.0 .
929(31) 0.0 884.9 .
991(32) 0.0 884.9 .
980(31) 0.0 884.9 .
965(31) 0.0 884.8 .
968(32) 0.0 884.8 .
997(32) 0.0 884.8 .
1009(32) 0.0 884.7 .
1067(33) 0.0 884.7 .
1026(33) 0.0 884.6 .
997(32) 0.0 884.6 .
1072(33) 0.0 884.5 .
1099(34) 0.0 884.5 .
1131(34) 0.0 884.4 .
1120(34) 0.0 884.4 .
1167(35) 0.0 884.3 .
1116(34) 0.0 884.3 .
1120(34) 0.0 884.2 .
1158(34) 0.0 884.1 .
1100(34) 0.0 884.1 .
1092(34) 0.0 884.0 .
1076(33) 0.0 883.9 .
1033(33) 0.0 883.9 .
1076(33) 0.0 883.8 .
1013(32) 0.0 883.7 .
1014(33) 0.0 883.7 .
999(32) 0.0 883.6 .
1009(32) 0.0 883.5 .
978(31) 0.0 883.4 .
1013(32) 0.0 883.4 .
948(31) 0.0 883.3 .
975(32) 0.0 883.2 .
954(31) 0.0 883.1 .
977(31) 0.0 883.0 .
922(31) 0.0 882.9 .
946(31) 0.0 882.8 .
990(32) 0.0 882.8 .
984(32) 0.0 882.7 .
976(31) 0.0 882.6 .
985(32) 0.0 882.5 .
978(32) 0.0 882.4 .
964(32) 0.0 882.3 .
967(32) 0.0 882.2 .
949(31) 0.0 882.1 .
981(32) 0.0 882.0 .
1004(32) 0.0 881.9 .
992(32) 0.0 881.7 .
933(31) 0.0 881.6 .
930(31) 0.0 881.5 .
967(31) 0.0 881.4 .
960(32) 0.0 881.3 .
916(31) 0.0 881.2 .
888(30) 0.0 881.1 .
920(30) 0.0 881.0 .
967(31) 0.0 880.8 .
935(31) 0.0 880.7 .
909(31) 0.0 880.6 .
908(30) 0.0 880.5 .
938(31) 0.0 880.3 .
930(31) 0.0 880.2 .
916(31) 0.0 880.1 .
908(31) 0.0 879.9 .
972(32) 0.0 879.8 .
952(31) 0.0 879.7 .
955(31) 0.0 879.5 .
932(31) 0.0 879.4 .
938(31) 0.0 879.3 .
864(30) 0.0 879.1 .
957(31) 0.0 879.0 .
928(31) 0.0 878.8 .
889(30) 0.0 878.7 .
923(31) 0.0 878.6 .
949(31) 0.0 878.4 .
910(30) 0.0 878.3 .
898(30) 0.0 878.1 .
952(32) 0.0 878.0 .
957(32) 0.0 877.8 .
898(30) 0.0 877.7 .
907(30) 0.0 877.5 .
908(30) 0.0 877.3 .
903(31) 0.0 877.2 .
913(31) 0.0 877.0 .
950(31) 0.0 876.9 .
941(31) 0.0 876.7 .
922(31) 0.0 876.5 .
927(31) 0.0 876.4 .
892(30) 0.0 876.2 .
969(31) 0.0 876.0 .
903(30) 0.0 875.9 .
932(31) 0.0 875.7 .
920(31) 0.0 875.5 .
950(32) 0.0 875.3 .
949(31) 0.0 875.2 .
926(30) 0.0 875.0 .
951(31) 0.0 874.8 .
937(31) 0.0 874.6 .
961(32) 0.0 874.4 .
952(31) 0.0 874.3 .
918(30) 0.0 874.1 .
912(31) 0.0 873.9 .
906(31) 0.0 873.7 .
922(31) 0.0 873.5 .
878(30) 0.0 873.3 .
925(30) 0.0 873.1 .
883(30) 0.0 872.9 .
881(30) 0.0 872.7 .
894(30) 0.0 872.6 .
892(30) 0.0 872.4 .
943(31) 0.0 872.2 .
926(31) 0.0 872.0 .
882(30) 0.0 871.8 .
874(30) 0.001119 871.6 883.5
910(31) 0.001075 871.4 883.4
988(31) 0.001014 871.2 883.2
906(30) 0.001089 870.9 883.1
927(31) 0.001027 870.7 883.0
901(31) 0.001075 870.5 882.9
879(30) 0.001126 870.3 882.7
888(30) 0.001134 870.1 882.6
908(30) 0.001082 869.9 882.5
883(30) 0.001089 869.7 882.4
894(30) 0.001082 869.5 882.2
864(30) 0.001141 869.3 882.1
849(29) 0.001181 869.0 882.0
940(31) 0.001027 868.8 881.9
898(30) 0.001082 868.6 881.7
864(30) 0.001096 868.4 881.6
896(30) 0.001111 868.2 881.5
883(30) 0.001141 867.9 881.3
973(32) 0.000995 867.7 881.2
880(30) 0.001111 867.5 881.1
883(30) 0.001096 867.3 881.0
876(30) 0.001111 867.0 880.8
879(30) 0.001149 866.8 880.7
918(31) 0.001054 866.6 880.6
910(31) 0.001061 866.3 880.4
876(30) 0.001111 866.1 880.3
865(30) 0.001134 865.9 880.2
952(31) 0.001054 865.7 880.0
923(31) 0.001068 865.4 879.9
890(31) 0.001075 865.2 879.8
884(30) 0.001089 864.9 879.7
839(29) 0.001165 864.7 879.5
885(30) 0.001134 864.5 879.4
859(30) 0.001141 864.2 879.3
895(31) 0.001075 864.0 879.1
912(31) 0.001054 863.7 879.0
875(30) 0.001134 863.5 878.9
872(30) 0.001141 863.2 878.8
886(30) 0.001111 863.0 878.6
887(30) 0.001082 862.7 878.5
896(30) 0.001082 862.5 878.4
882(30) 0.001119 862.2 878.2
820(29) 0.001231 862.0 878.1
872(30) 0.001119 861.7 878.0
881(30) 0.001089 861.5 877.9
865(30) 0.001126 861.2 877.7
884(30) 0.001104 861.0 877.6
825(29) 0.001214 860.7 877.5
849(29) 0.001165 860.5 877.4
908(31) 0.001047 860.2 877.2
879(30) 0.001111 859.9 877.1
884(30) 0.001119 859.7 877.0
929(31) 0.001075 859.4 876.9
914(31) 0.001075 859.2 876.7
841(30) 0.001149 858.9 876.6
872(30) 0.001104 858.6 876.5
905(30) 0.001089 858.4 876.4
905(30) 0.001111 858.1 876.2
897(30) 0.001089 857.8 876.1
885(30) 0.001096 857.6 876.0
900(31) 0.001075 857.3 875.9
913(31) 0.001075 857.0 875.8
965(31) 0.001041 856.7 875.7
890(30) 0.001096 856.5 875.6
849(30) 0.001126 856.2 875.4
891(30) 0.001089 855.9 875.3
866(30) 0.001126 855.6 875.2
968(31) 0.001047 855.4 875.1
946(31) 0.001034 855.1 875.0
913(31) 0.001047 854.8 874.9
912(31) 0.001068 854.5 874.8
914(31) 0.001068 854.3 874.7
934(30) 0.001082 854.0 874.6
951(31) 0.001021 853.7 874.5
917(31) 0.001061 853.4 874.4
931(31) 0.001034 853.1 874.3
900(30) 0.001104 852.8 874.2
927(31) 0.001075 852.5 874.1
940(31) 0.001047 852.3 874.0
945(32) 0.001001 852.0 873.9
876(30) 0.001111 851.7 873.8
850(30) 0.001141 851.4 873.7
870(29) 0.001165 851.1 873.6
844(29) 0.001157 850.8 873.5
826(29) 0.001173 850.5 873.5
877(30) 0.001096 850.2 873.4
840(29) 0.001189 849.9 873.3
896(30) 0.001119 849.6 873.2
911(31) 0.001068 849.3 873.1
860(30) 0.001126 849.0 873.1
907(31) 0.001054 848.7 873.0
917(30) 0.001082 848.4 872.9
878(30) 0.001149 848.1 872.9
914(31) 0.001061 847.8 872.8
864(30) 0.001126 847.5 872.7
867(30) 0.001119 847.2 872.7
864(30) 0.001126 846.9 872.6
868(30) 0.001149 846.6 872.6
874(30) 0.001119 846.3 872.5
925(31) 0.001047 846.0 872.5
875(30) 0.001096 845.7 872.4
859(29) 0.001157 845.4 872.4
874(30) 0.001141 845.1 872.4
904(30) 0.001089 844.8 872.3
873(30) 0.001104 844.5 872.3
906(31) 0.001054 844.2 872.3
887(30) 0.001119 843.9 872.3
894(30) 0.001126 843.5 872.2
846(29) 0.001157 843.2 872.2
892(30) 0.001096 842.9 872.2
881(30) 0.001089 842.6 872.2
917(31) 0.001075 842.3 872.2
961(31) 0.001034 842.0 872.2
941(31) 0.001034 841.7 872.2
905(31) 0.001075 841.3 872.2
974(32) 0.000989 841.0 872.2
929(31) 0.001068 840.7 872.2
923(30) 0.001089 840.4 872.3
920(31) 0.001054 840.1 872.3
944(31) 0.001027 839.7 872.3
955(32) 0.001008 839.4 872.4
977(31) 0.001014 839.1 872.4
986(31) 0.001014 838.8 872.5
1015(32) 0.000964 838.5 872.5
997(32) 0.000964 838.1 872.6
1036(33) 0.000935 837.8 872.6
1042(33) 0.000941 837.5 872.7
1058(32) 0.000953 837.1 872.8
1123(34) 0.000870 836.8 872.9
1116(34) 0.000855 836.5 873.0
1085(34) 0.000891 836.2 873.1
1085(33) 0.000902 835.8 873.2
1153(34) 0.000875 835.5 873.3
1182(35) 0.000831 835.2 873.4
1151(35) 0.000831 834.8 873.5
1193(35) 0.000816 834.5 873.7
1219(35) 0.000812 834. 874.
1301(36) 0.000755 834. 874.
1269(36) 0.000789 834. 874.
1297(37) 0.000730 833. 874.
1257(36) 0.000772 833. 874.
1300(36) 0.000767 833. 875.
1333(37) 0.000738 832. 875.
1296(36) 0.000763 832. 875.
1230(36) 0.000780 831. 875.
1242(36) 0.000763 831. 875.
1203(35) 0.000816 830.8 875.7
1232(35) 0.000812 830. 876.
1195(35) 0.000812 830. 876.
1219(35) 0.000803 830. 876.
1136(34) 0.000845 829.5 876.7
1126(34) 0.000875 829.1 877.0
1122(33) 0.000896 828.8 877.3
1060(33) 0.000924 828.4 877.6
1029(33) 0.000930 828.1 878.0
986(32) 0.000995 827.7 878.3
994(32) 0.000977 827.4 878.7
914(30) 0.001111 827.0 879.0
914(31) 0.001068 826.7 879.4
937(31) 0.001027 826.4 879.8
902(31) 0.001075 826.0 880.2
940(31) 0.001047 825.7 880.6
987(32) 0.001008 825.3 881.1
920(31) 0.001061 825.0 881.5
914(31) 0.001047 824.6 882.0
926(31) 0.001047 824.3 882.5
917(31) 0.001075 823.9 883.0
916(30) 0.001096 823.6 883.6
887(30) 0.001104 823.2 884.1
889(30) 0.001089 822.9 884.7
911(31) 0.001061 822.5 885.3
897(30) 0.001089 822.2 885.9
948(31) 0.001061 821.8 886.5
934(31) 0.001047 821.4 887.2
978(32) 0.000983 821.1 887.9
942(31) 0.001027 820.7 888.6
1032(33) 0.000947 820.4 889.3
1064(33) 0.000941 820.0 890.0
1053(33) 0.000930 819.7 890.8
1152(35) 0.000831 819.3 891.6
1072(34) 0.000891 819.0 892.5
1137(34) 0.000875 818.6 893.3
1297(36) 0.000767 818. 894.
1261(36) 0.000776 818. 895.
1288(37) 0.000751 818. 896.
1297(37) 0.000742 817. 897.
1327(37) 0.000742 817. 898.
1308(36) 0.000767 816. 899.
1233(36) 0.000785 816. 900.
1262(36) 0.000772 816. 901.
1158(35) 0.000831 815.4 902.7
1175(34) 0.000845 815.0 903.9
1124(34) 0.000886 814.6 905.1
1132(34) 0.000860 814.3 906.5
1028(33) 0.000941 813.9 907.8
974(32) 0.000989 813.5 909.2
995(32) 0.000977 813.2 910.7
978(31) 0.001034 812.8 912.2
1004(32) 0.000977 812.5 913.8
977(32) 0.000977 812.1 915.4
981(32) 0.000995 811.7 917.1
967(31) 0.001014 811.4 918.8
900(30) 0.001111 811.0 920.6
926(31) 0.001061 810.6 922.5
915(31) 0.001047 810.3 924.4
947(31) 0.001021 809.9 926.4
956(31) 0.001047 809.5 928.5
858(30) 0.001149 809.2 930.7
880(30) 0.001134 808.8 932.9
951(32) 0.001008 808.4 935.2
920(31) 0.001047 808.0 937.6
923(31) 0.001061 807.7 940.2
952(31) 0.001054 807.3 942.8
886(30) 0.001104 806.9 945.5
987(32) 0.000970 806.6 948.3
860(30) 0.001134 806.2 951.2
852(29) 0.001157 805.8 954.2
936(31) 0.001061 805.5 957.4
930(31) 0.001061 805.1 960.7
929(31) 0.001041 804.7 964.1
948(31) 0.001014 804.3 967.6
946(31) 0.001041 804.0 971.3
966(31) 0.001041 803.6 975.2
990(32) 0.000989 803.2 979.2
969(32) 0.000989 802.8 983.4
975(32) 0.001001 802.5 987.8
940(31) 0.001047 802.1 992.3
871(30) 0.001149 801.7 997.1
969(32) 0.001008 801.3 1002.1
994(32) 0.000964 801.0 1007.7
923(31) 0.001047 800.6 1013.1
916(30) 0.001082 800.2 1018.8
963(31) 0.001034 799.8 1024.7
973(31) 0.001014 799.5 1030.9
940(31) 0.001014 799.1 1037.4
960(32) 0.001008 798.7 1044.2
977(31) 0.001014 798.3 1051.4
943(31) 0.001047 798.0 1058.9
969(31) 0.001014 797.6 1066.8
1012(32) 0.000953 797.2 1075.0
1011(33) 0.000941 796.8 1083.7
994(32) 0.001001 796.4 1092.9
1033(32) 0.000970 796.1 1102.5
1048(33) 0.000935 795.7 1112.6
1026(33) 0.000935 795.3 1123.3
1079(34) 0.000891 794.9 1134.5
1038(33) 0.000947 794.5 1146.5
1090(33) 0.000918 794.2 1159.0
1106(34) 0.000886 793.8 1172.3
1089(34) 0.000875 793.4 1186.4
1056(33) 0.000918 793.0 1201.4
1094(33) 0.000907 792.6 1217.2
1085(33) 0.000913 792.3 1234.0
1037(33) 0.000947 791.9 1251.9
1121(34) 0.000855 791.5 1271.0
1081(34) 0.000886 791.1 1291.3
1084(33) 0.000913 790.7 1312.9
1064(33) 0.000930 790.4 1336.1
1092(33) 0.000907 790.0 1360.8
1144(34) 0.000845 789.6 1387.4
1156(35) 0.000831 789.2 1415.9
1229(35) 0.000807 789. 1446.
1249(36) 0.000789 788. 1479.
1200(35) 0.000816 788.1 1515.0
1257(36) 0.000772 788. 1553.
1331(37) 0.000719 787. 1595.
1398(38) 0.000707 787. 1640.
1405(37) 0.000715 787. 1689.
1453(39) 0.000671 786. 1743.
1467(39) 0.000654 786. 1801.
1560(40) 0.000616 785. 1865.
1677(41) 0.000583 785. 1935.
1738(42) 0.000578 785. 2012.
1822(44) 0.000528 784. 2098.
1964(45) 0.000489 784. 2192.
2043(46) 0.000473 783. 2298.
2161(47) 0.000453 783. 2415.
2383(49) 0.000418 783. 2546.
2592(52) 0.000377 782. 2694.
2801(54) 0.0003379 782. 2861.
2951(55) 0.0003270 782. 3050.
3268(58) 0.0002993 781. 3267.
3632(61) 0.0002714 781. 3515.
3926(64) 0.0002464 780. 3802.
4438(68) 0.0002137 780. 4136.
4902(72) 0.0001924 780. 4529.
5425(75) 0.0001792 779. 4998.
6242(80) 0.0001551 779. 5564.
7083(86) 0.0001358 778. 6265.
7960(92) 0.0001174 778. 7153.
9075(99) 0.0001029 778. 8309.
10690(110) 0.0000882 777. 9846.
12720(120) 0.0000759 777. 11918.
15580(130) 0.0000589 777. 14715.
18980(150) 0.0000472 776. 18457.
23260(160) 0.0000379 776. 23349.
28410(180) 0.00003097 775. 29554.
35420(200) 0.00002468 775. 37083.
42970(230) 0.00001944 775. 45672.
50770(250) 0.00001566 774. 54534.
58660(280) 0.00001320 774. 62086.
63460(290) 0.00001235 773. 66199.
65880(290) 0.00001187 773. 65338.
61460(280) 0.00001275 773. 59849.
53240(260) 0.00001485 772. 51634.
43420(230) 0.00001881 772. 42732.
33930(200) 0.00002571 771. 34434.
25950(170) 0.00003477 771. 27335.
19980(150) 0.0000453 771. 21579.
15580(130) 0.0000593 770. 17088.
12520(120) 0.0000728 770. 13685.
10200(100) 0.0000928 770. 11150.
8593(94) 0.0001129 769. 9276.
7246(87) 0.0001309 769. 7880.
6118(81) 0.0001543 768. 6823.
5370(75) 0.0001764 768. 6004.
4874(71) 0.0001973 768. 5351.
4462(67) 0.0002221 767. 4820.
4095(65) 0.0002360 767. 4379.
3913(64) 0.0002434 766. 4006.
3732(63) 0.0002528 766. 3688.
3585(61) 0.0002732 766. 3413.
3495(59) 0.0002834 765. 3176.
3423(60) 0.0002806 765. 2968.
3354(59) 0.0002863 764. 2786.
3308(59) 0.0002863 764. 2625.
3364(58) 0.0002942 764. 2482.
3049(56) 0.0003235 763. 2355.
3125(57) 0.0003078 763. 2241.
2834(55) 0.0003354 763. 2139.
2774(54) 0.0003481 762. 2047.
2622(52) 0.000368 762. 1963.
2394(49) 0.000418 761. 1888.
2313(49) 0.000416 761. 1819.
2142(47) 0.000447 761. 1756.
2029(46) 0.000477 760. 1699.
1816(43) 0.000533 760. 1646.
1706(41) 0.000589 759. 1597.
1655(41) 0.000589 759. 1553.
1497(40) 0.000641 759. 1511.
1453(39) 0.000661 758. 1473.
1330(37) 0.000734 758. 1438.
1324(36) 0.000755 757. 1405.
1305(37) 0.000751 757. 1374.
1263(36) 0.000755 757. 1346.
1238(36) 0.000776 756. 1319.
1210(35) 0.000807 756. 1294.
1152(34) 0.000875 755.6 1270.6
1112(34) 0.000875 755.2 1248.6
1085(34) 0.000875 754.8 1228.0
1108(34) 0.000870 754.4 1208.6
1079(33) 0.000907 754.0 1190.3
1088(33) 0.000918 753.6 1173.0
1105(34) 0.000881 753.2 1156.7
1188(35) 0.000807 753. 1141.
1133(34) 0.000850 752.5 1126.7
1125(34) 0.000875 752.1 1112.9
1135(34) 0.000881 751.7 1099.8
1234(36) 0.000785 751. 1087.
1148(34) 0.000850 750.9 1075.5
1256(36) 0.000759 751. 1064.
1282(36) 0.000763 750. 1054.
1266(36) 0.000789 750. 1043.
1335(37) 0.000723 749. 1034.
1373(38) 0.000700 749. 1024.
1354(38) 0.000711 749. 1015.
1384(38) 0.000700 748. 1007.
1373(37) 0.000727 748. 999.
1384(38) 0.000707 747. 991.
1362(38) 0.000696 747. 984.
1315(37) 0.000730 747. 976.
1230(35) 0.000798 746. 970.
1216(35) 0.000812 746. 963.
1176(35) 0.000835 745.5 956.6
1088(34) 0.000875 745.1 950.5
1082(34) 0.000891 744.7 944.6
1004(32) 0.000983 744.3 938.9
1007(32) 0.000989 743.9 933.5
932(31) 0.001041 743.6 928.3
946(31) 0.001014 743.2 923.2
878(30) 0.001104 742.8 918.3
875(30) 0.001111 742.4 913.6
837(29) 0.001206 742.0 909.0
853(30) 0.001134 741.6 904.6
802(29) 0.001197 741.2 900.4
840(30) 0.001149 740.9 896.2
823(29) 0.001189 740.5 892.2
836(29) 0.001189 740.1 888.4
825(29) 0.001189 739.7 884.6
861(30) 0.001119 739.3 881.0
815(29) 0.001165 738.9 877.5
766(28) 0.001294 738.6 874.1
829(29) 0.001189 738.2 870.7
789(28) 0.001249 737.8 867.5
762(28) 0.001257 737.4 864.4
780(29) 0.001231 737.0 861.3
735(27) 0.001342 736.6 858.4
763(28) 0.001303 736.2 855.5
787(28) 0.001240 735.9 852.7
719(27) 0.001342 735.5 850.0
709(27) 0.001352 735.1 847.3
774(28) 0.001266 734.7 844.7
741(27) 0.001352 734.3 842.2
774(28) 0.001257 733.9 839.7
809(29) 0.001189 733.6 837.3
716(27) 0.001342 733.2 835.0
805(29) 0.001214 732.8 832.7
771(28) 0.001303 732.4 830.5
752(28) 0.001294 732.0 828.3
749(28) 0.001276 731.7 826.2
751(28) 0.001294 731.3 824.1
787(28) 0.001240 730.9 822.1
783(28) 0.001266 730.5 820.1
777(28) 0.001257 730.1 819.2
691(27) 0.001382 729.7 817.3
720(27) 0.001332 729.4 815.4
691(27) 0.001424 729.0 813.6
732(27) 0.001352 728.6 811.8
744(28) 0.001313 728.2 810.1
729(28) 0.001322 727.8 808.3
705(27) 0.001342 727.5 806.7
724(27) 0.001362 727.1 805.0
756(28) 0.001313 726.7 803.4
723(27) 0.001332 726.3 801.8
715(27) 0.001342 725.9 800.3
751(28) 0.001285 725.6 798.8
737(28) 0.001322 725.2 797.3
678(26) 0.001491 724.8 795.8
720(27) 0.001342 724.4 794.4
727(28) 0.001313 724.0 792.9
738(28) 0.001322 723.7 791.6
731(27) 0.001332 723.3 790.2
721(27) 0.001382 722.9 788.8
699(27) 0.001403 722.5 787.5
686(27) 0.001382 722.1 786.2
715(27) 0.001352 721.8 785.0
678(26) 0.001446 721.4 783.7
713(27) 0.001392 721.0 782.5
736(28) 0.001322 720.6 781.2
673(27) 0.001424 720.2 780.0
701(27) 0.001372 719.9 778.9
655(26) 0.001491 719.5 777.7
692(26) 0.001446 719.1 776.6
713(27) 0.001362 718.7 775.4
712(27) 0.001352 718.4 774.3
673(27) 0.001424 718.0 773.2
713(27) 0.001362 717.6 772.1
704(27) 0.001424 717.2 771.1
677(26) 0.001446 716.9 770.0
691(27) 0.001382 716.5 769.0
705(27) 0.001352 716.1 768.0
743(28) 0.001322 715.7 767.0
715(27) 0.001392 715.3 766.0
673(26) 0.001457 715.0 765.0
681(27) 0.001403 714.6 764.0
736(28) 0.001303 714.2 763.1
731(27) 0.001342 713.8 762.1
691(26) 0.001435 713.5 761.2
689(27) 0.001403 713.1 760.3
674(26) 0.001435 712.7 759.4
632(26) 0.001538 712.3 758.5
644(26) 0.001526 712.0 757.6
680(26) 0.001457 711.6 756.7
642(26) 0.001526 711.2 755.8
701(27) 0.001362 710.9 755.0
770(28) 0.001240 710.5 754.1
656(26) 0.001502 710.1 753.3
662(26) 0.001491 709.7 752.5
658(26) 0.001491 709.4 751.6
683(27) 0.001424 709.0 750.8
702(27) 0.001352 708.6 750.0
659(26) 0.001479 708.2 749.2
659(26) 0.001526 707.9 748.4
635(26) 0.001514 707.5 747.7
654(26) 0.001479 707.1 746.9
663(26) 0.001446 706.8 746.1
722(27) 0.001372 706.4 745.4
703(27) 0.001413 706.0 744.6
650(26) 0.001526 705.6 743.9
706(27) 0.001342 705.3 743.2
688(27) 0.001403 704.9 742.4
667(26) 0.001479 704.5 741.7
648(26) 0.001526 704.2 741.0
634(26) 0.001538 703.8 740.3
641(26) 0.001502 703.4 739.6
626(26) 0.001514 703.0 738.9
680(26) 0.001468 702.7 738.2
667(26) 0.001479 702.3 737.6
651(26) 0.001479 701.9 736.9
701(27) 0.001382 701.6 736.2
686(27) 0.001403 701.2 735.6
676(26) 0.001435 700.8 734.9
665(26) 0.001514 700.5 734.3
663(26) 0.001468 700.1 733.6
619(25) 0.001562 699.7 733.0
633(26) 0.001502 699.4 732.3
613(25) 0.001600 699.0 731.7
660(26) 0.001514 698.6 731.1
700(27) 0.001392 698.3 730.5
667(26) 0.001446 697.9 729.9
649(26) 0.001468 697.5 729.3
689(27) 0.001424 697.2 728.7
618(25) 0.001626 696.8 728.1
639(26) 0.001526 696.4 727.5
683(27) 0.001403 696.1 726.9
656(26) 0.001457 695.7 726.3
618(25) 0.001600 695.3 725.7
676(26) 0.001468 695.0 725.1
650(26) 0.001502 694.6 724.6
691(27) 0.001392 694.2 724.0
678(27) 0.001413 693.9 723.4
628(25) 0.001575 693.5 722.9
694(26) 0.001435 693.1 722.3
693(27) 0.001403 692.8 721.8
678(27) 0.001424 692.4 721.2
704(27) 0.001362 692.0 720.7
634(26) 0.001538 691.7 720.2
660(26) 0.001526 691.3 719.6
691(27) 0.001413 690.9 719.1
654(26) 0.001479 690.6 718.6
699(27) 0.001372 690.2 718.1
698(27) 0.001403 689.9 717.6
774(28) 0.001285 689.5 717.0
746(28) 0.001313 689.1 716.5
759(28) 0.001257 688.8 716.0
802(29) 0.001189 688.4 715.5
698(27) 0.001424 688.0 715.0
810(28) 0.001240 687.7 714.6
845(29) 0.001157 687.3 714.1
868(30) 0.001104 687.0 713.6
860(30) 0.001104 686.6 713.1
894(30) 0.001096 686.2 712.6
882(30) 0.001134 685.9 712.1
944(31) 0.001014 685.5 711.7
872(30) 0.001104 685.2 711.2
878(30) 0.001104 684.8 710.7
828(29) 0.001181 684.4 710.3
809(29) 0.001223 684.1 709.8
785(28) 0.001249 683.7 709.4
761(28) 0.001240 683.4 708.9
740(28) 0.001322 683.0 708.5
759(28) 0.001276 682.6 708.0
764(28) 0.001303 682.3 707.6
735(27) 0.001352 681.9 707.2
793(29) 0.001214 681.6 706.7
725(28) 0.001322 681.2 706.3
706(27) 0.001382 680.8 705.9
722(27) 0.001382 680.5 705.5
746(28) 0.001303 680.1 705.1
769(28) 0.001249 679.8 704.7
850(30) 0.001126 679.4 704.3
828(29) 0.001173 679.1 703.8
879(29) 0.001157 678.7 703.4
910(31) 0.001054 678.3 703.1
917(31) 0.001047 678.0 702.7
1075(34) 0.000891 677.6 702.3
1082(33) 0.000902 677.3 701.9
1084(33) 0.000924 676.9 701.5
1137(34) 0.000850 676.6 701.1
1209(35) 0.000798 676. 701.
1173(35) 0.000835 675.8 700.4
1171(35) 0.000831 675.5 700.0
1089(33) 0.000918 675.1 699.7
1021(33) 0.000947 674.8 699.3
989(32) 0.000970 674.4 699.0
903(31) 0.001075 674.1 698.6
850(30) 0.001141 673.7 698.3
827(29) 0.001206 673.4 698.1
755(28) 0.001294 673.0 697.7
811(29) 0.001181 672.7 697.4
740(28) 0.001303 672.3 697.1
713(27) 0.001362 671.9 696.8
677(26) 0.001479 671.6 696.5
728(27) 0.001342 671.2 696.2
690(27) 0.001382 670.9 695.9
693(27) 0.001392 670.5 695.6
674(26) 0.001457 670.2 695.3
656(26) 0.001526 669.8 695.0
684(26) 0.001435 669.5 694.7
627(26) 0.001526 669.1 694.5
639(26) 0.001514 668.8 694.2
666(26) 0.001468 668.4 694.0
682(26) 0.001468 668.1 693.7
659(26) 0.001468 667.7 693.5
651(26) 0.001468 667.4 693.2
678(27) 0.001424 667.0 693.0
710(27) 0.001392 666.7 692.8
661(26) 0.001502 666.3 692.6
681(26) 0.001435 666.0 692.4
698(27) 0.001382 665.6 692.2
691(27) 0.001392 665.3 692.0
673(26) 0.001457 664.9 691.8
698(26) 0.001435 664.6 691.7
702(27) 0.001392 664.2 691.5
691(27) 0.001403 663.9 691.4
686(27) 0.001392 663.5 691.2
707(27) 0.001392 663.2 691.1
729(27) 0.001372 662.8 691.0
834(29) 0.001181 662.5 690.9
760(28) 0.001257 662.1 690.8
837(30) 0.001134 661.8 690.7
856(29) 0.001157 661.4 690.7
898(30) 0.001111 661.1 690.6
901(30) 0.001082 660.7 690.6
926(31) 0.001041 660.4 690.6
972(32) 0.000983 660.0 690.6
941(31) 0.001047 659.7 690.6
950(31) 0.001061 659.3 690.7
1013(32) 0.000953 659.0 690.7
941(31) 0.001021 658.6 690.8
906(31) 0.001075 658.3 690.9
890(30) 0.001104 657.9 691.0
896(30) 0.001104 657.6 691.2
790(28) 0.001249 657.2 691.3
820(29) 0.001157 656.9 691.5
750(28) 0.001285 656.6 691.8
795(29) 0.001231 656.2 692.0
728(27) 0.001352 655.9 692.3
708(27) 0.001403 655.5 692.6
633(26) 0.001526 655.2 693.0
684(27) 0.001403 654.8 693.4
675(26) 0.001468 654.5 693.8
649(26) 0.001514 654.1 694.3
683(26) 0.001435 653.8 694.8
586(25) 0.001639 653.4 695.4
690(27) 0.001372 653.1 696.1
690(26) 0.001435 652.8 696.7
626(25) 0.001613 652.4 697.5
653(26) 0.001468 652.1 698.3
638(26) 0.001514 651.7 699.2
642(26) 0.001491 651.4 700.2
675(26) 0.001457 651.0 701.2
642(25) 0.001562 650.7 702.3
607(25) 0.001600 650.4 703.6
688(27) 0.001392 650.0 704.9
690(27) 0.001392 649.7 706.3
632(25) 0.001562 649.3 707.9
630(25) 0.001575 649.0 709.6
637(26) 0.001526 648.6 711.5
618(25) 0.001575 648.3 713.5
611(25) 0.001550 648.0 715.7
597(25) 0.001652 647.6 718.1
642(26) 0.001538 647.3 720.7
666(26) 0.001468 646.9 723.5
680(27) 0.001424 646.6 726.6
688(27) 0.001382 646.2 730.0
634(25) 0.001550 645.9 733.7
601(25) 0.001666 645.6 737.8
667(26) 0.001457 645.2 742.3
710(27) 0.001352 644.9 747.2
718(27) 0.001332 644.5 752.7
686(26) 0.001435 644.2 758.7
680(26) 0.001479 643.9 765.5
719(27) 0.001352 643.5 772.9
660(26) 0.001468 643.2 781.3
707(27) 0.001352 642.8 790.6
701(27) 0.001413 642.5 801.2
726(27) 0.001362 642.2 813.1
780(28) 0.001249 641.8 826.5
749(28) 0.001294 641.5 841.8
748(28) 0.001285 641.1 859.4
730(27) 0.001342 640.8 879.6
797(28) 0.001257 640.5 903.0
868(30) 0.001104 640.1 930.3
831(29) 0.001173 639.8 962.6
884(30) 0.001082 639.4 1001.3
907(31) 0.001075 639.1 1048.4
1036(32) 0.000964 638.8 1107.2
1084(33) 0.000907 638.4 1182.3
1128(34) 0.000845 638.1 1280.7
1356(37) 0.000719 638. 1412.
1482(39) 0.000654 637. 1588.
1796(43) 0.000554 637. 1825.
2015(45) 0.000485 637. 2138.
2462(51) 0.000383 636. 2541.
2993(56) 0.0003177 636. 3045.
3502(60) 0.0002796 636. 3646.
4211(66) 0.0002310 635. 4317.
4972(72) 0.0001956 635. 4991.
5527(77) 0.0001700 635. 5543.
5890(79) 0.0001598 634. 5818.
5821(78) 0.0001652 634. 5716.
5430(75) 0.0001797 634. 5276.
4857(71) 0.0001967 633. 4640.
3982(65) 0.0002396 633. 3955.
3237(58) 0.0002932 633. 3315.
2619(52) 0.000371 632. 2763.
2176(47) 0.000455 632. 2312.
1891(44) 0.000517 632. 1958.
1527(40) 0.000631 631. 1686.
1372(38) 0.000693 631. 1483.
1249(36) 0.000785 631. 1331.
1154(34) 0.000865 630.3 1218.2
1088(34) 0.000891 630.0 1132.4
952(31) 0.001014 629.7 1066.0
964(32) 0.000989 629.3 1013.2
873(30) 0.001111 629.0 970.2
797(28) 0.001266 628.7 934.6
813(29) 0.001181 628.3 904.4
830(29) 0.001157 628.0 878.6
774(28) 0.001240 627.7 856.4
707(27) 0.001392 627.3 837.0
699(27) 0.001424 627.0 820.1
717(27) 0.001362 626.7 805.2
748(28) 0.001285 626.3 792.0
716(27) 0.001342 626.0 780.2
697(27) 0.001413 625.7 769.7
664(26) 0.001514 625.3 760.3
691(27) 0.001403 625.0 751.8
673(26) 0.001435 624.6 744.2
642(26) 0.001502 624.3 737.2
697(27) 0.001392 624.0 730.9
656(26) 0.001526 623.6 725.1
680(26) 0.001435 623.3 719.8
644(26) 0.001479 623.0 714.9
673(27) 0.001424 622.6 710.5
667(26) 0.001468 622.3 706.3
650(26) 0.001538 622.0 702.5
667(26) 0.001468 621.6 699.0
625(26) 0.001538 621.3 695.7
685(27) 0.001403 621.0 692.6
648(26) 0.001526 620.6 689.7
629(25) 0.001587 620.3 687.0
630(25) 0.001562 620.0 684.5
676(27) 0.001413 619.7 682.2
586(25) 0.001652 619.3 680.0
632(25) 0.001562 619.0 677.9
643(25) 0.001550 618.7 676.0
623(25) 0.001550 618.3 674.1
583(25) 0.001666 618.0 672.4
600(25) 0.001600 617.7 670.7
634(25) 0.001550 617.3 669.2
605(25) 0.001639 617.0 667.7
591(25) 0.001639 616.7 666.3
591(25) 0.001626 616.3 665.0
593(25) 0.001639 616.0 663.7
602(25) 0.001613 615.7 662.5
592(24) 0.001694 615.3 661.4
560(24) 0.001736 615.0 660.3
591(25) 0.001639 614.7 659.3
605(25) 0.001600 614.3 658.3
607(25) 0.001600 614.0 657.3
606(25) 0.001652 613.7 656.4
605(25) 0.001613 613.4 655.6
619(25) 0.001550 613.0 654.8
611(25) 0.001575 612.7 654.0
581(24) 0.001694 612.4 653.3
589(24) 0.001708 612.0 652.6
577(24) 0.001694 611.7 651.9
611(25) 0.001562 611.4 651.2
648(26) 0.001491 611.0 650.6
573(24) 0.001722 610.7 650.1
550(24) 0.001811 610.4 649.5
646(26) 0.001491 610.0 643.7
608(25) 0.001587 609.7 643.2
671(26) 0.001435 609.4 642.8
577(24) 0.001708 609.1 642.3
540(23) 0.001842 608.7 641.9
580(24) 0.001680 608.4 641.6
592(25) 0.001639 608.1 641.2
576(25) 0.001652 607.7 640.9
591(25) 0.001652 607.4 640.6
586(24) 0.001708 607.1 640.3
574(24) 0.001694 606.7 640.1
585(25) 0.001652 606.4 639.8
612(25) 0.001550 606.1 639.6
610(25) 0.001600 605.8 639.5
621(25) 0.001626 605.4 639.3
595(25) 0.001626 605.1 639.2
648(26) 0.001479 604.8 639.0
584(25) 0.001639 604.4 639.0
581(24) 0.001694 604.1 638.9
606(25) 0.001652 603.8 638.8
598(25) 0.001626 603.5 638.8
580(25) 0.001639 603.1 638.8
559(24) 0.001751 602.8 638.9
581(24) 0.001680 602.5 638.9
611(25) 0.001639 602.1 639.0
582(24) 0.001680 601.8 639.1
588(25) 0.001626 601.5 639.3
653(26) 0.001468 601.2 639.4
556(24) 0.001780 600.8 639.6
594(25) 0.001639 600.5 639.9
604(25) 0.001639 600.2 640.1
598(25) 0.001613 599.8 640.4
594(25) 0.001600 599.5 640.8
551(24) 0.001765 599.2 641.1
613(25) 0.001639 598.9 641.5
618(25) 0.001562 598.5 642.0
601(25) 0.001613 598.2 642.5
586(25) 0.001639 597.9 643.0
609(25) 0.001600 597.5 643.6
571(24) 0.001765 597.2 644.2
609(25) 0.001600 596.9 644.8
586(25) 0.001639 596.6 645.6
650(26) 0.001479 596.2 646.3
674(26) 0.001468 595.9 647.2
610(25) 0.001626 595.6 648.0
643(26) 0.001514 595.2 649.0
625(26) 0.001538 594.9 650.0
658(26) 0.001446 594.6 651.1
644(26) 0.001538 594.3 652.3
657(26) 0.001514 593.9 653.5
650(26) 0.001491 593.6 654.8
688(27) 0.001413 593.3 656.2
708(27) 0.001352 592.9 657.7
713(27) 0.001382 592.6 659.4
701(26) 0.001446 592.3 661.1
786(29) 0.001231 592.0 662.9
813(29) 0.001189 591.6 664.9
798(29) 0.001214 591.3 667.0
783(28) 0.001240 591.0 669.2
822(29) 0.001231 590.7 671.6
873(30) 0.001111 590.3 674.2
835(30) 0.001149 590.0 676.9
885(30) 0.001089 589.7 679.8
850(30) 0.001141 589.3 683.0
890(30) 0.001134 589.0 686.3
861(30) 0.001126 588.7 689.9
868(30) 0.001104 588.4 693.8
872(30) 0.001096 588.0 698.0
866(30) 0.001141 587.7 702.5
793(28) 0.001249 587.4 707.3
840(29) 0.001181 587.1 712.5
842(30) 0.001126 586.7 718.1
769(28) 0.001257 586.4 724.2
830(29) 0.001189 586.1 730.8
823(29) 0.001206 585.8 738.0
783(28) 0.001240 585.4 745.8
744(28) 0.001303 585.1 754.2
789(29) 0.001223 584.8 763.5
751(28) 0.001313 584.4 773.6
763(28) 0.001294 584.1 784.6
765(28) 0.001276 583.8 796.8
736(28) 0.001313 583.5 810.2
760(28) 0.001257 583.1 824.9
778(29) 0.001231 582.8 841.3
807(28) 0.001257 582.5 859.5
840(29) 0.001157 582.2 879.7
820(29) 0.001173 581.8 902.3
827(29) 0.001173 581.5 927.8
904(31) 0.001075 581.2 956.4
992(31) 0.001014 580.9 988.9
976(32) 0.001008 580.5 1025.8
974(32) 0.000964 580.2 1068.0
1062(33) 0.000918 579.9 1116.6
1134(34) 0.000870 579.5 1172.9
1205(35) 0.000821 579.2 1238.7
1241(36) 0.000785 579. 1316.
1385(38) 0.000689 579. 1410.
1572(41) 0.000607 578. 1523.
1684(41) 0.000586 578. 1666.
1988(45) 0.000496 578. 1849.
2157(47) 0.000447 577. 2090.
2630(52) 0.000364 577. 2413.
3009(56) 0.0003189 577. 2850.
3693(62) 0.0002618 576. 3439.
4408(67) 0.0002241 576. 4222.
5380(75) 0.0001787 576. 5232.
6395(82) 0.0001476 575. 6491.
7749(91) 0.0001208 575. 7987.
9270(99) 0.0001018 575. 9645.
10910(110) 0.0000890 574. 11279.
12170(120) 0.0000760 574. 12566.
12830(120) 0.0000719 574. 13122.
12670(120) 0.0000719 573. 12740.
11590(110) 0.0000812 573. 11565.
10020(100) 0.0000957 573. 9967.
8135(93) 0.0001161 572. 8296.
6453(83) 0.0001445 572. 6760.
5263(75) 0.0001797 572. 5452.
4148(65) 0.0002338 571. 4393.
3247(57) 0.0003046 571. 3568.
2712(53) 0.000352 571. 2944.
2373(50) 0.000408 570. 2480.
2039(46) 0.000473 570. 2137.
1741(42) 0.000559 570. 1882.
1485(39) 0.000675 569. 1688.
1409(38) 0.000685 569. 1538.
1212(36) 0.000793 569. 1419.
1082(33) 0.000896 568.5 1321.8
1104(34) 0.000881 568.1 1240.7
976(31) 0.001021 567.8 1172.1
985(32) 0.000995 567.5 1113.4
881(31) 0.001075 567.2 1062.8
840(30) 0.001149 566.8 1018.7
886(30) 0.001096 566.5 980.1
766(28) 0.001303 566.2 946.2
731(27) 0.001332 565.9 916.1
771(28) 0.001249 565.5 889.4
780(29) 0.001231 565.2 865.6
709(27) 0.001403 564.9 844.2
715(27) 0.001392 564.6 824.9
705(27) 0.001382 564.2 807.5
642(26) 0.001514 563.9 791.7
682(27) 0.001403 563.6 777.4
672(26) 0.001479 563.3 764.3
644(26) 0.001538 562.9 752.3
626(25) 0.001550 562.6 741.3
620(25) 0.001562 562.3 731.2
681(27) 0.001392 562.0 721.9
617(25) 0.001587 561.6 713.2
592(24) 0.001694 561.3 705.2
628(26) 0.001538 561.0 697.8
619(25) 0.001550 560.7 690.9
613(25) 0.001575 560.3 684.5
633(26) 0.001538 560.0 678.7
634(25) 0.001587 559.7 673.0
635(26) 0.001538 559.4 667.8
617(25) 0.001550 559.0 662.8
624(26) 0.001538 558.7 658.2
604(25) 0.001639 558.4 653.8
632(25) 0.001575 558.1 649.6
595(25) 0.001639 557.7 645.7
602(25) 0.001600 557.4 642.0
613(25) 0.001550 557.1 638.5
618(25) 0.001600 556.8 635.2
642(26) 0.001538 556.4 632.0
593(25) 0.001652 556.1 629.0
624(26) 0.001526 555.8 626.1
655(26) 0.001468 555.5 623.4
637(26) 0.001538 555.1 620.8
616(25) 0.001613 554.8 618.3
653(26) 0.001491 554.5 615.9
610(25) 0.001587 554.2 613.6
590(25) 0.001626 553.8 611.5
596(25) 0.001639 553.5 609.4
609(25) 0.001666 553.2 607.3
588(25) 0.001652 552.9 605.4
588(25) 0.001639 552.5 603.5
611(25) 0.001575 552.2 601.8
596(25) 0.001639 551.9 600.0
596(24) 0.001680 551.6 598.4
580(24) 0.001680 551.2 596.7
588(25) 0.001626 550.9 595.2
564(24) 0.001694 550.6 593.7
561(24) 0.001751 550.3 592.2
557(24) 0.001780 549.9 590.8
565(24) 0.001722 549.6 589.4
583(25) 0.001639 549.3 588.1
565(24) 0.001708 549.0 586.8
568(24) 0.001722 548.6 585.6
572(24) 0.001765 548.3 584.4
587(25) 0.001639 548.0 583.2
563(24) 0.001708 547.7 582.0
554(24) 0.001751 547.3 580.9
593(25) 0.001626 547.0 579.8
531(23) 0.001907 546.7 578.8
531(23) 0.001826 546.4 577.7
564(24) 0.001708 546.0 576.7
571(24) 0.001694 545.7 575.7
557(24) 0.001736 545.4 574.7
550(24) 0.001811 545.1 573.8
518(23) 0.001890 544.7 572.9
514(23) 0.001842 544.4 572.0
573(24) 0.001694 544.1 571.1
568(24) 0.001736 543.8 570.2
550(24) 0.001811 543.4 569.4
536(23) 0.001842 543.1 568.5
532(24) 0.001795 542.8 567.7
518(23) 0.001842 542.5 566.9
520(23) 0.001907 542.2 566.1
518(23) 0.001924 541.8 565.4
564(24) 0.001722 541.5 564.6
571(24) 0.001694 541.2 563.9
505(23) 0.001890 540.9 563.1
515(23) 0.001924 540.5 562.4
517(23) 0.001924 540.2 561.7
574(24) 0.001680 539.9 561.0
511(23) 0.001890 539.6 560.3
499(23) 0.001907 539.2 559.6
552(24) 0.001765 538.9 559.0
547(23) 0.001826 538.6 558.3
514(23) 0.001890 538.3 557.7
536(23) 0.001826 537.9 557.0
543(24) 0.001765 537.6 556.4
521(23) 0.001858 537.3 555.8
509(23) 0.001975 537.0 555.2
525(23) 0.001874 536.7 554.6
524(23) 0.001826 536.3 554.0
532(24) 0.001811 536.0 553.4
500(23) 0.001941 535.7 552.8
496(22) 0.002011 535.4 552.2
524(23) 0.001858 535.0 551.6
553(24) 0.001708 534.7 551.1
526(23) 0.001826 534.4 550.5
501(23) 0.001941 534.1 550.0
530(23) 0.001874 533.7 549.4
536(24) 0.001811 533.4 548.9
534(24) 0.001811 533.1 548.3
527(23) 0.001826 532.8 547.8
524(23) 0.001890 532.5 547.3
561(24) 0.001765 532.1 546.8
526(23) 0.001858 531.8 546.2
548(24) 0.001765 531.5 545.7
579(25) 0.001639 531.2 545.2
522(23) 0.001890 530.8 544.7
521(23) 0.001907 530.5 544.2
514(23) 0.001907 530.2 543.7
531(24) 0.001795 529.9 543.2
544(24) 0.001765 529.6 542.7
510(23) 0.001907 529.2 542.3
565(24) 0.001765 528.9 541.8
528(23) 0.001842 528.6 541.3
530(24) 0.001780 528.3 540.8
503(23) 0.001924 527.9 540.4
497(23) 0.001975 527.6 539.9
561(24) 0.001780 527.3 539.4
539(23) 0.001842 527.0 539.0
523(24) 0.001811 526.7 538.5
518(23) 0.001858 526.3 538.1
515(23) 0.001924 526.0 537.6
522(23) 0.001890 525.7 537.2
471(22) 0.002085 525.4 536.7
527(24) 0.001811 525.1 536.3
514(23) 0.001858 524.7 535.9
497(22) 0.001993 524.4 535.4
534(23) 0.001858 524.1 535.0
530(23) 0.001826 523.8 534.6
538(24) 0.001780 523.4 534.1
548(24) 0.001765 523.1 533.7
491(23) 0.001975 522.8 533.3
530(23) 0.001874 522.5 532.9
505(23) 0.001958 522.2 532.4
529(24) 0.001795 521.8 532.0
468(22) 0.002066 521.5 531.6
520(23) 0.001890 521.2 531.2
520(23) 0.001907 520.9 530.8
538(23) 0.001826 520.6 530.4
507(23) 0.001890 520.2 530.0
521(23) 0.001826 519.9 529.6
530(23) 0.001874 519.6 529.2
545(23) 0.001826 519.3 528.8
515(23) 0.001874 519.0 528.4
517(23) 0.001842 518.6 528.0
525(23) 0.001842 518.3 527.6
547(24) 0.001765 518.0 527.2
506(22) 0.001993 517.7 526.8
550(24) 0.001765 517.4 526.4
527(24) 0.001811 517.0 526.0
548(24) 0.001780 516.7 525.6
541(24) 0.001811 516.4 525.2
573(24) 0.001751 516.1 524.9
555(24) 0.001765 515.8 524.5
587(25) 0.001626 515.4 524.1
563(24) 0.001722 515.1 523.7
594(25) 0.001652 514.8 523.3
581(24) 0.001708 514.5 523.0
527(23) 0.001874 514.2 522.6
538(24) 0.001795 513.9 522.2
565(24) 0.001694 513.5 521.8
579(24) 0.001694 513.2 521.5
572(24) 0.001736 512.9 521.1
576(24) 0.001694 512.6 520.7
569(24) 0.001694 512.3 520.4
590(25) 0.001613 511.9 520.0
624(25) 0.001575 511.6 519.6
596(24) 0.001708 511.3 519.3
607(25) 0.001600 511.0 518.9
603(25) 0.001587 510.7 518.5
585(24) 0.001680 510.4 518.2
636(26) 0.001526 510.0 517.8
692(26) 0.001457 509.7 517.5
681(27) 0.001413 509.4 517.1
666(26) 0.001446 509.1 516.8
680(27) 0.001424 508.8 516.4
677(26) 0.001446 508.5 516.1
715(27) 0.001392 508.1 515.7
764(28) 0.001266 507.8 515.4
729(28) 0.001303 507.5 515.0
746(28) 0.001303 507.2 514.7
748(28) 0.001294 506.9 514.3
738(27) 0.001352 506.6 514.0
768(28) 0.001266 506.2 513.6
746(28) 0.001294 505.9 513.3
682(27) 0.001413 505.6 512.9
687(26) 0.001435 505.3 512.6
675(26) 0.001479 505.0 512.3
668(26) 0.001468 504.7 511.9
608(25) 0.001575 504.4 511.6
596(25) 0.001613 504.0 511.2
621(25) 0.001575 503.7 510.9
556(24) 0.001780 503.4 510.6
552(24) 0.001780 503.1 510.2
533(24) 0.001795 502.8 509.9
567(24) 0.001694 502.5 509.6
570(24) 0.001736 502.2 509.2
539(23) 0.001842 501.8 508.9
571(24) 0.001694 501.5 508.6
542(24) 0.001795 501.2 508.3
540(24) 0.001765 500.9 507.9
561(24) 0.001765 500.6 507.6
543(23) 0.001858 500.3 507.3
555(24) 0.001736 500.0 507.0
603(25) 0.001600 499.7 506.6
576(24) 0.001680 499.3 506.3
623(25) 0.001562 499.0 506.0
604(25) 0.001652 498.7 505.7
716(27) 0.001372 498.4 505.4
738(28) 0.001303 498.1 505.1
726(28) 0.001322 497.8 504.7
705(27) 0.001382 497.5 504.4
724(27) 0.001372 497.2 504.1
760(28) 0.001294 496.8 503.8
768(28) 0.001240 496.5 503.5
659(26) 0.001457 496.2 503.2
657(26) 0.001514 495.9 502.9
626(25) 0.001587 495.6 502.6
629(25) 0.001575 495.3 502.3
586(25) 0.001639 495.0 502.0
591(25) 0.001626 494.7 501.7
570(24) 0.001736 494.4 501.4
538(23) 0.001858 494.1 501.1
540(24) 0.001795 493.7 500.8
528(23) 0.001826 493.4 500.5
516(23) 0.001874 493.1 500.2
506(23) 0.001941 492.8 499.9
499(22) 0.001993 492.5 499.6
484(22) 0.002047 492.2 499.3
485(23) 0.001958 491.9 499.0
544(24) 0.001765 491.6 498.7
533(23) 0.001842 491.3 498.4
529(23) 0.001874 491.0 498.1
479(22) 0.002047 490.7 497.8
510(23) 0.001907 490.4 497.6
473(22) 0.002011 490.0 497.3
515(23) 0.001924 489.7 497.0
505(22) 0.001993 489.4 496.7
534(24) 0.001795 489.1 496.4
532(23) 0.001826 488.8 496.2
491(23) 0.001958 488.5 495.9
478(22) 0.002066 488.2 495.6
485(22) 0.002085 487.9 494.9
511(23) 0.001890 487.6 494.7
468(22) 0.002066 487.3 494.4
499(23) 0.001924 487.0 494.1
530(23) 0.001842 486.7 493.9
455(21) 0.002184 486.4 493.6
518(23) 0.001890 486.1 493.4
502(23) 0.001924 485.8 493.1
516(23) 0.001874 485.5 492.9
506(23) 0.001941 485.2 492.6
521(23) 0.001924 484.9 492.4
509(23) 0.001907 484.6 492.1
458(22) 0.002124 484.2 491.9
441(22) 0.002163 483.9 491.6
474(22) 0.002085 483.6 491.4
525(23) 0.001907 483.3 491.2
475(22) 0.002047 483.0 490.9
479(22) 0.002029 482.7 490.7
462(22) 0.002066 482.4 490.5
497(23) 0.001958 482.1 490.3
490(22) 0.002047 481.8 490.0
477(22) 0.002029 481.5 489.8
482(22) 0.001993 481.2 489.6
458(22) 0.002104 480.9 489.4
476(22) 0.002047 480.6 489.2
492(22) 0.002066 480.3 489.0
471(22) 0.002066 480.0 488.8
481(23) 0.001975 479.7 488.6
467(22) 0.002124 479.4 488.4
465(22) 0.002104 479.1 488.2
472(22) 0.002104 478.8 488.1
502(23) 0.001975 478.5 487.9
492(23) 0.001958 478.2 487.7
508(23) 0.001874 477.9 487.5
478(22) 0.002085 477.6 487.4
454(21) 0.002204 477.3 487.2
465(22) 0.002066 477.1 487.1
487(22) 0.001993 476.8 486.9
500(23) 0.001890 476.5 486.8
483(22) 0.002011 476.2 486.7
491(22) 0.002085 475.9 486.5
493(23) 0.001941 475.6 486.4
470(22) 0.002066 475.3 486.3
463(22) 0.002104 475.0 486.2
490(22) 0.001993 474.7 486.1
497(22) 0.002047 474.4 486.0
468(22) 0.002066 474.1 485.9
496(23) 0.001941 473.8 485.9
504(23) 0.001924 473.5 485.8
511(23) 0.001924 473.2 485.8
479(22) 0.002104 472.9 485.7
441(21) 0.002204 472.6 485.7
478(22) 0.002011 472.3 485.7
526(23) 0.001826 472.0 485.7
503(23) 0.001941 471.8 485.7
511(23) 0.001941 471.5 485.7
512(23) 0.001907 471.2 485.7
486(23) 0.001975 470.9 485.8
514(23) 0.001874 470.6 485.9
523(23) 0.001874 470.3 486.0
532(23) 0.001890 470.0 486.1
524(23) 0.001874 469.7 486.2
532(24) 0.001811 469.4 486.3
514(23) 0.001874 469.1 486.5
538(24) 0.001811 468.8 486.7
533(23) 0.001890 468.6 486.9
553(24) 0.001751 468.3 487.1
566(24) 0.001708 468.0 487.4
556(24) 0.001736 467.7 487.7
569(24) 0.001722 467.4 488.0
566(24) 0.001751 467.1 488.4
543(24) 0.001795 466.8 488.8
526(24) 0.001780 466.6 489.3
528(23) 0.001842 466.3 489.8
545(24) 0.001795 466.0 490.3
507(23) 0.001975 465.7 490.9
538(23) 0.001826 465.4 491.5
506(23) 0.001907 465.1 492.2
502(23) 0.001924 464.8 493.0
512(23) 0.001941 464.6 493.8
545(23) 0.001826 464.3 494.7
494(22) 0.001993 464.0 495.7
501(23) 0.001924 463.7 496.8
563(24) 0.001722 463.4 498.0
551(24) 0.001780 463.1 499.2
495(22) 0.002011 462.9 500.6
516(23) 0.001890 462.6 502.2
496(23) 0.001924 462.3 503.9
499(23) 0.001907 462.0 505.7
487(22) 0.002011 461.7 507.7
514(23) 0.001941 461.5 509.9
550(24) 0.001780 461.2 512.3
572(24) 0.001694 460.9 515.0
550(24) 0.001751 460.6 517.9
527(23) 0.001890 460.3 521.2
555(24) 0.001811 460.1 524.7
575(24) 0.001694 459.8 528.7
537(24) 0.001795 459.5 533.1
583(25) 0.001639 459.2 538.1
537(23) 0.001842 459.0 543.6
579(24) 0.001722 458.7 549.9
585(25) 0.001652 458.4 556.9
626(25) 0.001550 458.1 565.0
567(24) 0.001694 457.9 574.3
624(25) 0.001550 457.6 585.1
574(24) 0.001736 457.3 597.8
567(24) 0.001708 457.0 612.8
641(26) 0.001479 456.8 630.8
636(26) 0.001538 456.5 652.5
658(26) 0.001479 456.2 678.9
679(26) 0.001468 455.9 711.0
698(27) 0.001424 455.7 750.0
745(28) 0.001276 455.4 797.2
798(29) 0.001206 455.1 854.1
889(30) 0.001119 454.9 921.8
932(31) 0.001054 454.6 1001.4
997(32) 0.000983 454.3 1093.4
1060(33) 0.000907 454.1 1197.8
1126(34) 0.000845 453.8 1313.1
1260(36) 0.000780 454. 1436.
1300(36) 0.000759 453. 1561.
1404(38) 0.000685 453. 1677.
1562(41) 0.000610 453. 1773.
1570(41) 0.000610 452. 1834.
1581(40) 0.000616 452. 1849.
1563(39) 0.000644 452. 1816.
1519(40) 0.000631 452. 1740.
1484(39) 0.000654 451. 1635.
1351(37) 0.000715 451. 1513.
1208(35) 0.000812 451. 1388.
1143(34) 0.000870 450.6 1266.4
955(31) 0.001027 450.3 1154.3
986(32) 0.000970 450.1 1053.9
868(30) 0.001119 449.8 965.9
857(30) 0.001134 449.5 890.3
758(28) 0.001313 449.3 826.2
714(27) 0.001352 449.0 772.5
677(27) 0.001413 448.8 727.9
664(26) 0.001435 448.5 691.1
641(26) 0.001514 448.2 660.7
618(25) 0.001613 448.0 635.6
603(25) 0.001613 447.7 614.9
617(25) 0.001562 447.5 597.5
586(25) 0.001639 447.2 582.9
562(24) 0.001765 446.9 570.5
550(23) 0.001826 446.7 559.7
541(24) 0.001795 446.4 550.4
556(24) 0.001722 446.2 542.2
515(23) 0.001874 445.9 535.0
535(23) 0.001826 445.7 528.5
522(23) 0.001907 445.4 522.7
487(22) 0.001993 445.2 517.4
502(23) 0.001907 444.9 512.6
528(24) 0.001811 444.7 508.3
485(22) 0.002029 444.4 504.3
498(23) 0.001975 444.2 500.7
520(23) 0.001874 443.9 497.3
512(23) 0.001890 443.6 494.3
520(23) 0.001826 443.4 491.4
479(22) 0.002047 443.1 488.8
504(22) 0.002011 442.9 486.3
488(22) 0.001993 442.7 484.0
475(22) 0.002029 442.4 481.9
474(22) 0.002029 442.2 479.9
502(23) 0.001941 441.9 478.0
487(22) 0.002047 441.7 476.3
477(22) 0.002066 441.4 474.6
519(23) 0.001842 441.2 473.1
492(23) 0.001941 440.9 471.6
429(21) 0.002311 440.7 470.2
432(21) 0.002268 440.4 468.9
444(21) 0.002204 440.2 467.7
439(21) 0.002184 439.9 466.5
456(22) 0.002085 439.7 465.4
472(22) 0.002085 439.5 464.3
449(21) 0.002246 439.2 463.3
483(22) 0.001993 439.0 462.3
487(22) 0.001993 438.7 461.4
468(22) 0.002066 438.5 460.5
465(22) 0.002124 438.3 459.6
421(21) 0.002380 438.0 458.8
418(21) 0.002334 437.8 458.0
435(21) 0.002184 437.5 457.2
423(21) 0.002289 437.3 455.5
437(21) 0.002246 437.1 454.8
500(22) 0.001993 436.8 454.1
463(22) 0.002104 436.6 453.5
447(22) 0.002124 436.4 452.8
460(22) 0.002066 436.1 452.2
490(22) 0.002011 435.9 451.6
433(21) 0.002289 435.7 451.1
452(22) 0.002163 435.4 450.5
439(21) 0.002184 435.2 450.0
445(22) 0.002163 435.0 449.5
473(22) 0.002104 434.7 449.0
475(22) 0.002104 434.5 448.5
477(22) 0.002047 434.3 448.0
481(22) 0.001993 434.0 447.5
502(23) 0.001890 433.8 447.1
431(21) 0.002311 433.6 446.6
469(22) 0.002104 433.4 446.2
463(22) 0.002124 433.1 445.8
444(22) 0.002163 432.9 445.4
454(22) 0.002104 432.7 445.0
432(21) 0.002246 432.5 444.6
462(22) 0.002163 432.2 444.3
473(22) 0.002029 432.0 443.9
451(22) 0.002143 431.8 443.5
448(22) 0.002143 431.6 443.2
453(21) 0.002184 431.3 442.9
452(21) 0.002204 431.1 442.5
464(22) 0.002124 430.9 442.2
490(23) 0.001958 430.7 441.9
447(22) 0.002163 430.5 441.6
472(22) 0.002085 430.2 441.3
458(22) 0.002163 430.0 441.0
465(22) 0.002085 429.8 440.7
501(23) 0.001924 429.6 440.4
486(23) 0.001975 429.4 440.2
433(21) 0.002246 429.2 439.9
460(22) 0.002163 428.9 439.6
475(22) 0.002029 428.7 439.4
478(22) 0.001993 428.5 439.1
464(22) 0.002085 428.3 438.9
468(22) 0.002085 428.1 438.7
455(21) 0.002204 427.9 438.4
459(22) 0.002124 427.7 438.2
479(22) 0.002011 427.4 438.0
445(22) 0.002163 427.2 437.8
485(22) 0.002047 427.0 437.6
468(22) 0.002143 426.8 437.4
419(21) 0.002334 426.6 437.2
441(22) 0.002163 426.4 437.0
447(22) 0.002163 426.2 436.8
471(22) 0.002066 426.0 436.7
492(22) 0.002029 425.8 436.5
453(22) 0.002143 425.6 436.3
473(22) 0.002029 425.4 436.2
451(22) 0.002104 425.2 436.0
459(22) 0.002143 425.0 435.9
462(22) 0.002143 424.8 435.8
444(21) 0.002225 424.6 435.6
467(22) 0.002047 424.4 435.5
494(23) 0.001958 424.2 435.4
461(22) 0.002143 424.0 435.3
470(22) 0.002143 423.8 435.2
475(22) 0.002047 423.6 435.1
488(22) 0.001993 423.4 435.0
478(23) 0.001975 423.2 434.9
474(22) 0.002066 423.0 434.9
477(22) 0.002104 422.8 434.8
479(22) 0.002011 422.6 434.8
506(23) 0.001890 422.4 434.7
474(22) 0.002029 422.2 434.7
468(22) 0.002066 422.0 434.7
470(22) 0.002124 421.8 434.7
475(22) 0.002047 421.6 434.7
458(22) 0.002104 421.4 434.7
486(23) 0.001975 421.2 434.7
459(22) 0.002163 421.0 434.7
501(22) 0.001993 420.9 434.7
455(22) 0.002163 420.7 434.8
448(22) 0.002163 420.5 434.9
457(22) 0.002104 420.3 434.9
448(21) 0.002184 420.1 435.0
463(22) 0.002163 419.9 435.1
477(22) 0.002011 419.7 435.3
449(22) 0.002143 419.5 435.4
474(22) 0.002029 419.4 435.6
446(21) 0.002184 419.2 435.7
462(22) 0.002163 419.0 435.9
439(21) 0.002204 418.8 436.1
443(22) 0.002143 418.6 436.4
475(22) 0.002029 418.5 436.6
457(22) 0.002143 418.3 436.9
437(21) 0.002289 418.1 437.2
489(22) 0.001993 417.9 437.5
484(22) 0.001993 417.7 437.9
429(21) 0.002246 417.6 438.3
439(21) 0.002246 417.4 438.7
456(21) 0.002184 417.2 439.1
422(21) 0.002311 417.0 439.6
462(22) 0.002047 416.9 440.2
461(22) 0.002085 416.7 440.7
455(22) 0.002143 416.5 441.3
441(21) 0.002268 416.4 442.0
447(22) 0.002163 416.2 442.7
477(22) 0.002011 416.0 443.4
467(22) 0.002047 415.8 444.3
422(21) 0.002311 415.7 445.1
458(21) 0.002184 415.5 446.1
441(21) 0.002204 415.3 447.1
452(22) 0.002104 415.2 448.2
428(21) 0.002289 415.0 449.4
468(22) 0.002085 414.9 450.6
475(22) 0.002104 414.7 452.0
472(22) 0.002066 414.5 453.5
453(22) 0.002124 414.4 455.1
498(23) 0.001924 414.2 456.8
492(22) 0.002011 414.0 458.7
454(22) 0.002163 413.9 460.8
460(22) 0.002143 413.7 463.0
471(22) 0.002029 413.6 466.7
454(22) 0.002104 413.4 469.3
499(23) 0.001958 413.2 472.2
498(23) 0.001975 413.1 475.4
507(23) 0.001924 412.9 478.8
505(23) 0.001890 412.8 482.6
481(22) 0.001993 412.6 486.8
487(22) 0.002029 412.5 491.5
490(22) 0.002029 412.3 496.6
519(23) 0.001874 412.2 502.3
519(23) 0.001858 412.0 508.6
488(23) 0.001975 411.9 515.7
473(22) 0.002066 411.7 523.6
516(23) 0.001941 411.6 532.5
565(24) 0.001708 411.4 542.6
582(25) 0.001639 411.3 554.0
580(25) 0.001666 411.1 567.1
596(25) 0.001626 411.0 582.2
640(25) 0.001562 410.8 599.7
588(25) 0.001652 410.7 620.1
710(27) 0.001332 410.6 644.5
712(27) 0.001352 410.4 673.9
765(28) 0.001285 410.3 710.3
824(29) 0.001197 410.1 756.1
900(30) 0.001096 410.0 814.9
1014(33) 0.000941 409.9 891.3
1078(34) 0.000886 409.7 991.2
1175(35) 0.000840 409.6 1121.5
1344(37) 0.000734 409. 1289.
1530(40) 0.000634 409. 1501.
1859(44) 0.000512 409. 1763.
2104(47) 0.000453 409. 2074.
2509(51) 0.000386 409. 2430.
2788(53) 0.000357 409. 2810.
3288(59) 0.0002892 409. 3176.
3594(62) 0.0002618 409. 3465.
3899(64) 0.0002426 408. 3608.
3952(64) 0.0002441 408. 3561.
3659(61) 0.0002670 408. 3340.
3314(59) 0.0002922 408. 3005.
2773(54) 0.0003379 408. 2626.
2404(50) 0.000397 408. 2254.
1960(45) 0.000503 408. 1917.
1630(41) 0.000601 408. 1629.
1459(39) 0.000668 407. 1392.
1181(35) 0.000812 407. 1201.
1003(33) 0.000941 407.1 1052.3
973(31) 0.001014 407.0 937.1
860(30) 0.001141 406.9 849.0
772(28) 0.001257 406.8 781.4
721(27) 0.001332 406.7 729.1
737(28) 0.001285 406.5 687.9
652(26) 0.001502 406.4 654.8
613(25) 0.001626 406.3 627.7
628(26) 0.001538 406.2 605.0
564(24) 0.001694 406.1 585.8
537(24) 0.001795 406.0 569.3
535(24) 0.001811 405.9 555.0
542(23) 0.001842 405.8 542.4
508(23) 0.001907 405.6 531.4
523(23) 0.001826 405.5 521.6
520(23) 0.001858 405.4 512.9
504(23) 0.001941 405.3 505.2
487(22) 0.002029 405.2 498.2
461(22) 0.002124 405.1 491.9
474(22) 0.002011 405.0 486.2
500(23) 0.001890 404.9 481.1
486(22) 0.002047 404.8 476.4
488(22) 0.002011 404.7 472.1
476(22) 0.002029 404.6 468.2
453(22) 0.002143 404.5 464.6
478(23) 0.001975 404.4 461.3
455(22) 0.002163 404.3 458.3
441(21) 0.002246 404.2 455.5
438(21) 0.002225 404.1 452.9
443(22) 0.002163 404.0 450.4
438(22) 0.002163 403.9 448.2
442(21) 0.002225 403.8 446.1
464(22) 0.002143 403.7 444.1
460(22) 0.002104 403.6 442.3
426(21) 0.002268 403.5 440.6
448(22) 0.002104 403.4 439.0
436(21) 0.002246 403.3 437.5
426(21) 0.002334 403.3 436.1
469(22) 0.002047 403.2 434.7
475(22) 0.001993 403.1 433.5
427(21) 0.002246 403.0 432.3
398(20) 0.002427 402.9 431.2
401(20) 0.002500 402.8 430.1
402(20) 0.002403 402.7 429.1
416(21) 0.002268 402.7 428.1
450(22) 0.002143 402.6 427.2
412(21) 0.002380 402.5 426.3
419(21) 0.002380 402.4 425.5
431(21) 0.002268 402.3 424.7
424(21) 0.002268 402.3 424.0
398(21) 0.002380 402.2 423.3
442(21) 0.002246 402.1 422.6
434(21) 0.002268 402.0 421.9
434(21) 0.002246 401.9 421.3
413(21) 0.002334 401.9 420.7
415(21) 0.002268 401.8 420.1
403(20) 0.002451 401.7 419.6
391(20) 0.002525 401.7 419.0
401(20) 0.002427 401.6 418.5
428(21) 0.002225 401.5 418.0
441(22) 0.002163 401.4 417.6
444(21) 0.002204 401.4 417.1
397(20) 0.002525 401.3 416.7
415(21) 0.002356 401.2 416.3
434(21) 0.002204 401.2 415.9
475(22) 0.002029 401.1 415.5
410(20) 0.002403 401.1 415.1
414(20) 0.002403 401.0 414.7
419(21) 0.002311 400.9 414.4
415(21) 0.002289 400.9 414.0
409(21) 0.002356 400.8 413.7
421(21) 0.002311 400.8 413.4
434(21) 0.002311 400.7 413.1
437(21) 0.002225 400.6 412.8
411(21) 0.002311 400.6 412.5
449(22) 0.002124 400.5 412.2
446(21) 0.002204 400.5 412.0
417(21) 0.002356 400.4 411.7
426(21) 0.002311 400.4 411.5
436(21) 0.002184 400.3 411.2
421(21) 0.002289 400.3 411.0
427(21) 0.002311 400.2 410.7
441(21) 0.002246 400.2 410.5
414(21) 0.002356 400.1 410.3
423(21) 0.002268 400.1 410.1
457(22) 0.002066 400.0 409.9
453(22) 0.002163 400.0 409.7
390(20) 0.002551 399.9 409.5
414(21) 0.002334 399.9 409.3
421(21) 0.002246 399.9 409.1
439(21) 0.002184 399.8 408.9
429(21) 0.002268 399.8 408.8
424(21) 0.002334 399.7 408.6
413(21) 0.002356 399.7 408.4
468(22) 0.002047 399.7 408.3
444(22) 0.002163 399.6 408.1
451(21) 0.002204 399.6 408.0
455(21) 0.002204 399.6 407.8
448(22) 0.002143 399.5 407.7
459(22) 0.002124 399.5 407.6
476(22) 0.001993 399.5 407.4
463(22) 0.002104 399.4 407.3
476(22) 0.002124 399.4 407.2
493(23) 0.001941 399.4 407.1
503(23) 0.001907 399.3 406.9
457(22) 0.002104 399.3 406.8
467(22) 0.002066 399.3 406.7
464(22) 0.002143 399.3 406.6
430(21) 0.002268 399.2 406.5
446(22) 0.002124 399.2 406.4
442(22) 0.002163 399.2 406.3
467(22) 0.002124 399.2 406.2
481(22) 0.002047 399.1 406.1
473(22) 0.002085 399.1 406.0
478(22) 0.002011 399.1 405.9
482(23) 0.001975 399.1 405.9
489(22) 0.002047 399.1 405.8
467(22) 0.002124 399.1 405.7
513(23) 0.001890 399.0 405.6
497(23) 0.001924 399.0 405.5
484(23) 0.001975 399.0 405.5
520(23) 0.001874 399.0 405.4
520(23) 0.001924 399.0 405.3
481(22) 0.001993 399.0 405.3
499(23) 0.001924 399.0 405.2
465(22) 0.002066 399.0 405.2
453(22) 0.002163 399.0 405.1
465(22) 0.002143 399.0 405.0
464(22) 0.002104 398.9 405.0
501(23) 0.001907 398.9 404.9
459(22) 0.002104 398.9 404.9
425(21) 0.002334 398.9 404.8
431(21) 0.002289 398.9 404.8
429(21) 0.002311 398.9 404.7
397(20) 0.002427 398.9 404.7
418(21) 0.002246 398.9 404.7
430(21) 0.002311 398.9 404.6
404(20) 0.002451 398.9 404.6
415(21) 0.002334 398.9 404.6
486(23) 0.001975 399.0 404.5
451(22) 0.002104 399.0 404.5
462(22) 0.002124 399.0 404.5
430(21) 0.002311 399.0 404.4
442(21) 0.002204 399.0 405.1
414(21) 0.002289 399.0 405.0
475(22) 0.002047 399.0 405.0
464(22) 0.002143 399.0 405.0
422(21) 0.002334 399.0 405.0
443(21) 0.002225 399.0 405.0
475(22) 0.002029 399.1 405.0
462(22) 0.002066 399.1 404.9
485(22) 0.002047 399.1 404.9
460(22) 0.002143 399.1 404.9
477(22) 0.002029 399.1 404.9
507(23) 0.001907 399.1 404.9
503(23) 0.001874 399.2 404.9
490(22) 0.002011 399.2 404.9
515(23) 0.001924 399.2 404.9
505(23) 0.001907 399.2 404.9
508(23) 0.001890 399.3 404.9
529(24) 0.001811 399.3 404.9
505(23) 0.001941 399.3 404.9
522(23) 0.001924 399.3 405.0
551(24) 0.001765 399.4 405.0
497(23) 0.001924 399.4 405.0
489(23) 0.001975 399.4 405.0
471(22) 0.002104 399.5 405.0
507(23) 0.001941 399.5 405.0
482(22) 0.002047 399.5 405.0
496(23) 0.001924 399.6 405.1
448(22) 0.002124 399.6 405.1
469(22) 0.002124 399.6 405.1
497(23) 0.001975 399.7 405.1
442(21) 0.002184 399.7 405.1
460(22) 0.002104 399.7 405.2
433(21) 0.002204 399.8 405.2
451(22) 0.002163 399.8 405.2
469(22) 0.002143 399.9 405.3
434(21) 0.002246 399.9 405.3
421(21) 0.002268 400.0 405.3
396(20) 0.002427 400.0 405.4
399(20) 0.002475 400.0 405.4
456(21) 0.002184 400.1 405.4
393(20) 0.002500 400.1 405.5
390(20) 0.002475 400.2 405.5
402(21) 0.002356 400.2 405.5
431(21) 0.002289 400.3 405.6
426(21) 0.002334 400.3 405.6
435(21) 0.002225 400.4 405.7
423(21) 0.002268 400.4 405.7
427(21) 0.002225 400.5 405.8
444(21) 0.002184 400.6 405.8
424(21) 0.002356 400.6 405.9
405(20) 0.002403 400.7 405.9
426(21) 0.002268 400.7 406.0
469(22) 0.002047 400.8 406.0
434(21) 0.002268 400.8 406.1
389(20) 0.002551 400.9 406.1
402(20) 0.002451 401.0 406.2
454(22) 0.002104 401.0 406.2
434(21) 0.002246 401.1 406.3
428(21) 0.002268 401.2 406.4
430(21) 0.002311 401.2 406.4
437(21) 0.002246 401.3 406.5
435(22) 0.002163 401.4 406.6
396(20) 0.002403 401.4 406.6
430(21) 0.002289 401.5 406.7
413(21) 0.002380 401.6 406.8
426(21) 0.002289 401.6 406.8
410(21) 0.002334 401.7 406.9
409(21) 0.002380 401.8 407.0
382(20) 0.002551 401.9 407.0
400(20) 0.002525 401.9 407.1
406(21) 0.002380 402.0 407.2
416(21) 0.002289 402.1 407.3
439(21) 0.002225 402.2 407.4
391(20) 0.002475 402.2 407.4
438(21) 0.002289 402.3 407.5
394(20) 0.002500 402.4 407.6
426(21) 0.002204 402.5 407.7
418(21) 0.002311 402.6 407.8
413(21) 0.002356 402.7 407.8
430(21) 0.002311 402.7 407.9
384(20) 0.002551 402.8 408.0
392(20) 0.002403 402.9 408.1
382(20) 0.002525 403.0 408.2
393(20) 0.002525 403.1 408.3
417(21) 0.002356 403.2 408.4
437(21) 0.002246 403.3 408.5
415(21) 0.002311 403.4 408.6
380(20) 0.002500 403.4 408.7
383(20) 0.002603 403.5 408.8
369(19) 0.002713 403.6 408.9
394(20) 0.002451 403.7 409.0
417(21) 0.002334 403.8 409.1
419(21) 0.002289 403.9 409.2
402(20) 0.002427 404.0 409.3
402(20) 0.002475 404.1 409.4
409(21) 0.002380 404.2 409.5
385(20) 0.002451 404.3 409.6
397(20) 0.002427 404.4 409.7
411(21) 0.002356 404.5 409.8
410(20) 0.002427 404.6 409.9
398(20) 0.002475 404.7 410.0
398(20) 0.002427 404.8 410.1
401(21) 0.002380 404.9 410.2
421(21) 0.002356 405.1 410.4
427(21) 0.002311 405.2 410.5
385(20) 0.002577 405.3 410.6
403(21) 0.002334 405.4 410.7
383(20) 0.002525 405.5 410.8
424(21) 0.002311 405.6 410.9
469(22) 0.002124 405.7 411.1
425(21) 0.002289 405.8 411.2
424(21) 0.002246 405.9 411.3
431(21) 0.002204 406.1 411.4
434(21) 0.002268 406.2 411.6
419(21) 0.002356 406.3 411.7
409(21) 0.002380 406.4 411.8
431(21) 0.002204 406.5 411.9
445(21) 0.002184 406.7 412.1
414(21) 0.002380 406.8 412.2
405(20) 0.002500 406.9 412.3
393(20) 0.002475 407.0 412.5
396(20) 0.002403 407.1 412.6
453(22) 0.002124 407.3 412.7
398(20) 0.002451 407.4 412.9
426(21) 0.002334 407.5 413.0
419(21) 0.002334 407.6 413.1
398(20) 0.002427 407.8 413.3
416(21) 0.002268 407.9 413.4
418(21) 0.002334 408.0 413.6
406(20) 0.002451 408.2 413.7
435(21) 0.002204 408.3 413.9
393(20) 0.002427 408.4 414.0
424(21) 0.002268 408.6 414.1
423(21) 0.002334 408.7 414.3
381(19) 0.002657 408.8 414.4
397(20) 0.002475 409.0 414.6
378(20) 0.002525 409.1 414.7
400(20) 0.002403 409.2 414.9
385(20) 0.002551 409.4 415.1
397(20) 0.002525 409.5 415.2
423(21) 0.002289 409.7 415.4
402(20) 0.002403 409.8 415.5
385(20) 0.002475 410.0 415.7
340(19) 0.002891 410.1 415.8
425(21) 0.002334 410.2 416.0
448(22) 0.002163 410.4 416.2
427(21) 0.002246 410.5 416.3
416(21) 0.002289 410.7 416.5
422(21) 0.002311 410.8 416.6
367(19) 0.002713 411.0 416.8
413(21) 0.002334 411.1 417.0
389(20) 0.002500 411.3 417.1
383(20) 0.002500 411.4 417.3
382(20) 0.002577 411.6 417.5
389(20) 0.002577 411.7 417.6
388(20) 0.002500 411.9 417.8
400(21) 0.002380 412.0 418.0
434(21) 0.002225 412.2 418.2
392(20) 0.002475 412.4 418.3
387(20) 0.002603 412.5 418.5
368(19) 0.002657 412.7 418.7
420(21) 0.002268 412.8 418.9
386(20) 0.002475 413.0 419.1
419(21) 0.002356 413.2 419.2
389(20) 0.002551 413.3 419.4
402(20) 0.002427 413.5 419.6
383(20) 0.002500 413.7 419.8
389(20) 0.002475 413.8 420.0
394(20) 0.002500 414.0 420.2
404(20) 0.002475 414.1 420.3
406(20) 0.002403 414.3 420.5
411(21) 0.002311 414.5 420.7
402(21) 0.002356 414.7 420.9
366(19) 0.002685 414.8 421.1
394(20) 0.002525 415.0 421.3
383(20) 0.002525 415.2 421.5
409(20) 0.002403 415.3 421.7
407(21) 0.002334 415.5 421.9
404(20) 0.002403 415.7 422.1
418(20) 0.002427 415.9 422.3
373(20) 0.002551 416.0 422.5
378(20) 0.002551 416.2 422.7
412(21) 0.002356 416.4 422.9
376(20) 0.002577 416.6 423.1
387(20) 0.002603 416.8 423.3
382(20) 0.002551 416.9 423.5
445(22) 0.002163 417.1 423.7
399(20) 0.002403 417.3 423.9
396(20) 0.002475 417.5 424.1
462(22) 0.002163 417.7 424.3
446(22) 0.002163 417.8 424.5
422(21) 0.002268 418.0 424.7
432(21) 0.002204 418.2 424.9
447(21) 0.002184 418.4 425.2
384(20) 0.002603 418.6 425.4
430(21) 0.002246 418.8 425.6
401(21) 0.002380 419.0 425.8
406(21) 0.002380 419.2 426.0
462(22) 0.002104 419.4 426.2
450(21) 0.002204 419.5 426.5
425(21) 0.002289 419.7 426.7
393(20) 0.002451 419.9 426.9
419(21) 0.002311 420.1 427.1
439(21) 0.002225 420.3 427.4
437(21) 0.002268 420.5 427.6
461(22) 0.002124 420.7 427.8
422(21) 0.002246 420.9 428.0
432(21) 0.002225 421.1 428.3
427(21) 0.002289 421.3 428.5
411(20) 0.002403 421.5 428.7
427(21) 0.002311 421.7 429.0
392(20) 0.002451 421.9 429.2
414(21) 0.002289 422.1 429.4
410(20) 0.002403 422.3 429.7
425(21) 0.002356 422.5 429.9
405(21) 0.002380 422.7 430.2
426(21) 0.002246 422.9 430.4
397(20) 0.002403 423.1 430.6
403(20) 0.002451 423.3 430.9
401(20) 0.002500 423.6 431.1
404(20) 0.002403 423.8 431.4
419(21) 0.002289 424.0 431.6
383(20) 0.002500 424.2 431.9
406(20) 0.002403 424.4 432.1
412(20) 0.002403 424.6 432.4
375(20) 0.002603 424.8 432.6
385(20) 0.002475 425.0 432.9
415(21) 0.002311 425.2 433.1
437(21) 0.002225 425.5 433.4
396(20) 0.002500 425.7 433.6
350(19) 0.002799 425.9 433.9
390(20) 0.002427 426.1 434.2
398(20) 0.002403 426.3 434.4
423(21) 0.002311 426.5 434.7
390(20) 0.002551 426.8 434.9
405(20) 0.002427 427.0 435.2
398(20) 0.002427 427.2 435.5
391(20) 0.002427 427.4 435.7
401(20) 0.002451 427.6 436.0
411(20) 0.002427 427.9 436.3
406(20) 0.002403 428.1 436.6
385(20) 0.002451 428.3 436.8
424(21) 0.002268 428.5 437.1
427(21) 0.002311 428.8 437.4
380(20) 0.002577 429.0 437.7
387(20) 0.002525 429.2 437.9
414(21) 0.002311 429.5 438.2
402(21) 0.002356 429.7 438.5
391(20) 0.002525 429.9 438.8
414(20) 0.002403 430.1 439.1
424(21) 0.002289 430.4 439.4
369(20) 0.002630 430.6 439.7
410(21) 0.002356 430.8 439.9
430(21) 0.002289 431.1 440.2
413(20) 0.002427 431.3 440.5
413(21) 0.002356 431.5 440.8
415(21) 0.002311 431.8 441.1
433(21) 0.002225 432.0 441.4
423(21) 0.002289 432.3 441.7
458(21) 0.002184 432.5 442.1
426(21) 0.002311 432.7 442.4
457(22) 0.002066 433.0 442.7
425(21) 0.002268 433.2 443.0
444(21) 0.002184 433.5 443.3
420(21) 0.002380 433.7 443.6
426(21) 0.002268 433.9 443.9
420(21) 0.002268 434.2 444.3
435(21) 0.002204 434.4 444.6
413(21) 0.002380 434.7 444.9
428(21) 0.002380 434.9 445.3
404(20) 0.002427 435.2 445.6
425(21) 0.002225 435.4 446.0
414(21) 0.002356 435.6 446.3
428(21) 0.002268 435.9 446.6
442(21) 0.002246 436.1 447.0
422(21) 0.002311 436.4 447.4
398(20) 0.002403 436.6 447.7
417(21) 0.002311 436.9 448.1
375(20) 0.002630 437.1 448.5
363(19) 0.002713 437.4 448.8
414(21) 0.002356 437.6 449.2
397(20) 0.002403 437.9 449.6
398(20) 0.002403 438.2 450.0
387(20) 0.002551 438.4 450.4
401(20) 0.002500 438.7 450.9
410(20) 0.002403 438.9 451.3
414(21) 0.002356 439.2 451.7
432(21) 0.002184 439.4 452.2
416(21) 0.002380 439.7 452.6
388(20) 0.002577 439.9 453.1
385(20) 0.002500 440.2 453.6
405(21) 0.002356 440.5 454.1
432(21) 0.002225 440.7 454.6
400(20) 0.002451 441.0 455.2
396(20) 0.002525 441.2 455.7
428(21) 0.002268 441.5 456.3
420(21) 0.002268 441.8 456.9
417(21) 0.002268 442.0 457.6
418(21) 0.002380 442.3 458.3
385(20) 0.002577 442.6 459.0
411(21) 0.002380 442.8 459.8
399(20) 0.002427 443.1 460.7
411(21) 0.002356 443.4 461.6
421(21) 0.002334 443.6 462.6
396(20) 0.002525 443.9 463.7
418(21) 0.002334 444.2 464.8
432(21) 0.002204 444.4 466.2
469(22) 0.002066 444.7 467.7
408(20) 0.002403 445.0 469.4
415(20) 0.002403 445.2 471.3
448(21) 0.002225 445.5 473.6
455(22) 0.002066 445.8 476.4
489(23) 0.001958 446.0 479.8
451(21) 0.002204 446.3 484.2
445(21) 0.002184 446.6 490.2
495(22) 0.001993 446.9 498.4
511(23) 0.001874 447.1 509.8
513(23) 0.001842 447.4 525.5
550(23) 0.001826 447.7 546.9
612(25) 0.001639 448.0 574.7
632(26) 0.001526 448.2 609.2
710(27) 0.001362 448.5 649.3
712(27) 0.001352 448.8 691.8
794(29) 0.001223 449.1 730.3
838(29) 0.001189 449.4 754.7
873(30) 0.001111 449.6 756.5
860(30) 0.001111 449.9 735.1
773(28) 0.001249 450.2 698.5
681(27) 0.001424 450.5 656.7
640(25) 0.001550 450.8 616.7
595(25) 0.001639 451.0 582.2
557(24) 0.001708 451.3 554.3
507(23) 0.001874 451.6 533.0
499(23) 0.001975 451.9 517.4
476(22) 0.002104 452.2 506.3
478(22) 0.002047 452.5 498.5
477(22) 0.002047 452.7 493.0
453(22) 0.002124 453.0 489.2
466(22) 0.002104 453.3 486.4
426(21) 0.002380 453.6 484.3
424(21) 0.002268 453.9 482.7
444(22) 0.002163 454.2 481.4
415(21) 0.002334 454.5 480.4
442(21) 0.002204 454.8 479.6
448(21) 0.002246 455.0 479.0
436(21) 0.002225 455.3 478.5
387(20) 0.002451 455.6 478.2
422(21) 0.002268 455.9 477.9
391(20) 0.002475 456.2 477.7
426(21) 0.002334 456.5 477.6
409(20) 0.002403 456.8 477.5
424(21) 0.002268 457.1 477.5
441(21) 0.002184 457.4 477.6
452(21) 0.002204 457.7 477.6
424(21) 0.002334 458.0 477.7
409(20) 0.002403 458.3 477.9
420(21) 0.002289 458.6 478.1
419(21) 0.002268 458.9 478.2
418(21) 0.002356 459.2 478.5
433(21) 0.002311 459.4 478.7
413(21) 0.002356 459.7 478.9
428(21) 0.002225 460.0 479.2
434(21) 0.002204 460.3 479.5
435(21) 0.002268 460.6 479.8
408(20) 0.002403 460.9 480.1
403(20) 0.002427 461.2 480.4
434(21) 0.002204 461.5 480.7
454(22) 0.002085 461.8 481.0
475(22) 0.002085 462.1 481.4
421(21) 0.002356 462.4 481.7
384(20) 0.002551 462.7 482.1
444(21) 0.002184 463.0 482.5
450(22) 0.002124 463.3 482.9
435(21) 0.002268 463.7 483.2
422(21) 0.002356 464.0 483.6
425(21) 0.002268 464.3 484.0
450(22) 0.002163 464.6 484.4
486(23) 0.001941 464.9 484.8
483(22) 0.002029 465.2 485.2
446(21) 0.002246 465.5 485.7
451(22) 0.002124 465.8 486.1
441(22) 0.002163 466.1 486.5
484(22) 0.001993 466.4 486.9
450(22) 0.002163 466.7 487.4
444(21) 0.002268 467.0 487.8
448(21) 0.002184 467.3 488.3
461(22) 0.002085 467.6 488.7
498(23) 0.001941 467.9 489.2
422(21) 0.002311 468.2 489.6
496(22) 0.002047 468.6 490.1
487(22) 0.001993 468.9 490.6
475(22) 0.002011 469.2 491.0
443(21) 0.002184 469.5 491.5
468(22) 0.002066 469.8 492.0
475(22) 0.002104 470.1 492.5
419(21) 0.002334 470.4 493.0
482(23) 0.001958 470.7 493.5
488(23) 0.001958 471.0 494.0
460(22) 0.002124 471.4 494.5
470(22) 0.002104 471.7 495.0
466(22) 0.002085 472.0 495.5
493(23) 0.001958 472.3 496.0
476(22) 0.002011 472.6 496.5
478(22) 0.002066 472.9 497.0
489(22) 0.002047 473.2 497.6
464(22) 0.002085 473.6 498.1
505(23) 0.001924 473.9 498.6
515(23) 0.001842 474.2 499.2
513(23) 0.001890 474.5 499.7
533(23) 0.001907 474.8 500.3
477(22) 0.002011 475.1 500.8
469(22) 0.002029 475.4 501.2
457(22) 0.002104 475.8 501.7
498(23) 0.001941 476.1 502.3
483(22) 0.002047 476.4 502.9
499(23) 0.001975 476.7 503.5
477(23) 0.001975 477.0 504.1
484(22) 0.001993 477.4 504.6
447(21) 0.002246 477.7 505.2
439(21) 0.002246 478.0 505.8
461(22) 0.002124 478.3 506.4
419(21) 0.002334 478.6 507.1
461(22) 0.002047 479.0 507.7
463(22) 0.002124 479.3 508.3
485(22) 0.002047 479.6 508.9
434(21) 0.002225 479.9 509.6
466(22) 0.002085 480.2 510.2
468(22) 0.002029 480.6 510.9
494(23) 0.001975 480.9 511.5
458(22) 0.002163 481.2 512.2
474(22) 0.002029 481.5 512.9
479(22) 0.002011 481.8 513.5
451(22) 0.002104 482.2 514.2
469(22) 0.002066 482.5 514.9
428(21) 0.002380 482.8 515.6
457(22) 0.002124 483.1 516.3
464(22) 0.002066 483.5 517.0
476(22) 0.002047 483.8 517.7
494(22) 0.001993 484.1 518.5
450(21) 0.002204 484.4 519.2
482(22) 0.002029 484.8 520.0
488(23) 0.001941 485.1 520.7
472(22) 0.002029 485.4 521.5
477(22) 0.002047 485.7 522.3
531(23) 0.001858 486.1 523.0
467(22) 0.002066 486.4 523.8
503(23) 0.001907 486.7 524.6
459(22) 0.002066 487.0 525.4
499(23) 0.001941 487.4 526.3
499(22) 0.001993 487.7 527.1
490(22) 0.001993 488.0 527.9
544(24) 0.001780 488.4 528.8
494(23) 0.001941 488.7 529.7
483(22) 0.002029 489.0 530.6
483(22) 0.002085 489.3 531.4
417(21) 0.002334 489.7 532.3
456(22) 0.002085 490.0 533.3
451(22) 0.002143 490.3 534.2
437(21) 0.002225 490.6 535.1
466(22) 0.002143 491.0 536.1
485(22) 0.002011 491.3 537.1
420(21) 0.002246 491.6 538.1
458(22) 0.002085 492.0 539.1
465(22) 0.002085 492.3 540.1
477(22) 0.002085 492.6 541.1
437(21) 0.002204 493.0 542.2
489(23) 0.001941 493.3 543.3
465(22) 0.002085 493.6 544.4
446(21) 0.002204 493.9 545.5
509(23) 0.001958 494.3 546.6
472(22) 0.002104 494.6 547.8
459(22) 0.002066 494.9 549.0
438(21) 0.002204 495.3 550.2
434(21) 0.002268 495.6 551.4
477(22) 0.002047 495.9 552.6
492(22) 0.002011 496.3 553.9
461(22) 0.002066 496.6 555.2
436(21) 0.002184 496.9 556.5
480(22) 0.002047 497.3 557.9
486(22) 0.002029 497.6 559.3
506(23) 0.001924 497.9 560.7
503(23) 0.001890 498.2 562.2
488(23) 0.001941 498.6 563.6
482(22) 0.002029 498.9 565.2
511(23) 0.001958 499.2 566.7
462(22) 0.002124 499.6 568.3
473(22) 0.002047 499.9 569.9
516(23) 0.001874 500.2 571.6
508(23) 0.001941 500.6 573.3
477(22) 0.002085 500.9 575.1
532(23) 0.001826 501.2 576.9
541(24) 0.001765 501.6 578.8
533(24) 0.001795 501.9 580.7
504(23) 0.001975 502.2 582.6
472(22) 0.002085 502.6 584.7
549(24) 0.001765 502.9 586.8
512(23) 0.001890 503.2 588.9
535(24) 0.001736 503.6 591.1
514(23) 0.001924 503.9 593.4
505(23) 0.001958 504.2 595.8
509(23) 0.001890 504.6 598.2
560(24) 0.001751 504.9 600.8
533(24) 0.001811 505.2 603.4
537(24) 0.001811 505.6 606.1
535(23) 0.001907 505.9 608.9
523(23) 0.001858 506.2 611.8
523(23) 0.001826 506.6 614.8
573(24) 0.001680 506.9 618.0
557(24) 0.001751 507.2 621.3
564(24) 0.001780 507.6 624.7
588(25) 0.001666 507.9 628.2
581(25) 0.001626 508.2 631.9
572(24) 0.001680 508.6 635.8
533(23) 0.001842 508.9 639.9
599(25) 0.001639 509.2 644.1
622(25) 0.001562 509.6 648.6
620(25) 0.001550 509.9 653.2
562(24) 0.001694 510.2 658.1
629(25) 0.001587 510.6 663.3
602(25) 0.001639 510.9 668.8
615(25) 0.001587 511.2 674.5
639(26) 0.001526 511.6 680.6
590(25) 0.001626 511.9 687.0
636(26) 0.001526 512.2 693.8
601(25) 0.001666 512.6 701.1
635(26) 0.001526 512.9 708.8
607(25) 0.001587 513.2 717.0
633(26) 0.001514 513.6 725.8
669(26) 0.001457 513.9 735.2
633(25) 0.001587 514.2 745.3
653(26) 0.001491 514.6 756.2
642(26) 0.001479 514.9 767.9
646(26) 0.001479 515.2 780.6
650(26) 0.001502 515.6 794.3
673(26) 0.001502 515.9 809.2
663(26) 0.001468 516.2 825.5
732(28) 0.001322 516.6 843.2
715(27) 0.001332 516.9 862.8
754(28) 0.001322 517.2 884.3
771(28) 0.001303 517.6 908.0
813(29) 0.001181 517.9 934.4
819(29) 0.001181 518.2 963.8
859(30) 0.001119 518.6 996.8
884(30) 0.001096 518.9 1034.0
917(30) 0.001089 519.2 1076.3
939(31) 0.001034 519.6 1124.9
1023(33) 0.000935 519.9 1181.3
1080(34) 0.000881 520.2 1247.8
1214(35) 0.000807 521. 1327.
1285(36) 0.000767 521. 1425.
1383(38) 0.000704 521. 1545.
1565(40) 0.000619 522. 1696.
1743(43) 0.000543 522. 1888.
2046(46) 0.000479 522. 2133.
2354(48) 0.000429 523. 2443.
2717(53) 0.000356 523. 2831.
3241(58) 0.0002942 523. 3311.
3784(63) 0.0002496 524. 3891.
4319(67) 0.0002234 524. 4575.
4977(71) 0.0001984 524. 5355.
5990(80) 0.0001578 525. 6201.
6850(86) 0.0001365 525. 7059.
7561(90) 0.0001226 525. 7832.
8111(93) 0.0001169 526. 8392.
8437(93) 0.0001151 526. 8616.
8236(94) 0.0001132 526. 8448.
7745(91) 0.0001205 527. 7932.
7092(87) 0.0001327 527. 7187.
5986(79) 0.0001606 527. 6342.
5182(73) 0.0001882 527. 5499.
4391(67) 0.0002208 528. 4719.
3812(63) 0.0002520 528. 4032.
3102(57) 0.0003046 528. 3449.
2720(53) 0.000359 529. 2966.
2389(49) 0.000415 529. 2577.
2130(47) 0.000447 529. 2268.
1839(44) 0.000528 530. 2026.
1714(43) 0.000554 530. 1839.
1592(41) 0.000604 530. 1694.
1421(38) 0.000707 531. 1581.
1337(37) 0.000723 531. 1492.
1246(36) 0.000759 531. 1422.
1208(35) 0.000798 532. 1366.
1117(34) 0.000870 532.1 1320.7
1096(33) 0.000918 532.4 1284.0
1055(33) 0.000930 532.7 1254.2
1104(34) 0.000860 533.1 1230.1
1109(34) 0.000875 533.4 1211.0
987(32) 0.001008 533.7 1196.1
993(32) 0.000995 534.0 1185.0
998(32) 0.000983 534.4 1177.3
1035(33) 0.000918 534.7 1172.7
1000(33) 0.000947 535.0 1170.9
1107(33) 0.000896 535.3 1171.9
1114(34) 0.000891 535.7 1175.5
1095(34) 0.000875 536.0 1181.6
1103(34) 0.000881 536.3 1190.2
1129(35) 0.000840 536.6 1201.2
1146(35) 0.000840 537.0 1214.7
1204(35) 0.000835 537.3 1230.7
1205(35) 0.000812 538. 1249.
1241(36) 0.000776 538. 1271.
1386(38) 0.000689 538. 1295.
1331(37) 0.000738 539. 1322.
1314(36) 0.000759 539. 1352.
1373(37) 0.000715 539. 1386.
1462(39) 0.000657 540. 1424.
1484(40) 0.000638 540. 1466.
1459(39) 0.000675 540. 1513.
1485(39) 0.000668 540. 1565.
1649(41) 0.000586 541. 1624.
1622(41) 0.000586 541. 1690.
1682(42) 0.000567 541. 1763.
1762(43) 0.000554 542. 1847.
1915(44) 0.000517 542. 1942.
1982(45) 0.000487 542. 2052.
2108(47) 0.000451 543. 2178.
2252(49) 0.000423 543. 2323.
2369(49) 0.000411 543. 2493.
2658(52) 0.000374 544. 2692.
2897(55) 0.0003318 544. 2924.
3130(57) 0.0003078 544. 3197.
3425(60) 0.0002750 545. 3515.
3744(62) 0.0002585 545. 3887.
4119(65) 0.0002396 545. 4320.
4671(70) 0.0002041 546. 4819.
5082(73) 0.0001861 546. 5391.
5731(79) 0.0001623 546. 6041.
6494(82) 0.0001476 547. 6773.
7277(87) 0.0001330 547. 7585.
8232(94) 0.0001139 547. 8474.
9052(99) 0.0001031 547. 9429.
10130(110) 0.0000902 548. 10429.
11020(110) 0.0000849 548. 11445.
11940(110) 0.0000807 548. 12428.
12890(120) 0.0000717 549. 13316.
13360(120) 0.0000681 549. 14039.
13970(120) 0.0000652 549. 14525.
13930(120) 0.0000669 550. 14719.
14170(120) 0.0000670 550. 14596.
13730(120) 0.0000673 550. 14173.
13250(120) 0.0000688 551. 13497.
12490(120) 0.0000731 551. 12639.
11350(110) 0.0000823 551. 11671.
10420(100) 0.0000917 552. 10657.
9500(100) 0.0000992 552. 9648.
8565(97) 0.0001072 552. 8679.
7755(91) 0.0001202 552. 7772.
6865(85) 0.0001387 553. 6939.
6143(80) 0.0001562 553. 6187.
5350(75) 0.0001802 553. 5517.
4818(71) 0.0001973 554. 4926.
4444(69) 0.0002082 554. 4408.
3937(63) 0.0002512 554. 3959.
3522(60) 0.0002806 555. 3572.
3142(58) 0.0003025 555. 3240.
3018(56) 0.0003200 555. 2955.
2700(54) 0.0003494 555. 2712.
2493(51) 0.000386 556. 2504.
2190(47) 0.000460 556. 2325.
2161(47) 0.000447 556. 2172.
2022(46) 0.000466 557. 2039.
1876(44) 0.000507 557. 1923.
1797(43) 0.000541 557. 1822.
1668(41) 0.000586 558. 1732.
1564(40) 0.000622 558. 1653.
1594(41) 0.000598 558. 1582.
1493(40) 0.000638 559. 1518.
1478(39) 0.000664 559. 1460.
1337(37) 0.000742 559. 1408.
1325(37) 0.000730 559. 1360.
1232(36) 0.000780 560. 1316.
1214(36) 0.000785 560. 1276.
1156(34) 0.000850 560.3 1238.8
1121(34) 0.000886 560.6 1204.6
1045(33) 0.000941 560.9 1172.9
1047(33) 0.000913 561.2 1143.5
993(33) 0.000947 561.5 1116.3
984(32) 0.001008 561.8 1090.9
995(32) 0.000989 562.1 1067.2
959(32) 0.000995 562.4 1045.2
952(31) 0.001014 562.6 1024.6
959(32) 0.000983 562.9 1005.3
939(31) 0.001047 563.2 987.2
914(30) 0.001096 563.5 970.3
871(30) 0.001111 563.8 954.4
821(29) 0.001173 564.1 939.4
838(30) 0.001134 564.4 925.3
817(29) 0.001206 564.7 912.1
820(29) 0.001223 565.0 899.5
813(29) 0.001189 565.3 887.7
796(29) 0.001214 565.6 876.5
835(30) 0.001149 565.8 865.9
783(28) 0.001240 566.1 855.9
795(28) 0.001257 566.4 846.4
832(29) 0.001157 566.7 837.4
865(30) 0.001096 567.0 828.9
787(29) 0.001214 567.3 821.0
776(28) 0.001266 567.6 813.3
783(28) 0.001249 567.8 805.9
701(27) 0.001413 568.1 799.0
730(28) 0.001313 568.4 792.3
749(28) 0.001276 568.7 785.9
734(27) 0.001342 569.0 779.9
774(28) 0.001294 569.3 774.1
776(28) 0.001240 569.5 768.6
727(27) 0.001332 569.8 763.3
718(28) 0.001322 570.1 758.3
761(28) 0.001294 570.4 753.4
773(28) 0.001276 570.7 748.8
704(27) 0.001382 570.9 744.4
766(28) 0.001249 571.2 740.1
768(28) 0.001240 571.5 736.1
769(28) 0.001266 571.8 732.2
793(28) 0.001249 572.0 728.4
714(27) 0.001352 572.3 724.9
761(28) 0.001257 572.6 721.4
781(29) 0.001223 572.9 718.1
787(28) 0.001249 573.1 714.9
794(28) 0.001257 573.4 711.9
859(30) 0.001126 573.7 708.9
845(30) 0.001141 574.0 706.1
857(30) 0.001111 574.2 703.4
892(30) 0.001082 574.5 700.7
895(30) 0.001126 574.8 698.2
953(31) 0.001014 575.0 695.8
953(32) 0.000995 575.3 693.4
1000(32) 0.000959 575.6 691.2
967(32) 0.001001 575.8 689.0
987(32) 0.001001 576.1 686.9
1002(32) 0.000964 576.4 684.9
985(32) 0.000964 576.6 682.9
966(32) 0.000983 576.9 681.0
945(31) 0.001034 577.2 679.2
951(31) 0.001054 577.4 677.4
897(30) 0.001082 577.7 675.7
860(30) 0.001119 578.0 674.1
769(28) 0.001240 578.2 672.5
844(29) 0.001157 578.5 671.0
824(29) 0.001206 578.8 669.5
830(29) 0.001173 579.0 668.1
820(29) 0.001173 579.3 666.7
814(29) 0.001181 579.5 665.3
781(28) 0.001240 579.8 664.0
808(28) 0.001249 580.1 662.8
807(29) 0.001189 580.3 661.6
781(29) 0.001223 580.6 660.4
825(30) 0.001149 580.8 659.3
823(29) 0.001181 581.1 658.2
790(28) 0.001249 581.3 657.1
836(29) 0.001173 581.6 656.1
829(30) 0.001149 581.8 655.1
787(29) 0.001214 582.1 654.1
794(29) 0.001231 582.4 653.2
806(28) 0.001240 582.6 652.2
787(29) 0.001223 582.9 651.4
765(28) 0.001266 583.1 650.5
774(29) 0.001223 583.4 649.7
772(28) 0.001266 583.6 648.9
784(28) 0.001276 583.9 648.1
776(28) 0.001240 584.1 647.3
791(29) 0.001206 584.4 646.6
794(29) 0.001206 584.6 645.9
775(28) 0.001240 584.8 645.2
747(27) 0.001342 585.1 644.6
779(29) 0.001223 585.3 643.9
740(28) 0.001294 585.6 643.3
743(28) 0.001294 585.8 642.7
755(28) 0.001276 586.1 642.1
751(27) 0.001342 586.3 641.5
795(29) 0.001231 586.6 641.0
739(28) 0.001276 586.8 640.4
778(29) 0.001231 587.0 639.9
724(27) 0.001352 587.3 639.4
723(27) 0.001382 587.5 638.9
726(27) 0.001342 587.8 638.5
744(28) 0.001285 588.0 638.0
747(28) 0.001276 588.2 637.6
752(28) 0.001294 588.5 637.1
750(28) 0.001322 588.7 636.7
758(28) 0.001276 588.9 636.3
771(29) 0.001223 589.2 635.9
711(27) 0.001342 589.4 635.5
771(28) 0.001266 589.6 635.2
786(28) 0.001266 589.9 634.8
826(29) 0.001181 590.1 634.4
784(29) 0.001231 590.3 634.1
806(29) 0.001173 590.6 633.8
752(28) 0.001313 590.8 633.5
841(29) 0.001173 591.0 633.2
827(29) 0.001173 591.2 632.9
816(29) 0.001181 591.5 632.6
879(31) 0.001075 591.7 632.3
862(30) 0.001134 591.9 632.0
854(29) 0.001173 592.2 631.8
855(30) 0.001119 592.4 631.5
853(30) 0.001126 592.6 631.3
843(30) 0.001119 592.8 631.0
873(30) 0.001111 593.0 630.8
813(29) 0.001231 593.3 630.6
835(29) 0.001157 593.5 630.4
870(30) 0.001104 593.7 630.2
783(29) 0.001231 593.9 630.0
759(28) 0.001276 594.1 629.8
775(28) 0.001285 594.4 629.6
787(29) 0.001231 594.6 629.4
757(28) 0.001266 594.8 629.3
781(29) 0.001223 595.0 629.1
742(28) 0.001322 595.2 628.9
734(27) 0.001352 595.4 628.8
758(28) 0.001276 595.7 628.6
798(29) 0.001197 595.9 628.5
732(28) 0.001303 596.1 628.3
773(28) 0.001249 596.3 628.2
743(27) 0.001342 596.5 628.1
769(28) 0.001257 596.7 628.0
769(28) 0.001249 596.9 627.8
757(28) 0.001257 597.1 627.7
721(27) 0.001362 597.3 627.6
734(27) 0.001362 597.5 627.5
724(27) 0.001342 597.8 627.4
743(28) 0.001285 598.0 627.3
769(28) 0.001240 598.2 627.2
734(27) 0.001332 598.4 627.1
773(28) 0.001285 598.6 627.0
735(27) 0.001332 598.8 627.0
742(28) 0.001294 599.0 626.9
754(28) 0.001257 599.2 626.8
730(27) 0.001332 599.4 626.7
724(27) 0.001382 599.6 626.7
737(28) 0.001294 599.8 626.6
756(28) 0.001266 600.0 626.6
758(28) 0.001266 600.2 626.5
736(28) 0.001313 600.4 626.4
757(27) 0.001342 600.6 626.4
739(28) 0.001313 600.7 626.4
825(29) 0.001165 600.9 626.3
709(27) 0.001362 601.1 626.3
729(27) 0.001332 601.3 626.2
779(28) 0.001276 601.5 626.2
711(27) 0.001372 601.7 626.2
742(28) 0.001285 601.9 626.1
722(27) 0.001332 602.1 626.1
791(29) 0.001223 602.3 626.1
700(27) 0.001413 602.5 626.1
737(28) 0.001322 602.7 626.0
706(27) 0.001342 602.8 626.0
727(28) 0.001303 603.0 626.0
738(28) 0.001322 603.2 626.0
745(27) 0.001342 603.4 626.0
730(27) 0.001332 603.6 626.0
765(28) 0.001249 603.8 626.0
673(27) 0.001424 603.9 625.9
751(28) 0.001303 604.1 625.9
734(27) 0.001362 604.3 625.9
698(27) 0.001403 604.5 625.9
652(26) 0.001457 604.7 625.9
731(28) 0.001322 604.8 625.9
761(28) 0.001294 605.0 625.9
703(27) 0.001392 605.2 626.0
747(28) 0.001303 605.4 626.0
737(28) 0.001303 605.5 626.0
712(28) 0.001322 605.7 626.0
776(28) 0.001266 605.9 626.0
768(28) 0.001294 606.0 626.0
734(28) 0.001313 606.2 626.0
714(27) 0.001352 606.4 626.0
733(28) 0.001294 606.6 626.1
734(27) 0.001332 606.7 626.1
736(27) 0.001382 606.9 626.1
736(28) 0.001313 607.1 626.1
727(28) 0.001322 607.2 626.1
732(28) 0.001303 607.4 626.2
717(27) 0.001352 607.6 626.2
726(27) 0.001372 607.7 626.2
755(28) 0.001303 607.9 626.2
769(29) 0.001231 608.0 626.3
784(29) 0.001214 608.2 626.3
678(26) 0.001446 608.4 626.3
729(27) 0.001362 608.5 626.4
733(28) 0.001322 608.7 626.4
754(28) 0.001266 608.8 626.4
709(27) 0.001352 609.0 626.5
744(28) 0.001313 609.1 626.5
757(27) 0.001332 609.3 626.5
716(27) 0.001372 609.5 626.6
695(27) 0.001372 609.6 626.6
707(27) 0.001362 609.8 626.6
695(27) 0.001403 609.9 626.7
723(27) 0.001372 610.1 626.7
739(28) 0.001322 610.2 626.8
769(28) 0.001240 610.4 626.8
754(28) 0.001266 610.5 626.9
743(28) 0.001322 610.7 626.9
751(28) 0.001313 610.8 626.9
724(27) 0.001342 611.0 627.0
725(28) 0.001313 611.1 627.0
695(27) 0.001362 611.2 627.1
733(27) 0.001332 611.4 627.1
730(27) 0.001382 611.5 627.2
749(28) 0.001285 611.7 627.2
748(28) 0.001285 611.8 627.3
741(28) 0.001313 611.9 627.3
715(27) 0.001352 612.1 627.4
748(27) 0.001332 612.2 627.4
703(27) 0.001382 612.4 627.5
767(29) 0.001231 612.5 627.5
732(28) 0.001313 612.6 627.6
700(27) 0.001392 612.8 627.6
709(27) 0.001413 612.9 627.7
702(27) 0.001382 613.0 627.7
705(27) 0.001342 613.2 627.8
745(28) 0.001276 613.3 627.8
742(28) 0.001303 613.4 627.9
704(27) 0.001413 613.6 628.0
726(27) 0.001342 613.7 628.0
729(28) 0.001303 613.8 628.1
722(27) 0.001332 613.9 628.1
737(27) 0.001332 614.1 628.2
708(27) 0.001403 614.2 628.2
700(27) 0.001392 614.3 628.3
759(28) 0.001257 614.4 628.4
776(29) 0.001223 614.6 628.4
731(27) 0.001342 614.7 628.5
668(26) 0.001479 614.8 628.5
699(27) 0.001392 614.9 628.6
704(27) 0.001352 615.0 628.7
737(28) 0.001285 615.2 628.7
713(27) 0.001352 615.3 628.8
690(26) 0.001457 615.4 628.9
739(28) 0.001303 615.5 628.9
710(27) 0.001352 615.6 629.0
707(27) 0.001352 615.7 629.1
699(27) 0.001392 615.9 629.1
730(27) 0.001382 616.0 629.2
759(28) 0.001285 616.1 629.3
720(28) 0.001322 616.2 629.4
741(28) 0.001294 616.3 629.4
738(28) 0.001322 616.4 629.6
724(27) 0.001372 616.5 629.6
734(28) 0.001322 616.6 629.7
730(28) 0.001294 616.7 629.8
722(28) 0.001322 616.8 629.9
705(27) 0.001392 616.9 630.0
701(27) 0.001392 617.0 630.1
753(28) 0.001294 617.1 630.1
744(28) 0.001276 617.3 630.2
688(27) 0.001372 617.4 630.3
747(28) 0.001322 617.5 630.4
716(27) 0.001382 617.6 630.5
756(28) 0.001276 617.7 630.6
719(27) 0.001352 617.7 630.7
771(28) 0.001240 617.8 630.8
746(28) 0.001303 617.9 630.9
712(27) 0.001413 618.0 631.1
701(27) 0.001382 618.1 631.2
709(28) 0.001322 618.2 631.3
657(26) 0.001479 618.3 631.4
670(26) 0.001446 618.4 631.6
687(26) 0.001446 618.5 631.7
620(25) 0.001587 618.6 631.9
685(27) 0.001372 618.7 632.0
728(28) 0.001303 618.8 632.2
680(26) 0.001435 618.9 632.3
654(26) 0.001502 618.9 632.5
669(26) 0.001457 619.0 632.7
707(27) 0.001352 619.1 632.9
677(27) 0.001413 619.2 633.1
653(26) 0.001502 619.3 633.3
684(26) 0.001468 619.4 633.6
665(26) 0.001457 619.4 633.9
657(26) 0.001457 619.5 634.1
697(27) 0.001362 619.6 634.4
656(26) 0.001479 619.7 634.8
630(25) 0.001587 619.7 635.1
672(26) 0.001446 619.8 635.5
695(27) 0.001362 619.9 635.9
686(27) 0.001403 620.0 636.4
665(26) 0.001446 620.1 636.9
695(27) 0.001424 620.1 637.5
675(26) 0.001446 620.2 638.1
664(27) 0.001424 620.3 638.8
658(26) 0.001457 620.3 639.6
651(26) 0.001502 620.4 640.5
653(26) 0.001538 620.5 641.5
705(27) 0.001382 620.5 642.6
661(26) 0.001446 620.6 644.0
702(27) 0.001352 620.7 645.5
651(26) 0.001502 620.7 647.4
678(26) 0.001468 620.8 649.7
691(27) 0.001403 620.9 652.5
677(27) 0.001413 620.9 656.1
695(27) 0.001362 621.0 660.8
683(27) 0.001424 621.1 666.8
661(26) 0.001514 621.1 674.8
739(28) 0.001294 621.2 685.1
721(28) 0.001322 621.2 698.2
729(28) 0.001313 621.3 714.7
774(28) 0.001249 621.3 734.7
825(29) 0.001206 621.4 758.1
865(30) 0.001134 621.5 784.3
904(31) 0.001054 621.5 811.7
962(32) 0.000995 621.6 837.3
968(31) 0.001014 621.6 856.9
985(32) 0.001008 621.7 865.7
939(31) 0.001034 621.7 861.5
906(31) 0.001061 621.8 845.3
922(31) 0.001027 621.8 821.3
878(30) 0.001111 621.9 794.2
817(29) 0.001223 621.9 767.3
819(29) 0.001173 621.9 742.9
732(28) 0.001303 622.0 721.7
695(27) 0.001372 622.0 704.0
721(27) 0.001342 622.1 689.8
687(26) 0.001457 622.1 678.6
685(27) 0.001413 622.2 669.9
679(27) 0.001403 622.2 663.3
632(26) 0.001526 622.2 658.2
634(25) 0.001550 622.3 654.3
687(26) 0.001457 622.3 651.3
625(25) 0.001562 622.4 648.9
660(26) 0.001457 622.4 646.9
640(26) 0.001479 622.4 645.3
597(25) 0.001626 622.5 644.0
608(25) 0.001639 622.5 642.8
660(26) 0.001457 622.5 641.8
615(25) 0.001562 622.6 640.9
608(25) 0.001562 622.6 640.1
656(26) 0.001479 622.6 639.5
655(26) 0.001526 622.7 638.8
666(26) 0.001446 622.7 638.3
619(26) 0.001538 622.7 637.8
638(26) 0.001514 622.7 637.4
642(26) 0.001502 622.8 637.0
648(25) 0.001550 622.8 636.7
672(26) 0.001457 622.8 636.3
633(26) 0.001514 622.8 636.0
586(25) 0.001626 622.9 635.8
613(25) 0.001600 622.9 635.5
635(25) 0.001562 622.9 635.3
712(27) 0.001362 622.9 635.1
596(25) 0.001600 622.9 634.9
613(25) 0.001562 623.0 634.8
656(26) 0.001491 623.0 634.6
632(25) 0.001562 623.0 634.4
610(25) 0.001587 623.0 634.3
672(27) 0.001413 623.0 634.2
638(26) 0.001468 623.0 634.1
662(26) 0.001491 623.0 634.0
618(25) 0.001613 623.1 633.9
620(25) 0.001562 623.1 633.8
642(26) 0.001514 623.1 633.7
608(25) 0.001575 623.1 633.6
620(25) 0.001575 623.1 633.5
632(25) 0.001587 623.1 633.4
622(25) 0.001562 623.1 633.4
605(25) 0.001575 623.1 633.3
601(25) 0.001600 623.1 633.2
598(25) 0.001626 623.1 633.2
638(25) 0.001562 623.1 633.1
628(25) 0.001550 623.1 633.1
651(26) 0.001468 623.1 633.0
600(25) 0.001575 623.1 633.0
622(25) 0.001575 623.1 632.9
624(25) 0.001587 623.1 632.9
643(26) 0.001502 623.1 632.8
628(26) 0.001526 623.1 632.8
632(26) 0.001502 623.1 632.8
666(26) 0.001468 623.1 632.7
652(25) 0.001562 623.1 632.7
648(26) 0.001491 623.1 632.6
620(26) 0.001538 623.1 632.6
661(26) 0.001468 623.1 632.6
607(25) 0.001587 623.1 632.6
665(26) 0.001502 623.1 632.5
634(25) 0.001550 623.1 632.5
633(26) 0.001491 623.1 632.5
639(26) 0.001491 623.0 632.4
660(26) 0.001491 623.0 632.4
634(25) 0.001550 623.0 632.4
623(25) 0.001562 623.0 632.4
555(24) 0.001736 623.0 632.4
604(25) 0.001562 623.0 632.3
597(25) 0.001626 623.0 632.3
618(25) 0.001639 622.9 632.3
615(25) 0.001575 622.9 632.3
659(26) 0.001457 622.9 632.3
626(25) 0.001550 622.9 632.2
669(26) 0.001446 622.9 632.2
631(25) 0.001587 622.8 632.2
618(25) 0.001575 622.8 632.2
600(25) 0.001575 622.8 632.2
677(27) 0.001424 622.8 632.2
620(25) 0.001562 622.7 632.2
616(25) 0.001626 622.7 632.1
651(26) 0.001491 622.7 632.1
635(26) 0.001479 622.7 632.1
617(25) 0.001562 622.6 632.1
613(25) 0.001587 622.6 632.1
663(26) 0.001491 622.6 632.1
613(25) 0.001587 622.5 632.1
645(26) 0.001479 622.5 632.1
602(25) 0.001600 622.5 632.1
563(24) 0.001736 622.4 632.1
587(24) 0.001722 622.4 632.1
628(25) 0.001550 622.4 632.1
576(25) 0.001639 622.3 632.1
607(25) 0.001613 622.3 632.1
642(26) 0.001502 622.3 632.1
547(24) 0.001811 622.2 632.1
596(25) 0.001666 622.2 632.1
614(26) 0.001526 622.1 632.1
641(26) 0.001479 622.1 632.1
617(25) 0.001600 622.1 632.1
642(26) 0.001526 622.0 632.1
609(25) 0.001600 622.0 632.1
625(26) 0.001538 621.9 632.1
630(26) 0.001502 621.9 632.1
651(26) 0.001491 621.8 632.1
583(24) 0.001751 621.8 632.1
619(25) 0.001562 621.8 632.1
648(26) 0.001468 621.7 632.1
596(25) 0.001613 621.7 632.2
630(25) 0.001550 621.6 632.2
655(26) 0.001514 621.6 632.2
621(25) 0.001575 621.5 632.2
649(26) 0.001468 621.5 632.2
629(26) 0.001526 621.4 632.3
604(25) 0.001613 621.3 632.3
600(25) 0.001652 621.3 632.3
627(25) 0.001562 621.2 632.3
588(25) 0.001600 621.2 632.4
583(25) 0.001639 621.1 632.4
638(26) 0.001526 621.1 632.4
608(25) 0.001639 621.0 632.5
638(25) 0.001550 621.0 632.5
603(25) 0.001587 620.9 632.6
587(25) 0.001639 620.8 632.6
609(25) 0.001587 620.8 632.7
627(25) 0.001600 620.7 632.7
624(25) 0.001562 620.6 632.8
640(26) 0.001479 620.6 632.8
633(26) 0.001514 620.5 632.9
620(25) 0.001575 620.5 632.9
634(25) 0.001575 620.4 633.0
606(25) 0.001613 620.3 633.1
590(25) 0.001587 620.3 633.2
633(26) 0.001514 620.2 633.2
598(25) 0.001639 620.1 633.3
601(25) 0.001639 620.1 633.4
626(25) 0.001562 620.0 633.5
604(25) 0.001575 619.9 633.6
609(25) 0.001575 619.8 633.7
628(25) 0.001575 619.8 633.8
603(25) 0.001652 619.7 633.9
592(25) 0.001639 619.6 634.1
623(25) 0.001550 619.5 634.2
600(25) 0.001587 619.5 634.3
606(25) 0.001600 619.4 634.5
642(25) 0.001575 619.3 634.6
603(25) 0.001587 619.2 634.8
586(25) 0.001626 619.2 634.9
594(25) 0.001626 619.1 635.1
566(24) 0.001708 619.0 635.3
558(24) 0.001795 618.9 635.5
571(24) 0.001722 618.8 635.7
590(25) 0.001587 618.8 635.9
621(26) 0.001538 618.7 636.1
592(25) 0.001666 618.6 636.3
614(25) 0.001613 618.5 636.5
596(25) 0.001652 618.4 636.8
606(25) 0.001587 618.3 637.1
599(25) 0.001575 618.2 637.3
584(24) 0.001694 618.2 637.6
595(25) 0.001666 618.1 638.0
589(25) 0.001626 618.0 638.3
627(26) 0.001538 617.9 638.6
549(24) 0.001736 617.8 639.0
575(24) 0.001680 617.7 639.4
607(25) 0.001652 617.6 639.8
565(24) 0.001694 617.5 640.2
549(24) 0.001751 617.4 640.6
618(25) 0.001550 617.3 641.1
639(26) 0.001502 617.2 641.6
646(25) 0.001562 617.2 642.1
591(25) 0.001652 617.1 642.7
573(25) 0.001666 617.0 643.3
570(24) 0.001708 616.9 643.9
613(25) 0.001575 616.8 644.6
614(25) 0.001626 616.7 645.3
580(24) 0.001680 616.6 646.0
528(24) 0.001795 616.5 646.8
556(24) 0.001708 616.4 647.7
597(25) 0.001639 616.3 648.5
608(25) 0.001639 616.2 649.5
589(25) 0.001639 616.1 650.5
619(25) 0.001550 616.0 651.6
589(25) 0.001600 615.9 652.7
593(25) 0.001626 615.7 654.0
560(24) 0.001795 615.6 655.3
614(25) 0.001575 615.5 656.7
581(25) 0.001626 615.4 658.2
613(25) 0.001600 615.3 659.8
610(25) 0.001600 615.2 661.6
636(25) 0.001575 615.1 663.5
599(25) 0.001626 615.0 665.5
619(26) 0.001538 614.9 667.7
609(25) 0.001562 614.8 670.1
576(24) 0.001694 614.7 672.7
626(25) 0.001587 614.6 675.6
601(25) 0.001626 614.4 678.7
640(26) 0.001479 614.3 682.2
654(26) 0.001468 614.2 686.0
656(26) 0.001468 614.1 690.2
603(25) 0.001666 614.0 695.0
642(26) 0.001502 613.9 700.4
637(26) 0.001491 613.7 706.5
659(26) 0.001446 613.6 713.6
665(26) 0.001479 613.5 721.7
729(27) 0.001372 613.4 731.3
700(27) 0.001392 613.3 742.6
707(27) 0.001342 613.2 755.8
764(28) 0.001249 613.0 771.5
719(27) 0.001362 612.9 790.0
758(28) 0.001313 612.8 811.8
803(29) 0.001197 612.7 837.2
815(29) 0.001173 612.5 866.6
883(30) 0.001089 612.4 900.2
902(31) 0.001061 612.3 938.3
994(31) 0.001014 612.2 980.5
1008(32) 0.000953 612.0 1026.4
1072(34) 0.000875 611.9 1074.8
1160(35) 0.000831 611.8 1123.9
1208(35) 0.000803 612. 1171.
1233(35) 0.000803 612. 1212.
1230(35) 0.000798 611. 1243.
1208(36) 0.000789 611. 1260.
1250(36) 0.000767 611. 1264.
1247(36) 0.000785 611. 1253.
1266(36) 0.000789 611. 1233.
1218(36) 0.000793 611. 1206.
1233(36) 0.000767 611. 1178.
1156(35) 0.000831 610.5 1152.6
1128(34) 0.000855 610.4 1131.7
1142(34) 0.000875 610.2 1118.0
1144(34) 0.000845 610.1 1113.6
1085(34) 0.000875 610.0 1120.4
1125(34) 0.000845 609.8 1141.1
1219(36) 0.000793 610. 1178.
1171(34) 0.000845 609.5 1236.1
1261(36) 0.000767 609. 1318.
1367(38) 0.000696 609. 1429.
1485(39) 0.000647 609. 1573.
1651(41) 0.000592 609. 1754.
1833(43) 0.000548 609. 1974.
2137(47) 0.000455 609. 2232.
2363(50) 0.000400 609. 2523.
2577(52) 0.000367 608. 2833.
2947(55) 0.0003294 608. 3140.
3137(56) 0.0003144 608. 3403.
3499(61) 0.0002732 608. 3578.
3461(61) 0.0002732 608. 3623.
3462(61) 0.0002723 608. 3528.
3353(59) 0.0002853 608. 3313.
2946(55) 0.0003367 607. 3025.
2675(53) 0.000357 607. 2708.
2253(49) 0.000416 607. 2394.
2079(47) 0.000460 607. 2105.
1827(43) 0.000531 607. 1850.
1628(40) 0.000613 607. 1632.
1443(38) 0.000682 607. 1452.
1305(37) 0.000727 606. 1306.
1239(36) 0.000767 606. 1188.
1144(34) 0.000860 606.1 1095.9
1056(33) 0.000935 605.9 1023.2
1003(32) 0.000970 605.8 966.0
909(31) 0.001047 605.6 920.7
966(32) 0.000989 605.5 884.3
930(31) 0.001054 605.3 854.5
851(29) 0.001157 605.2 829.8
866(30) 0.001126 605.0 809.0
777(29) 0.001223 604.9 791.1
789(29) 0.001197 604.7 775.6
795(28) 0.001240 604.5 761.9
735(27) 0.001362 604.4 749.9
721(27) 0.001342 604.2 739.2
720(27) 0.001342 604.1 729.6
686(27) 0.001392 603.9 721.0
644(26) 0.001502 603.8 713.3
699(26) 0.001435 603.6 706.2
692(27) 0.001413 603.4 699.8
679(27) 0.001392 603.3 694.0
631(26) 0.001514 603.1 688.7
659(26) 0.001479 603.0 683.8
673(26) 0.001468 602.8 679.3
636(26) 0.001526 602.6 675.2
613(26) 0.001538 602.5 671.3
638(26) 0.001502 602.3 667.8
639(26) 0.001514 602.1 664.5
659(26) 0.001514 602.0 661.4
604(25) 0.001613 601.8 658.5
616(26) 0.001538 601.7 655.9
631(26) 0.001526 601.5 653.4
628(25) 0.001562 601.3 651.0
593(24) 0.001680 601.2 648.8
592(25) 0.001666 601.0 646.7
596(25) 0.001587 600.8 644.8
637(26) 0.001502 600.7 642.9
614(25) 0.001587 600.5 641.2
596(25) 0.001666 600.3 639.5
599(25) 0.001626 600.1 637.9
646(26) 0.001468 600.0 636.4
588(25) 0.001626 599.8 635.0
578(24) 0.001694 599.6 633.7
592(25) 0.001666 599.5 632.4
652(26) 0.001502 599.3 631.1
604(25) 0.001575 599.1 629.9
560(24) 0.001694 599.0 628.8
576(24) 0.001708 598.8 627.7
596(24) 0.001680 598.6 626.7
575(24) 0.001694 598.4 625.7
560(24) 0.001708 598.3 624.7
642(26) 0.001502 598.1 623.8
648(26) 0.001502 597.9 622.9
603(25) 0.001652 597.7 622.1
612(25) 0.001587 597.6 621.2
646(26) 0.001479 597.4 620.4
641(26) 0.001491 597.2 619.7
629(25) 0.001550 597.0 618.9
576(24) 0.001736 596.9 618.2
599(25) 0.001626 596.7 617.5
587(25) 0.001613 596.5 616.8
604(25) 0.001587 596.3 616.1
646(26) 0.001491 596.1 615.5
609(25) 0.001639 596.0 616.0
663(26) 0.001479 595.8 615.4
604(25) 0.001562 595.6 614.8
658(26) 0.001468 595.4 614.2
626(25) 0.001562 595.2 613.7
656(26) 0.001502 595.1 613.1
613(25) 0.001600 594.9 612.6
636(26) 0.001491 594.7 612.1
658(26) 0.001446 594.5 611.6
596(25) 0.001652 594.3 611.1
648(25) 0.001550 594.1 610.6
632(26) 0.001526 594.0 610.1
637(26) 0.001491 593.8 609.6
651(26) 0.001479 593.6 609.2
594(25) 0.001626 593.4 608.7
630(25) 0.001575 593.2 608.3
612(25) 0.001600 593.0 607.9
610(25) 0.001562 592.9 607.4
588(25) 0.001626 592.7 607.0
567(24) 0.001751 592.5 606.6
573(24) 0.001736 592.3 606.2
577(24) 0.001680 592.1 605.8
594(25) 0.001626 591.9 605.4
605(25) 0.001562 591.7 605.0
584(25) 0.001666 591.5 604.6
619(25) 0.001626 591.4 604.3
597(25) 0.001613 591.2 603.9
612(25) 0.001575 591.0 603.5
543(24) 0.001751 590.8 603.2
597(25) 0.001626 590.6 602.8
590(24) 0.001708 590.4 602.5
576(24) 0.001680 590.2 602.1
613(25) 0.001550 590.0 601.8
564(24) 0.001694 589.8 601.4
584(24) 0.001680 589.6 601.1
621(25) 0.001600 589.4 600.8
550(24) 0.001765 589.3 600.4
563(24) 0.001722 589.1 600.1
548(24) 0.001736 588.9 599.8
531(23) 0.001842 588.7 599.5
530(23) 0.001907 588.5 599.2
582(25) 0.001639 588.3 598.8
585(25) 0.001639 588.1 598.5
603(25) 0.001600 587.9 598.2
598(25) 0.001613 587.7 597.9
590(24) 0.001694 587.5 597.6
588(24) 0.001680 587.3 597.3
616(26) 0.001538 587.1 597.0
607(25) 0.001562 586.9 596.7
573(24) 0.001722 586.7 596.4
592(24) 0.001680 586.5 596.1
568(24) 0.001708 586.3 595.9
550(24) 0.001765 586.1 595.6
543(24) 0.001751 585.9 595.3
551(24) 0.001780 585.7 595.0
570(24) 0.001780 585.5 594.7
565(24) 0.001722 585.3 594.4
549(24) 0.001736 585.2 594.2
599(25) 0.001600 585.0 593.9
571(24) 0.001722 584.8 593.6
547(24) 0.001811 584.6 593.3
554(24) 0.001765 584.4 593.1
532(24) 0.001780 584.2 592.8
603(25) 0.001575 584.0 592.5
563(24) 0.001751 583.8 592.3
570(24) 0.001736 583.6 592.0
556(24) 0.001751 583.4 591.7
599(25) 0.001600 583.2 591.5
569(25) 0.001666 583.0 591.2
597(25) 0.001652 582.7 590.9
547(23) 0.001826 582.5 590.7
600(25) 0.001639 582.3 590.4
554(24) 0.001736 582.1 590.2
569(25) 0.001666 581.9 589.9
576(24) 0.001694 581.7 589.7
568(24) 0.001765 581.5 589.4
596(25) 0.001626 581.3 589.2
586(25) 0.001639 581.1 588.9
581(25) 0.001639 580.9 588.7
576(24) 0.001694 580.7 588.5
614(25) 0.001639 580.5 588.2
551(24) 0.001736 580.3 588.0
592(25) 0.001626 580.1 587.7
613(25) 0.001550 579.9 587.5
607(25) 0.001613 579.7 587.2
587(24) 0.001722 579.5 587.0
586(25) 0.001652 579.3 586.7
620(25) 0.001562 579.1 586.5
586(25) 0.001626 578.9 586.2
629(25) 0.001562 578.7 586.0
597(24) 0.001694 578.5 585.8
626(26) 0.001526 578.3 585.5
588(25) 0.001639 578.1 585.3
628(26) 0.001526 577.8 585.0
629(26) 0.001526 577.6 584.8
622(25) 0.001613 577.4 584.6
601(25) 0.001626 577.2 584.3
595(25) 0.001600 577.0 584.1
539(24) 0.001751 576.8 583.8
577(24) 0.001680 576.6 583.6
603(25) 0.001666 576.4 583.4
556(24) 0.001751 576.2 583.1
575(25) 0.001652 576.0 582.9
571(24) 0.001680 575.8 582.7
557(24) 0.001780 575.6 582.4
573(24) 0.001736 575.4 582.2
588(24) 0.001680 575.1 582.0
581(25) 0.001652 574.9 581.7
591(25) 0.001587 574.7 581.5
563(24) 0.001751 574.5 581.3
559(24) 0.001795 574.3 581.0
538(24) 0.001780 574.1 580.8
547(24) 0.001751 573.9 580.6
549(24) 0.001751 573.7 580.4
584(25) 0.001652 573.5 580.1
565(24) 0.001751 573.3 579.9
564(24) 0.001736 573.1 579.7
560(24) 0.001694 572.8 579.4
574(25) 0.001666 572.6 579.2
528(23) 0.001874 572.4 579.0
553(24) 0.001795 572.2 578.8
552(24) 0.001780 572.0 578.5
558(24) 0.001722 571.8 578.3
557(24) 0.001708 571.6 578.1
560(24) 0.001765 571.4 577.9
561(24) 0.001765 571.2 577.6
554(24) 0.001765 570.9 577.4
549(24) 0.001736 570.7 577.2
551(24) 0.001736 570.5 577.0
576(24) 0.001694 570.3 576.7
579(24) 0.001736 570.1 575.0
593(25) 0.001626 569.9 574.8
590(25) 0.001600 569.7 574.6
558(24) 0.001708 569.5 574.4
580(24) 0.001680 569.2 574.1
557(24) 0.001795 569.0 573.9
557(24) 0.001751 568.8 573.7
570(24) 0.001680 568.6 573.5
581(25) 0.001639 568.4 573.3
557(24) 0.001765 568.2 573.1
525(23) 0.001924 568.0 572.8
598(25) 0.001600 567.8 572.6
584(25) 0.001652 567.6 572.4
597(25) 0.001600 567.3 572.2
562(24) 0.001722 567.1 572.0
585(24) 0.001736 566.9 571.8
608(25) 0.001587 566.7 571.6
575(25) 0.001639 566.5 571.3
572(24) 0.001680 566.3 571.1
590(25) 0.001639 566.1 570.9
591(24) 0.001680 565.8 570.7
600(25) 0.001639 565.6 570.5
590(25) 0.001613 565.4 570.3
620(26) 0.001538 565.2 570.1
584(24) 0.001680 565.0 569.9
574(24) 0.001736 564.8 569.7
549(24) 0.001765 564.6 569.4
586(25) 0.001652 564.4 569.2
599(25) 0.001587 564.1 569.0
572(24) 0.001708 563.9 568.8
574(24) 0.001751 563.7 568.6
589(25) 0.001626 563.5 568.4
588(25) 0.001626 563.3 568.2
588(25) 0.001626 563.1 568.0
631(26) 0.001526 562.9 567.8
616(25) 0.001613 562.6 567.6
613(25) 0.001587 562.4 567.4
611(26) 0.001526 562.2 567.2
587(25) 0.001639 562.0 567.0
612(25) 0.001600 561.8 566.8
618(25) 0.001613 561.6 566.6
604(25) 0.001626 561.4 566.3
601(25) 0.001600 561.2 566.1
627(26) 0.001502 560.9 565.9
582(24) 0.001708 560.7 565.7
586(24) 0.001680 560.5 565.5
574(24) 0.001708 560.3 565.3
597(25) 0.001600 560.1 565.1
591(25) 0.001600 559.9 564.9
568(24) 0.001722 559.7 564.7
579(24) 0.001736 559.4 564.5
518(23) 0.001842 559.2 564.3
536(24) 0.001795 559.0 564.1
514(23) 0.001842 558.8 563.9
553(24) 0.001751 558.6 563.7
536(23) 0.001874 558.4 563.5
535(23) 0.001826 558.2 563.3
548(24) 0.001736 557.9 563.1
529(23) 0.001826 557.7 562.9
517(23) 0.001890 557.5 562.8
515(23) 0.001941 557.3 562.6
499(23) 0.001975 557.1 562.4
557(24) 0.001708 556.9 562.2
534(24) 0.001780 556.7 562.0
492(22) 0.001993 556.5 561.8
542(23) 0.001826 556.2 561.6
505(23) 0.001941 556.0 561.4
528(24) 0.001811 555.8 561.2
532(24) 0.001780 555.6 561.0
549(24) 0.001780 555.4 560.8
570(24) 0.001751 555.2 560.6
517(23) 0.001874 555.0 560.4
522(23) 0.001842 554.8 560.3
526(24) 0.001795 554.5 560.1
521(23) 0.001907 554.3 559.9
556(23) 0.001826 554.1 559.7
527(23) 0.001842 553.9 559.5
542(24) 0.001765 553.7 559.3
543(24) 0.001751 553.5 559.1
520(23) 0.001858 553.3 558.9
552(23) 0.001826 553.1 558.8
535(24) 0.001795 552.8 558.6
587(25) 0.001626 552.6 558.4
542(24) 0.001765 552.4 558.2
531(23) 0.001826 552.2 558.0
498(22) 0.002011 552.0 557.8
468(22) 0.002085 551.8 557.7
512(23) 0.001826 551.6 557.5
530(23) 0.001826 551.4 557.3
578(24) 0.001680 551.2 557.1
548(23) 0.001826 550.9 556.9
540(23) 0.001842 550.7 556.8
528(24) 0.001811 550.5 556.6
541(24) 0.001765 550.3 556.4
538(23) 0.001826 550.1 556.2
559(24) 0.001780 549.9 556.1
546(24) 0.001765 549.7 555.9
535(24) 0.001780 549.5 555.7
576(25) 0.001652 549.3 555.5
567(24) 0.001708 549.1 555.4
519(23) 0.001924 548.8 555.2
553(24) 0.001765 548.6 555.0
574(25) 0.001639 548.4 554.9
557(24) 0.001708 548.2 554.7
530(23) 0.001858 548.0 554.5
552(24) 0.001795 547.8 554.3
570(24) 0.001722 547.6 554.2
597(25) 0.001613 547.4 554.0
599(25) 0.001600 547.2 553.8
598(25) 0.001652 547.0 553.7
613(25) 0.001639 546.8 553.5
623(25) 0.001550 546.5 553.4
617(25) 0.001550 546.3 553.2
613(25) 0.001550 546.1 553.0
613(25) 0.001587 545.9 552.9
647(26) 0.001538 545.7 552.7
599(25) 0.001626 545.5 552.6
588(25) 0.001626 545.3 552.4
609(25) 0.001550 545.1 552.3
584(24) 0.001680 544.9 552.1
592(24) 0.001694 544.7 552.0
589(25) 0.001652 544.5 551.8
587(25) 0.001639 544.3 551.7
597(25) 0.001600 544.1 551.5
579(24) 0.001694 543.9 551.4
570(24) 0.001765 543.7 551.2
562(24) 0.001736 543.4 551.1
515(23) 0.001874 543.2 550.9
598(25) 0.001587 543.0 550.8
555(24) 0.001765 542.8 550.6
533(23) 0.001874 542.6 550.5
557(24) 0.001736 542.4 550.4
537(24) 0.001765 542.2 550.2
520(23) 0.001842 542.0 550.1
526(23) 0.001842 541.8 549.9
509(23) 0.001941 541.6 549.8
523(23) 0.001874 541.4 549.7
525(24) 0.001811 541.2 549.6
593(25) 0.001600 541.0 549.4
548(24) 0.001795 540.8 549.3
518(23) 0.001924 540.6 549.2
527(23) 0.001858 540.4 549.0
579(24) 0.001680 540.2 548.9
522(23) 0.001826 540.0 548.8
519(23) 0.001890 539.8 548.7
539(23) 0.001858 539.6 548.6
547(24) 0.001765 539.4 548.4
563(24) 0.001694 539.2 548.3
520(23) 0.001826 539.0 548.2
541(24) 0.001811 538.8 548.1
509(23) 0.001958 538.6 548.0
524(23) 0.001858 538.4 547.9
534(24) 0.001780 538.2 547.8
540(24) 0.001765 538.0 547.7
491(22) 0.001993 537.8 547.6
522(23) 0.001941 537.6 547.5
488(22) 0.001993 537.4 547.4
541(24) 0.001780 537.2 547.3
532(24) 0.001811 537.0 547.2
501(23) 0.001958 536.8 547.1
523(23) 0.001907 536.6 547.0
532(23) 0.001842 536.4 546.9
535(24) 0.001765 536.2 546.9
504(23) 0.001874 536.0 546.8
486(22) 0.002011 535.8 546.7
529(23) 0.001874 535.6 546.6
514(23) 0.001890 535.4 546.6
519(23) 0.001842 535.2 546.5
517(23) 0.001842 535.0 546.4
538(23) 0.001826 534.8 546.4
517(23) 0.001924 534.6 546.3
550(24) 0.001780 534.4 546.2
523(23) 0.001826 534.2 546.2
546(24) 0.001765 534.0 546.1
540(23) 0.001826 533.8 546.1
553(23) 0.001826 533.6 546.0
526(23) 0.001858 533.4 546.0
567(24) 0.001680 533.3 546.0
504(23) 0.001890 533.1 545.9
515(23) 0.001907 532.9 545.9
542(23) 0.001826 532.7 545.9
510(23) 0.001907 532.5 545.8
550(24) 0.001736 532.3 545.8
546(24) 0.001751 532.1 545.8
548(24) 0.001780 531.9 545.8
584(24) 0.001708 531.7 545.8
556(24) 0.001751 531.5 545.8
579(25) 0.001652 531.3 545.8
563(24) 0.001694 531.1 545.8
570(24) 0.001722 531.0 545.8
569(24) 0.001751 530.8 545.8
566(24) 0.001751 530.6 545.9
601(25) 0.001587 530.4 545.9
627(26) 0.001526 530.2 545.9
643(26) 0.001526 530.0 546.0
647(26) 0.001538 529.8 546.0
670(26) 0.001457 529.6 546.0
656(26) 0.001457 529.4 546.1
693(27) 0.001362 529.3 546.2
680(26) 0.001446 529.1 546.2
707(27) 0.001403 528.9 546.3
710(27) 0.001372 528.7 546.4
704(27) 0.001362 528.5 546.5
704(27) 0.001342 528.3 546.6
750(28) 0.001303 528.1 546.7
686(26) 0.001468 528.0 546.8
662(26) 0.001457 527.8 546.9
612(25) 0.001562 527.6 547.0
654(26) 0.001479 527.4 547.2
589(25) 0.001666 527.2 547.3
603(25) 0.001639 527.0 547.5
564(24) 0.001751 526.8 547.6
568(24) 0.001680 526.7 547.8
590(25) 0.001587 526.5 548.0
583(24) 0.001694 526.3 548.2
561(24) 0.001765 526.1 548.4
560(24) 0.001708 525.9 548.6
520(23) 0.001858 525.8 548.8
486(23) 0.001941 525.6 549.1
530(23) 0.001826 525.4 549.3
524(23) 0.001924 525.2 549.6
534(23) 0.001826 525.0 549.9
523(24) 0.001811 524.9 550.2
576(25) 0.001666 524.7 550.5
536(23) 0.001842 524.5 550.8
548(24) 0.001811 524.3 551.1
540(24) 0.001811 524.1 551.5
550(24) 0.001736 524.0 551.9
500(23) 0.001907 523.8 552.3
511(23) 0.001924 523.6 552.7
545(23) 0.001826 523.4 553.1
507(23) 0.001890 523.3 553.5
541(24) 0.001765 523.1 554.0
572(25) 0.001666 522.9 554.5
577(25) 0.001666 522.7 555.0
568(24) 0.001751 522.6 555.6
521(23) 0.001858 522.4 556.1
512(23) 0.001874 522.2 556.7
543(24) 0.001765 522.0 557.3
547(24) 0.001780 521.9 558.0
527(23) 0.001890 521.7 558.7
575(24) 0.001708 521.5 559.4
570(25) 0.001666 521.3 560.1
548(24) 0.001751 521.2 560.9
554(24) 0.001751 521.0 561.7
591(24) 0.001694 520.8 562.6
543(24) 0.001795 520.7 563.4
537(24) 0.001751 520.5 564.4
546(24) 0.001736 520.3 565.4
617(25) 0.001587 520.2 566.4
590(24) 0.001694 520.0 567.5
618(25) 0.001550 519.8 568.6
574(25) 0.001652 519.6 569.8
561(24) 0.001722 519.5 571.0
607(25) 0.001587 519.3 572.3
632(25) 0.001587 519.1 573.7
607(25) 0.001600 519.0 575.2
599(25) 0.001575 518.8 576.7
548(24) 0.001765 518.7 578.3
560(24) 0.001736 518.5 580.0
578(24) 0.001722 518.3 581.8
537(23) 0.001826 518.2 583.6
585(25) 0.001626 518.0 585.6
559(24) 0.001708 517.8 587.7
571(24) 0.001694 517.7 589.9
600(24) 0.001680 517.5 592.2
561(24) 0.001736 517.3 594.6
563(25) 0.001652 517.2 597.2
575(25) 0.001666 517.0 600.0
580(24) 0.001680 516.9 602.9
588(24) 0.001680 516.7 606.0
542(24) 0.001811 516.5 609.3
577(25) 0.001639 516.4 612.7
525(24) 0.001795 516.2 616.5
591(24) 0.001680 516.1 620.4
615(25) 0.001613 515.9 624.6
614(25) 0.001575 515.7 629.1
605(25) 0.001575 515.6 633.9
592(25) 0.001626 515.4 639.0
627(25) 0.001550 515.3 644.5
585(24) 0.001694 515.1 650.4
587(25) 0.001652 515.0 656.8
592(25) 0.001587 514.8 663.6
602(25) 0.001575 514.6 671.0
597(25) 0.001626 514.5 678.9
618(25) 0.001587 514.3 687.5
593(25) 0.001652 514.2 696.8
633(26) 0.001514 514.0 706.9
618(26) 0.001538 513.9 717.9
669(26) 0.001446 513.7 729.9
663(26) 0.001502 513.6 743.0
656(26) 0.001491 513.4 757.4
710(27) 0.001342 513.3 773.2
722(28) 0.001313 513.1 790.6
682(26) 0.001435 513.0 809.8
683(26) 0.001468 512.8 831.2
765(28) 0.001266 512.7 854.9
768(29) 0.001231 512.5 881.4
801(29) 0.001181 512.4 911.1
901(30) 0.001082 512.2 944.6
930(31) 0.001061 512.1 982.4
994(32) 0.000970 511.9 1025.4
998(33) 0.000947 511.8 1074.6
1055(33) 0.000902 511.6 1131.3
1177(35) 0.000835 511.5 1197.4
1266(36) 0.000780 511. 1275.
1346(37) 0.000715 511. 1369.
1483(39) 0.000644 511. 1484.
1768(43) 0.000536 511. 1629.
1873(44) 0.000524 511. 1818.
2173(47) 0.000451 511. 2069.
2537(51) 0.000380 510. 2406.
2978(56) 0.0003212 510. 2862.
3564(62) 0.0002610 510. 3473.
4375(68) 0.0002182 510. 4277.
5201(73) 0.0001892 510. 5305.
6401(82) 0.0001476 510. 6575.
7743(92) 0.0001187 510. 8077.
9280(100) 0.0000996 509. 9760.
10830(110) 0.0000854 509. 11503.
12560(120) 0.0000760 509. 13089.
14020(120) 0.0000662 509. 14213.
14560(130) 0.0000613 509. 14578.
14040(130) 0.0000644 509. 14072.
13220(120) 0.0000710 509. 12848.
11190(110) 0.0000851 509. 11215.
9430(100) 0.0000984 508. 9471.
7671(91) 0.0001213 508. 7812.
6259(82) 0.0001498 508. 6346.
4957(72) 0.0001945 508. 5116.
4015(64) 0.0002434 508. 4126.
3291(59) 0.0002912 508. 3357.
2784(54) 0.0003392 508. 2774.
2426(51) 0.000389 507. 2340.
2026(46) 0.000477 507. 2019.
1780(43) 0.000554 507. 1781.
1596(41) 0.000598 507. 1600.
1371(38) 0.000704 507. 1460.
1290(37) 0.000742 507. 1349.
1199(35) 0.000798 507. 1258.
1090(33) 0.000930 506.6 1182.3
1043(33) 0.000930 506.4 1117.8
955(32) 0.000995 506.3 1062.3
893(31) 0.001068 506.2 1014.1
859(30) 0.001134 506.0 971.8
817(29) 0.001223 505.9 934.6
804(29) 0.001214 505.8 901.6
741(28) 0.001285 505.7 872.3
762(28) 0.001240 505.5 846.1
722(27) 0.001352 505.4 822.7
692(26) 0.001446 505.3 801.5
705(27) 0.001342 505.2 782.5
707(27) 0.001352 505.0 765.2
642(26) 0.001479 504.9 749.5
649(26) 0.001502 504.8 735.2
687(26) 0.001457 504.7 722.1
583(25) 0.001652 504.6 710.1
613(26) 0.001538 504.4 699.2
593(25) 0.001626 504.3 689.1
603(25) 0.001613 504.2 679.7
601(25) 0.001639 504.1 671.1
565(24) 0.001751 504.0 663.2
606(25) 0.001575 503.8 655.8
595(25) 0.001587 503.7 648.9
587(25) 0.001666 503.6 642.5
577(24) 0.001708 503.5 636.6
560(24) 0.001722 503.4 631.1
578(25) 0.001652 503.3 625.9
558(24) 0.001694 503.1 621.1
595(25) 0.001639 503.0 616.5
555(24) 0.001795 502.9 612.3
538(24) 0.001811 502.8 608.3
524(24) 0.001811 502.7 604.6
536(24) 0.001780 502.6 601.1
562(24) 0.001751 502.5 597.8
592(24) 0.001680 502.4 594.7
583(25) 0.001666 502.2 591.7
546(24) 0.001751 502.1 589.0
546(24) 0.001765 502.0 586.4
522(23) 0.001890 501.9 584.0
526(23) 0.001874 501.8 581.7
539(24) 0.001811 501.7 579.5
542(24) 0.001736 501.6 577.5
551(24) 0.001722 501.5 575.5
531(23) 0.001858 501.4 573.7
494(23) 0.001975 501.3 572.0
531(23) 0.001826 501.2 570.4
578(25) 0.001666 501.1 568.9
549(24) 0.001736 501.0 567.5
505(23) 0.001924 500.8 566.2
512(23) 0.001958 500.7 565.0
543(24) 0.001780 500.6 563.9
517(23) 0.001842 500.5 562.8
540(24) 0.001780 500.4 561.8
537(24) 0.001811 500.3 561.0
539(23) 0.001858 500.2 560.1
510(23) 0.001907 500.1 559.4
522(24) 0.001811 500.0 558.7
511(23) 0.001874 499.9 558.2
524(23) 0.001874 499.8 557.6
522(23) 0.001890 499.7 557.2
536(24) 0.001811 499.6 556.8
515(23) 0.001826 499.5 556.6
540(24) 0.001765 499.4 556.4
543(24) 0.001811 499.3 556.3
531(23) 0.001858 499.3 556.2
513(23) 0.001890 499.2 556.3
538(24) 0.001780 499.1 556.4
530(24) 0.001795 499.0 556.7
535(23) 0.001826 498.9 557.0
531(23) 0.001874 498.8 557.5
582(25) 0.001652 498.7 558.0
565(24) 0.001694 498.6 558.7
538(24) 0.001795 498.5 559.5
532(24) 0.001811 498.4 560.5
575(24) 0.001736 498.3 561.6
527(23) 0.001858 498.2 562.8
572(25) 0.001626 498.1 564.3
550(24) 0.001751 498.1 566.0
570(24) 0.001722 498.0 567.9
583(24) 0.001680 497.9 570.0
539(23) 0.001826 497.8 572.5
558(24) 0.001722 497.7 575.3
569(25) 0.001652 497.6 578.6
567(24) 0.001736 497.5 582.3
571(24) 0.001751 497.4 586.6
606(25) 0.001575 497.4 591.5
580(25) 0.001652 497.3 597.2
596(25) 0.001613 497.2 603.9
579(24) 0.001680 497.1 611.6
593(24) 0.001680 497.0 620.5
641(26) 0.001502 496.9 630.8
609(25) 0.001550 496.9 642.7
672(27) 0.001413 496.8 656.4
681(26) 0.001435 496.7 672.2
704(27) 0.001403 496.6 690.2
731(27) 0.001332 496.5 710.5
691(27) 0.001382 496.5 733.5
738(28) 0.001276 496.4 759.1
832(29) 0.001173 496.3 787.5
817(29) 0.001231 496.2 818.7
885(30) 0.001082 496.1 852.4
905(31) 0.001061 496.1 888.4
914(31) 0.001047 496.0 926.1
978(32) 0.000989 495.9 964.8
1006(32) 0.001001 495.8 1003.2
1104(34) 0.000881 495.8 1039.9
1061(34) 0.000886 495.7 1072.7
1041(33) 0.000918 495.6 1099.7
1086(33) 0.000896 495.6 1118.7
1121(34) 0.000881 495.5 1128.0
1147(34) 0.000845 495.4 1126.8
1141(35) 0.000840 495.3 1115.1
1075(34) 0.000875 495.3 1094.0
1045(33) 0.000941 495.2 1065.2
1019(32) 0.000970 495.1 1030.9
973(32) 0.000995 495.1 993.2
907(31) 0.001061 495.0 954.1
867(30) 0.001089 494.9 914.9
872(30) 0.001119 494.9 876.8
824(29) 0.001214 494.8 840.6
812(29) 0.001189 494.7 806.5
812(29) 0.001181 494.7 775.2
746(28) 0.001276 494.6 746.7
750(28) 0.001303 494.5 721.0
660(26) 0.001514 494.5 697.9
675(27) 0.001424 494.4 677.3
646(26) 0.001468 494.3 659.1
595(25) 0.001587 494.3 643.1
637(25) 0.001550 494.2 629.1
627(25) 0.001575 494.1 616.8
619(25) 0.001562 494.1 606.1
569(24) 0.001694 494.0 596.8
604(25) 0.001575 494.0 588.6
580(24) 0.001694 493.9 581.5
574(24) 0.001736 493.8 575.2
538(24) 0.001811 493.8 569.7
536(24) 0.001765 493.7 564.9
545(24) 0.001765 493.7 560.5
491(22) 0.001993 493.6 556.6
529(23) 0.001874 493.6 553.1
511(23) 0.001907 493.5 550.0
491(23) 0.001924 493.4 547.1
543(24) 0.001736 493.4 544.5
512(23) 0.001924 493.3 542.1
501(23) 0.001975 493.3 539.9
490(23) 0.001975 493.2 537.8
487(23) 0.001975 493.2 535.9
510(23) 0.001858 493.1 534.2
521(23) 0.001874 493.1 532.5
515(23) 0.001958 493.0 531.0
515(23) 0.001874 493.0 529.5
531(24) 0.001795 492.9 528.2
517(23) 0.001842 492.9 527.0
513(23) 0.001890 492.8 525.8
532(23) 0.001890 492.8 524.7
534(23) 0.001826 492.7 523.6
498(23) 0.001890 492.7 522.7
501(23) 0.001924 492.6 521.8
515(23) 0.001874 492.6 520.9
530(23) 0.001874 492.5 520.2
468(22) 0.002066 492.5 519.4
507(23) 0.001874 492.4 518.8
525(23) 0.001826 492.4 518.2
490(22) 0.001993 492.4 517.6
503(22) 0.001993 492.3 517.2
544(24) 0.001795 492.3 516.8
504(23) 0.001890 492.2 516.6
520(23) 0.001858 492.2 516.6
527(23) 0.001842 492.1 516.7
522(23) 0.001907 492.1 517.1
490(23) 0.001975 492.1 517.8
545(24) 0.001722 492.0 518.7
523(23) 0.001858 492.0 520.0
557(24) 0.001736 491.9 521.5
555(24) 0.001795 491.9 523.2
541(24) 0.001811 491.9 524.8
598(25) 0.001562 491.8 526.2
604(25) 0.001562 491.8 526.9
589(24) 0.001694 491.7 526.8
649(26) 0.001514 491.7 525.6
615(25) 0.001575 491.7 523.6
603(25) 0.001613 491.6 521.2
586(25) 0.001613 491.6 518.7
586(24) 0.001680 491.6 516.4
595(24) 0.001694 491.5 514.2
619(25) 0.001562 491.5 512.4
605(25) 0.001575 491.5 510.9
640(26) 0.001502 491.4 509.6
610(25) 0.001587 491.4 508.5
651(26) 0.001526 491.4 507.7
626(25) 0.001550 491.3 507.0
615(26) 0.001538 491.3 506.4
630(26) 0.001502 491.3 505.9
601(25) 0.001639 491.3 505.5
574(24) 0.001708 491.2 505.1
569(24) 0.001722 491.2 504.7
601(25) 0.001587 491.2 504.4
604(25) 0.001562 491.2 504.1
543(23) 0.001842 491.1 503.8
598(25) 0.001666 491.1 503.6
551(24) 0.001751 491.1 503.3
564(24) 0.001722 491.0 503.1
583(25) 0.001613 491.0 502.8
476(22) 0.002047 491.0 502.6
508(23) 0.001975 491.0 502.4
579(25) 0.001666 491.0 502.2
504(23) 0.001874 490.9 502.0
492(23) 0.001958 490.9 501.8
508(23) 0.001907 490.9 501.6
495(22) 0.002011 490.9 501.5
479(22) 0.002029 490.8 501.3
502(23) 0.001890 490.8 501.1
492(23) 0.001941 490.8 501.0
482(22) 0.002011 490.8 500.8
507(23) 0.001975 490.8 500.7
517(23) 0.001890 490.7 500.5
512(23) 0.001874 490.7 500.4
481(22) 0.001993 490.7 500.3
487(22) 0.001993 490.7 500.1
541(23) 0.001842 490.7 500.0
517(23) 0.001874 490.7 499.9
488(23) 0.001924 490.7 499.8
489(23) 0.001958 490.6 499.6
490(23) 0.001975 490.6 499.5
546(23) 0.001826 490.6 499.4
511(23) 0.001890 490.6 499.3
487(23) 0.001941 490.6 499.2
537(24) 0.001780 490.6 499.1
495(23) 0.001975 490.6 499.0
558(24) 0.001780 490.5 498.9
536(24) 0.001811 490.5 498.8
534(24) 0.001795 490.5 498.7
516(23) 0.001858 490.5 498.7
502(23) 0.001958 490.5 498.6
530(23) 0.001874 490.5 498.5
573(24) 0.001680 490.5 498.4
561(24) 0.001708 490.5 498.3
522(23) 0.001826 490.5 498.3
560(24) 0.001722 490.5 498.2
558(24) 0.001780 490.5 498.1
549(24) 0.001751 490.5 498.0
564(24) 0.001680 490.4 498.0
593(25) 0.001600 490.4 497.9
555(24) 0.001765 490.4 497.8
585(24) 0.001680 490.4 497.8
571(24) 0.001708 490.4 497.7
584(25) 0.001626 490.4 497.7
567(24) 0.001680 490.4 497.6
565(24) 0.001751 490.4 497.6
519(23) 0.001941 490.4 497.5
533(24) 0.001795 490.4 497.5
523(23) 0.001842 490.4 497.4
545(24) 0.001736 490.4 497.4
511(23) 0.001907 490.4 497.3
496(22) 0.002011 490.4 497.3
500(23) 0.001924 490.4 497.2
490(23) 0.001941 490.4 497.2
525(23) 0.001842 490.4 497.1
535(24) 0.001811 490.4 497.1
533(23) 0.001858 490.4 497.1
503(23) 0.001924 490.4 497.0
544(24) 0.001751 490.4 497.0
541(24) 0.001751 490.4 497.0
543(23) 0.001826 490.4 496.9
551(24) 0.001795 490.4 496.9
524(23) 0.001858 490.4 496.9
480(22) 0.002011 490.4 496.9
517(23) 0.001826 490.5 496.8
523(23) 0.001858 490.5 496.8
515(23) 0.001958 490.5 496.8
555(24) 0.001736 490.5 496.8
511(23) 0.001858 490.5 496.8
487(23) 0.001958 490.5 496.7
560(24) 0.001736 490.5 496.7
529(23) 0.001874 490.5 496.7
491(23) 0.001975 490.5 496.7
502(23) 0.001890 490.5 496.7
507(23) 0.001874 490.5 496.7
530(23) 0.001826 490.5 496.7
499(22) 0.002029 490.6 496.7
486(23) 0.001958 490.6 496.7
515(23) 0.001858 490.6 496.7
501(23) 0.001941 490.6 496.7
541(24) 0.001811 490.6 496.7
561(24) 0.001780 490.6 496.7
537(24) 0.001811 490.6 496.7
461(22) 0.002047 490.7 496.7
466(22) 0.002047 490.7 496.7
505(23) 0.001924 490.7 496.7
511(23) 0.001941 490.7 496.7
473(22) 0.002047 490.7 496.7
512(23) 0.001858 490.7 496.7
497(23) 0.001907 490.7 496.7
496(23) 0.001958 490.8 496.7
507(23) 0.001941 490.8 496.7
544(24) 0.001795 490.8 496.7
513(23) 0.001842 490.8 496.8
481(22) 0.001993 490.8 496.8
524(23) 0.001874 490.9 496.8
502(22) 0.002011 490.9 496.8
503(23) 0.001941 490.9 496.8
515(23) 0.001858 490.9 496.9
500(23) 0.001890 490.9 496.9
526(23) 0.001874 491.0 496.9
530(23) 0.001874 491.0 496.9
508(23) 0.001890 491.0 497.0
497(23) 0.001907 491.0 497.0
520(23) 0.001842 491.0 497.0
537(24) 0.001811 491.1 497.1
519(23) 0.001924 491.1 497.1
488(23) 0.001975 491.1 497.1
500(23) 0.001890 491.1 497.2
494(23) 0.001924 491.2 497.2
535(23) 0.001826 491.2 497.3
514(23) 0.001924 491.2 497.3
512(23) 0.001924 491.2 497.3
517(23) 0.001858 491.3 497.4
509(23) 0.001874 491.3 497.4
520(23) 0.001890 491.3 497.5
522(23) 0.001890 491.3 497.5
490(23) 0.001975 491.4 497.6
448(22) 0.002124 491.4 497.7
490(23) 0.001941 491.4 497.7
522(23) 0.001858 491.5 497.8
522(23) 0.001924 491.5 497.8
512(23) 0.001874 491.5 497.9
498(23) 0.001907 491.6 498.0
476(22) 0.001993 491.6 498.0
523(23) 0.001858 491.6 498.1
520(23) 0.001924 491.6 498.2
502(23) 0.001924 491.7 498.3
494(23) 0.001941 491.7 498.3
484(22) 0.001993 491.7 498.4
510(23) 0.001924 491.8 498.5
466(22) 0.002143 491.8 498.6
507(23) 0.001941 491.8 498.7
471(22) 0.001993 491.9 498.8
451(22) 0.002124 491.9 498.9
464(22) 0.002104 491.9 499.0
512(23) 0.001924 492.0 499.1
510(23) 0.001907 492.0 499.2
488(23) 0.001958 492.0 499.3
480(23) 0.001975 492.1 499.4
516(23) 0.001890 492.1 499.5
476(22) 0.002104 492.2 499.6
487(23) 0.001975 492.2 499.7
473(22) 0.001993 492.2 499.9
448(22) 0.002163 492.3 500.0
470(22) 0.002047 492.3 500.1
475(22) 0.002124 492.3 500.3
496(22) 0.001993 492.4 500.4
482(23) 0.001958 492.4 500.6
465(22) 0.002066 492.5 500.7
455(22) 0.002163 492.5 500.9
484(22) 0.002047 492.5 501.0
501(23) 0.001941 492.6 501.2
453(22) 0.002085 492.6 501.4
494(23) 0.001941 492.7 501.6
485(22) 0.002011 492.7 501.7
427(21) 0.002311 492.7 501.9
535(23) 0.001826 492.8 502.1
524(24) 0.001795 492.8 502.4
482(22) 0.001993 492.9 502.6
483(22) 0.002029 492.9 502.8
510(23) 0.001941 493.0 503.0
479(22) 0.002047 493.0 503.3
498(23) 0.001941 493.0 503.5
491(23) 0.001941 493.1 503.8
460(22) 0.002143 493.1 504.1
456(21) 0.002184 493.2 504.4
457(22) 0.002124 493.2 504.7
478(22) 0.001993 493.3 505.0
465(22) 0.002047 493.3 505.3
496(23) 0.001975 493.4 505.7
506(23) 0.001958 493.4 506.0
542(24) 0.001811 493.5 506.4
455(22) 0.002085 493.5 506.8
473(22) 0.001993 493.6 507.2
504(23) 0.001958 493.6 507.6
520(23) 0.001890 493.6 508.1
489(22) 0.001993 493.7 508.6
521(23) 0.001842 493.7 509.1
507(23) 0.001890 493.8 509.6
496(22) 0.002011 493.8 510.1
514(23) 0.001941 493.9 510.7
488(23) 0.001975 493.9 511.3
498(23) 0.001941 494.0 512.0
501(23) 0.001890 494.0 512.7
507(23) 0.001941 494.1 513.4
445(21) 0.002225 494.1 514.2
481(22) 0.002011 494.2 515.1
487(22) 0.001993 494.3 516.0
537(24) 0.001751 494.3 516.9
518(23) 0.001890 494.4 517.9
485(22) 0.002066 494.4 519.0
520(23) 0.001842 494.5 520.2
527(24) 0.001811 494.5 521.4
497(23) 0.001924 494.6 522.7
483(22) 0.002011 494.6 524.2
510(22) 0.001993 494.7 525.8
548(24) 0.001780 494.7 527.5
567(24) 0.001680 494.8 529.3
483(23) 0.001975 494.8 531.3
522(23) 0.001890 494.9 533.5
504(23) 0.001975 494.9 535.9
575(25) 0.001666 495.0 538.9
518(23) 0.001874 495.1 541.9
505(23) 0.001874 495.1 545.3
525(23) 0.001858 495.2 549.0
563(24) 0.001795 495.2 553.3
502(23) 0.001907 495.3 558.2
551(24) 0.001722 495.3 563.9
591(25) 0.001626 495.4 570.4
582(25) 0.001666 495.5 578.0
577(24) 0.001722 495.5 586.8
579(24) 0.001694 495.6 597.1
618(25) 0.001562 495.6 609.0
577(25) 0.001652 495.7 622.9
621(25) 0.001587 495.7 639.0
617(25) 0.001613 495.8 657.6
666(26) 0.001446 495.9 678.8
687(27) 0.001392 495.9 702.8
698(27) 0.001362 496.0 729.8
723(27) 0.001342 496.0 759.8
758(27) 0.001332 496.1 792.8
766(28) 0.001257 496.2 828.3
805(29) 0.001189 496.2 866.0
834(30) 0.001141 496.3 904.8
870(30) 0.001119 496.3 943.5
849(29) 0.001173 496.4 980.2
891(30) 0.001089 496.5 1012.5
893(31) 0.001054 496.5 1037.9
901(30) 0.001082 496.6 1053.9
912(30) 0.001082 496.7 1058.9
885(30) 0.001119 496.7 1052.3
894(30) 0.001096 496.8 1034.8
879(30) 0.001096 496.8 1008.3
813(30) 0.001149 496.9 975.3
787(28) 0.001257 497.0 938.6
743(27) 0.001332 497.0 899.9
777(29) 0.001231 497.1 861.3
780(28) 0.001240 497.2 824.0
773(29) 0.001231 497.2 788.9
718(27) 0.001342 497.3 756.5
703(26) 0.001435 497.4 727.1
674(27) 0.001424 497.4 700.7
610(25) 0.001550 497.5 677.2
643(26) 0.001491 497.6 656.5
618(25) 0.001587 497.6 638.5
611(25) 0.001626 497.7 622.9
602(25) 0.001639 497.7 609.4
589(25) 0.001626 497.8 597.8
560(24) 0.001694 497.9 587.9
574(24) 0.001722 497.9 579.4
595(25) 0.001652 498.0 572.1
640(26) 0.001502 498.1 565.9
594(25) 0.001613 498.1 560.5
565(24) 0.001680 498.2 555.8
531(23) 0.001842 498.3 551.7
552(24) 0.001795 498.3 548.2
532(24) 0.001811 498.4 545.0
512(23) 0.001858 498.5 542.2
578(25) 0.001639 498.6 539.6
558(24) 0.001736 498.6 537.4
523(23) 0.001890 498.7 535.3
502(23) 0.001958 498.8 533.5
534(24) 0.001795 498.8 531.8
560(24) 0.001708 498.9 530.2
514(23) 0.001907 499.0 528.8
486(22) 0.002029 499.0 527.5
549(24) 0.001780 499.1 526.2
517(23) 0.001842 499.2 525.1
543(24) 0.001736 499.2 524.1
542(23) 0.001826 499.3 523.1
500(23) 0.001975 499.4 522.3
542(24) 0.001765 499.5 521.4
531(24) 0.001811 499.5 520.7
548(24) 0.001722 499.6 520.0
544(24) 0.001780 499.7 519.3
521(23) 0.001907 499.7 518.7
537(24) 0.001795 499.8 518.1
569(24) 0.001680 499.9 517.6
527(23) 0.001826 499.9 517.1
544(24) 0.001811 500.0 516.6
504(22) 0.001993 500.1 516.2
537(24) 0.001811 500.2 515.7
543(24) 0.001751 500.2 515.4
523(23) 0.001826 500.3 515.0
515(23) 0.001890 500.4 514.7
543(24) 0.001811 500.4 514.3
538(24) 0.001811 500.5 514.1
514(23) 0.001842 500.6 513.8
533(24) 0.001780 500.7 513.5
519(23) 0.001907 500.7 513.3
531(23) 0.001826 500.8 513.1
507(23) 0.001924 500.9 512.8
549(24) 0.001751 501.0 512.6
536(24) 0.001736 501.0 512.5
510(23) 0.001941 501.1 512.3
532(23) 0.001874 501.2 512.1
579(25) 0.001666 501.2 512.0
566(24) 0.001708 501.3 511.8
554(24) 0.001722 501.4 511.7
530(23) 0.001842 501.5 511.6
608(25) 0.001639 501.5 511.5
560(24) 0.001722 501.6 511.3
562(24) 0.001694 501.7 511.2
579(25) 0.001639 501.8 511.2
565(24) 0.001736 501.8 511.1
536(23) 0.001842 501.9 511.0
554(24) 0.001751 502.0 510.9
626(26) 0.001526 502.1 510.9
580(25) 0.001613 502.1 510.8
576(24) 0.001708 502.2 510.7
569(24) 0.001736 502.3 510.7
522(23) 0.001858 502.4 510.6
484(22) 0.002011 502.4 510.6
516(23) 0.001858 502.5 510.6
521(23) 0.001890 502.6 510.5
494(22) 0.002011 502.7 510.5
511(23) 0.001907 502.7 510.5
516(23) 0.001842 502.8 510.5
507(23) 0.001874 502.9 510.5
504(23) 0.001941 503.0 510.5
504(23) 0.001975 503.0 510.4
530(24) 0.001811 503.1 510.4
499(23) 0.001924 503.2 510.4
498(23) 0.001907 503.3 510.4
530(23) 0.001826 503.3 510.4
475(22) 0.002085 503.4 510.5
502(23) 0.001941 503.5 510.5
488(23) 0.001924 503.6 510.5
502(23) 0.001941 503.7 510.5
485(22) 0.002029 503.7 510.5
497(22) 0.002011 503.8 510.5
484(22) 0.002029 503.9 510.5
524(23) 0.001826 504.0 510.6
501(23) 0.001890 504.0 510.6
506(23) 0.001941 504.1 510.6
500(23) 0.001975 504.2 510.7
543(24) 0.001780 504.3 510.7
516(23) 0.001858 504.3 510.7
530(24) 0.001811 504.4 510.8
515(23) 0.001874 504.5 510.8
490(22) 0.002029 504.6 510.8
524(23) 0.001842 504.6 510.9
501(23) 0.001890 504.7 510.9
557(24) 0.001708 504.8 511.0
552(24) 0.001765 504.9 511.0
467(22) 0.002143 505.0 511.1
549(24) 0.001780 505.0 511.1
558(24) 0.001708 505.1 511.2
560(24) 0.001736 505.2 511.2
553(24) 0.001765 505.3 511.3
524(23) 0.001890 505.3 511.3
498(23) 0.001941 505.4 511.4
513(23) 0.001858 505.5 511.4
554(24) 0.001722 505.6 511.5
568(24) 0.001722 505.6 511.5
555(24) 0.001795 505.7 511.6
572(24) 0.001680 505.8 511.7
550(24) 0.001736 505.9 511.7
534(24) 0.001795 506.0 511.8
540(24) 0.001780 506.0 511.9
557(24) 0.001795 506.1 511.9
539(24) 0.001795 506.2 512.0
548(24) 0.001736 506.3 512.1
573(24) 0.001694 506.3 512.1
565(24) 0.001722 506.4 512.2
557(24) 0.001795 506.5 512.3
526(23) 0.001874 506.6 512.4
537(24) 0.001751 506.7 512.4
543(24) 0.001765 506.7 512.5
520(23) 0.001890 506.8 512.6
571(24) 0.001736 506.9 512.7
488(22) 0.001993 507.0 512.7
519(23) 0.001842 507.0 512.8
514(23) 0.001842 507.1 512.9
511(23) 0.001907 507.2 513.0
510(23) 0.001958 507.3 513.1
519(23) 0.001858 507.3 513.1
535(24) 0.001795 507.4 513.2
541(24) 0.001765 507.5 513.3
538(23) 0.001826 507.6 513.4
507(23) 0.001975 507.7 513.5
537(24) 0.001811 507.7 513.6
572(24) 0.001694 507.8 513.7
561(24) 0.001708 507.9 513.7
566(24) 0.001694 508.0 513.8
543(23) 0.001858 508.0 513.9
592(25) 0.001639 508.1 514.0
595(25) 0.001587 508.2 514.1
563(24) 0.001708 508.3 514.2
526(23) 0.001842 508.4 514.3
554(24) 0.001780 508.4 514.4
542(24) 0.001780 508.5 514.5
551(24) 0.001751 508.6 514.6
556(24) 0.001708 508.7 514.7
536(23) 0.001826 508.7 514.8
559(24) 0.001795 508.8 514.9
559(24) 0.001722 508.9 515.0
522(23) 0.001842 509.0 515.1
544(24) 0.001795 509.0 515.2
534(24) 0.001811 509.1 515.3
502(22) 0.002011 509.2 515.4
501(23) 0.001924 509.3 515.5
543(24) 0.001751 509.3 515.6
583(25) 0.001652 509.4 515.7
520(23) 0.001874 509.5 515.9
529(23) 0.001858 509.6 516.0
502(23) 0.001941 509.7 516.1
480(23) 0.001975 509.7 516.2
465(22) 0.002066 509.8 516.3
489(22) 0.001993 509.9 516.4
542(23) 0.001826 510.0 516.6
480(22) 0.002047 510.0 516.7
498(23) 0.001907 510.1 516.8
495(23) 0.001924 510.2 516.9
506(23) 0.001941 510.3 517.0
504(22) 0.001993 510.3 517.2
494(23) 0.001958 510.4 517.3
515(23) 0.001858 510.5 517.4
483(23) 0.001975 510.6 517.6
481(22) 0.002029 510.6 517.7
462(22) 0.002163 510.7 517.8
468(22) 0.002066 510.8 518.0
498(23) 0.001907 510.9 518.1
483(22) 0.001993 510.9 518.2
490(22) 0.001993 511.0 518.4
470(22) 0.002104 511.1 518.5
450(22) 0.002163 511.2 518.7
508(23) 0.001874 511.2 518.8
532(24) 0.001795 511.3 519.0
496(22) 0.001993 511.4 519.1
471(22) 0.002104 511.5 519.3
511(23) 0.001924 511.5 519.5
468(22) 0.002066 511.6 519.6
507(23) 0.001874 511.7 519.8
480(22) 0.002047 511.7 519.9
505(23) 0.001958 511.8 520.1
495(23) 0.001958 511.9 520.3
469(22) 0.002047 512.0 520.5
455(22) 0.002085 512.0 520.6
429(21) 0.002289 512.1 520.8
518(23) 0.001924 512.2 521.0
532(24) 0.001795 512.3 521.2
456(22) 0.002104 512.3 521.4
458(22) 0.002085 512.4 521.6
484(22) 0.002047 512.5 521.8
502(23) 0.001975 512.5 522.0
449(22) 0.002163 512.6 522.2
464(22) 0.002085 512.7 522.4
479(22) 0.001993 512.8 522.6
482(22) 0.002047 512.8 522.8
502(22) 0.002011 512.9 523.1
508(23) 0.001874 513.0 523.3
482(22) 0.001993 513.0 523.5
492(23) 0.001941 513.1 523.8
495(23) 0.001958 513.2 524.0
489(22) 0.002029 513.3 524.3
525(23) 0.001842 513.3 524.6
478(22) 0.001993 513.4 524.8
458(22) 0.002085 513.5 525.1
505(23) 0.001924 513.5 525.4
479(22) 0.002104 513.6 525.7
518(23) 0.001874 513.7 526.0
502(23) 0.001924 513.8 526.3
506(23) 0.001907 513.8 526.6
551(24) 0.001780 513.9 527.0
538(23) 0.001874 514.0 527.3
531(23) 0.001826 514.0 527.7
559(24) 0.001708 514.1 528.0
548(24) 0.001751 514.2 528.4
561(24) 0.001736 514.2 528.8
561(24) 0.001795 514.3 529.2
540(24) 0.001780 514.4 529.6
536(24) 0.001765 514.4 530.1
559(24) 0.001736 514.5 530.5
529(23) 0.001842 514.6 531.0
543(23) 0.001826 514.6 531.5
535(24) 0.001811 514.7 532.0
516(23) 0.001842 514.8 532.5
503(23) 0.001907 514.8 533.1
486(22) 0.002047 514.9 533.7
511(23) 0.001941 515.0 534.3
529(23) 0.001842 515.0 534.9
514(23) 0.001890 515.1 535.6
501(23) 0.001907 515.2 536.3
530(23) 0.001842 515.2 537.5
492(22) 0.002047 515.3 538.3
523(23) 0.001842 515.4 539.1
492(23) 0.001941 515.4 540.0
534(24) 0.001795 515.5 540.9
531(24) 0.001811 515.6 541.8
539(23) 0.001874 515.6 542.8
526(23) 0.001826 515.7 543.9
519(24) 0.001811 515.8 545.0
511(23) 0.001890 515.8 546.2
567(24) 0.001722 515.9 547.5
522(23) 0.001924 516.0 548.9
529(23) 0.001842 516.0 550.3
542(24) 0.001751 516.1 551.9
538(23) 0.001826 516.2 553.5
560(24) 0.001765 516.2 555.3
566(24) 0.001751 516.3 557.2
560(24) 0.001722 516.3 559.3
564(24) 0.001722 516.4 561.5
507(23) 0.001874 516.5 563.9
578(24) 0.001680 516.5 566.5
543(23) 0.001842 516.6 569.4
533(24) 0.001811 516.7 572.5
507(23) 0.001874 516.7 575.9
535(24) 0.001795 516.8 579.6
538(24) 0.001795 516.8 583.7
538(23) 0.001842 516.9 588.2
550(24) 0.001780 517.0 593.1
534(24) 0.001780 517.0 598.6
592(25) 0.001613 517.1 604.8
579(24) 0.001708 517.1 611.7
604(25) 0.001652 517.2 619.4
560(24) 0.001751 517.3 628.2
632(26) 0.001526 517.3 638.3
627(26) 0.001502 517.4 649.9
662(26) 0.001502 517.4 663.6
674(26) 0.001479 517.5 679.9
685(27) 0.001382 517.6 699.6
678(26) 0.001435 517.6 724.0
726(28) 0.001322 517.7 754.6
815(29) 0.001181 517.7 793.6
760(28) 0.001322 517.8 843.4
888(31) 0.001075 517.8 906.9
922(31) 0.001027 517.9 987.6
1036(33) 0.000935 518.0 1088.6
1182(35) 0.000821 518.0 1213.0
1289(36) 0.000772 518. 1363.
1520(40) 0.000641 518. 1538.
1674(42) 0.000572 518. 1736.
1868(44) 0.000512 518. 1951.
2130(47) 0.000457 518. 2170.
2360(49) 0.000416 518. 2373.
2526(51) 0.000383 518. 2531.
2700(53) 0.000355 518. 2615.
2560(52) 0.000366 519. 2607.
2529(51) 0.000386 519. 2508.
2340(49) 0.000425 519. 2339.
2131(47) 0.000445 519. 2132.
1899(45) 0.000500 519. 1913.
1649(41) 0.000583 519. 1700.
1363(38) 0.000704 519. 1506.
1281(36) 0.000785 519. 1335.
1105(34) 0.000886 518.9 1190.6
1009(33) 0.000918 519.0 1070.7
912(31) 0.001075 519.1 973.7
840(29) 0.001173 519.1 896.4
838(29) 0.001173 519.2 835.6
841(29) 0.001165 519.2 788.2
781(29) 0.001231 519.3 751.1
726(28) 0.001313 519.3 721.8
711(27) 0.001382 519.4 698.5
698(27) 0.001424 519.4 679.6
614(25) 0.001562 519.5 664.0
654(26) 0.001457 519.5 650.9
646(26) 0.001479 519.6 639.8
637(26) 0.001526 519.6 630.1
616(25) 0.001600 519.7 621.7
572(24) 0.001708 519.7 614.2
584(25) 0.001639 519.7 607.6
604(25) 0.001587 519.8 601.8
581(24) 0.001694 519.8 596.5
589(24) 0.001694 519.9 591.8
656(26) 0.001491 519.9 587.6
575(25) 0.001666 520.0 583.7
570(24) 0.001680 520.0 580.2
611(25) 0.001626 520.1 577.1
621(25) 0.001575 520.1 574.2
613(25) 0.001575 520.2 571.6
589(25) 0.001639 520.2 569.2
536(24) 0.001765 520.3 566.9
562(24) 0.001736 520.3 564.9
579(24) 0.001736 520.3 563.0
607(25) 0.001550 520.4 561.3
572(24) 0.001694 520.4 559.7
569(24) 0.001680 520.5 558.3
610(25) 0.001575 520.5 556.9
574(24) 0.001765 520.6 555.6
636(26) 0.001526 520.6 554.5
597(25) 0.001600 520.7 553.4
573(24) 0.001694 520.7 552.3
567(24) 0.001708 520.7 551.4
587(24) 0.001694 520.8 550.5
585(25) 0.001666 520.8 549.7
559(24) 0.001694 520.9 548.9
543(24) 0.001751 520.9 548.2
554(24) 0.001765 520.9 547.5
597(25) 0.001666 521.0 546.9
608(25) 0.001587 521.0 546.3
583(25) 0.001626 521.1 545.8
584(25) 0.001652 521.1 545.3
610(25) 0.001587 521.1 544.8
634(25) 0.001575 521.2 544.3
561(24) 0.001736 521.2 543.9
623(26) 0.001526 521.3 543.5
604(25) 0.001613 521.3 543.1
596(25) 0.001639 521.3 542.8
602(25) 0.001652 521.4 542.5
598(25) 0.001639 521.4 542.2
618(26) 0.001538 521.4 541.9
583(25) 0.001652 521.5 541.6
614(25) 0.001587 521.5 541.4
573(24) 0.001722 521.5 541.1
589(25) 0.001652 521.6 540.9
567(24) 0.001694 521.6 540.7
606(25) 0.001562 521.6 540.5
615(25) 0.001575 521.7 540.4
601(24) 0.001680 521.7 540.2
616(25) 0.001550 521.7 540.0
622(26) 0.001538 521.8 539.9
559(24) 0.001736 521.8 539.8
630(26) 0.001526 521.8 539.7
607(25) 0.001666 521.9 539.6
610(25) 0.001600 521.9 539.5
618(26) 0.001514 521.9 539.4
590(25) 0.001639 522.0 539.3
589(25) 0.001666 522.0 539.3
588(25) 0.001666 522.0 539.2
582(24) 0.001680 522.1 539.2
608(25) 0.001575 522.1 539.1
580(25) 0.001639 522.1 539.1
548(24) 0.001765 522.2 539.1
602(25) 0.001652 522.2 539.0
599(25) 0.001587 522.2 539.0
614(25) 0.001562 522.2 539.0
565(24) 0.001708 522.3 539.0
608(25) 0.001600 522.3 539.0
583(24) 0.001708 522.3 539.1
595(25) 0.001652 522.3 539.1
580(25) 0.001626 522.4 539.1
596(25) 0.001613 522.4 539.2
613(25) 0.001613 522.4 539.2
614(25) 0.001613 522.4 539.3
578(24) 0.001680 522.5 539.3
590(25) 0.001613 522.5 539.4
616(26) 0.001538 522.5 539.4
564(24) 0.001736 522.5 539.5
614(25) 0.001613 522.6 539.6
615(25) 0.001562 522.6 539.7
603(25) 0.001587 522.6 539.8
636(26) 0.001491 522.6 539.9
589(24) 0.001680 522.7 540.0
617(25) 0.001613 522.7 540.1
593(25) 0.001626 522.7 540.2
657(26) 0.001457 522.7 540.3
682(27) 0.001413 522.7 540.5
645(26) 0.001514 522.8 540.6
700(27) 0.001424 522.8 540.7
652(26) 0.001479 522.8 540.9
632(26) 0.001526 522.8 541.0
625(26) 0.001514 522.8 541.2
631(25) 0.001562 522.9 541.4
614(25) 0.001613 522.9 541.5
653(26) 0.001479 522.9 541.7
653(26) 0.001468 522.9 541.9
662(26) 0.001435 522.9 542.1
656(26) 0.001468 523.0 542.3
637(25) 0.001575 523.0 542.5
609(25) 0.001587 523.0 542.8
637(26) 0.001491 523.0 543.0
640(26) 0.001502 523.0 543.2
644(26) 0.001514 523.0 543.5
666(26) 0.001502 523.0 543.7
636(26) 0.001538 523.1 544.0
642(26) 0.001479 523.1 544.2
595(25) 0.001613 523.1 544.5
625(25) 0.001575 523.1 544.8
584(24) 0.001680 523.1 545.1
616(25) 0.001562 523.1 545.4
642(26) 0.001491 523.1 545.8
667(26) 0.001446 523.1 546.1
639(26) 0.001526 523.2 546.4
587(24) 0.001680 523.2 546.8
606(25) 0.001587 523.2 547.2
596(25) 0.001600 523.2 547.6
612(25) 0.001575 523.2 547.9
614(25) 0.001587 523.2 548.4
606(25) 0.001639 523.2 548.8
605(25) 0.001626 523.2 549.2
610(25) 0.001562 523.2 549.7
609(25) 0.001587 523.2 550.2
573(24) 0.001708 523.3 550.7
619(25) 0.001587 523.3 551.2
622(25) 0.001575 523.3 551.7
611(25) 0.001550 523.3 552.2
606(25) 0.001562 523.3 552.8
610(25) 0.001626 523.3 553.4
582(24) 0.001694 523.3 554.0
589(25) 0.001626 523.3 554.7
638(26) 0.001491 523.3 555.3
593(25) 0.001587 523.3 556.0
599(25) 0.001652 523.3 556.8
587(24) 0.001694 523.3 557.5
602(25) 0.001613 523.3 558.3
577(25) 0.001652 523.3 559.1
624(25) 0.001562 523.3 559.9
625(25) 0.001562 523.3 560.8
585(24) 0.001680 523.3 561.8
612(25) 0.001600 523.3 562.7
621(25) 0.001550 523.3 563.7
611(26) 0.001538 523.3 564.8
594(25) 0.001666 523.3 565.9
618(25) 0.001587 523.3 567.1
585(25) 0.001652 523.3 568.3
611(25) 0.001562 523.3 569.5
622(26) 0.001514 523.3 570.9
564(24) 0.001722 523.3 572.3
573(24) 0.001751 523.3 573.8
584(25) 0.001652 523.3 575.3
640(26) 0.001491 523.3 576.9
622(26) 0.001526 523.3 578.7
595(25) 0.001666 523.3 580.5
590(24) 0.001694 523.3 582.4
594(25) 0.001626 523.3 584.6
600(25) 0.001613 523.3 586.8
590(25) 0.001613 523.3 589.1
591(25) 0.001666 523.3 591.5
613(25) 0.001626 523.3 594.0
619(26) 0.001538 523.3 596.8
627(26) 0.001538 523.3 599.7
598(25) 0.001600 523.3 602.7
597(25) 0.001626 523.2 606.0
596(25) 0.001666 523.2 609.6
681(27) 0.001413 523.2 613.4
659(26) 0.001457 523.2 617.4
647(26) 0.001479 523.2 621.8
628(25) 0.001550 523.2 626.5
644(25) 0.001550 523.2 631.6
639(26) 0.001526 523.2 637.0
671(27) 0.001424 523.2 643.0
667(26) 0.001435 523.2 649.4
655(26) 0.001502 523.1 656.5
671(26) 0.001491 523.1 664.1
709(27) 0.001362 523.1 672.5
743(28) 0.001276 523.1 681.8
736(28) 0.001303 523.1 692.0
724(27) 0.001342 523.1 703.2
762(28) 0.001313 523.1 715.7
735(28) 0.001303 523.1 729.6
811(29) 0.001173 523.0 745.1
795(29) 0.001197 523.0 762.6
832(29) 0.001173 523.0 782.5
795(28) 0.001249 523.0 805.4
826(29) 0.001173 523.0 832.0
908(31) 0.001047 523.0 863.4
929(31) 0.001047 522.9 901.2
1011(32) 0.000964 522.9 947.4
1017(32) 0.000977 522.9 1004.8
1148(34) 0.000850 522.9 1077.0
1260(37) 0.000751 523. 1168.
1359(38) 0.000704 523. 1285.
1437(38) 0.000678 523. 1432.
1627(41) 0.000607 523. 1615.
1746(43) 0.000551 523. 1841.
2051(47) 0.000462 523. 2112.
2245(49) 0.000416 523. 2432.
2689(53) 0.000359 523. 2797.
3078(56) 0.0003200 523. 3198.
3474(60) 0.0002769 523. 3617.
3950(65) 0.0002367 523. 4022.
4226(67) 0.0002234 523. 4365.
4584(69) 0.0002113 523. 4593.
4523(68) 0.0002163 523. 4660.
4307(67) 0.0002201 523. 4552.
4173(67) 0.0002261 523. 4294.
3743(63) 0.0002536 523. 3937.
3408(59) 0.0002844 522. 3535.
2965(55) 0.0003318 522. 3131.
2589(52) 0.000368 522. 2751.
2241(49) 0.000425 522. 2412.
1947(45) 0.000487 522. 2121.
1835(44) 0.000524 522. 1878.
1605(40) 0.000613 522. 1682.
1564(40) 0.000613 522. 1529.
1375(38) 0.000696 522. 1413.
1248(36) 0.000772 522. 1329.
1262(36) 0.000767 522. 1271.
1254(36) 0.000793 522. 1237.
1228(35) 0.000798 522. 1223.
1240(36) 0.000763 522. 1228.
1210(36) 0.000780 522. 1252.
1261(36) 0.000789 522. 1296.
1409(38) 0.000700 522. 1363.
1418(38) 0.000682 522. 1456.
1486(39) 0.000644 522. 1577.
1597(41) 0.000586 522. 1731.
1727(42) 0.000564 522. 1918.
2025(45) 0.000487 522. 2140.
2321(50) 0.000408 522. 2394.
2491(52) 0.000377 522. 2677.
2845(54) 0.0003379 522. 2975.
3125(57) 0.0003067 522. 3271.
3349(59) 0.0002922 522. 3535.
3623(61) 0.0002679 522. 3731.
3824(64) 0.0002434 522. 3825.
3738(63) 0.0002544 522. 3798.
3624(61) 0.0002687 522. 3652.
3467(60) 0.0002787 522. 3416.
3125(57) 0.0003111 521. 3124.
2709(54) 0.0003494 521. 2812.
2404(51) 0.000392 521. 2505.
2125(47) 0.000457 521. 2217.
1862(44) 0.000528 521. 1959.
1681(42) 0.000575 521. 1733.
1447(39) 0.000654 521. 1541.
1331(38) 0.000707 521. 1381.
1244(36) 0.000789 521. 1248.
1087(33) 0.000907 521.1 1140.8
1019(33) 0.000947 521.1 1054.3
986(32) 0.000964 521.0 984.8
942(32) 0.001008 521.0 928.9
876(30) 0.001111 520.9 883.7
869(30) 0.001149 520.9 846.6
805(29) 0.001189 520.8 816.0
774(29) 0.001231 520.8 790.1
715(27) 0.001352 520.8 768.1
725(27) 0.001332 520.7 749.0
737(27) 0.001342 520.7 732.3
704(27) 0.001382 520.6 717.5
673(27) 0.001403 520.6 704.3
674(27) 0.001403 520.5 692.5
677(26) 0.001446 520.5 681.8
651(26) 0.001502 520.4 672.2
650(26) 0.001479 520.4 663.4
653(26) 0.001468 520.3 655.4
616(25) 0.001550 520.3 648.0
666(26) 0.001457 520.2 641.3
662(26) 0.001514 520.2 635.1
636(26) 0.001514 520.1 629.4
659(26) 0.001446 520.1 624.1
611(25) 0.001562 520.0 619.2
658(26) 0.001479 520.0 614.7
699(27) 0.001424 519.9 610.5
636(26) 0.001514 519.9 606.5
606(25) 0.001575 519.8 602.8
642(26) 0.001479 519.8 599.4
626(26) 0.001538 519.7 596.2
596(25) 0.001666 519.7 593.1
584(25) 0.001652 519.6 590.3
618(26) 0.001514 519.6 587.6
623(26) 0.001538 519.5 585.1
601(25) 0.001626 519.4 582.7
573(24) 0.001722 519.4 580.5
604(25) 0.001600 519.3 578.3
626(26) 0.001538 519.3 576.3
590(25) 0.001600 519.2 574.4
568(24) 0.001722 519.2 572.6
532(23) 0.001874 519.1 570.9
574(25) 0.001666 519.1 569.2
551(24) 0.001736 519.0 567.6
519(23) 0.001858 518.9 566.2
544(24) 0.001751 518.9 564.7
538(23) 0.001858 518.8 563.4
581(25) 0.001666 518.8 562.1
558(24) 0.001680 518.7 560.8
563(24) 0.001694 518.6 559.6
539(24) 0.001811 518.6 558.5
535(23) 0.001842 518.5 557.4
553(24) 0.001765 518.5 556.3
574(25) 0.001652 518.4 555.3
600(25) 0.001600 518.3 554.3
592(25) 0.001652 518.3 553.4
638(25) 0.001562 518.2 552.5
620(26) 0.001538 518.1 551.6
635(26) 0.001514 518.1 550.8
627(26) 0.001526 518.0 550.0
654(26) 0.001479 517.9 549.2
701(26) 0.001435 517.9 548.4
675(27) 0.001424 517.8 547.7
653(26) 0.001446 517.7 547.0
676(27) 0.001424 517.7 546.3
644(26) 0.001502 517.6 545.7
673(26) 0.001457 517.5 545.0
601(25) 0.001613 517.5 544.4
588(25) 0.001626 517.4 543.8
600(25) 0.001587 517.3 543.2
583(25) 0.001666 517.3 542.6
649(25) 0.001550 517.2 542.1
622(25) 0.001550 517.1 541.3
582(25) 0.001639 517.1 540.8
580(25) 0.001639 517.0 540.3
536(24) 0.001811 516.9 539.8
553(23) 0.001826 516.9 539.3
549(24) 0.001751 516.8 538.8
539(24) 0.001751 516.7 538.4
520(23) 0.001858 516.6 538.0
518(23) 0.001842 516.6 537.5
551(24) 0.001811 516.5 537.1
517(23) 0.001874 516.4 536.7
540(24) 0.001751 516.4 536.3
550(24) 0.001736 516.3 535.9
543(24) 0.001811 516.2 535.5
518(23) 0.001907 516.1 535.1
509(23) 0.001907 516.1 534.8
471(22) 0.002047 516.0 534.4
498(23) 0.001907 515.9 534.0
524(23) 0.001858 515.8 533.7
491(22) 0.002047 515.8 533.4
494(23) 0.001941 515.7 533.0
508(23) 0.001890 515.6 532.7
506(23) 0.001907 515.5 532.4
524(23) 0.001842 515.4 532.1
514(23) 0.001958 515.4 531.8
499(23) 0.001924 515.3 531.5
525(24) 0.001795 515.2 531.2
510(23) 0.001874 515.1 530.9
519(23) 0.001874 515.1 530.6
488(22) 0.002029 515.0 530.3
480(22) 0.002011 514.9 530.0
564(24) 0.001694 514.8 529.8
496(23) 0.001924 514.7 529.5
502(23) 0.001958 514.6 529.2
497(22) 0.002011 514.6 529.0
483(22) 0.001993 514.5 528.7
475(22) 0.002029 514.4 528.5
550(24) 0.001736 514.3 528.2
491(22) 0.002011 514.2 528.0
507(23) 0.001958 514.2 527.8
547(24) 0.001751 514.1 527.5
525(23) 0.001826 514.0 527.3
505(23) 0.001874 513.9 527.1
478(22) 0.002029 513.8 526.8
466(22) 0.002143 513.7 526.6
499(23) 0.001907 513.6 526.4
518(23) 0.001842 513.6 526.2
466(22) 0.002066 513.5 526.0
505(23) 0.001907 513.4 525.7
541(23) 0.001842 513.3 525.5
517(23) 0.001890 513.2 525.3
501(23) 0.001890 513.1 525.1
517(23) 0.001842 513.0 524.9
534(23) 0.001842 513.0 524.7
470(22) 0.002124 512.9 524.5
533(24) 0.001811 512.8 524.3
539(24) 0.001765 512.7 524.1
519(23) 0.001842 512.6 523.9
502(23) 0.001924 512.5 523.7
539(23) 0.001858 512.4 523.5
523(23) 0.001826 512.3 523.4
514(23) 0.001842 512.2 523.2
508(23) 0.001890 512.1 523.0
516(23) 0.001890 512.1 522.8
543(24) 0.001811 512.0 522.7
498(23) 0.001958 511.9 522.5
505(23) 0.001890 511.8 522.3
566(24) 0.001694 511.7 522.1
556(24) 0.001751 511.6 522.0
551(24) 0.001795 511.5 521.8
573(24) 0.001694 511.4 521.6
557(24) 0.001736 511.3 521.4
562(24) 0.001694 511.2 521.3
525(23) 0.001858 511.1 521.1
548(24) 0.001811 511.0 520.9
593(25) 0.001626 510.9 520.8
617(26) 0.001538 510.8 520.6
538(24) 0.001780 510.7 520.5
540(24) 0.001795 510.6 520.3
573(24) 0.001736 510.5 520.1
577(24) 0.001680 510.4 520.0
594(25) 0.001587 510.4 519.8
613(25) 0.001562 510.3 519.7
570(24) 0.001722 510.2 519.5
560(24) 0.001765 510.1 519.3
563(24) 0.001722 510.0 519.2
532(24) 0.001811 509.9 519.0
521(23) 0.001842 509.8 518.9
562(24) 0.001722 509.7 518.7
506(23) 0.001975 509.6 518.6
485(22) 0.001993 509.5 518.4
505(23) 0.001874 509.4 518.3
488(23) 0.001958 509.3 518.1
535(24) 0.001811 509.2 518.0
489(22) 0.002029 509.1 517.8
481(22) 0.002029 509.0 517.7
488(23) 0.001924 508.9 517.5
527(23) 0.001826 508.8 517.4
511(23) 0.001907 508.7 517.3
481(22) 0.002066 508.5 517.1
524(23) 0.001858 508.4 517.0
501(23) 0.001924 508.3 516.8
498(23) 0.001890 508.2 516.7
495(22) 0.001993 508.1 516.5
468(22) 0.002143 508.0 516.4
485(22) 0.001993 507.9 516.3
501(23) 0.001890 507.8 516.1
500(23) 0.001924 507.7 516.0
505(23) 0.001907 507.6 515.8
512(23) 0.001941 507.5 515.7
551(24) 0.001751 507.4 515.6
517(23) 0.001826 507.3 515.4
486(23) 0.001975 507.2 515.3
485(22) 0.002029 507.1 515.2
534(23) 0.001842 507.0 515.0
548(24) 0.001795 506.9 514.9
548(24) 0.001736 506.8 514.7
513(23) 0.001874 506.7 514.6
514(23) 0.001907 506.5 514.5
575(24) 0.001722 506.4 514.3
514(23) 0.001890 506.3 514.2
511(23) 0.001874 506.2 514.1
539(24) 0.001780 506.1 513.9
514(23) 0.001890 506.0 513.8
535(23) 0.001858 505.9 513.7
510(23) 0.001907 505.8 513.5
483(23) 0.001941 505.7 513.4
533(24) 0.001795 505.6 513.3
515(23) 0.001890 505.4 513.2
538(23) 0.001842 505.3 513.0
531(23) 0.001826 505.2 512.9
503(23) 0.001890 505.1 512.8
524(23) 0.001826 505.0 512.6
530(23) 0.001858 504.9 512.5
513(23) 0.001941 504.8 512.4
506(23) 0.001924 504.7 512.2
479(22) 0.001993 504.5 512.1
496(23) 0.001924 504.4 512.0
506(23) 0.001941 504.3 511.9
475(22) 0.002085 504.2 511.7
516(23) 0.001874 504.1 511.6
511(23) 0.001874 504.0 511.5
510(23) 0.001858 503.9 511.4
526(23) 0.001874 503.7 511.2
571(24) 0.001722 503.6 511.1
563(24) 0.001722 503.5 511.0
551(24) 0.001751 503.4 510.9
530(24) 0.001780 503.3 510.7
548(24) 0.001780 503.2 510.6
549(23) 0.001842 503.1 510.5
541(24) 0.001765 502.9 510.4
566(24) 0.001708 502.8 510.2
576(25) 0.001652 502.7 510.1
549(24) 0.001765 502.6 510.0
543(23) 0.001842 502.5 509.9
537(24) 0.001811 502.4 509.7
522(24) 0.001811 502.2 509.6
536(24) 0.001780 502.1 509.5
511(23) 0.001924 502.0 509.4
507(23) 0.001941 501.9 509.2
551(24) 0.001736 501.8 509.1
487(23) 0.001975 501.6 509.0
501(23) 0.001874 501.5 508.9
511(23) 0.001924 501.4 508.8
545(23) 0.001826 501.3 508.6
519(23) 0.001858 501.2 508.5
497(23) 0.001941 501.0 508.4
515(23) 0.001858 500.9 508.3
504(23) 0.001924 500.8 508.2
555(24) 0.001780 500.7 508.0
517(23) 0.001890 500.6 507.9
521(24) 0.001811 500.4 507.8
514(23) 0.001842 500.3 507.7
548(24) 0.001795 500.2 507.6
540(23) 0.001842 500.1 507.4
520(23) 0.001842 499.9 507.3
545(24) 0.001765 499.8 507.1
548(24) 0.001722 499.7 507.0
577(24) 0.001694 499.6 506.9
572(24) 0.001736 499.5 506.8
535(24) 0.001811 499.3 506.7
544(24) 0.001765 499.2 506.6
523(23) 0.001842 499.1 506.4
516(23) 0.001907 499.0 506.3
551(23) 0.001826 498.8 506.2
553(24) 0.001736 498.7 506.1
484(23) 0.001975 498.6 506.0
514(23) 0.001874 498.5 505.9
535(24) 0.001811 498.3 505.7
510(23) 0.001958 498.2 505.6
469(22) 0.002047 498.1 505.5
489(23) 0.001958 498.0 505.4
483(23) 0.001975 497.8 505.3
518(23) 0.001858 497.7 505.2
562(24) 0.001765 497.6 505.0
493(23) 0.001975 497.5 504.9
493(23) 0.001907 497.3 504.8
502(23) 0.001924 497.2 504.7
513(23) 0.001907 497.1 504.6
503(22) 0.001993 496.9 504.5
451(22) 0.002163 496.8 504.4
439(21) 0.002184 496.7 504.2
486(23) 0.001941 496.6 504.1
463(22) 0.002124 496.4 504.0
479(22) 0.002066 496.3 503.9
499(23) 0.001941 496.2 503.8
480(23) 0.001975 496.0 503.7
478(22) 0.001993 495.9 503.6
505(23) 0.001941 495.8 503.5
460(22) 0.002124 495.7 503.4
461(22) 0.002085 495.5 503.2
451(22) 0.002104 495.4 503.1
472(22) 0.002029 495.3 503.0
491(23) 0.001975 495.1 502.9
496(22) 0.002029 495.0 502.8
482(22) 0.002011 494.9 502.7
495(23) 0.001941 494.8 502.6
482(22) 0.002011 494.6 502.5
499(23) 0.001958 494.5 502.4
515(23) 0.001907 494.4 502.3
479(22) 0.002047 494.2 502.2
477(22) 0.001993 494.1 501.9
514(23) 0.001842 494.0 501.8
485(22) 0.002029 493.8 501.7
472(22) 0.002104 493.7 501.6
476(22) 0.002011 493.6 501.5
476(22) 0.002011 493.4 501.4
489(23) 0.001924 493.3 501.3
477(22) 0.002066 493.2 501.1
462(22) 0.002124 493.0 501.0
447(21) 0.002184 492.9 500.9
490(23) 0.001941 492.8 500.8
429(21) 0.002225 492.6 500.7
471(22) 0.002104 492.5 500.6
452(21) 0.002204 492.4 500.5
477(22) 0.001993 492.2 500.4
468(22) 0.002066 492.1 500.3
488(23) 0.001941 492.0 500.2
491(23) 0.001958 491.8 500.1
516(23) 0.001958 491.7 500.0
476(22) 0.002011 491.6 499.9
475(22) 0.002011 491.4 499.8
486(23) 0.001975 491.3 499.7
448(22) 0.002143 491.2 499.6
491(22) 0.002029 491.0 499.5
470(22) 0.002066 490.9 499.4
485(23) 0.001924 490.8 499.3
480(22) 0.002011 490.6 499.3
474(22) 0.002066 490.5 499.2
470(22) 0.002124 490.4 499.1
456(22) 0.002163 490.2 499.0
462(22) 0.002066 490.1 498.9
495(23) 0.001924 490.0 498.8
480(22) 0.002047 489.8 498.7
468(22) 0.002104 489.7 498.6
475(22) 0.002029 489.6 498.5
467(22) 0.002047 489.4 498.4
458(22) 0.002085 489.3 498.3
469(22) 0.002085 489.1 498.2
455(21) 0.002184 489.0 498.2
453(22) 0.002124 488.9 498.1
486(23) 0.001958 488.7 498.0
498(23) 0.001924 488.6 497.9
468(22) 0.002085 488.5 497.8
491(22) 0.001993 488.3 497.7
459(22) 0.002143 488.2 497.6
485(22) 0.001993 488.1 497.6
448(22) 0.002124 487.9 497.5
467(22) 0.002124 487.8 497.4
453(21) 0.002184 487.6 497.3
490(23) 0.001958 487.5 497.2
464(22) 0.002066 487.4 497.1
436(22) 0.002163 487.2 497.1
443(21) 0.002184 487.1 497.0
500(22) 0.002011 487.0 496.9
455(22) 0.002104 486.8 496.8
451(22) 0.002104 486.7 496.8
487(23) 0.001975 486.5 496.7
534(24) 0.001811 486.4 496.6
457(22) 0.002163 486.3 496.5
441(21) 0.002204 486.1 496.5
472(22) 0.002011 486.0 496.4
469(22) 0.002047 485.8 496.3
505(23) 0.001975 485.7 496.3
478(22) 0.002066 485.6 496.2
493(23) 0.001958 485.4 496.1
436(21) 0.002204 485.3 496.1
493(23) 0.001924 485.2 496.0
499(23) 0.001958 485.0 495.9
442(21) 0.002246 484.9 495.9
488(23) 0.001958 484.7 495.8
497(23) 0.001941 484.6 495.8
495(23) 0.001924 484.5 495.7
517(23) 0.001874 484.3 495.7
483(22) 0.002066 484.2 495.6
456(22) 0.002124 484.0 495.5
452(22) 0.002085 483.9 495.5
489(23) 0.001958 483.8 495.4
451(22) 0.002163 483.6 495.4
502(22) 0.001993 483.5 495.4
468(22) 0.002104 483.3 495.3
514(23) 0.001842 483.2 495.3
467(22) 0.002047 483.1 495.2
510(23) 0.001941 482.9 495.2
479(22) 0.002029 482.8 495.1
474(22) 0.002029 482.6 495.1
452(22) 0.002124 482.5 495.1
448(22) 0.002104 482.4 495.0
490(22) 0.001993 482.2 495.0
529(23) 0.001890 482.1 495.0
466(22) 0.002047 481.9 495.0
462(22) 0.002066 481.8 494.9
492(23) 0.001958 481.7 494.9
436(21) 0.002204 481.5 494.9
475(22) 0.002085 481.4 494.9
486(22) 0.002011 481.2 494.9
498(23) 0.001907 481.1 494.9
455(22) 0.002124 481.0 494.8
475(22) 0.002047 480.8 494.8
483(22) 0.002066 480.7 494.8
447(22) 0.002163 480.5 494.8
509(23) 0.001858 480.4 494.8
444(22) 0.002143 480.3 494.8
521(23) 0.001874 480.1 494.8
527(23) 0.001874 480.0 494.9
534(23) 0.001826 479.8 494.9
528(24) 0.001795 479.7 494.9
511(23) 0.001874 479.6 494.9
499(23) 0.001958 479.4 494.9
522(23) 0.001890 479.3 495.0
523(23) 0.001842 479.1 495.0
548(24) 0.001751 479.0 495.0
484(22) 0.002011 478.9 495.1
509(23) 0.001941 478.7 495.1
545(23) 0.001826 478.6 495.2
476(22) 0.002047 478.4 495.2
475(22) 0.001993 478.3 495.3
508(23) 0.001890 478.2 495.4
492(23) 0.001975 478.0 495.4
497(23) 0.001975 477.9 495.5
485(22) 0.001993 477.7 495.6
502(23) 0.001924 477.6 495.7
478(22) 0.001993 477.4 495.8
509(23) 0.001907 477.3 495.9
526(23) 0.001874 477.2 496.0
495(23) 0.001958 477.0 496.1
489(23) 0.001941 476.9 496.2
483(23) 0.001975 476.7 496.4
470(22) 0.002085 476.6 496.5
462(22) 0.002163 476.5 496.7
490(22) 0.002011 476.3 496.8
466(22) 0.002066 476.2 497.0
457(22) 0.002085 476.0 497.2
453(22) 0.002163 475.9 497.4
433(21) 0.002311 475.8 497.6
478(22) 0.002011 475.6 497.8
479(23) 0.001975 475.5 498.0
509(23) 0.001907 475.3 498.2
456(22) 0.002143 475.2 498.5
450(21) 0.002204 475.1 498.8
445(22) 0.002163 474.9 499.1
445(22) 0.002143 474.8 499.4
432(21) 0.002184 474.6 499.7
473(22) 0.002066 474.5 500.0
463(22) 0.002143 474.4 500.4
480(22) 0.002029 474.2 500.7
445(21) 0.002184 474.1 501.1
499(23) 0.001941 473.9 501.6
504(23) 0.001924 473.8 502.0
463(22) 0.002163 473.7 502.5
481(22) 0.002029 473.5 503.0
468(22) 0.002029 473.4 503.5
469(22) 0.002029 473.2 504.1
462(22) 0.002124 473.1 504.7
471(22) 0.002104 473.0 505.3
447(22) 0.002163 472.8 506.0
500(23) 0.001924 472.7 506.8
497(23) 0.001907 472.5 507.5
463(22) 0.002104 472.4 508.4
461(22) 0.002163 472.3 509.3
486(22) 0.001993 472.1 510.2
482(22) 0.001993 472.0 511.3
494(23) 0.001941 471.8 512.4
457(22) 0.002163 471.7 513.6
491(22) 0.002011 471.6 514.9
486(22) 0.001993 471.4 516.3
472(22) 0.002029 471.3 517.8
478(22) 0.002011 471.1 519.4
480(22) 0.002011 471.0 521.2
487(22) 0.002047 470.9 523.1
484(22) 0.001993 470.7 525.2
502(23) 0.001890 470.6 527.5
502(23) 0.001924 470.4 530.1
513(23) 0.001890 470.3 532.8
515(23) 0.001924 470.2 535.9
518(23) 0.001874 470.0 539.3
526(24) 0.001795 469.9 543.1
485(23) 0.001975 469.8 547.4
537(24) 0.001811 469.6 552.1
540(23) 0.001858 469.5 557.5
529(23) 0.001858 469.3 563.5
584(25) 0.001639 469.2 570.5
561(24) 0.001708 469.1 578.6
547(24) 0.001811 468.9 588.1
581(24) 0.001694 468.8 599.4
646(26) 0.001502 468.7 613.4
623(26) 0.001538 468.5 630.8
650(26) 0.001457 468.4 653.1
691(27) 0.001424 468.2 682.2
747(28) 0.001322 468.1 720.2
801(29) 0.001189 468.0 770.1
851(30) 0.001134 467.8 834.8
913(31) 0.001041 467.7 917.5
1015(32) 0.000953 467.6 1020.9
1142(34) 0.000865 467.4 1146.6
1317(37) 0.000742 467. 1294.
1435(39) 0.000661 467. 1461.
1600(41) 0.000604 467. 1640.
1797(43) 0.000546 467. 1818.
1929(44) 0.000510 467. 1974.
2069(46) 0.000471 467. 2084.
2120(47) 0.000445 466. 2122.
2117(47) 0.000447 466. 2081.
2003(45) 0.000489 466. 1970.
1850(43) 0.000531 466. 1813.
1555(40) 0.000622 466. 1636.
1450(39) 0.000657 466. 1458.
1246(37) 0.000751 466. 1293.
1087(34) 0.000891 465.5 1146.5
961(31) 0.001034 465.4 1022.6
927(31) 0.001027 465.2 920.9
878(30) 0.001089 465.1 839.8
789(29) 0.001231 465.0 776.6
741(28) 0.001313 464.8 728.1
645(25) 0.001550 464.7 691.4
704(27) 0.001382 464.6 663.6
603(25) 0.001575 464.4 642.5
625(26) 0.001538 464.3 626.2
578(24) 0.001694 464.2 613.5
608(25) 0.001613 464.0 603.3
593(25) 0.001639 463.9 595.1
581(25) 0.001652 463.8 588.3
529(24) 0.001795 463.6 582.7
541(24) 0.001811 463.5 578.1
569(24) 0.001722 463.4 574.3
546(24) 0.001780 463.2 571.3
547(24) 0.001736 463.1 568.9
540(24) 0.001751 463.0 567.1
586(24) 0.001694 462.8 565.5
560(24) 0.001780 462.7 564.7
548(24) 0.001780 462.6 564.4
564(24) 0.001694 462.4 564.6
552(24) 0.001736 462.3 565.2
549(24) 0.001795 462.2 566.2
584(24) 0.001680 462.1 567.6
589(25) 0.001652 461.9 569.4
601(25) 0.001600 461.8 571.5
603(25) 0.001550 461.7 573.8
627(25) 0.001575 461.5 576.5
613(25) 0.001613 461.4 579.3
596(25) 0.001613 461.3 582.1
551(24) 0.001736 461.1 584.9
591(25) 0.001613 461.0 587.6
574(24) 0.001694 460.9 589.9
584(24) 0.001694 460.7 591.8
623(25) 0.001575 460.6 593.2
591(25) 0.001626 460.5 594.0
609(25) 0.001575 460.4 594.1
586(24) 0.001680 460.2 593.8
609(25) 0.001613 460.1 593.0
627(25) 0.001562 460.0 591.9
603(25) 0.001587 459.8 590.6
589(25) 0.001600 459.7 589.3
620(25) 0.001587 459.6 588.0
561(24) 0.001765 459.5 586.9
586(25) 0.001626 459.3 586.1
542(24) 0.001780 459.2 585.5
589(25) 0.001613 459.1 585.2
606(25) 0.001587 458.9 585.3
565(24) 0.001765 458.8 585.7
583(25) 0.001666 458.7 586.5
552(24) 0.001708 458.6 587.4
578(24) 0.001680 458.4 589.0
610(25) 0.001613 458.3 591.0
558(24) 0.001780 458.2 593.3
568(24) 0.001736 458.1 596.1
572(25) 0.001666 457.9 599.3
598(25) 0.001587 457.8 603.0
596(25) 0.001652 457.7 607.1
582(24) 0.001694 457.6 611.6
570(24) 0.001694 457.4 616.7
584(25) 0.001639 457.3 622.3
605(25) 0.001562 457.2 628.5
601(25) 0.001626 457.1 635.3
601(25) 0.001639 456.9 642.8
641(26) 0.001502 456.8 651.1
689(27) 0.001392 456.7 660.2
657(26) 0.001435 456.6 670.3
698(27) 0.001392 456.4 681.4
690(26) 0.001468 456.3 693.8
718(27) 0.001342 456.2 707.7
688(27) 0.001392 456.1 723.3
749(28) 0.001294 456.0 740.9
699(27) 0.001382 455.8 761.2
785(28) 0.001257 455.7 784.8
758(28) 0.001294 455.6 812.5
812(29) 0.001165 455.5 845.6
872(30) 0.001082 455.3 885.6
924(31) 0.001061 455.2 934.6
986(32) 0.001001 455.1 995.0
1068(33) 0.000896 455.0 1069.8
1139(35) 0.000840 454.9 1162.3
1210(36) 0.000789 455. 1276.
1309(37) 0.000730 455. 1415.
1533(39) 0.000647 455. 1581.
1674(41) 0.000583 454. 1778.
1889(45) 0.000500 454. 2006.
2080(47) 0.000460 454. 2263.
2437(50) 0.000402 454. 2546.
2744(53) 0.000360 454. 2844.
3179(58) 0.0003025 454. 3141.
3322(59) 0.0002844 454. 3413.
3648(62) 0.0002568 454. 3627.
3894(64) 0.0002464 453. 3753.
3921(63) 0.0002512 453. 3767.
3900(64) 0.0002441 453. 3669.
3672(63) 0.0002536 453. 3477.
3279(59) 0.0002892 453. 3223.
2864(55) 0.0003367 453. 2938.
2551(51) 0.000380 453. 2650.
2184(48) 0.000443 453. 2374.
1928(45) 0.000492 453. 2124.
1701(42) 0.000559 452. 1902.
1567(40) 0.000625 452. 1712.
1437(38) 0.000689 452. 1553.
1336(37) 0.000730 452. 1423.
1220(36) 0.000780 452. 1318.
1155(35) 0.000826 451.8 1236.2
1095(33) 0.000896 451.7 1173.1
1088(33) 0.000896 451.6 1125.6
1008(32) 0.000970 451.5 1090.9
985(32) 0.000970 451.4 1066.4
977(32) 0.000959 451.3 1050.2
950(31) 0.001034 451.1 1040.7
983(32) 0.001008 451.0 1036.9
1062(33) 0.000902 450.9 1038.1
1075(34) 0.000886 450.8 1043.7
995(32) 0.000953 450.7 1053.4
1050(33) 0.000930 450.6 1067.4
983(31) 0.001014 450.5 1085.5
1075(33) 0.000902 450.4 1108.2
1141(35) 0.000840 450.2 1135.7
1200(35) 0.000807 450. 1169.
1164(35) 0.000835 450.0 1208.4
1267(36) 0.000780 450. 1255.
1241(36) 0.000780 450. 1309.
1371(38) 0.000693 450. 1372.
1463(39) 0.000647 450. 1446.
1556(40) 0.000631 449. 1532.
1591(40) 0.000613 449. 1632.
1810(43) 0.000536 449. 1748.
1851(44) 0.000512 449. 1881.
2044(47) 0.000460 449. 2033.
2205(48) 0.000438 449. 2206.
2406(49) 0.000413 449. 2403.
2546(52) 0.000373 449. 2623.
2799(54) 0.0003468 449. 2869.
3155(58) 0.0003014 449. 3140.
3378(60) 0.0002825 448. 3437.
3696(61) 0.0002732 448. 3758.
4119(66) 0.0002331 448. 4101.
4348(69) 0.0002119 448. 4460.
4756(71) 0.0002006 448. 4829.
5189(74) 0.0001831 448. 5198.
5496(76) 0.0001750 448. 5553.
5623(76) 0.0001718 448. 5877.
6207(82) 0.0001498 448. 6152.
6334(83) 0.0001455 447. 6357.
6333(81) 0.0001520 447. 6478.
6448(82) 0.0001484 447. 6502.
6411(82) 0.0001473 447. 6428.
6316(82) 0.0001491 447. 6262.
5991(80) 0.0001559 447. 6018.
5726(77) 0.0001678 447. 5714.
5349(74) 0.0001836 447. 5370.
5033(73) 0.0001897 447. 5004.
4669(70) 0.0002023 447. 4631.
4237(67) 0.0002241 446. 4263.
3921(64) 0.0002441 446. 3908.
3528(60) 0.0002778 446. 3572.
3307(59) 0.0002912 446. 3260.
3114(58) 0.0003014 446. 2972.
2808(54) 0.0003404 446. 2709.
2652(52) 0.000364 446. 2472.
2345(49) 0.000418 446. 2260.
2172(47) 0.000445 446. 2071.
2016(46) 0.000469 446. 1904.
1805(44) 0.000524 445. 1757.
1731(42) 0.000567 445. 1628.
1640(41) 0.000604 445. 1516.
1510(39) 0.000647 445. 1417.
1455(39) 0.000651 445. 1332.
1306(37) 0.000738 445. 1257.
1282(36) 0.000767 445. 1192.
1190(35) 0.000831 444.8 1134.5
1115(34) 0.000870 444.7 1084.1
1080(34) 0.000891 444.6 1039.7
1070(34) 0.000865 444.5 1000.2
960(31) 0.001034 444.4 964.9
926(31) 0.001061 444.3 933.2
924(31) 0.001034 444.3 904.6
880(30) 0.001096 444.2 878.7
792(29) 0.001197 444.1 855.0
788(29) 0.001214 444.0 833.3
808(28) 0.001240 443.9 813.4
749(28) 0.001303 443.8 795.1
765(28) 0.001249 443.7 778.1
704(27) 0.001352 443.6 762.3
751(27) 0.001332 443.5 747.6
664(26) 0.001491 443.4 733.9
662(26) 0.001479 443.3 721.1
638(26) 0.001514 443.3 709.2
681(27) 0.001372 443.2 697.9
658(26) 0.001491 443.1 687.4
640(25) 0.001562 443.0 677.5
626(26) 0.001526 442.9 668.2
619(25) 0.001562 442.8 659.5
611(25) 0.001575 442.7 651.2
580(25) 0.001666 442.6 643.4
572(24) 0.001751 442.6 636.0
605(25) 0.001587 442.5 629.0
631(26) 0.001514 442.4 622.4
575(24) 0.001680 442.3 616.2
589(25) 0.001666 442.2 610.2
568(24) 0.001765 442.1 604.6
532(23) 0.001842 442.1 599.2
553(24) 0.001736 442.0 594.1
541(24) 0.001780 441.9 589.2
515(23) 0.001890 441.8 584.6
564(24) 0.001751 441.7 580.1
598(25) 0.001639 441.6 575.9
566(24) 0.001680 441.6 571.9
534(24) 0.001795 441.5 568.0
532(23) 0.001842 441.4 564.4
575(24) 0.001708 441.3 560.8
541(24) 0.001795 441.2 557.5
554(24) 0.001722 441.2 554.2
538(24) 0.001751 441.1 551.1
524(23) 0.001890 441.0 548.1
570(24) 0.001751 440.9 545.3
508(23) 0.001907 440.8 542.6
568(24) 0.001694 440.8 539.9
608(25) 0.001587 440.7 537.4
538(24) 0.001811 440.6 535.0
551(23) 0.001826 440.5 532.6
558(24) 0.001736 440.4 530.4
535(24) 0.001780 440.4 528.2
528(23) 0.001842 440.3 526.1
543(24) 0.001795 440.2 524.1
513(23) 0.001907 440.1 522.1
533(23) 0.001842 440.1 520.3
533(24) 0.001780 440.0 518.4
563(24) 0.001694 439.9 516.7
573(24) 0.001694 439.8 515.0
547(24) 0.001811 439.8 513.4
514(23) 0.001890 439.7 511.8
528(23) 0.001826 439.6 510.3
521(23) 0.001842 439.6 508.8
507(23) 0.001924 439.5 507.4
531(23) 0.001890 439.4 506.0
509(23) 0.001924 439.3 504.7
536(24) 0.001765 439.3 503.4
551(24) 0.001751 439.2 502.2
482(22) 0.002047 439.1 501.0
499(23) 0.001975 439.1 499.8
489(22) 0.001993 439.0 498.7
496(23) 0.001924 438.9 497.6
492(23) 0.001941 438.8 496.6
469(22) 0.002085 438.8 495.6
505(23) 0.001958 438.7 494.6
471(22) 0.002047 438.6 493.6
466(22) 0.002066 438.6 492.7
511(23) 0.001890 438.5 491.8
488(22) 0.001993 438.4 491.0
491(22) 0.002029 438.4 490.1
496(23) 0.001975 438.3 489.3
475(22) 0.002011 438.2 488.6
505(23) 0.001907 438.2 487.8
427(21) 0.002289 438.1 487.1
438(21) 0.002268 438.1 486.4
479(22) 0.002047 438.0 485.8
480(23) 0.001975 437.9 485.1
466(22) 0.002047 437.9 484.5
474(22) 0.002047 437.8 483.9
499(22) 0.001993 437.7 483.4
503(23) 0.001924 437.7 482.9
483(23) 0.001958 437.6 482.4
489(23) 0.001958 437.6 481.9
475(22) 0.002066 437.5 481.4
466(22) 0.002124 437.4 481.0
461(22) 0.002124 437.4 480.6
513(23) 0.001858 437.3 480.2
506(23) 0.001907 437.3 479.9
453(21) 0.002184 437.2 479.6
503(23) 0.001975 437.1 479.3
480(22) 0.002029 437.1 479.1
474(22) 0.002011 437.0 478.9
500(23) 0.001907 437.0 478.7
458(22) 0.002143 436.9 478.6
495(23) 0.001975 436.8 478.5
490(22) 0.001993 436.8 478.4
463(22) 0.002066 436.7 478.4
483(23) 0.001958 436.7 478.4
496(23) 0.001958 436.6 478.5
457(21) 0.002184 436.6 478.6
480(22) 0.002011 436.5 478.8
441(21) 0.002184 436.5 479.1
458(22) 0.002085 436.4 479.4
458(22) 0.002124 436.4 479.8
487(22) 0.002066 436.3 480.3
476(22) 0.002066 436.3 480.9
479(23) 0.001958 436.2 481.6
499(23) 0.001958 436.2 482.4
509(23) 0.001907 436.1 483.3
502(23) 0.001958 436.1 484.4
504(23) 0.001958 436.0 485.7
489(23) 0.001941 436.0 487.2
499(23) 0.001890 435.9 488.9
507(23) 0.001924 435.9 490.9
487(22) 0.002011 435.8 493.2
490(23) 0.001975 435.8 496.0
519(23) 0.001842 435.7 499.4
499(23) 0.001924 435.7 503.4
528(23) 0.001826 435.6 508.4
564(24) 0.001780 435.6 514.6
530(23) 0.001858 435.5 522.4
557(24) 0.001694 435.5 532.0
531(23) 0.001826 435.4 544.1
577(24) 0.001694 435.4 559.2
592(25) 0.001666 435.3 577.8
603(25) 0.001626 435.3 600.4
677(27) 0.001392 435.3 627.4
653(26) 0.001468 435.2 659.3
714(27) 0.001362 435.2 695.9
804(28) 0.001240 435.1 736.9
790(29) 0.001214 435.1 781.4
840(30) 0.001134 435.0 827.6
913(31) 0.001047 435.0 872.6
953(31) 0.001021 435.0 912.5
940(31) 0.001061 434.9 942.1
949(31) 0.001021 434.9 956.8
984(32) 0.000959 434.8 953.9
954(31) 0.001021 434.8 933.9
942(31) 0.001027 434.8 900.3
853(29) 0.001173 434.7 857.9
828(29) 0.001173 434.7 811.7
748(28) 0.001276 434.7 765.2
709(27) 0.001352 434.6 721.2
667(26) 0.001446 434.6 680.9
652(26) 0.001514 434.5 645.2
611(25) 0.001613 434.5 614.3
590(25) 0.001600 434.5 588.1
579(25) 0.001652 434.4 566.2
529(23) 0.001842 434.4 548.2
519(23) 0.001907 434.4 533.6
539(24) 0.001811 434.3 521.7
561(24) 0.001708 434.3 512.2
516(24) 0.001811 434.3 504.4
512(23) 0.001924 434.2 498.1
471(22) 0.002124 434.2 492.9
487(22) 0.001993 434.2 488.5
458(22) 0.002085 434.1 484.8
481(22) 0.001993 434.1 481.7
472(22) 0.002047 434.1 478.9
486(22) 0.002047 434.0 476.5
470(22) 0.002047 434.0 474.3
477(22) 0.002011 434.0 472.3
469(22) 0.002029 434.0 470.6
485(22) 0.002011 433.9 469.0
486(22) 0.002047 433.9 467.5
496(23) 0.001941 433.9 466.2
469(22) 0.002029 433.8 465.0
476(22) 0.002029 433.8 463.8
507(23) 0.001890 433.8 462.8
527(23) 0.001890 433.8 462.0
483(22) 0.002029 433.7 461.1
500(23) 0.001907 433.7 460.3
444(22) 0.002143 433.7 459.5
479(22) 0.002029 433.7 458.8
463(22) 0.002124 433.6 458.1
464(22) 0.002104 433.6 457.4
439(22) 0.002163 433.6 456.8
440(22) 0.002163 433.6 456.3
467(22) 0.002085 433.6 455.7
459(22) 0.002143 433.5 455.2
487(22) 0.001993 433.5 454.7
468(22) 0.002029 433.5 454.3
460(22) 0.002047 433.5 453.8
489(22) 0.002029 433.5 453.4
468(22) 0.002104 433.4 453.0
494(23) 0.001958 433.4 452.6
470(22) 0.002047 433.4 452.3
482(22) 0.001993 433.4 451.9
449(22) 0.002163 433.4 451.6
439(21) 0.002268 433.3 451.3
476(22) 0.002029 433.3 451.0
496(23) 0.001941 433.3 450.7
452(22) 0.002104 433.3 450.4
450(22) 0.002163 433.3 450.1
484(22) 0.002029 433.3 449.9
456(22) 0.002143 433.2 449.6
451(22) 0.002124 433.2 449.4
461(22) 0.002029 433.2 449.2
476(22) 0.002047 433.2 448.9
426(21) 0.002356 433.2 448.7
447(22) 0.002124 433.2 448.5
426(21) 0.002246 433.2 448.3
457(22) 0.002104 433.1 448.1
454(22) 0.002124 433.1 447.9
464(22) 0.002163 433.1 447.7
473(22) 0.002047 433.1 447.5
442(22) 0.002124 433.1 447.4
519(23) 0.001874 433.1 447.2
433(21) 0.002246 433.1 447.0
417(21) 0.002380 433.1 446.9
443(21) 0.002204 433.1 446.7
423(21) 0.002246 433.1 446.6
442(22) 0.002163 433.1 446.4
446(21) 0.002184 433.0 446.3
439(21) 0.002225 433.0 446.2
449(21) 0.002184 433.0 446.0
465(22) 0.002047 433.0 445.9
427(21) 0.002225 433.0 445.8
426(21) 0.002289 433.0 445.6
438(21) 0.002268 433.0 445.5
428(21) 0.002268 433.0 445.4
452(22) 0.002124 433.0 445.3
439(21) 0.002184 433.0 445.2
397(20) 0.002427 433.0 445.1
460(22) 0.002163 433.0 445.0
441(21) 0.002225 433.0 444.9
424(21) 0.002204 433.0 444.8
418(21) 0.002289 433.0 444.7
412(21) 0.002380 433.0 444.6
437(21) 0.002246 433.0 444.5
454(22) 0.002143 433.0 444.4
436(21) 0.002184 433.0 444.3
405(21) 0.002334 433.0 444.2
430(21) 0.002289 433.0 444.1
436(21) 0.002268 433.0 444.1
460(22) 0.002104 433.0 444.0
456(22) 0.002104 433.0 443.9
457(22) 0.002066 433.0 443.8
465(22) 0.002104 433.0 443.8
424(21) 0.002334 433.0 443.7
424(21) 0.002311 433.0 443.6
444(22) 0.002163 433.0 443.5
437(22) 0.002163 433.0 443.5
415(21) 0.002334 433.0 443.4
463(22) 0.002143 433.0 443.4
463(22) 0.002085 433.0 443.3
474(22) 0.002011 433.0 443.2
446(22) 0.002143 433.0 443.2
432(21) 0.002246 433.0 443.1
447(21) 0.002204 433.0 443.1
427(21) 0.002311 433.1 443.0
479(23) 0.001975 433.1 443.0
457(22) 0.002066 433.1 442.9
477(22) 0.002085 433.1 442.9
459(22) 0.002163 433.1 442.8
455(22) 0.002104 433.1 442.8
453(22) 0.002143 433.1 442.7
448(22) 0.002124 433.1 442.7
465(22) 0.002085 433.1 442.7
443(21) 0.002268 433.1 442.7
427(21) 0.002268 433.2 442.6
460(22) 0.002066 433.2 442.6
450(22) 0.002143 433.2 442.5
409(21) 0.002356 433.2 442.5
441(21) 0.002225 433.2 442.5
470(22) 0.002066 433.2 442.4
438(21) 0.002204 433.2 442.4
413(21) 0.002289 433.2 442.4
431(21) 0.002268 433.3 442.4
414(20) 0.002427 433.3 442.3
445(22) 0.002143 433.3 442.3
454(22) 0.002143 433.3 442.3
414(21) 0.002289 433.3 442.3
447(22) 0.002143 433.3 442.2
446(21) 0.002268 433.4 442.2
454(22) 0.002124 433.4 442.2
446(22) 0.002104 433.4 442.2
469(22) 0.002066 433.4 442.2
441(21) 0.002204 433.4 442.1
470(22) 0.002085 433.5 442.1
416(21) 0.002356 433.5 442.1
391(20) 0.002427 433.5 442.1
419(21) 0.002268 433.5 442.1
426(21) 0.002311 433.5 442.1
444(21) 0.002225 433.6 442.1
446(22) 0.002163 433.6 442.0
426(21) 0.002289 433.6 442.0
426(21) 0.002225 433.6 442.0
428(21) 0.002268 433.7 442.0
452(21) 0.002204 433.7 442.0
416(21) 0.002334 433.7 442.0
425(21) 0.002268 433.7 442.0
389(20) 0.002451 433.7 442.0
438(21) 0.002204 433.8 442.0
449(21) 0.002225 433.8 442.0
464(22) 0.002066 433.8 442.0
451(22) 0.002124 433.8 442.0
404(21) 0.002356 433.9 442.0
449(22) 0.002163 433.9 442.0
438(21) 0.002268 433.9 442.0
460(22) 0.002143 434.0 442.0
406(21) 0.002334 434.0 442.0
434(21) 0.002204 434.0 442.0
443(21) 0.002225 434.0 442.0
414(21) 0.002380 434.1 442.0
449(22) 0.002163 434.1 442.0
472(22) 0.002047 434.1 442.1
447(22) 0.002104 434.2 442.1
457(22) 0.002143 434.2 442.1
437(21) 0.002289 434.2 442.1
408(21) 0.002356 434.3 442.1
419(21) 0.002289 434.3 442.1
400(20) 0.002403 434.3 442.1
466(22) 0.002047 434.4 442.1
434(21) 0.002289 434.4 442.2
439(21) 0.002225 434.4 442.2
461(22) 0.002066 434.5 442.2
442(22) 0.002163 434.5 442.2
445(21) 0.002204 434.5 442.2
457(22) 0.002163 434.6 442.3
479(22) 0.002029 434.6 442.3
447(22) 0.002143 434.6 442.3
452(22) 0.002104 434.7 442.3
447(22) 0.002163 434.7 442.3
417(20) 0.002403 434.7 442.4
404(21) 0.002380 434.8 442.4
445(22) 0.002143 434.8 442.4
428(21) 0.002246 434.9 442.4
432(21) 0.002246 434.9 442.5
444(21) 0.002225 434.9 442.5
442(21) 0.002204 435.0 442.5
450(22) 0.002104 435.0 442.6
435(21) 0.002204 435.1 442.6
453(22) 0.002163 435.1 442.6
427(21) 0.002311 435.1 442.7
404(20) 0.002427 435.2 442.7
437(21) 0.002204 435.2 442.7
430(21) 0.002204 435.3 442.8
434(21) 0.002246 435.3 442.8
478(22) 0.002085 435.3 442.8
445(22) 0.002163 435.4 442.9
442(21) 0.002184 435.4 442.9
455(22) 0.002085 435.5 442.9
446(22) 0.002163 435.5 443.0
419(21) 0.002380 435.6 443.0
439(21) 0.002204 435.6 443.1
472(22) 0.001993 435.7 443.1
449(22) 0.002143 435.7 443.1
439(21) 0.002204 435.7 443.2
442(21) 0.002225 435.8 443.2
444(21) 0.002204 435.8 443.3
427(21) 0.002246 435.9 443.3
455(22) 0.002085 435.9 443.4
443(21) 0.002225 436.0 443.4
452(21) 0.002204 436.0 443.5
420(21) 0.002289 436.1 443.5
424(21) 0.002289 436.1 443.6
444(22) 0.002143 436.2 443.6
429(21) 0.002246 436.2 443.7
436(21) 0.002311 436.3 443.7
438(21) 0.002184 436.3 443.8
415(21) 0.002289 436.4 443.8
446(22) 0.002163 436.4 443.9
451(22) 0.002124 436.5 443.9
429(21) 0.002289 436.5 444.0
479(22) 0.002047 436.6 444.1
441(22) 0.002163 436.6 444.1
456(22) 0.002085 436.7 444.2
440(21) 0.002204 436.7 444.2
446(21) 0.002225 436.8 444.3
438(21) 0.002204 436.9 444.4
439(22) 0.002163 436.9 444.4
411(21) 0.002311 437.0 444.5
433(21) 0.002246 437.0 444.5
463(22) 0.002143 437.1 444.6
402(20) 0.002403 437.1 444.7
435(21) 0.002184 437.2 444.7
404(21) 0.002356 437.2 444.8
438(21) 0.002204 437.3 444.9
470(22) 0.002104 437.4 445.0
481(22) 0.001993 437.4 445.0
479(22) 0.001993 437.5 445.1
417(21) 0.002289 437.5 445.2
468(22) 0.002085 437.6 445.2
438(21) 0.002268 437.6 445.3
437(21) 0.002225 437.7 445.4
440(22) 0.002163 437.8 445.5
417(21) 0.002289 437.8 445.5
480(22) 0.002029 437.9 445.6
424(21) 0.002334 437.9 445.7
456(22) 0.002124 438.0 445.8
429(21) 0.002225 438.1 445.9
401(21) 0.002356 438.1 445.9
454(22) 0.002143 438.2 446.0
441(21) 0.002246 438.2 446.1
482(22) 0.001993 438.3 446.2
426(21) 0.002246 438.4 446.3
453(22) 0.002085 438.4 446.4
460(22) 0.002085 438.5 446.5
438(21) 0.002289 438.6 446.6
457(22) 0.002104 438.6 446.6
431(21) 0.002225 438.7 446.7
459(22) 0.002085 438.8 446.8
453(22) 0.002143 438.8 446.9
463(22) 0.002143 438.9 447.0
480(22) 0.002029 439.0 447.1
464(22) 0.002047 439.0 447.2
429(21) 0.002225 439.1 447.3
489(22) 0.001993 439.2 447.4
502(23) 0.001958 439.2 447.5
475(22) 0.002029 439.3 447.6
430(21) 0.002225 439.4 447.7
459(22) 0.002066 439.4 447.9
492(23) 0.001941 439.5 448.0
466(22) 0.002124 439.6 448.1
468(22) 0.002104 439.6 448.2
445(22) 0.002124 439.7 448.3
438(22) 0.002163 439.8 448.4
472(22) 0.002104 439.8 448.5
465(22) 0.002104 439.9 448.7
471(22) 0.002066 440.0 448.8
481(22) 0.002011 440.0 448.9
476(23) 0.001941 440.1 449.0
447(21) 0.002204 440.2 449.1
451(21) 0.002225 440.3 449.3
468(22) 0.002029 440.3 449.4
446(22) 0.002143 440.4 449.5
457(22) 0.002104 440.5 449.7
445(22) 0.002143 440.6 449.8
432(21) 0.002311 440.6 450.0
443(22) 0.002163 440.7 450.1
471(22) 0.002011 440.8 450.2
444(22) 0.002163 440.8 450.4
436(21) 0.002225 440.9 450.5
425(21) 0.002334 441.0 450.7
446(21) 0.002184 441.1 450.9
446(22) 0.002143 441.1 451.0
454(22) 0.002085 441.2 451.2
464(22) 0.002104 441.3 451.3
439(21) 0.002246 441.4 451.5
456(22) 0.002143 441.5 451.7
470(22) 0.002029 441.5 451.9
415(21) 0.002289 441.6 452.0
446(21) 0.002184 441.7 452.2
446(21) 0.002204 441.8 452.4
460(22) 0.002085 441.8 452.6
431(21) 0.002225 441.9 452.8
427(21) 0.002204 442.0 453.0
436(21) 0.002225 442.1 453.2
430(21) 0.002334 442.2 453.4
454(22) 0.002124 442.2 453.7
421(21) 0.002268 442.3 453.9
464(22) 0.002085 442.4 454.1
426(21) 0.002268 442.5 454.3
407(20) 0.002427 442.6 454.6
410(21) 0.002356 442.6 454.8
451(22) 0.002124 442.7 455.1
446(22) 0.002104 442.8 455.4
442(21) 0.002225 442.9 455.6
389(20) 0.002525 443.0 455.9
418(21) 0.002311 443.0 456.2
439(21) 0.002184 443.1 456.5
432(21) 0.002184 443.2 456.8
410(21) 0.002356 443.3 457.2
422(21) 0.002356 443.4 457.5
453(22) 0.002124 443.5 457.9
431(21) 0.002225 443.5 458.2
451(22) 0.002104 443.6 458.6
444(21) 0.002184 443.7 459.0
405(20) 0.002475 443.8 459.4
449(22) 0.002143 443.9 459.9
431(21) 0.002225 444.0 460.3
418(19) 0.002741 444.0 460.8
431(20) 0.002451 444.1 461.3
461(21) 0.002289 444.2 461.9
429(20) 0.002427 444.3 462.4
461(21) 0.002204 444.4 463.0
451(21) 0.002225 444.5 463.6
462(21) 0.002268 444.6 464.3
434(20) 0.002427 444.6 465.0
444(21) 0.002289 444.7 465.7
471(22) 0.002163 444.8 466.5
446(21) 0.002289 444.9 467.4
462(21) 0.002225 445.0 468.3
455(21) 0.002334 445.1 469.2
477(21) 0.002184 445.2 470.3
434(21) 0.002356 445.3 471.4
445(21) 0.002268 445.4 472.6
425(20) 0.002451 445.4 473.9
468(21) 0.002268 445.5 475.3
409(20) 0.002500 445.6 476.9
430(21) 0.002356 445.7 478.6
499(22) 0.002066 445.8 480.5
448(21) 0.002268 445.9 482.5
468(21) 0.002268 446.0 484.8
467(21) 0.002204 446.1 487.3
476(22) 0.002104 446.2 490.1
467(22) 0.002163 446.3 493.3
470(21) 0.002225 446.3 496.8
462(21) 0.002246 446.4 500.9
476(21) 0.002184 446.5 505.4
491(22) 0.002066 446.6 510.7
526(23) 0.001958 446.7 516.9
558(23) 0.001858 446.8 524.2
526(22) 0.002011 446.9 533.2
613(24) 0.001680 447.0 544.4
603(24) 0.001680 447.1 559.2
633(25) 0.001600 447.2 579.3
649(25) 0.001613 447.3 607.4
724(26) 0.001446 447.4 647.3
774(27) 0.001332 447.5 703.5
838(29) 0.001206 447.6 781.6
910(30) 0.001119 447.7 886.8
1066(32) 0.000953 447.8 1023.3
1132(33) 0.000935 447.8 1192.2
1350(36) 0.000759 448. 1390.
1484(39) 0.000675 448. 1607.
1769(42) 0.000575 448. 1826.
1919(43) 0.000538 448. 2018.
2018(44) 0.000521 448. 2147.
1975(44) 0.000524 448. 2180.
1892(43) 0.000533 449. 2109.
1756(42) 0.000575 449. 1953.
1590(39) 0.000651 449. 1747.
1379(36) 0.000763 449. 1526.
1240(35) 0.000835 448.9 1315.0
1109(33) 0.000907 449.0 1127.6
952(31) 0.001068 449.1 971.1
904(30) 0.001149 449.2 846.9
847(29) 0.001231 449.3 752.6
806(28) 0.001276 449.4 683.7
703(26) 0.001446 449.5 634.5
676(26) 0.001491 449.6 599.9
672(25) 0.001550 449.7 575.4
648(25) 0.001639 449.8 557.9
631(25) 0.001626 449.9 544.9
554(23) 0.001874 450.0 535.0
585(24) 0.001751 450.1 527.0
587(24) 0.001736 450.2 520.5
589(23) 0.001826 450.3 515.1
534(23) 0.001941 450.4 510.4
542(23) 0.001842 450.5 506.4
520(22) 0.001993 450.6 502.9
497(22) 0.002066 450.7 499.8
526(22) 0.002011 450.8 497.1
479(22) 0.002143 450.9 494.8
511(22) 0.001993 451.0 492.7
505(22) 0.001993 451.1 490.9
499(22) 0.002085 451.2 489.2
527(23) 0.001975 451.3 487.8
488(22) 0.002143 451.4 486.5
494(22) 0.002047 451.5 485.3
519(22) 0.001993 451.6 484.3
524(23) 0.001975 451.7 483.4
473(21) 0.002246 451.8 482.6
531(23) 0.001924 451.9 481.8
505(22) 0.002029 452.0 481.2
469(22) 0.002163 452.1 480.6
466(21) 0.002246 452.2 480.1
515(22) 0.002047 452.3 479.6
501(22) 0.002085 452.4 479.2
448(21) 0.002246 452.5 478.9
486(22) 0.002104 452.6 478.6
485(22) 0.002104 452.7 478.3
492(22) 0.002143 452.9 478.1
471(21) 0.002204 453.0 477.9
475(22) 0.002104 453.1 477.7
505(22) 0.002011 453.2 477.6
461(21) 0.002289 453.3 477.5
442(21) 0.002356 453.4 477.4
480(21) 0.002184 453.5 477.4
473(22) 0.002163 453.6 477.4
471(22) 0.002143 453.7 477.4
452(21) 0.002289 453.8 477.4
472(21) 0.002225 453.9 477.4
471(21) 0.002204 454.0 477.5
485(22) 0.002085 454.1 477.6
512(23) 0.001975 454.2 477.7
475(21) 0.002204 454.3 477.8
477(21) 0.002184 454.4 477.9
482(22) 0.002143 454.5 478.0
444(21) 0.002289 454.6 478.2
467(22) 0.002143 454.8 478.4
493(22) 0.002104 454.9 478.6
476(21) 0.002225 455.0 478.8
499(22) 0.002066 455.1 479.0
480(22) 0.002143 455.2 479.2
487(22) 0.002066 455.3 479.5
454(21) 0.002311 455.4 479.7
465(21) 0.002246 455.5 480.0
465(21) 0.002246 455.6 480.3
512(22) 0.001993 455.7 480.6
474(22) 0.002124 455.8 480.9
473(21) 0.002204 455.9 481.2
500(22) 0.002124 456.0 481.6
445(21) 0.002268 456.2 481.9
489(22) 0.002104 456.3 482.3
453(21) 0.002204 456.4 482.7
480(22) 0.002163 456.5 483.1
479(21) 0.002184 456.6 483.5
473(21) 0.002184 456.7 484.0
501(22) 0.002047 456.8 484.4
508(22) 0.002011 456.9 484.9
500(22) 0.002085 457.0 485.4
475(21) 0.002246 457.1 485.9
499(22) 0.002029 457.2 486.4
501(22) 0.002066 457.4 487.0
508(23) 0.001975 457.5 487.5
503(22) 0.002047 457.6 488.1
478(21) 0.002225 457.7 488.7
536(23) 0.001907 457.8 489.4
536(23) 0.001890 457.9 490.0
469(22) 0.002163 458.0 490.7
502(22) 0.002047 458.1 491.4
492(22) 0.002163 458.2 492.2
538(23) 0.001890 458.3 492.9
497(22) 0.002047 458.5 493.7
489(22) 0.002085 458.6 494.6
502(22) 0.002066 458.7 495.5
518(22) 0.002047 458.8 496.4
515(22) 0.002011 458.9 497.3
509(22) 0.001993 459.0 498.3
519(23) 0.001958 459.1 499.4
499(22) 0.002085 459.2 500.4
480(21) 0.002204 459.3 501.6
492(22) 0.002066 459.5 502.8
522(23) 0.001975 459.6 504.0
508(22) 0.001993 459.7 505.4
538(23) 0.001907 459.8 506.8
500(22) 0.002104 459.9 508.2
529(23) 0.001941 460.0 509.8
539(23) 0.001874 460.1 511.4
517(23) 0.001975 460.2 513.1
558(23) 0.001826 460.3 515.0
523(22) 0.002029 460.5 516.9
542(23) 0.001907 460.6 519.0
546(23) 0.001890 460.7 521.2
537(23) 0.001890 460.8 523.6
544(23) 0.001907 460.9 526.1
510(22) 0.002085 461.0 528.8
579(24) 0.001765 461.1 531.7
516(23) 0.001975 461.2 534.8
539(23) 0.001890 461.4 538.2
525(23) 0.001941 461.5 541.8
537(22) 0.001993 461.6 545.7
532(23) 0.001924 461.7 550.0
541(23) 0.001842 461.8 554.7
558(23) 0.001826 461.9 559.8
596(24) 0.001736 462.0 565.4
581(24) 0.001795 462.1 571.6
541(23) 0.001890 462.3 578.5
578(24) 0.001765 462.4 586.2
588(24) 0.001751 462.5 594.9
583(24) 0.001795 462.6 604.7
593(24) 0.001780 462.7 616.1
648(25) 0.001600 462.8 629.4
663(26) 0.001526 462.9 645.2
712(27) 0.001424 463.1 664.0
714(26) 0.001457 463.2 687.0
711(26) 0.001457 463.3 715.2
772(27) 0.001352 463.4 749.8
758(27) 0.001342 463.5 792.6
867(29) 0.001157 463.6 845.2
925(30) 0.001111 463.7 909.4
964(30) 0.001089 463.8 987.0
1071(32) 0.000959 464.0 1079.2
1143(34) 0.000891 464.1 1187.0
1290(36) 0.000772 464. 1311.
1370(36) 0.000767 464. 1449.
1601(39) 0.000661 464. 1600.
1787(42) 0.000572 465. 1758.
1866(43) 0.000551 465. 1914.
2060(46) 0.000483 465. 2057.
2138(46) 0.000483 465. 2170.
2188(46) 0.000481 465. 2239.
2250(47) 0.000447 465. 2252.
2160(46) 0.000471 465. 2206.
2038(45) 0.000494 465. 2110.
1929(43) 0.000531 465. 1979.
1727(41) 0.000610 466. 1829.
1634(40) 0.000616 466. 1672.
1400(37) 0.000730 466. 1520.
1210(35) 0.000835 465.9 1378.4
1164(34) 0.000875 466.0 1250.6
1129(33) 0.000935 466.1 1138.5
1004(31) 0.001041 466.2 1042.3
933(30) 0.001089 466.3 961.3
901(30) 0.001141 466.5 894.3
857(29) 0.001214 466.6 839.5
798(28) 0.001303 466.7 795.3
768(27) 0.001342 466.8 759.9
772(27) 0.001332 466.9 731.7
719(27) 0.001382 467.0 709.3
656(25) 0.001600 467.1 691.3
633(25) 0.001666 467.2 676.9
659(25) 0.001550 467.4 665.3
663(26) 0.001526 467.5 655.9
648(25) 0.001562 467.6 648.1
641(25) 0.001613 467.7 641.8
598(24) 0.001751 467.8 636.6
587(24) 0.001751 467.9 632.4
622(25) 0.001652 468.0 629.0
592(24) 0.001694 468.2 626.3
640(25) 0.001652 468.3 624.3
618(24) 0.001708 468.4 622.9
592(24) 0.001708 468.5 622.0
630(25) 0.001652 468.6 621.6
605(25) 0.001652 468.7 621.7
588(24) 0.001736 468.8 622.2
625(24) 0.001722 469.0 623.1
579(24) 0.001765 469.1 624.5
595(24) 0.001708 469.2 626.3
597(24) 0.001722 469.3 628.5
609(24) 0.001694 469.4 631.1
620(25) 0.001666 469.5 634.1
606(24) 0.001722 469.6 637.6
628(25) 0.001613 469.7 641.4
656(26) 0.001526 469.9 645.7
636(25) 0.001652 470.0 650.5
617(24) 0.001722 470.1 655.8
657(25) 0.001562 470.2 661.5
688(26) 0.001479 470.3 667.8
696(26) 0.001468 470.4 674.7
669(26) 0.001538 470.5 682.3
694(26) 0.001502 470.6 690.4
670(25) 0.001550 470.8 699.4
700(26) 0.001446 470.9 709.0
729(27) 0.001392 471.0 719.6
716(26) 0.001446 471.1 731.1
743(27) 0.001424 471.2 743.6
776(28) 0.001313 471.3 757.3
804(28) 0.001266 471.4 772.2
779(28) 0.001303 471.5 788.6
781(28) 0.001313 471.7 806.5
824(28) 0.001285 471.8 826.3
854(29) 0.001214 471.9 848.1
934(30) 0.001089 472.0 872.4
917(30) 0.001126 472.1 899.4
928(30) 0.001104 472.2 929.6
1033(31) 0.001021 472.3 963.8
1056(32) 0.000970 472.4 1002.8
1126(33) 0.000902 472.5 1047.6
1163(34) 0.000865 472.7 1099.7
1274(35) 0.000807 473. 1161.
1297(35) 0.000821 472.9 1232.5
1431(38) 0.000711 473. 1318.
1513(39) 0.000664 473. 1420.
1636(40) 0.000625 473. 1542.
1835(43) 0.000551 473. 1687.
1989(44) 0.000528 473. 1860.
2097(45) 0.000489 474. 2066.
2407(49) 0.000416 474. 2307.
2619(51) 0.000389 474. 2588.
2950(54) 0.0003468 474. 2912.
3324(56) 0.0003166 474. 3280.
3669(60) 0.0002769 474. 3692.
4082(64) 0.0002449 474. 4145.
4716(69) 0.0002113 474. 4633.
5162(71) 0.0001973 474. 5142.
5715(75) 0.0001783 475. 5656.
6088(78) 0.0001665 475. 6146.
6532(81) 0.0001524 475. 6576.
6849(84) 0.0001434 475. 6907.
6997(84) 0.0001434 475. 7101.
7150(83) 0.0001452 475. 7132.
7027(85) 0.0001397 475. 6997.
6659(82) 0.0001491 475. 6714.
6221(79) 0.0001606 475. 6316.
5898(77) 0.0001709 476. 5844.
5462(73) 0.0001897 476. 5336.
4794(68) 0.0002150 476. 4821.
4236(65) 0.0002338 476. 4324.
3807(62) 0.0002644 476. 3856.
3340(57) 0.0003089 476. 3429.
3116(55) 0.0003306 476. 3044.
2640(51) 0.000388 476. 2703.
2429(49) 0.000413 476. 2406.
2215(47) 0.000457 477. 2150.
1989(44) 0.000519 477. 1932.
1926(43) 0.000541 477. 1747.
1651(40) 0.000619 477. 1591.
1604(40) 0.000634 477. 1461.
1428(38) 0.000704 477. 1351.
1294(36) 0.000793 477. 1260.
1292(35) 0.000821 477.3 1183.1
1183(34) 0.000870 477.4 1118.0
1144(34) 0.000891 477.5 1062.7
1087(33) 0.000947 477.6 1015.0
1036(32) 0.000995 477.7 973.7
1040(31) 0.001014 477.8 937.5
965(31) 0.001068 477.9 905.5
898(30) 0.001126 478.0 877.1
893(30) 0.001134 478.1 851.5
829(28) 0.001249 478.2 828.5
850(28) 0.001240 478.3 807.6
774(27) 0.001332 478.4 788.5
819(28) 0.001249 478.5 771.1
741(27) 0.001342 478.6 755.2
806(28) 0.001294 478.7 740.5
739(27) 0.001424 478.9 727.0
699(26) 0.001446 479.0 714.5
669(26) 0.001526 479.1 703.0
708(26) 0.001457 479.2 692.3
766(27) 0.001352 479.3 682.4
651(25) 0.001626 479.4 673.1
660(25) 0.001575 479.5 664.5
675(26) 0.001514 479.6 656.5
668(26) 0.001502 479.7 649.0
653(25) 0.001587 479.8 642.0
656(25) 0.001613 479.9 635.4
651(25) 0.001575 480.0 629.2
624(25) 0.001626 480.1 623.4
614(24) 0.001694 480.2 617.9
652(25) 0.001550 480.3 612.8
645(25) 0.001639 480.4 608.0
621(25) 0.001666 480.5 603.4
617(25) 0.001626 480.6 599.1
598(24) 0.001708 480.7 595.1
609(24) 0.001708 480.8 591.2
649(25) 0.001639 480.9 587.6
627(25) 0.001666 481.0 584.1
572(24) 0.001765 481.1 580.8
583(24) 0.001765 481.2 577.7
570(23) 0.001826 481.3 574.8
551(23) 0.001890 481.4 572.0
574(23) 0.001826 481.5 569.3
596(24) 0.001708 481.6 566.7
582(24) 0.001736 481.7 564.3
584(24) 0.001780 481.8 562.0
581(24) 0.001811 481.9 559.8
539(23) 0.001890 482.0 557.7
518(23) 0.001975 482.1 555.7
535(23) 0.001890 482.2 553.8
587(24) 0.001751 482.3 551.9
573(23) 0.001858 482.4 550.2
571(24) 0.001811 482.5 548.5
567(24) 0.001795 482.6 546.9
598(24) 0.001708 482.7 545.3
532(23) 0.001958 482.8 543.9
605(24) 0.001751 482.9 542.4
592(24) 0.001765 483.0 541.1
537(23) 0.001874 483.1 539.8
606(25) 0.001652 483.2 538.5
580(24) 0.001811 483.3 537.3
575(23) 0.001826 483.4 536.2
561(23) 0.001826 483.5 535.1
566(24) 0.001795 483.6 534.0
567(24) 0.001795 483.7 533.0
568(24) 0.001811 483.8 532.0
559(23) 0.001890 483.9 531.0
564(23) 0.001826 484.0 530.1
610(25) 0.001652 484.1 529.2
600(24) 0.001722 484.2 528.4
561(23) 0.001874 484.3 527.5
569(23) 0.001842 484.4 526.8
528(23) 0.001975 484.5 526.0
567(24) 0.001811 484.6 525.3
566(24) 0.001780 484.7 524.5
549(23) 0.001907 484.8 523.9
539(23) 0.001958 484.9 523.2
578(24) 0.001780 485.0 522.6
572(24) 0.001780 485.1 521.9
577(24) 0.001765 485.1 521.3
550(23) 0.001874 485.2 520.8
569(23) 0.001842 485.3 520.2
514(22) 0.002011 485.4 519.7
566(24) 0.001795 485.5 519.2
564(24) 0.001795 485.6 518.7
555(23) 0.001890 485.7 518.2
541(23) 0.001941 485.8 517.7
529(23) 0.001958 485.9 517.2
555(23) 0.001858 486.0 516.8
555(23) 0.001826 486.1 516.4
546(23) 0.001907 486.2 516.0
548(23) 0.001924 486.3 515.6
576(24) 0.001780 486.3 515.2
544(23) 0.001874 486.4 514.8
512(22) 0.001993 486.5 514.5
507(22) 0.002029 486.6 514.1
555(23) 0.001890 486.7 513.8
526(23) 0.001958 486.8 513.4
525(23) 0.001941 486.9 513.1
535(23) 0.001890 487.0 512.8
509(22) 0.002011 487.1 512.5
509(22) 0.002085 487.2 512.2
591(24) 0.001765 487.2 512.0
553(23) 0.001826 487.3 511.7
540(23) 0.001907 487.4 511.4
500(22) 0.002085 487.5 511.2
529(22) 0.002011 487.6 510.9
536(23) 0.001924 487.7 510.7
558(23) 0.001826 487.8 510.5
537(23) 0.001890 487.9 510.2
543(23) 0.001890 488.0 510.0
524(22) 0.002029 488.0 509.8
512(22) 0.002011 488.1 509.6
529(23) 0.001907 488.2 509.4
496(22) 0.002066 488.3 509.2
551(23) 0.001858 488.4 509.0
550(23) 0.001890 488.5 508.9
538(23) 0.001924 488.6 508.7
531(23) 0.001907 488.6 508.5
574(24) 0.001795 488.7 508.4
548(23) 0.001907 488.8 508.2
536(23) 0.001975 488.9 508.1
527(23) 0.001958 489.0 507.9
563(24) 0.001811 489.1 507.8
517(23) 0.001975 489.1 507.6
545(23) 0.001890 489.2 507.5
527(22) 0.002011 489.3 507.4
569(23) 0.001826 489.4 507.3
533(23) 0.001890 489.5 507.2
547(23) 0.001874 489.6 507.1
561(23) 0.001842 489.6 507.0
520(22) 0.002011 489.7 506.9
542(23) 0.001907 489.8 506.8
511(23) 0.001975 489.9 506.7
534(23) 0.001890 490.0 506.6
570(23) 0.001826 490.0 506.6
553(23) 0.001924 490.1 506.5
548(23) 0.001874 490.2 506.4
568(24) 0.001795 490.3 506.4
522(23) 0.001975 490.4 506.3
539(23) 0.001924 490.4 506.3
535(23) 0.001975 490.5 506.2
547(23) 0.001907 490.6 506.2
524(23) 0.001924 490.7 506.1
534(23) 0.001890 490.8 506.0
571(23) 0.001842 490.8 505.9
504(22) 0.002066 490.9 505.9
528(23) 0.001941 491.0 505.8
539(23) 0.001907 491.1 505.7
516(23) 0.001975 491.1 505.6
525(23) 0.001924 491.2 505.6
564(23) 0.001890 491.3 505.5
527(23) 0.001958 491.4 505.4
572(24) 0.001765 491.4 505.4
570(24) 0.001811 491.5 505.3
525(22) 0.001993 491.6 505.3
514(22) 0.002066 491.7 505.3
570(24) 0.001811 491.7 504.6
551(23) 0.001842 491.8 504.6
525(23) 0.001941 491.9 504.5
559(23) 0.001842 492.0 504.5
512(22) 0.002066 492.0 504.5
532(23) 0.001924 492.1 504.5
576(24) 0.001751 492.2 504.5
586(24) 0.001722 492.3 504.5
558(23) 0.001858 492.3 504.5
534(23) 0.001958 492.4 504.5
520(23) 0.001941 492.5 504.5
511(22) 0.002011 492.6 504.5
584(24) 0.001765 492.6 504.5
545(23) 0.001890 492.7 504.5
524(22) 0.002029 492.8 504.5
539(23) 0.001941 492.8 504.5
515(23) 0.001958 492.9 504.6
472(22) 0.002163 493.0 504.6
539(23) 0.001924 493.0 504.6
564(23) 0.001842 493.1 504.7
540(23) 0.001924 493.2 504.7
528(23) 0.001941 493.2 504.7
518(23) 0.001907 493.3 504.8
534(23) 0.001958 493.4 504.8
553(23) 0.001907 493.5 504.9
545(23) 0.001858 493.5 505.0
497(22) 0.002047 493.6 505.1
521(23) 0.001941 493.7 505.1
532(23) 0.001941 493.7 505.2
523(22) 0.002047 493.8 505.3
512(22) 0.001993 493.9 505.4
555(23) 0.001842 493.9 505.5
526(23) 0.001958 494.0 505.7
524(23) 0.001975 494.0 505.8
541(23) 0.001958 494.1 505.9
523(23) 0.001975 494.2 506.1
542(23) 0.001874 494.2 506.3
538(23) 0.001890 494.3 506.5
500(22) 0.002085 494.4 506.7
531(23) 0.001958 494.4 506.9
565(23) 0.001826 494.5 507.2
515(22) 0.001993 494.6 507.5
524(23) 0.001907 494.6 507.8
530(23) 0.001958 494.7 508.2
569(23) 0.001874 494.7 508.6
581(24) 0.001765 494.8 509.1
574(24) 0.001811 494.9 509.6
523(23) 0.001941 494.9 510.3
584(24) 0.001780 495.0 511.0
549(23) 0.001941 495.0 511.9
557(23) 0.001842 495.1 513.0
538(23) 0.001890 495.2 514.4
536(23) 0.001907 495.2 516.0
537(23) 0.001924 495.3 517.9
572(23) 0.001842 495.3 520.3
559(23) 0.001842 495.4 523.2
586(24) 0.001708 495.4 526.6
533(23) 0.001924 495.5 530.7
582(24) 0.001780 495.6 535.4
580(24) 0.001795 495.6 540.7
584(24) 0.001765 495.7 546.7
552(23) 0.001858 495.7 553.2
601(24) 0.001680 495.8 560.0
596(24) 0.001751 495.8 567.0
599(24) 0.001780 495.9 573.6
580(24) 0.001780 495.9 579.2
596(24) 0.001736 496.0 583.4
646(25) 0.001575 496.1 585.4
630(25) 0.001626 496.1 585.0
624(24) 0.001708 496.2 582.3
640(25) 0.001600 496.2 577.6
608(25) 0.001652 496.3 571.7
613(25) 0.001652 496.3 565.0
640(25) 0.001613 496.4 558.2
602(24) 0.001736 496.4 551.5
584(24) 0.001765 496.5 545.3
584(24) 0.001736 496.5 539.7
568(24) 0.001780 496.6 534.7
591(24) 0.001765 496.6 530.4
578(23) 0.001842 496.7 526.7
593(24) 0.001722 496.7 523.6
557(23) 0.001858 496.8 521.1
567(24) 0.001811 496.8 519.0
567(23) 0.001842 496.9 517.4
562(23) 0.001874 496.9 516.1
568(24) 0.001811 497.0 515.0
571(24) 0.001780 497.0 514.3
546(23) 0.001874 497.1 513.7
541(21) 0.002204 497.1 513.3
533(22) 0.002124 497.2 513.1
571(23) 0.001890 497.2 513.1
536(22) 0.002011 497.2 513.2
545(23) 0.001975 497.3 513.5
553(23) 0.001941 497.3 514.0
554(22) 0.002011 497.4 514.8
541(22) 0.002047 497.4 515.8
525(22) 0.002029 497.5 517.1
532(22) 0.002029 497.5 518.8
530(22) 0.002066 497.6 520.9
534(22) 0.002085 497.6 523.3
542(22) 0.002011 497.6 526.0
575(23) 0.001874 497.7 529.1
564(23) 0.001907 497.7 532.4
558(23) 0.001941 497.8 535.7
524(22) 0.002124 497.8 538.9
537(22) 0.002047 497.9 541.5
591(24) 0.001780 497.9 543.2
623(24) 0.001722 497.9 543.7
582(23) 0.001890 498.0 542.9
538(22) 0.002029 498.0 541.0
544(22) 0.001993 498.1 538.2
575(23) 0.001890 498.1 534.9
605(24) 0.001751 498.1 531.5
571(23) 0.001941 498.2 528.0
533(22) 0.002085 498.2 524.8
532(22) 0.002047 498.2 521.9
514(22) 0.002124 498.3 519.3
512(22) 0.002104 498.3 517.1
517(22) 0.002085 498.4 515.3
487(21) 0.002289 498.4 513.7
523(22) 0.002066 498.4 512.5
531(22) 0.002011 498.5 511.5
508(22) 0.002104 498.5 510.6
527(22) 0.002047 498.5 510.0
551(22) 0.002029 498.6 509.5
511(22) 0.002124 498.6 509.0
521(22) 0.002047 498.6 508.7
559(23) 0.001907 498.7 508.4
572(23) 0.001924 498.7 508.2
552(22) 0.002029 498.7 508.0
550(23) 0.001975 498.8 507.9
546(23) 0.001975 498.8 507.7
545(23) 0.001975 498.8 507.6
530(22) 0.002085 498.9 507.5
522(22) 0.002143 498.9 507.5
531(22) 0.002029 498.9 507.4
531(22) 0.002029 498.9 507.3
481(21) 0.002246 499.0 507.3
501(22) 0.002124 499.0 507.3
509(21) 0.002204 499.0 507.3
525(22) 0.002066 499.1 507.3
511(22) 0.002085 499.1 507.3
507(22) 0.002143 499.1 507.3
488(21) 0.002204 499.1 507.3
498(21) 0.002204 499.2 507.3
508(21) 0.002204 499.2 507.4
522(22) 0.002029 499.2 507.4
513(22) 0.002085 499.2 507.5
507(21) 0.002184 499.3 507.5
530(22) 0.002104 499.3 507.6
525(22) 0.002085 499.3 507.7
514(22) 0.002104 499.3 507.8
494(22) 0.002163 499.4 507.9
533(22) 0.002047 499.4 508.0
546(22) 0.002029 499.4 508.2
555(23) 0.001975 499.4 508.3
535(23) 0.001975 499.5 508.5
531(22) 0.002011 499.5 508.7
499(21) 0.002184 499.5 508.9
515(22) 0.002143 499.5 509.2
555(23) 0.001941 499.5 509.4
504(22) 0.002163 499.6 509.8
506(22) 0.002104 499.6 510.1
497(21) 0.002204 499.6 510.5
513(22) 0.002163 499.6 511.0
557(23) 0.001975 499.6 511.6
512(22) 0.002124 499.7 512.3
531(22) 0.002029 499.7 513.0
522(22) 0.002066 499.7 513.9
533(22) 0.002104 499.7 515.0
559(23) 0.001941 499.7 516.2
509(22) 0.002124 499.8 517.5
546(23) 0.001958 499.8 519.1
520(22) 0.002104 499.8 520.9
536(22) 0.002085 499.8 523.0
523(22) 0.002047 499.8 525.3
499(22) 0.002143 499.8 527.8
524(22) 0.002066 499.8 530.6
526(22) 0.002066 499.9 533.6
553(22) 0.002011 499.9 536.7
504(22) 0.002163 499.9 540.0
559(23) 0.001941 499.9 543.2
540(22) 0.001993 499.9 546.3
527(22) 0.002066 499.9 549.2
549(22) 0.002047 499.9 551.5
563(23) 0.001924 500.0 553.2
561(23) 0.001924 500.0 554.1
536(22) 0.002011 500.0 554.0
550(23) 0.001975 500.0 553.0
536(22) 0.002047 500.0 551.2
555(23) 0.001975 500.0 548.8
559(23) 0.001907 500.0 545.9
527(22) 0.002029 500.0 542.7
515(22) 0.002104 500.0 539.5
522(22) 0.002143 500.0 536.2
550(23) 0.001975 500.0 533.1
596(24) 0.001811 500.1 530.2
523(22) 0.002047 500.1 527.5
557(23) 0.001975 500.1 525.0
553(22) 0.002011 500.1 522.8
554(23) 0.001975 500.1 520.8
525(22) 0.002066 500.1 519.0
539(23) 0.001958 500.1 517.5
520(22) 0.002104 500.1 516.2
539(22) 0.002066 500.1 515.0
518(22) 0.002066 500.1 514.0
531(22) 0.002011 500.1 513.1
556(23) 0.001958 500.1 512.4
534(22) 0.001993 500.1 511.8
530(22) 0.002104 500.1 511.2
544(22) 0.001993 500.1 510.8
514(22) 0.002085 500.1 510.4
498(22) 0.002163 500.1 510.0
486(21) 0.002268 500.1 509.7
510(22) 0.002143 500.1 509.4
544(22) 0.002029 500.1 509.2
490(21) 0.002204 500.1 509.0
568(23) 0.001907 500.1 508.8
545(23) 0.001975 500.1 508.6
559(22) 0.002011 500.1 508.5
493(21) 0.002184 500.1 508.4
502(22) 0.002124 500.1 508.2
514(22) 0.002085 500.1 508.1
511(22) 0.002104 500.1 508.0
500(21) 0.002204 500.1 508.0
514(22) 0.002143 500.1 507.9
560(23) 0.001874 500.1 507.8
522(22) 0.002066 500.1 507.7
541(22) 0.002029 500.1 507.7
514(22) 0.002143 500.1 507.6
513(22) 0.002143 500.1 507.6
538(22) 0.002011 500.1 507.5
534(22) 0.002011 500.1 507.5
535(22) 0.002047 500.1 507.4
509(21) 0.002184 500.1 507.4
526(22) 0.002085 500.1 507.4
526(22) 0.002029 500.0 507.4
491(21) 0.002184 500.0 507.3
505(22) 0.002163 500.0 507.3
517(22) 0.002124 500.0 507.3
493(21) 0.002225 500.0 507.3
508(22) 0.002104 500.0 507.3
505(22) 0.002085 500.0 507.3
518(22) 0.002104 500.0 507.3
523(22) 0.002124 500.0 507.3
491(21) 0.002184 500.0 507.3
493(21) 0.002225 499.9 507.3
483(21) 0.002204 499.9 507.3
490(21) 0.002204 499.9 507.3
470(21) 0.002380 499.9 507.3
513(22) 0.002104 499.9 507.3
488(21) 0.002204 499.9 507.3
501(22) 0.002143 499.9 507.3
526(22) 0.002066 499.9 507.4
475(21) 0.002334 499.8 507.4
516(22) 0.002104 499.8 507.4
492(21) 0.002184 499.8 507.4
482(21) 0.002204 499.8 507.5
480(21) 0.002246 499.8 507.5
484(21) 0.002289 499.8 507.5
500(22) 0.002163 499.8 507.6
502(22) 0.002143 499.7 507.6
499(22) 0.002143 499.7 507.6
508(22) 0.002143 499.7 507.7
527(22) 0.002104 499.7 507.7
505(22) 0.002163 499.7 507.8
528(22) 0.002011 499.6 507.8
490(21) 0.002184 499.6 507.9
519(22) 0.002124 499.6 507.9
494(21) 0.002246 499.6 508.0
521(22) 0.002066 499.6 508.0
503(22) 0.002163 499.5 508.1
503(22) 0.002104 499.5 508.2
485(21) 0.002225 499.5 508.2
459(20) 0.002451 499.5 508.3
513(22) 0.002085 499.5 508.4
492(22) 0.002163 499.4 508.5
518(22) 0.002124 499.4 508.6
500(22) 0.002143 499.4 508.7
502(21) 0.002204 499.4 508.7
489(21) 0.002246 499.3 508.8
503(22) 0.002104 499.3 508.9
493(21) 0.002184 499.3 509.1
503(22) 0.002163 499.3 509.2
528(22) 0.002085 499.2 509.3
493(21) 0.002225 499.2 509.4
514(22) 0.002085 499.2 509.5
504(22) 0.002124 499.2 509.7
470(21) 0.002289 499.1 509.8
501(21) 0.002204 499.1 510.0
461(21) 0.002380 499.1 510.1
491(22) 0.002163 499.1 510.3
477(21) 0.002225 499.0 510.4
504(22) 0.002163 499.0 510.6
488(21) 0.002268 499.0 510.8
544(22) 0.002011 498.9 511.0
479(21) 0.002246 498.9 511.2
519(22) 0.002066 498.9 511.4
478(21) 0.002289 498.8 511.7
503(21) 0.002184 498.8 511.9
458(21) 0.002380 498.8 512.2
477(21) 0.002246 498.7 512.4
489(21) 0.002184 498.7 512.7
470(21) 0.002334 498.7 513.0
484(21) 0.002289 498.7 513.3
478(21) 0.002246 498.6 513.6
450(20) 0.002403 498.6 514.0
459(21) 0.002311 498.6 514.4
472(21) 0.002289 498.5 514.8
506(21) 0.002184 498.5 515.2
474(21) 0.002268 498.4 515.6
473(21) 0.002289 498.4 516.1
476(21) 0.002246 498.4 516.6
479(21) 0.002268 498.3 517.1
483(21) 0.002311 498.3 517.7
469(21) 0.002311 498.3 518.3
508(22) 0.002124 498.2 518.9
467(21) 0.002289 498.2 519.6
470(21) 0.002311 498.2 520.3
482(21) 0.002289 498.1 521.1
470(21) 0.002334 498.1 522.0
476(21) 0.002246 498.0 522.9
466(21) 0.002268 498.0 523.9
465(21) 0.002334 498.0 524.9
516(22) 0.002143 497.9 526.1
481(21) 0.002246 497.9 527.3
473(21) 0.002246 497.8 528.7
494(22) 0.002163 497.8 530.1
474(21) 0.002289 497.8 531.7
466(21) 0.002380 497.7 533.5
466(21) 0.002311 497.7 535.4
505(22) 0.002143 497.6 537.5
483(21) 0.002204 497.6 539.9
478(21) 0.002268 497.5 542.4
535(22) 0.002085 497.5 545.3
495(21) 0.002184 497.5 548.5
493(21) 0.002184 497.4 552.1
502(22) 0.002124 497.4 556.1
501(22) 0.002163 497.3 560.7
544(22) 0.002029 497.3 565.9
532(22) 0.002047 497.2 572.0
534(22) 0.001993 497.2 579.3
553(23) 0.001924 497.1 588.0
578(23) 0.001890 497.1 598.7
574(23) 0.001924 497.0 612.2
641(24) 0.001694 497.0 629.4
631(24) 0.001708 496.9 651.6
648(25) 0.001639 496.9 680.6
663(25) 0.001652 496.8 717.9
687(25) 0.001613 496.8 765.8
794(27) 0.001352 496.7 826.3
819(28) 0.001322 496.7 900.6
873(29) 0.001231 496.6 990.3
956(30) 0.001134 496.6 1094.8
1100(32) 0.001008 496.5 1212.8
1153(33) 0.000935 496.5 1340.4
1302(35) 0.000812 496. 1470.
1421(36) 0.000759 496. 1592.
1400(36) 0.000767 496. 1690.
1545(38) 0.000696 496. 1750.
1550(37) 0.000719 496. 1758.
1457(37) 0.000727 496. 1714.
1385(36) 0.000763 496. 1626.
1297(34) 0.000855 496.1 1510.0
1181(33) 0.000930 496.0 1381.4
1023(31) 0.001054 496.0 1252.5
939(29) 0.001165 495.9 1131.5
938(30) 0.001126 495.9 1022.8
866(28) 0.001257 495.8 929.0
794(27) 0.001403 495.7 850.1
765(27) 0.001424 495.7 785.9
659(25) 0.001600 495.6 734.8
686(25) 0.001562 495.6 694.7
660(25) 0.001652 495.5 663.8
629(24) 0.001751 495.5 640.0
622(24) 0.001722 495.4 621.7
578(23) 0.001874 495.3 607.6
563(23) 0.001874 495.3 596.6
563(23) 0.001924 495.2 587.7
552(22) 0.002011 495.2 580.5
576(23) 0.001890 495.1 574.6
509(22) 0.002104 495.0 569.6
531(22) 0.002029 495.0 565.4
524(22) 0.002066 494.9 561.8
527(22) 0.002104 494.9 558.7
517(22) 0.002104 494.8 556.0
523(22) 0.002066 494.7 553.8
554(23) 0.001907 494.7 551.9
514(22) 0.002104 494.6 550.4
552(22) 0.002029 494.6 549.1
526(22) 0.002047 494.5 548.2
481(21) 0.002204 494.4 547.5
511(22) 0.002085 494.4 547.0
481(21) 0.002225 494.3 546.9
508(21) 0.002184 494.2 546.9
484(21) 0.002246 494.2 547.2
564(23) 0.001890 494.1 547.7
547(23) 0.001958 494.0 548.5
497(21) 0.002204 494.0 549.5
524(22) 0.002085 493.9 550.7
554(23) 0.001975 493.8 552.0
529(22) 0.002029 493.8 553.6
506(22) 0.002104 493.7 555.3
525(22) 0.002085 493.6 557.1
536(22) 0.002066 493.6 559.0
537(22) 0.002011 493.5 560.9
542(23) 0.001975 493.4 562.8
543(23) 0.001958 493.4 564.5
527(22) 0.002047 493.3 566.0
535(22) 0.002047 493.2 567.3
575(23) 0.001890 493.2 568.3
523(22) 0.002047 493.1 569.0
551(23) 0.001958 493.0 569.3
564(23) 0.001890 493.0 569.5
569(23) 0.001975 492.9 569.5
529(22) 0.002066 492.8 569.3
516(22) 0.002047 492.7 569.2
493(22) 0.002163 492.7 569.2
551(22) 0.001993 492.6 569.3
539(22) 0.002029 492.5 569.6
562(23) 0.001941 492.5 570.2
520(22) 0.002066 492.4 571.1
544(23) 0.001958 492.3 572.4
541(22) 0.001993 492.2 574.1
547(22) 0.002029 492.2 576.3
521(22) 0.002047 492.1 579.0
564(23) 0.001907 492.0 582.2
564(23) 0.001907 491.9 586.2
529(22) 0.002047 491.9 590.8
519(22) 0.002124 491.8 596.3
572(23) 0.001907 491.7 602.6
571(23) 0.001858 491.6 610.0
628(24) 0.001708 491.6 618.5
622(24) 0.001751 491.5 628.3
609(24) 0.001795 491.4 639.5
638(24) 0.001722 491.3 652.3
655(25) 0.001639 491.3 666.7
696(26) 0.001514 491.2 683.0
700(25) 0.001562 491.1 701.2
744(26) 0.001479 491.0 721.6
688(25) 0.001562 490.9 744.1
738(26) 0.001446 490.9 768.9
769(27) 0.001392 490.8 796.1
779(27) 0.001392 490.7 825.6
841(28) 0.001313 490.6 857.3
828(28) 0.001322 490.5 891.2
922(29) 0.001157 490.5 926.8
956(30) 0.001111 490.4 963.8
950(29) 0.001157 490.3 1001.6
1045(31) 0.001054 490.2 1039.4
1087(32) 0.000995 490.1 1076.1
1098(32) 0.000977 490.1 1110.5
1092(32) 0.000983 490.0 1141.1
1138(32) 0.000959 489.9 1166.3
1202(33) 0.000907 489.8 1184.8
1198(33) 0.000902 489.7 1195.3
1153(33) 0.000935 489.6 1197.0
1202(34) 0.000875 489.6 1189.9
1095(32) 0.000989 489.5 1174.5
1135(32) 0.000983 489.4 1151.6
1136(33) 0.000941 489.3 1122.7
1095(32) 0.000989 489.2 1089.5
1032(31) 0.001034 489.1 1053.2
984(30) 0.001096 489.1 1015.4
957(29) 0.001173 489.0 977.0
936(29) 0.001157 488.9 939.1
879(29) 0.001214 488.8 902.5
913(29) 0.001173 488.7 867.4
845(28) 0.001276 488.6 834.3
817(27) 0.001362 488.5 803.3
782(27) 0.001382 488.5 774.7
768(27) 0.001382 488.4 748.4
754(27) 0.001424 488.3 724.3
705(26) 0.001538 488.2 702.5
662(25) 0.001652 488.1 682.8
647(24) 0.001680 488.0 665.0
642(24) 0.001680 487.9 649.2
629(24) 0.001694 487.8 635.1
624(24) 0.001736 487.8 622.5
620(24) 0.001780 487.7 611.3
616(24) 0.001780 487.6 601.4
614(24) 0.001736 487.5 592.7
584(23) 0.001842 487.4 584.9
569(23) 0.001907 487.3 578.0
585(23) 0.001874 487.2 571.8
569(23) 0.001924 487.1 566.3
506(22) 0.002124 487.0 561.4
559(23) 0.001890 486.9 557.0
495(21) 0.002184 486.8 553.0
539(22) 0.002066 486.8 549.4
500(22) 0.002143 486.7 546.1
473(21) 0.002268 486.6 543.1
480(21) 0.002225 486.5 540.3
489(21) 0.002225 486.4 537.8
488(21) 0.002268 486.3 535.4
531(22) 0.002047 486.2 533.2
535(22) 0.001993 486.1 531.2
512(22) 0.002104 486.0 529.2
512(22) 0.002143 485.9 527.5
540(22) 0.002029 485.8 525.8
488(21) 0.002225 485.7 524.2
503(22) 0.002143 485.6 522.7
489(22) 0.002163 485.5 521.3
501(21) 0.002204 485.4 520.0
485(21) 0.002268 485.3 518.7
432(20) 0.002500 485.2 517.5
459(21) 0.002334 485.1 516.4
480(21) 0.002225 485.1 515.3
457(21) 0.002356 485.0 514.3
492(21) 0.002268 484.9 513.3
514(22) 0.002104 484.8 512.4
476(21) 0.002289 484.7 511.5
492(21) 0.002184 484.6 510.7
489(21) 0.002225 484.5 509.9
506(21) 0.002204 484.4 509.1
516(22) 0.002124 484.3 508.4
470(21) 0.002246 484.2 507.6
509(22) 0.002104 484.1 507.0
487(21) 0.002268 484.0 506.3
513(22) 0.002143 483.9 505.7
506(22) 0.002124 483.8 505.1
483(21) 0.002246 483.7 504.5
503(22) 0.002104 483.6 504.0
468(21) 0.002311 483.5 503.5
489(21) 0.002268 483.4 503.0
491(21) 0.002204 483.3 502.5
495(22) 0.002143 483.2 502.0
507(22) 0.002143 483.1 501.5
494(21) 0.002184 483.0 501.1
486(21) 0.002268 482.9 500.7
506(22) 0.002163 482.8 500.2
500(22) 0.002163 482.7 499.9
462(21) 0.002311 482.6 499.5
493(21) 0.002204 482.5 499.1
524(22) 0.002104 482.4 498.7
492(21) 0.002204 482.3 498.4
492(22) 0.002163 482.2 498.1
521(22) 0.002029 482.1 497.7
508(22) 0.002143 481.9 497.4
515(22) 0.002143 481.8 497.1
493(22) 0.002163 481.7 496.8
497(22) 0.002163 481.6 496.5
474(21) 0.002246 481.5 496.3
483(21) 0.002225 481.4 496.0
523(22) 0.002143 481.3 495.7
509(22) 0.002143 481.2 495.5
513(22) 0.002066 481.1 495.2
488(21) 0.002225 481.0 495.0
452(20) 0.002427 480.9 494.8
489(21) 0.002225 480.8 494.6
479(21) 0.002268 480.7 494.4
515(22) 0.002104 480.6 494.1
483(21) 0.002204 480.5 494.0
481(21) 0.002268 480.4 493.8
495(21) 0.002225 480.3 493.6
481(21) 0.002246 480.2 493.4
467(21) 0.002289 480.0 493.2
496(22) 0.002163 479.9 493.1
492(21) 0.002184 479.8 492.9
473(21) 0.002334 479.7 492.8
480(21) 0.002225 479.6 492.6
510(22) 0.002124 479.5 492.5
505(22) 0.002143 479.4 492.4
552(23) 0.001958 479.3 492.3
534(22) 0.002085 479.2 492.1
529(22) 0.002066 479.1 492.0
497(22) 0.002124 479.0 491.9
500(22) 0.002143 478.9 491.8
511(22) 0.002143 478.7 491.8
489(21) 0.002246 478.6 491.7
546(22) 0.001993 478.5 491.6
544(23) 0.001975 478.4 491.5
564(23) 0.001890 478.3 491.5
551(23) 0.001975 478.2 491.4
559(23) 0.001975 478.1 491.4
553(23) 0.001941 478.0 491.4
563(23) 0.001907 477.9 491.4
530(22) 0.002029 477.8 491.3
523(22) 0.002066 477.6 491.3
504(21) 0.002184 477.5 491.4
541(22) 0.002029 477.4 491.4
555(23) 0.001941 477.3 491.4
551(23) 0.001941 477.2 491.4
553(23) 0.001975 477.1 491.5
536(22) 0.002047 477.0 491.6
469(21) 0.002334 476.9 491.6
531(22) 0.002011 476.7 491.7
534(23) 0.001975 476.6 491.8
492(21) 0.002225 476.5 492.0
508(22) 0.002163 476.4 492.1
490(21) 0.002184 476.3 492.3
526(22) 0.002066 476.2 492.4
497(22) 0.002124 476.1 492.6
528(22) 0.002085 476.0 492.8
512(22) 0.002163 475.8 493.1
506(22) 0.002143 475.7 493.3
486(21) 0.002225 475.6 493.6
516(22) 0.002085 475.5 493.9
524(22) 0.002066 475.4 494.3
523(22) 0.002124 475.3 494.6
501(22) 0.002143 475.1 495.0
483(21) 0.002225 475.0 495.5
483(21) 0.002225 474.9 496.0
475(21) 0.002268 474.8 496.5
478(21) 0.002311 474.7 497.1
511(22) 0.002124 474.6 497.7
501(22) 0.002143 474.5 498.3
490(22) 0.002163 474.3 499.1
514(22) 0.002124 474.2 499.9
485(21) 0.002268 474.1 500.8
525(22) 0.002047 474.0 501.7
500(22) 0.002163 473.9 502.7
499(22) 0.002143 473.8 503.9
484(21) 0.002268 473.6 505.1
513(21) 0.002184 473.5 506.5
510(22) 0.002124 473.4 508.0
510(22) 0.002124 473.3 509.6
486(21) 0.002204 473.2 511.4
469(21) 0.002311 473.1 513.5
489(21) 0.002289 472.9 515.7
505(22) 0.002143 472.8 518.2
548(23) 0.001941 472.7 521.1
508(22) 0.002143 472.6 524.3
506(22) 0.002124 472.5 528.0
582(23) 0.001890 472.3 532.3
544(22) 0.002011 472.2 537.3
537(23) 0.001958 472.1 543.1
556(23) 0.001924 472.0 550.1
554(22) 0.001993 471.9 558.4
600(23) 0.001826 471.8 568.4
597(23) 0.001842 471.6 580.4
621(24) 0.001736 471.5 594.6
624(24) 0.001708 471.4 611.7
613(24) 0.001795 471.3 631.9
677(25) 0.001613 471.2 655.6
678(25) 0.001600 471.0 683.2
698(24) 0.001736 470.9 714.8
760(26) 0.001502 470.8 750.8
816(27) 0.001413 470.7 790.8
866(27) 0.001352 470.6 834.7
947(29) 0.001181 470.4 881.6
972(29) 0.001157 470.3 930.3
1061(31) 0.001054 470.2 979.1
1088(31) 0.001047 470.1 1025.1
1093(31) 0.001061 470.0 1065.0
1141(32) 0.000995 469.8 1095.1
1212(33) 0.000930 469.7 1111.8
1227(33) 0.000918 469.6 1113.2
1176(32) 0.000983 469.5 1099.2
1158(32) 0.000995 469.3 1071.2
1025(30) 0.001111 469.2 1032.2
1024(30) 0.001111 469.1 987.1
999(30) 0.001104 469.0 938.7
959(29) 0.001197 468.9 890.0
851(27) 0.001372 468.7 842.7
833(27) 0.001332 468.6 798.4
786(26) 0.001446 468.5 757.9
738(26) 0.001514 468.4 721.4
722(25) 0.001562 468.3 689.2
669(24) 0.001751 468.1 661.1
681(25) 0.001666 468.0 637.0
655(24) 0.001708 467.9 616.5
590(23) 0.001941 467.8 599.2
589(23) 0.001924 467.6 584.8
569(22) 0.002066 467.5 572.8
559(22) 0.002047 467.4 562.9
556(22) 0.002011 467.3 554.7
561(22) 0.001993 467.1 548.0
594(23) 0.001941 467.0 542.4
548(22) 0.002104 466.9 537.9
545(22) 0.002085 466.8 534.1
521(22) 0.002163 466.7 531.0
544(22) 0.002066 466.5 528.5
527(22) 0.002163 466.4 526.5
516(21) 0.002246 466.3 524.9
507(21) 0.002225 466.2 523.7
545(22) 0.002085 466.0 523.0
509(21) 0.002184 465.9 522.6
507(21) 0.002246 465.8 522.7
511(21) 0.002289 465.7 523.2
550(22) 0.002066 465.5 524.2
520(21) 0.002184 465.4 525.7
527(22) 0.002163 465.3 527.8
520(21) 0.002184 465.2 530.6
532(21) 0.002184 465.0 534.1
543(22) 0.002104 464.9 538.5
515(22) 0.002163 464.8 543.9
533(22) 0.002104 464.7 550.4
524(21) 0.002184 464.5 558.0
572(22) 0.002029 464.4 566.9
586(23) 0.001924 464.3 577.2
585(23) 0.001924 464.2 588.9
602(23) 0.001858 464.1 602.0
596(23) 0.001924 463.9 616.5
673(24) 0.001708 463.8 632.4
624(23) 0.001826 463.7 649.4
651(24) 0.001736 463.6 667.1
691(25) 0.001639 463.4 685.1
704(25) 0.001652 463.3 702.8
684(24) 0.001694 463.2 719.2
733(26) 0.001538 463.1 733.4
740(25) 0.001550 462.9 744.0
766(26) 0.001446 462.8 750.3
781(26) 0.001468 462.7 751.5
706(25) 0.001666 462.6 747.5
740(26) 0.001502 462.4 738.5
733(26) 0.001538 462.3 725.5
699(25) 0.001626 462.2 709.5
667(24) 0.001680 462.0 691.5
668(24) 0.001736 461.9 672.7
619(23) 0.001842 461.8 653.7
604(23) 0.001826 461.7 635.2
632(24) 0.001795 461.5 617.6
582(23) 0.001975 461.4 601.3
565(22) 0.002066 461.3 586.2
558(22) 0.002047 461.2 572.5
549(22) 0.002047 461.0 560.2
555(22) 0.002029 460.9 549.3
533(22) 0.002163 460.8 539.6
517(21) 0.002225 460.7 531.2
509(21) 0.002246 460.5 523.8
518(21) 0.002184 460.4 517.4
474(21) 0.002380 460.3 511.9
462(20) 0.002475 460.2 507.1
492(21) 0.002356 460.0 503.0
453(20) 0.002500 459.9 499.4
450(20) 0.002500 459.8 496.3
471(21) 0.002380 459.7 493.6
470(20) 0.002427 459.5 491.2
494(21) 0.002334 459.4 489.1
491(21) 0.002356 459.3 487.2
443(20) 0.002551 459.2 485.5
454(20) 0.002475 459.0 484.0
443(20) 0.002630 458.9 482.6
434(19) 0.002657 458.8 481.3
432(20) 0.002630 458.6 480.1
477(21) 0.002380 458.5 479.0
447(20) 0.002500 458.4 478.0
424(19) 0.002685 458.3 477.0
487(21) 0.002380 458.1 476.1
460(20) 0.002451 458.0 475.3
460(20) 0.002451 457.9 474.5
431(20) 0.002603 457.8 473.7
452(20) 0.002525 457.6 473.0
435(19) 0.002657 457.5 472.3
430(20) 0.002630 457.4 471.7
455(20) 0.002500 457.3 471.1
418(19) 0.002713 457.1 470.5
431(19) 0.002657 457.0 470.0
413(19) 0.002829 456.9 469.4
468(20) 0.002427 456.7 468.9
443(20) 0.002525 456.6 468.4
451(20) 0.002500 456.5 468.0
429(19) 0.002657 456.4 467.5
446(20) 0.002603 456.2 467.1
458(20) 0.002475 456.1 466.6
477(21) 0.002356 456.0 466.2
443(20) 0.002525 455.9 465.9
422(19) 0.002713 455.7 465.5
436(19) 0.002657 455.6 465.1
426(20) 0.002630 455.5 464.7
462(20) 0.002451 455.4 464.4
417(19) 0.002685 455.2 464.1
422(19) 0.002713 455.1 463.8
451(20) 0.002603 455.0 463.4
452(20) 0.002525 454.9 463.1
444(20) 0.002525 454.7 462.8
446(20) 0.002525 454.6 462.5
424(19) 0.002713 454.5 462.2
463(20) 0.002475 454.3 462.0
427(20) 0.002630 454.2 461.7
453(20) 0.002500 454.1 461.4
446(20) 0.002500 454.0 461.1
435(20) 0.002630 453.8 460.9
412(19) 0.002799 453.7 460.6
421(19) 0.002657 453.6 460.4
436(20) 0.002577 453.5 460.1
427(19) 0.002657 453.3 459.9
448(20) 0.002525 453.2 459.7
473(20) 0.002475 453.1 459.4
457(20) 0.002475 453.0 459.2
428(19) 0.002657 452.8 459.0
417(19) 0.002713 452.7 458.7
431(20) 0.002630 452.6 458.5
418(19) 0.002770 452.5 458.3
426(20) 0.002630 452.3 458.1
433(20) 0.002630 452.2 457.9
413(19) 0.002713 452.1 457.7
433(20) 0.002630 452.0 457.5
470(20) 0.002475 451.8 457.3
426(20) 0.002630 451.7 457.1
444(20) 0.002525 451.6 456.9
469(20) 0.002403 451.5 456.7
435(20) 0.002603 451.3 456.5
416(19) 0.002799 451.2 456.3
430(20) 0.002630 451.1 456.1
433(20) 0.002630 451.0 455.9
420(19) 0.002685 450.8 455.8
427(19) 0.002685 450.7 455.6
430(19) 0.002741 450.6 455.4
428(20) 0.002603 450.5 455.2
426(20) 0.002630 450.3 455.0
429(19) 0.002657 450.2 454.9
432(20) 0.002603 450.1 454.7
402(19) 0.002891 450.0 454.5
441(20) 0.002603 449.8 454.3
426(20) 0.002630 449.7 454.2
406(19) 0.002770 449.6 454.0
408(19) 0.002770 449.5 453.8
434(19) 0.002685 449.3 453.7
444(20) 0.002525 449.2 453.5
404(19) 0.002770 449.1 453.4
438(20) 0.002577 449.0 453.2
430(19) 0.002657 448.8 453.0
431(19) 0.002685 448.7 452.9
410(19) 0.002829 448.6 452.7
444(20) 0.002525 448.5 452.6
418(19) 0.002713 448.3 452.4
458(20) 0.002475 448.2 452.3
445(20) 0.002603 448.1 452.1
434(20) 0.002603 448.0 452.0
449(20) 0.002500 447.8 451.8
467(20) 0.002403 447.7 451.7
443(20) 0.002577 447.6 451.5
458(20) 0.002500 447.5 451.4
454(20) 0.002500 447.3 451.2
436(20) 0.002577 447.2 451.1
460(20) 0.002427 447.1 450.9
445(20) 0.002551 447.0 450.8
457(20) 0.002551 446.8 450.7
432(19) 0.002657 446.7 450.5
479(21) 0.002334 446.6 450.4
436(20) 0.002603 446.5 450.2
485(21) 0.002380 446.4 450.1
484(21) 0.002356 446.2 450.0
459(20) 0.002475 446.1 449.8
484(21) 0.002356 446.0 449.7
486(21) 0.002268 445.9 449.6
461(20) 0.002500 445.7 449.5
449(20) 0.002603 445.6 449.3
480(21) 0.002334 445.5 449.2
487(21) 0.002334 445.4 449.1
496(21) 0.002246 445.3 449.0
459(20) 0.002475 445.1 448.8
485(21) 0.002380 445.0 448.7
492(21) 0.002289 444.9 448.6
474(20) 0.002403 444.8 448.5
485(21) 0.002311 444.6 448.4
470(20) 0.002427 444.5 448.3
475(20) 0.002500 444.4 448.1
497(21) 0.002268 444.3 448.0
486(21) 0.002311 444.2 447.9
505(21) 0.002246 444.0 447.8
471(20) 0.002403 443.9 447.7
522(21) 0.002204 443.8 447.6
481(20) 0.002403 443.7 447.5
501(21) 0.002225 443.6 447.4
508(21) 0.002204 443.4 447.4
508(21) 0.002246 443.3 447.3
463(20) 0.002500 443.2 447.2
472(21) 0.002380 443.1 447.1
484(21) 0.002334 442.9 447.0
488(21) 0.002311 442.8 447.0
521(21) 0.002204 442.7 446.9
513(21) 0.002268 442.6 446.8
525(21) 0.002204 442.5 446.8
512(21) 0.002184 442.3 446.7
525(22) 0.002143 442.2 446.7
530(22) 0.002163 442.1 446.7
484(21) 0.002380 442.0 446.7
468(20) 0.002427 441.9 446.7
504(21) 0.002246 441.8 446.7
498(21) 0.002246 441.6 446.7
569(22) 0.002011 441.5 446.8
531(22) 0.002163 441.4 446.8
529(22) 0.002143 441.3 447.0
463(20) 0.002403 441.2 447.1
502(21) 0.002268 441.0 447.2
529(22) 0.002143 440.9 447.4
540(22) 0.002124 440.8 447.7
498(21) 0.002334 440.7 448.0
517(22) 0.002163 440.6 448.3
494(21) 0.002268 440.4 448.7
517(21) 0.002246 440.3 449.2
484(21) 0.002380 440.2 449.7
476(20) 0.002403 440.1 450.3
509(21) 0.002204 440.0 451.0
507(21) 0.002225 439.9 451.7
501(21) 0.002268 439.7 452.5
528(21) 0.002184 439.6 453.4
493(21) 0.002334 439.5 454.4
491(21) 0.002289 439.4 455.4
503(21) 0.002225 439.3 456.5
484(21) 0.002380 439.2 457.6
441(20) 0.002603 439.0 458.7
495(21) 0.002289 438.9 459.8
470(20) 0.002403 438.8 460.8
500(21) 0.002289 438.7 461.7
503(21) 0.002268 438.6 462.5
498(21) 0.002334 438.5 463.1
514(21) 0.002246 438.3 463.5
471(21) 0.002380 438.2 463.6
471(21) 0.002380 438.1 463.4
482(20) 0.002403 438.0 462.9
469(20) 0.002451 437.9 462.2
449(20) 0.002525 437.8 461.2
471(20) 0.002403 437.7 460.1
486(21) 0.002311 437.5 458.9
500(21) 0.002268 437.4 457.6
503(21) 0.002334 437.3 456.2
470(21) 0.002380 437.2 454.9
439(20) 0.002577 437.1 453.5
457(20) 0.002475 437.0 452.3
441(20) 0.002603 436.9 451.0
438(19) 0.002685 436.7 449.9
452(20) 0.002500 436.6 448.8
443(20) 0.002577 436.5 447.8
466(20) 0.002427 436.4 446.8
449(20) 0.002551 436.3 445.9
469(20) 0.002500 436.2 445.1
454(20) 0.002451 436.1 444.4
443(20) 0.002551 436.0 443.7
447(20) 0.002551 435.8 443.1
451(20) 0.002500 435.7 442.6
441(20) 0.002630 435.6 442.1
455(20) 0.002525 435.5 441.6
414(19) 0.002685 435.4 441.2
381(18) 0.002954 435.3 440.8
407(19) 0.002829 435.2 440.4
399(19) 0.002922 435.1 440.1
431(20) 0.002630 434.9 439.8
427(19) 0.002657 434.8 439.5
411(19) 0.002741 434.7 439.3
433(20) 0.002630 434.6 439.0
427(19) 0.002741 434.5 438.8
427(19) 0.002685 434.4 438.5
436(20) 0.002551 434.3 438.3
412(19) 0.002770 434.2 438.1
402(19) 0.002860 434.1 437.9
400(19) 0.002860 434.0 437.7
440(20) 0.002577 433.8 437.6
399(19) 0.002860 433.7 437.4
417(19) 0.002685 433.6 437.2
422(19) 0.002685 433.5 437.1
420(19) 0.002770 433.4 436.9
441(20) 0.002551 433.3 436.7
419(19) 0.002741 433.2 436.6
409(19) 0.002770 433.1 436.4
413(19) 0.002741 433.0 436.3
385(18) 0.003052 432.9 436.1
419(19) 0.002713 432.8 436.0
390(19) 0.002922 432.7 435.8
414(19) 0.002713 432.5 435.7
426(19) 0.002657 432.4 435.6
424(19) 0.002741 432.3 435.4
431(20) 0.002630 432.2 435.3
401(19) 0.002829 432.1 435.2
414(19) 0.002685 432.0 435.0
394(19) 0.002891 431.9 434.9
406(19) 0.002860 431.8 434.8
422(19) 0.002685 431.7 434.7
437(20) 0.002551 431.6 434.5
411(19) 0.002770 431.5 434.4
406(19) 0.002829 431.4 434.3
422(19) 0.002741 431.3 434.2
388(18) 0.002954 431.2 434.1
402(19) 0.002829 431.1 433.9
399(19) 0.002829 431.0 433.8
400(19) 0.002860 430.9 433.7
394(19) 0.002922 430.7 433.6
356(18) 0.003228 430.6 433.5
413(19) 0.002741 430.5 433.4
401(19) 0.002799 430.4 433.5
421(19) 0.002713 430.3 433.4
410(19) 0.002799 430.2 433.3
399(19) 0.002860 430.1 433.2
408(19) 0.002799 430.0 433.1
412(19) 0.002685 429.9 433.0
408(19) 0.002799 429.8 432.9
401(19) 0.002922 429.7 432.8
422(19) 0.002685 429.6 432.6
434(20) 0.002630 429.5 432.5
412(19) 0.002741 429.4 432.4
384(18) 0.002986 429.3 432.3
411(19) 0.002860 429.2 432.2
420(19) 0.002685 429.1 432.1
391(19) 0.002891 429.0 432.0
405(19) 0.002799 428.9 431.9
391(18) 0.002954 428.8 431.8
412(19) 0.002770 428.7 431.7
363(18) 0.003156 428.6 431.6
392(19) 0.002891 428.5 431.5
410(19) 0.002713 428.4 431.4
366(18) 0.003156 428.3 431.3
374(18) 0.003052 428.2 431.3
376(18) 0.002986 428.1 431.2
373(18) 0.003086 428.0 431.1
415(19) 0.002685 427.9 431.0
418(19) 0.002770 427.8 430.9
400(19) 0.002922 427.7 430.8
392(19) 0.002891 427.6 430.7
399(19) 0.002891 427.5 430.6
380(18) 0.002954 427.4 430.5
380(18) 0.002954 427.3 430.4
421(19) 0.002799 427.2 430.3
389(19) 0.002891 427.1 430.2
415(19) 0.002713 427.0 430.1
399(19) 0.002829 426.9 430.1
392(19) 0.002891 426.8 430.0
410(19) 0.002829 426.7 429.9
408(19) 0.002770 426.6 429.8
406(19) 0.002741 426.5 429.7
403(19) 0.002799 426.4 429.6
421(19) 0.002741 426.4 429.5
408(19) 0.002860 426.3 429.5
404(19) 0.002829 426.2 429.4
406(19) 0.002799 426.1 429.3
405(19) 0.002829 426.0 429.2
401(19) 0.002860 425.9 429.1
387(18) 0.003019 425.8 429.0
383(18) 0.002954 425.7 429.0
395(19) 0.002829 425.6 428.9
399(19) 0.002860 425.5 428.8
407(19) 0.002799 425.4 428.7
397(19) 0.002891 425.3 428.6
384(18) 0.003019 425.2 428.6
384(19) 0.002891 425.1 428.5
423(20) 0.002630 425.0 428.6
415(19) 0.002770 424.9 428.5
426(19) 0.002713 424.9 428.5
413(19) 0.002741 424.8 428.4
405(19) 0.002829 424.7 428.3
404(19) 0.002770 424.6 428.2
417(19) 0.002741 424.5 428.2
413(19) 0.002860 424.4 428.1
403(19) 0.002799 424.3 428.0
380(18) 0.002954 424.2 428.0
408(19) 0.002770 424.1 427.9
409(19) 0.002799 424.0 427.8
424(19) 0.002741 423.9 427.8
404(19) 0.002770 423.9 427.7
411(19) 0.002741 423.8 427.6
410(19) 0.002770 423.7 427.5
400(19) 0.002799 423.6 427.5
426(19) 0.002741 423.5 427.4
434(20) 0.002603 423.4 427.4
427(20) 0.002630 423.3 427.3
434(20) 0.002630 423.2 427.2
403(19) 0.002799 423.1 427.2
385(18) 0.003019 423.1 427.1
410(19) 0.002829 423.0 427.0
383(19) 0.002922 422.9 427.0
382(18) 0.002986 422.8 426.9
442(20) 0.002577 422.7 426.9
429(19) 0.002713 422.6 426.8
420(19) 0.002713 422.5 426.7
413(19) 0.002741 422.5 426.7
399(19) 0.002770 422.4 426.6
388(18) 0.002986 422.3 426.6
437(19) 0.002657 422.2 426.5
401(19) 0.002770 422.1 426.5
409(19) 0.002770 422.0 426.4
388(19) 0.002922 421.9 426.4
425(19) 0.002657 421.9 426.3
425(19) 0.002770 421.8 426.3
420(19) 0.002685 421.7 426.2
373(18) 0.003019 421.6 426.2
408(19) 0.002829 421.5 426.1
364(18) 0.003156 421.4 426.1
406(19) 0.002799 421.4 426.0
419(19) 0.002741 421.3 426.0
405(19) 0.002829 421.2 426.0
445(20) 0.002500 421.1 425.9
450(20) 0.002577 421.0 425.9
405(19) 0.002829 420.9 425.8
428(20) 0.002630 420.9 425.8
435(20) 0.002603 420.8 425.8
442(20) 0.002500 420.7 425.7
417(19) 0.002713 420.6 425.7
406(19) 0.002860 420.5 425.7
438(20) 0.002603 420.5 425.6
425(19) 0.002657 420.4 425.6
397(19) 0.002829 420.3 425.6
409(19) 0.002799 420.2 425.6
453(20) 0.002577 420.1 425.5
430(20) 0.002630 420.1 425.5
462(20) 0.002451 420.0 425.5
409(19) 0.002770 419.9 425.5
417(19) 0.002741 419.8 425.5
437(19) 0.002657 419.7 425.4
414(19) 0.002741 419.7 425.4
409(19) 0.002741 419.6 425.4
430(20) 0.002630 419.5 425.4
441(20) 0.002577 419.4 425.4
425(19) 0.002685 419.4 425.4
430(20) 0.002630 419.3 425.4
418(19) 0.002713 419.2 425.4
422(19) 0.002657 419.1 425.4
406(19) 0.002829 419.1 425.4
422(19) 0.002741 419.0 425.4
433(19) 0.002657 418.9 425.4
390(19) 0.002922 418.8 425.4
437(20) 0.002577 418.8 425.4
439(20) 0.002603 418.7 425.4
402(19) 0.002891 418.6 425.4
409(19) 0.002770 418.5 425.5
395(19) 0.002891 418.5 425.5
445(20) 0.002500 418.4 425.5
462(20) 0.002451 418.3 425.5
425(19) 0.002741 418.2 425.6
397(19) 0.002860 418.2 425.6
405(19) 0.002770 418.1 425.6
406(19) 0.002799 418.0 425.7
426(19) 0.002685 417.9 425.7
435(19) 0.002657 417.9 425.8
412(19) 0.002799 417.8 425.8
462(20) 0.002427 417.7 425.9
465(20) 0.002451 417.7 426.0
449(20) 0.002577 417.6 426.0
415(19) 0.002770 417.5 426.1
411(19) 0.002770 417.4 426.2
400(19) 0.002860 417.4 426.3
446(20) 0.002500 417.3 426.3
448(20) 0.002525 417.2 426.4
443(20) 0.002630 417.2 426.5
461(20) 0.002475 417.1 426.6
415(19) 0.002685 417.0 426.8
451(20) 0.002500 417.0 426.9
444(20) 0.002551 416.9 427.0
448(20) 0.002577 416.8 427.1
440(20) 0.002603 416.8 427.3
415(19) 0.002713 416.7 427.4
443(20) 0.002525 416.6 427.6
439(20) 0.002630 416.6 427.8
444(19) 0.002657 416.5 427.9
414(19) 0.002713 416.4 428.1
426(19) 0.002657 416.4 428.3
438(20) 0.002603 416.3 428.6
472(20) 0.002403 416.2 428.8
437(19) 0.002657 416.2 429.0
437(20) 0.002603 416.1 429.3
421(19) 0.002657 416.0 429.5
426(19) 0.002685 416.0 429.8
458(20) 0.002451 415.9 430.1
414(19) 0.002770 415.8 430.5
438(20) 0.002577 415.8 430.8
436(20) 0.002577 415.7 431.2
433(20) 0.002603 415.6 431.5
407(19) 0.002829 415.6 431.9
439(20) 0.002630 415.5 432.4
477(20) 0.002403 415.4 432.8
435(20) 0.002630 415.4 433.3
413(19) 0.002713 415.3 433.8
420(19) 0.002713 415.3 434.4
418(19) 0.002829 415.2 435.0
407(19) 0.002770 415.1 435.6
439(20) 0.002577 415.1 436.3
425(19) 0.002657 415.0 437.0
481(21) 0.002356 415.0 437.7
479(20) 0.002403 414.9 438.6
447(20) 0.002551 414.8 439.4
485(21) 0.002289 414.8 440.4
454(20) 0.002500 414.7 441.4
484(21) 0.002380 414.7 442.5
464(20) 0.002475 414.6 443.7
462(20) 0.002475 414.5 445.0
434(20) 0.002603 414.5 446.4
464(20) 0.002427 414.4 447.9
475(20) 0.002451 414.4 449.6
446(20) 0.002577 414.3 451.4
452(20) 0.002525 414.2 453.5
454(20) 0.002500 414.2 455.8
481(21) 0.002311 414.1 458.3
481(21) 0.002356 414.1 461.2
481(20) 0.002427 414.0 464.5
473(21) 0.002380 414.0 468.2
498(21) 0.002289 413.9 472.4
497(21) 0.002246 413.8 477.3
513(21) 0.002289 413.8 482.8
550(21) 0.002289 413.7 489.2
539(21) 0.002225 413.7 496.5
547(22) 0.002143 413.6 504.8
535(21) 0.002204 413.6 514.4
565(22) 0.002104 413.5 525.2
571(22) 0.002124 413.5 537.5
603(23) 0.001975 413.4 551.4
599(23) 0.001975 413.4 566.9
634(23) 0.001826 413.3 584.2
645(23) 0.001842 413.2 603.2
666(24) 0.001795 413.2 623.9
695(24) 0.001694 413.1 646.4
698(24) 0.001694 413.1 670.3
724(25) 0.001613 413.0 695.5
750(25) 0.001562 413.0 721.4
804(26) 0.001502 412.9 747.6
866(27) 0.001342 412.9 773.3
918(28) 0.001294 412.8 797.3
897(28) 0.001303 412.8 818.5
920(28) 0.001276 412.7 835.6
892(27) 0.001362 412.7 847.5
922(28) 0.001303 412.6 853.2
932(28) 0.001257 412.6 852.2
941(28) 0.001257 412.5 844.6
891(28) 0.001322 412.5 831.1
863(27) 0.001392 412.4 812.6
826(26) 0.001435 412.4 790.4
788(26) 0.001479 412.3 765.9
787(26) 0.001479 412.3 740.0
773(26) 0.001538 412.2 713.9
691(24) 0.001722 412.2 688.2
683(24) 0.001736 412.1 663.4
660(24) 0.001765 412.1 640.0
615(23) 0.001890 412.0 618.1
566(22) 0.002124 412.0 598.0
592(22) 0.002029 411.9 579.6
581(22) 0.002029 411.9 563.0
592(22) 0.002011 411.9 548.1
535(21) 0.002184 411.8 534.7
522(21) 0.002289 411.8 523.0
534(21) 0.002246 411.7 512.6
527(21) 0.002246 411.7 503.5
507(21) 0.002334 411.6 495.6
499(21) 0.002334 411.6 488.7
492(21) 0.002380 411.5 482.7
482(20) 0.002500 411.5 477.4
485(20) 0.002427 411.5 472.9
458(20) 0.002551 411.4 468.9
437(19) 0.002657 411.4 465.5
463(20) 0.002551 411.3 462.4
450(19) 0.002657 411.3 459.8
476(20) 0.002500 411.2 457.4
463(20) 0.002551 411.2 455.3
459(20) 0.002551 411.2 453.4
440(19) 0.002713 411.1 451.8
443(19) 0.002741 411.1 450.3
448(20) 0.002630 411.0 448.9
404(19) 0.002922 411.0 447.7
451(20) 0.002603 410.9 446.5
459(20) 0.002603 410.9 445.5
463(20) 0.002551 410.9 444.6
446(19) 0.002657 410.8 443.8
481(20) 0.002451 410.8 443.0
446(20) 0.002603 410.7 442.3
494(21) 0.002380 410.7 441.7
440(19) 0.002741 410.7 441.1
453(20) 0.002577 410.6 440.6
414(19) 0.002891 410.6 440.2
436(19) 0.002685 410.6 439.8
435(19) 0.002685 410.5 439.4
426(19) 0.002891 410.5 439.1
439(19) 0.002713 410.4 438.8
433(19) 0.002685 410.4 438.6
406(18) 0.002954 410.4 438.4
428(19) 0.002770 410.3 438.3
430(19) 0.002770 410.3 438.1
412(19) 0.002922 410.3 438.1
415(19) 0.002799 410.2 438.0
439(20) 0.002630 410.2 438.0
425(19) 0.002799 410.1 438.0
433(19) 0.002770 410.1 438.1
448(20) 0.002603 410.1 438.1
437(19) 0.002685 410.0 438.3
424(19) 0.002799 410.0 438.4
425(19) 0.002770 410.0 438.6
441(19) 0.002741 409.9 438.8
437(19) 0.002713 409.9 439.0
428(19) 0.002741 409.9 439.3
441(19) 0.002685 409.8 439.6
441(19) 0.002713 409.8 440.0
426(19) 0.002799 409.8 440.3
437(19) 0.002741 409.7 440.8
456(20) 0.002577 409.7 441.2
469(20) 0.002475 409.7 441.7
486(20) 0.002427 409.6 442.3
458(20) 0.002630 409.6 442.8
457(20) 0.002577 409.6 443.5
428(19) 0.002770 409.5 444.1
447(20) 0.002577 409.5 444.9
472(20) 0.002525 409.5 445.6
476(20) 0.002551 409.5 446.5
473(20) 0.002475 409.4 447.3
455(20) 0.002577 409.4 448.3
469(20) 0.002525 409.4 449.3
469(20) 0.002500 409.3 450.4
429(19) 0.002829 409.3 451.5
435(19) 0.002741 409.3 452.8
464(20) 0.002525 409.3 454.1
488(20) 0.002403 409.2 455.5
448(20) 0.002630 409.2 457.0
494(20) 0.002427 409.2 458.6
472(20) 0.002475 409.1 460.3
461(20) 0.002551 409.1 462.2
452(20) 0.002577 409.1 464.2
487(20) 0.002403 409.1 466.3
471(20) 0.002551 409.0 468.6
469(20) 0.002500 409.0 471.1
457(20) 0.002577 409.0 473.7
454(20) 0.002577 409.0 476.6
475(20) 0.002475 408.9 479.7
521(21) 0.002311 408.9 483.0
479(20) 0.002475 408.9 486.7
517(21) 0.002289 408.8 490.6
542(22) 0.002143 408.8 494.9
531(21) 0.002225 408.8 499.6
483(20) 0.002500 408.8 504.7
470(20) 0.002475 408.8 510.4
546(22) 0.002143 408.7 516.7
522(21) 0.002246 408.7 523.6
510(21) 0.002311 408.7 531.4
552(22) 0.002163 408.7 540.3
515(21) 0.002289 408.6 550.4
529(21) 0.002204 408.6 562.1
595(23) 0.001958 408.6 575.8
594(22) 0.001993 408.6 591.9
620(23) 0.001941 408.5 611.0
658(24) 0.001795 408.5 633.7
675(24) 0.001751 408.5 660.9
733(25) 0.001587 408.5 693.3
722(25) 0.001639 408.5 731.7
763(25) 0.001575 408.4 777.1
809(26) 0.001479 408.4 830.3
858(27) 0.001362 408.4 891.7
902(28) 0.001294 408.4 962.1
996(29) 0.001181 408.4 1041.1
1137(31) 0.001047 408.3 1128.5
1182(32) 0.000995 408.3 1223.5
1192(32) 0.000970 408.3 1325.4
1314(34) 0.000881 408.3 1434.9
1440(35) 0.000821 408.3 1552.3
1605(37) 0.000742 408. 1679.
1715(38) 0.000682 408. 1814.
1878(40) 0.000622 408. 1956.
1991(41) 0.000583 408. 2099.
2250(44) 0.000526 408. 2237.
2417(45) 0.000489 408. 2358.
2550(47) 0.000462 408. 2452.
2657(48) 0.000438 408. 2505.
2632(48) 0.000443 408. 2511.
2564(47) 0.000457 408. 2467.
2489(46) 0.000475 408. 2378.
2297(44) 0.000507 408. 2253.
2103(43) 0.000554 408. 2106.
1936(41) 0.000601 408. 1946.
1745(39) 0.000668 408. 1784.
1547(36) 0.000767 408. 1626.
1408(34) 0.000850 408.0 1477.8
1364(34) 0.000845 408.0 1341.5
1204(32) 0.000964 407.9 1218.4
1055(30) 0.001126 407.9 1109.5
979(29) 0.001223 407.9 1014.3
913(28) 0.001303 407.9 932.1
834(27) 0.001403 407.9 862.3
818(27) 0.001424 407.9 803.1
769(25) 0.001550 407.9 753.7
702(24) 0.001708 407.8 712.2
687(24) 0.001722 407.8 677.7
663(24) 0.001751 407.8 649.1
680(24) 0.001694 407.8 625.0
608(23) 0.001975 407.8 604.9
608(23) 0.001958 407.8 587.7
550(22) 0.002104 407.8 573.1
581(22) 0.002029 407.8 560.4
547(22) 0.002124 407.7 549.4
526(21) 0.002246 407.7 539.7
490(20) 0.002451 407.7 531.0
511(21) 0.002311 407.7 523.3
506(21) 0.002334 407.7 516.3
498(21) 0.002356 407.7 510.0
504(21) 0.002334 407.7 504.2
505(21) 0.002380 407.7 498.9
470(20) 0.002525 407.7 494.1
466(20) 0.002525 407.7 489.7
482(20) 0.002403 407.6 485.6
474(20) 0.002500 407.6 481.8
470(20) 0.002551 407.6 478.3
486(20) 0.002427 407.6 475.1
493(21) 0.002380 407.6 472.1
457(20) 0.002525 407.6 469.3
472(20) 0.002525 407.6 466.6
478(20) 0.002525 407.6 464.2
453(20) 0.002551 407.6 461.9
444(19) 0.002685 407.6 459.8
489(21) 0.002380 407.6 457.8
484(20) 0.002427 407.6 455.9
487(20) 0.002475 407.5 454.2
474(20) 0.002475 407.5 452.5
459(20) 0.002577 407.5 450.9
449(20) 0.002630 407.5 449.5
443(19) 0.002657 407.5 448.1
440(19) 0.002741 407.5 446.8
475(20) 0.002451 407.5 445.5
467(20) 0.002525 407.5 444.4
490(21) 0.002380 407.5 443.3
450(20) 0.002577 407.5 442.2
453(20) 0.002630 407.5 441.2
446(19) 0.002685 407.5 440.3
450(20) 0.002551 407.5 439.4
472(20) 0.002500 407.5 438.5
468(20) 0.002525 407.5 437.7
431(19) 0.002770 407.5 436.9
445(19) 0.002657 407.5 436.2
455(20) 0.002577 407.5 435.5
463(20) 0.002525 407.5 434.8
458(20) 0.002603 407.5 434.2
432(19) 0.002770 407.5 433.6
461(20) 0.002577 407.4 433.0
457(20) 0.002525 407.4 432.5
444(20) 0.002630 407.4 431.9
438(19) 0.002713 407.4 431.4
454(20) 0.002603 407.4 430.9
439(19) 0.002685 407.4 430.5
424(19) 0.002799 407.4 430.0
453(20) 0.002551 407.4 429.6
459(20) 0.002551 407.4 429.2
450(19) 0.002685 407.4 428.8
488(20) 0.002403 407.4 428.5
419(19) 0.002799 407.4 428.1
423(19) 0.002799 407.4 427.8
467(20) 0.002500 407.4 427.4
417(19) 0.002891 407.4 427.1
424(19) 0.002829 407.4 426.8
410(19) 0.002829 407.4 426.6
443(20) 0.002630 407.4 426.3
474(20) 0.002475 407.4 426.0
422(19) 0.002829 407.4 425.8
412(19) 0.002860 407.4 425.5
430(19) 0.002685 407.4 425.3
481(20) 0.002427 407.4 425.1
422(19) 0.002799 407.4 424.9
452(20) 0.002630 407.4 424.7
446(20) 0.002630 407.4 424.5
447(20) 0.002630 407.4 424.3
430(19) 0.002713 407.4 424.1
435(19) 0.002741 407.4 424.0
458(20) 0.002603 407.4 423.8
470(20) 0.002525 407.5 423.6
437(19) 0.002685 407.5 423.5
429(19) 0.002741 407.5 423.4
449(20) 0.002630 407.5 423.2
432(19) 0.002770 407.5 423.1
451(20) 0.002630 407.5 423.0
458(20) 0.002551 407.5 422.9
443(20) 0.002630 407.5 422.8
472(20) 0.002475 407.5 422.7
423(19) 0.002860 407.5 422.6
433(19) 0.002713 407.5 422.5
464(20) 0.002525 407.5 422.4
454(20) 0.002577 407.5 422.3
446(19) 0.002657 407.5 422.3
490(20) 0.002451 407.5 422.2
507(21) 0.002356 407.5 422.1
465(20) 0.002500 407.5 422.1
462(20) 0.002551 407.5 422.0
455(20) 0.002630 407.5 422.0
468(20) 0.002577 407.5 422.0
500(21) 0.002356 407.5 421.9
432(19) 0.002713 407.5 421.9
472(20) 0.002500 407.6 421.9
471(20) 0.002475 407.6 421.8
460(20) 0.002603 407.6 421.8
464(20) 0.002525 407.6 421.8
475(20) 0.002475 407.6 421.8
453(20) 0.002577 407.6 421.8
494(21) 0.002380 407.6 421.8
475(20) 0.002525 407.6 421.8
490(20) 0.002451 407.6 421.8
475(20) 0.002427 407.6 421.8
449(20) 0.002630 407.6 421.8
514(21) 0.002289 407.6 421.9
479(20) 0.002475 407.6 421.9
512(21) 0.002356 407.6 421.9
480(20) 0.002451 407.7 422.0
430(19) 0.002713 407.7 422.0
451(20) 0.002630 407.7 422.0
474(20) 0.002525 407.7 422.1
435(19) 0.002713 407.7 422.1
457(20) 0.002525 407.7 422.2
482(20) 0.002427 407.7 422.3
484(20) 0.002475 407.7 422.3
453(20) 0.002630 407.7 422.4
457(20) 0.002577 407.7 422.5
437(19) 0.002685 407.7 422.6
467(20) 0.002500 407.8 422.7
451(20) 0.002603 407.8 422.7
466(20) 0.002603 407.8 422.8
426(19) 0.002770 407.8 422.9
467(20) 0.002525 407.8 423.1
429(19) 0.002770 407.8 423.2
436(19) 0.002713 407.8 423.3
421(19) 0.002829 407.8 423.4
415(19) 0.002860 407.8 423.5
418(19) 0.002799 407.9 423.7
429(19) 0.002685 407.9 423.8
457(20) 0.002577 407.9 424.0
457(19) 0.002657 407.9 424.1
434(19) 0.002685 407.9 424.3
439(19) 0.002685 407.9 424.4
412(19) 0.002860 407.9 424.6
458(20) 0.002551 407.9 424.8
448(19) 0.002713 407.9 425.0
455(20) 0.002630 408.0 425.2
459(20) 0.002500 408.0 425.4
473(20) 0.002500 408.0 425.6
438(19) 0.002713 408.0 425.8
433(19) 0.002741 408.0 426.0
446(19) 0.002685 408.0 426.3
421(19) 0.002770 408.0 426.5
453(20) 0.002577 408.1 426.8
448(20) 0.002630 408.1 427.1
469(20) 0.002551 408.1 427.3
459(20) 0.002577 408.1 427.6
440(19) 0.002657 408.1 427.9
408(19) 0.002860 408.1 428.2
417(19) 0.002860 408.1 428.6
428(19) 0.002741 408.1 428.9
471(20) 0.002551 408.2 429.2
428(19) 0.002741 408.2 429.6
420(19) 0.002770 408.2 430.0
429(19) 0.002741 408.2 430.4
476(20) 0.002551 408.2 430.8
434(19) 0.002741 408.2 431.2
464(20) 0.002525 408.3 431.7
439(19) 0.002657 408.3 432.1
435(19) 0.002713 408.3 432.6
448(19) 0.002685 408.3 433.1
460(20) 0.002551 408.3 433.6
475(20) 0.002475 408.3 434.2
475(20) 0.002475 408.3 434.8
458(20) 0.002577 408.4 435.4
451(19) 0.002685 408.4 436.0
480(20) 0.002475 408.4 436.6
505(21) 0.002311 408.4 437.3
502(21) 0.002356 408.4 438.1
455(20) 0.002630 408.4 438.8
478(20) 0.002475 408.5 439.6
514(21) 0.002311 408.5 440.4
469(20) 0.002525 408.5 441.3
453(20) 0.002577 408.5 442.2
489(20) 0.002403 408.5 443.2
496(20) 0.002427 408.5 444.2
464(20) 0.002551 408.6 445.3
477(20) 0.002427 408.6 446.4
489(20) 0.002427 408.6 447.6
448(20) 0.002603 408.6 448.9
477(20) 0.002525 408.6 450.2
487(20) 0.002451 408.6 451.7
473(20) 0.002475 408.7 453.2
503(21) 0.002334 408.7 454.8
509(21) 0.002334 408.7 456.5
494(20) 0.002427 408.7 458.3
528(21) 0.002289 408.7 460.3
520(21) 0.002225 408.8 462.4
497(21) 0.002356 408.8 464.6
481(20) 0.002475 408.8 467.0
463(20) 0.002577 408.8 469.6
540(21) 0.002184 408.8 472.4
541(22) 0.002163 408.8 475.4
516(21) 0.002289 408.9 478.6
531(21) 0.002184 408.9 482.1
537(21) 0.002225 408.9 485.9
537(21) 0.002204 408.9 490.1
545(22) 0.002143 408.9 494.6
591(23) 0.001958 409.0 499.6
571(22) 0.002085 409.0 505.1
556(22) 0.002143 409.0 511.1
572(22) 0.002085 409.0 517.8
603(23) 0.001958 409.0 525.2
606(23) 0.001941 409.1 533.6
588(23) 0.001975 409.1 543.0
578(22) 0.002104 409.1 553.9
590(22) 0.001993 409.1 566.5
664(24) 0.001765 409.1 581.4
692(24) 0.001680 409.2 599.2
694(24) 0.001708 409.2 620.9
745(25) 0.001613 409.2 647.8
736(25) 0.001587 409.2 681.3
815(26) 0.001435 409.2 723.2
827(27) 0.001413 409.3 776.0
923(28) 0.001266 409.3 841.8
1000(29) 0.001214 409.3 923.4
1101(31) 0.001061 409.3 1023.2
1201(32) 0.000983 409.3 1142.9
1387(35) 0.000840 409.4 1284.2
1439(35) 0.000821 409.4 1446.8
1606(37) 0.000747 409. 1630.
1795(39) 0.000651 409. 1829.
2009(41) 0.000583 409. 2038.
2171(43) 0.000536 409. 2245.
2452(46) 0.000473 409. 2435.
2606(47) 0.000457 410. 2589.
2726(48) 0.000429 410. 2686.
2721(49) 0.000423 410. 2710.
2679(48) 0.000430 410. 2658.
2593(47) 0.000451 410. 2538.
2317(44) 0.000517 410. 2369.
2158(43) 0.000543 410. 2171.
2027(42) 0.000578 410. 1963.
1763(39) 0.000654 410. 1758.
1556(36) 0.000763 410. 1567.
1368(34) 0.000881 409.7 1392.7
1239(32) 0.000953 409.7 1239.6
1146(31) 0.001027 409.8 1108.5
1070(30) 0.001082 409.8 998.2
936(28) 0.001266 409.8 907.6
858(27) 0.001392 409.8 834.0
827(27) 0.001413 409.9 775.3
770(26) 0.001526 409.9 728.8
759(26) 0.001538 409.9 692.2
737(25) 0.001575 409.9 663.5
659(23) 0.001826 409.9 640.7
717(25) 0.001613 410.0 622.7
670(24) 0.001780 410.0 608.3
657(24) 0.001765 410.0 596.6
608(23) 0.001941 410.0 587.1
601(22) 0.001993 410.1 579.3
603(23) 0.001975 410.1 572.8
593(23) 0.001975 410.1 567.6
603(23) 0.001941 410.1 563.4
579(22) 0.002029 410.1 560.0
614(23) 0.001975 410.2 557.5
604(23) 0.001941 410.2 555.7
531(21) 0.002204 410.2 554.5
597(23) 0.001958 410.2 554.1
600(23) 0.001958 410.3 554.2
537(21) 0.002225 410.3 555.0
566(22) 0.002066 410.3 556.5
573(22) 0.002029 410.3 558.5
578(22) 0.002029 410.4 561.2
598(23) 0.001958 410.4 564.6
606(22) 0.002011 410.4 568.7
604(23) 0.001924 410.4 573.6
614(23) 0.001907 410.4 579.2
626(23) 0.001907 410.5 585.9
595(23) 0.001975 410.5 593.5
660(24) 0.001795 410.5 602.3
569(22) 0.002104 410.5 612.5
670(24) 0.001736 410.6 624.3
640(24) 0.001811 410.6 638.1
688(24) 0.001722 410.6 654.3
723(25) 0.001652 410.6 673.5
755(26) 0.001538 410.7 696.4
760(25) 0.001562 410.7 724.0
853(27) 0.001362 410.7 757.5
854(27) 0.001362 410.7 798.1
895(27) 0.001352 410.8 847.6
952(29) 0.001231 410.8 907.8
985(29) 0.001189 410.8 980.3
1093(31) 0.001068 410.8 1067.7
1177(32) 0.000995 410.8 1171.4
1295(33) 0.000941 410.9 1293.6
1347(34) 0.000870 410.9 1435.4
1531(36) 0.000759 411. 1597.
1677(38) 0.000696 411. 1779.
1824(39) 0.000644 411. 1979.
2125(43) 0.000554 411. 2194.
2357(45) 0.000498 411. 2418.
2450(46) 0.000471 411. 2641.
2714(49) 0.000425 411. 2852.
2904(50) 0.000398 411. 3034.
3098(51) 0.000388 411. 3170.
3160(53) 0.000363 411. 3242.
3207(52) 0.000364 411. 3241.
3123(52) 0.000368 411. 3167.
3019(51) 0.000386 411. 3031.
2781(48) 0.000427 411. 2848.
2553(46) 0.000466 411. 2636.
2342(45) 0.000492 411. 2411.
2100(42) 0.000562 411. 2187.
1859(40) 0.000625 411. 1972.
1691(38) 0.000704 411. 1771.
1553(36) 0.000755 411. 1588.
1423(35) 0.000816 411.4 1426.1
1243(33) 0.000930 411.4 1283.7
1171(32) 0.001008 411.4 1161.1
1048(30) 0.001141 411.5 1056.5
963(29) 0.001223 411.5 968.4
934(28) 0.001249 411.5 895.0
874(27) 0.001342 411.5 834.0
786(26) 0.001491 411.6 783.7
725(25) 0.001652 411.6 742.0
777(26) 0.001526 411.6 707.5
701(24) 0.001694 411.6 678.8
672(24) 0.001736 411.7 654.7
670(24) 0.001780 411.7 634.3
664(24) 0.001780 411.7 616.7
619(23) 0.001924 411.7 601.5
597(23) 0.001958 411.8 588.3
574(22) 0.001993 411.8 576.5
548(22) 0.002163 411.8 566.0
546(21) 0.002204 411.8 556.6
564(22) 0.002085 411.9 548.0
547(22) 0.002143 411.9 540.3
540(22) 0.002163 411.9 533.3
546(22) 0.002163 411.9 526.8
489(20) 0.002427 412.0 520.9
509(21) 0.002334 412.0 515.4
532(21) 0.002225 412.0 510.4
507(21) 0.002311 412.0 505.8
526(21) 0.002268 412.0 501.5
531(21) 0.002311 412.1 497.5
517(21) 0.002289 412.1 493.8
470(20) 0.002500 412.1 490.3
476(20) 0.002427 412.1 487.1
470(20) 0.002525 412.2 484.1
477(20) 0.002475 412.2 481.3
483(20) 0.002475 412.2 478.7
483(20) 0.002403 412.2 476.3
493(21) 0.002380 412.3 474.0
488(20) 0.002403 412.3 471.8
490(20) 0.002427 412.3 469.8
477(20) 0.002500 412.3 467.9
495(21) 0.002334 412.4 466.1
471(20) 0.002475 412.4 464.4
461(20) 0.002577 412.4 462.8
466(20) 0.002577 412.4 461.3
486(20) 0.002451 412.4 459.8
472(20) 0.002500 412.5 458.5
455(20) 0.002603 412.5 457.2
448(20) 0.002603 412.5 456.0
456(19) 0.002685 412.5 454.9
431(19) 0.002741 412.6 453.8
469(20) 0.002475 412.6 452.8
440(19) 0.002657 412.6 451.8
476(20) 0.002500 412.6 450.9
454(20) 0.002630 412.7 450.0
427(19) 0.002741 412.7 449.2
457(20) 0.002551 412.7 448.4
422(19) 0.002770 412.7 447.6
464(20) 0.002551 412.8 446.9
399(18) 0.003019 412.8 446.3
452(20) 0.002630 412.8 445.6
380(18) 0.003052 412.8 445.1
410(19) 0.002891 412.8 444.5
430(19) 0.002770 412.9 444.0
448(19) 0.002685 412.9 443.5
422(19) 0.002829 412.9 443.0
433(19) 0.002685 412.9 442.5
444(19) 0.002741 413.0 442.1
438(19) 0.002860 413.0 441.7
435(19) 0.002860 413.0 441.4
425(19) 0.002891 413.0 441.1
394(18) 0.003086 413.0 440.7
427(19) 0.002799 413.1 440.5
419(19) 0.002922 413.1 440.3
422(18) 0.002954 413.1 440.1
409(18) 0.002954 413.1 439.9
415(19) 0.002891 413.2 439.7
434(19) 0.002799 413.2 439.6
443(19) 0.002770 413.2 439.5
432(19) 0.002891 413.2 439.4
447(19) 0.002770 413.2 439.3
452(19) 0.002685 413.3 439.3
434(19) 0.002741 413.3 439.3
439(19) 0.002799 413.3 439.3
452(19) 0.002741 413.3 439.4
435(19) 0.002770 413.4 439.6
460(19) 0.002657 413.4 439.8
417(19) 0.002891 413.4 440.0
445(19) 0.002713 413.4 440.4
429(19) 0.002891 413.4 440.8
420(19) 0.002891 413.5 441.3
446(19) 0.002713 413.5 441.9
440(19) 0.002741 413.5 442.6
456(19) 0.002657 413.5 443.4
440(19) 0.002860 413.6 444.4
434(19) 0.002799 413.6 445.6
428(19) 0.002891 413.6 446.9
427(19) 0.002829 413.6 448.3
425(19) 0.002860 413.6 450.0
443(19) 0.002829 413.7 451.8
440(19) 0.002770 413.7 453.9
417(19) 0.002860 413.7 456.1
459(19) 0.002657 413.7 458.5
467(20) 0.002577 413.7 461.0
448(19) 0.002799 413.8 463.7
487(20) 0.002475 413.8 466.4
467(20) 0.002577 413.8 469.1
461(20) 0.002603 413.8 471.8
477(20) 0.002525 413.8 474.2
472(20) 0.002630 413.9 476.3
465(19) 0.002657 413.9 478.0
473(20) 0.002551 413.9 479.1
502(20) 0.002427 413.9 479.5
481(20) 0.002577 413.9 479.4
442(19) 0.002799 414.0 478.6
473(20) 0.002577 414.0 477.3
461(19) 0.002657 414.0 475.6
459(20) 0.002630 414.0 473.6
451(19) 0.002657 414.0 471.5
453(19) 0.002770 414.1 469.3
436(19) 0.002799 414.1 467.2
481(20) 0.002475 414.1 465.2
472(20) 0.002577 414.1 463.3
476(20) 0.002525 414.1 461.6
444(19) 0.002770 414.2 460.2
428(19) 0.002860 414.2 458.9
438(19) 0.002741 414.2 457.9
417(19) 0.002891 414.2 457.2
481(20) 0.002577 414.2 456.7
419(18) 0.002954 414.3 456.5
464(19) 0.002657 414.3 456.5
441(19) 0.002741 414.3 456.8
433(19) 0.002799 414.3 457.3
446(19) 0.002741 414.3 458.2
437(19) 0.002799 414.3 459.2
438(19) 0.002799 414.4 460.6
461(20) 0.002630 414.4 462.2
440(19) 0.002713 414.4 464.2
424(19) 0.002922 414.4 466.5
454(19) 0.002685 414.4 469.1
462(20) 0.002630 414.5 472.1
459(19) 0.002657 414.5 475.4
441(19) 0.002685 414.5 479.2
475(20) 0.002551 414.5 483.5
460(19) 0.002741 414.5 488.2
481(20) 0.002525 414.5 493.3
509(20) 0.002403 414.6 499.0
503(20) 0.002403 414.6 505.3
524(21) 0.002334 414.6 512.1
513(20) 0.002403 414.6 519.4
499(20) 0.002451 414.6 527.3
542(21) 0.002246 414.6 535.8
561(22) 0.002143 414.7 544.8
539(21) 0.002246 414.7 554.2
542(21) 0.002334 414.7 564.2
548(21) 0.002184 414.7 574.5
585(22) 0.002085 414.7 585.0
577(22) 0.002104 414.7 595.7
614(23) 0.001958 414.8 606.3
562(21) 0.002204 414.8 616.7
610(22) 0.001993 414.8 626.6
619(23) 0.001941 414.8 635.6
591(22) 0.002066 414.8 643.5
640(23) 0.001907 414.8 649.9
638(23) 0.001958 414.9 654.7
665(23) 0.001842 414.9 657.6
638(23) 0.001874 414.9 658.3
652(23) 0.001858 414.9 657.0
686(24) 0.001751 414.9 653.6
649(23) 0.001907 414.9 648.3
671(23) 0.001826 414.9 641.4
614(23) 0.001958 415.0 633.2
619(23) 0.001958 415.0 623.8
631(23) 0.001907 415.0 613.8
656(23) 0.001890 415.0 603.2
606(22) 0.002011 415.0 592.5
578(22) 0.002066 415.0 581.7
597(22) 0.002029 415.0 571.1
597(22) 0.002047 415.1 560.8
572(22) 0.002163 415.1 550.9
572(22) 0.002163 415.1 541.4
523(21) 0.002311 415.1 532.4
510(21) 0.002380 415.1 524.0
528(21) 0.002289 415.1 516.1
483(20) 0.002577 415.1 508.8
497(20) 0.002451 415.2 502.0
498(20) 0.002403 415.2 495.8
501(20) 0.002427 415.2 490.0
490(20) 0.002475 415.2 484.8
492(20) 0.002475 415.2 480.1
511(20) 0.002403 415.2 475.8
498(21) 0.002380 415.2 471.9
501(20) 0.002403 415.2 468.5
474(20) 0.002577 415.3 465.4
492(20) 0.002500 415.3 462.6
487(20) 0.002525 415.3 460.1
474(20) 0.002551 415.3 457.9
457(20) 0.002630 415.3 456.0
502(20) 0.002451 415.3 454.3
472(20) 0.002603 415.3 452.8
483(20) 0.002525 415.3 451.5
475(20) 0.002551 415.3 450.4
468(20) 0.002577 415.4 449.5
469(20) 0.002603 415.4 448.8
476(20) 0.002577 415.4 448.3
442(19) 0.002770 415.4 448.0
475(20) 0.002525 415.4 447.9
498(20) 0.002403 415.4 448.0
472(20) 0.002603 415.4 448.4
460(19) 0.002685 415.4 449.1
504(20) 0.002403 415.4 450.2
470(20) 0.002577 415.5 451.7
496(20) 0.002475 415.5 453.7
496(20) 0.002427 415.5 456.2
456(19) 0.002741 415.5 459.4
456(19) 0.002713 415.5 463.1
479(20) 0.002500 415.5 467.6
461(20) 0.002603 415.5 472.7
509(20) 0.002403 415.5 478.4
486(20) 0.002500 415.5 484.6
523(21) 0.002356 415.5 491.2
548(21) 0.002225 415.5 497.8
519(21) 0.002289 415.6 504.1
585(22) 0.002104 415.6 509.6
551(21) 0.002225 415.6 513.7
571(22) 0.002104 415.6 515.9
552(21) 0.002204 415.6 515.9
541(21) 0.002204 415.6 513.8
555(21) 0.002204 415.6 509.9
522(21) 0.002380 415.6 504.6
563(21) 0.002184 415.6 498.5
512(21) 0.002380 415.6 492.1
501(21) 0.002380 415.6 485.7
466(20) 0.002630 415.6 479.5
507(20) 0.002427 415.6 473.6
472(20) 0.002551 415.7 468.2
457(19) 0.002657 415.7 463.3
439(19) 0.002741 415.7 458.9
449(19) 0.002685 415.7 455.0
458(19) 0.002713 415.7 451.6
479(20) 0.002525 415.7 448.6
439(19) 0.002741 415.7 446.0
429(19) 0.002770 415.7 443.7
445(19) 0.002741 415.7 441.7
438(19) 0.002829 415.7 440.0
457(19) 0.002657 415.7 438.4
460(19) 0.002657 415.7 437.1
430(19) 0.002829 415.7 435.9
419(19) 0.002922 415.7 434.8
419(18) 0.002986 415.7 433.9
442(19) 0.002741 415.7 433.0
426(19) 0.002829 415.7 432.2
429(19) 0.002799 415.8 431.5
431(19) 0.002799 415.8 430.9
410(18) 0.003052 415.8 430.3
408(18) 0.002954 415.8 429.8
407(18) 0.002954 415.8 429.4
431(19) 0.002829 415.8 428.9
403(18) 0.002986 415.8 428.5
407(18) 0.003052 415.8 428.2
433(19) 0.002860 415.8 427.9
433(19) 0.002770 415.8 427.6
436(19) 0.002770 415.8 427.3
425(19) 0.002891 415.8 427.1
411(18) 0.003019 415.8 426.9
425(19) 0.002891 415.8 426.7
394(18) 0.003052 415.8 426.5
414(19) 0.002922 415.8 426.3
402(18) 0.002986 415.8 426.2
446(19) 0.002770 415.8 426.0
409(18) 0.003019 415.8 425.9
435(19) 0.002770 415.8 425.8
397(18) 0.003019 415.8 425.7
422(19) 0.002922 415.8 425.6
413(18) 0.002986 415.8 425.6
408(18) 0.002986 415.8 425.5
415(19) 0.002922 415.8 425.5
396(18) 0.003052 415.8 425.4
419(19) 0.002891 415.8 425.4
397(18) 0.003156 415.8 425.4
409(18) 0.002986 415.8 425.4
432(19) 0.002829 415.8 425.4
425(19) 0.002860 415.8 425.5
390(18) 0.003121 415.8 425.5
403(18) 0.003052 415.8 425.6
419(19) 0.002922 415.8 425.7
396(18) 0.003052 415.8 425.8
411(18) 0.002954 415.8 425.9
410(18) 0.002954 415.8 426.1
417(18) 0.002986 415.8 426.3
411(18) 0.002986 415.8 426.6
401(18) 0.002986 415.8 426.8
388(18) 0.003121 415.8 427.2
412(18) 0.002954 415.8 427.6
445(19) 0.002770 415.8 428.0
408(18) 0.003019 415.8 428.5
420(19) 0.002891 415.8 429.0
447(19) 0.002713 415.8 429.7
422(19) 0.002922 415.8 430.4
477(20) 0.002603 415.8 431.2
395(18) 0.003121 415.8 432.1
397(18) 0.003019 415.8 433.0
405(18) 0.002986 415.8 434.1
436(19) 0.002770 415.8 435.2
388(18) 0.003192 415.8 436.4
425(19) 0.002860 415.8 437.7
408(18) 0.002986 415.8 439.1
425(19) 0.002829 415.8 440.6
429(19) 0.002799 415.8 442.1
425(19) 0.002922 415.8 443.6
431(19) 0.002829 415.7 445.2
438(19) 0.002770 415.7 446.7
453(19) 0.002685 415.7 448.1
436(19) 0.002799 415.7 449.4
420(18) 0.002954 415.7 450.5
418(18) 0.002954 415.7 451.3
448(19) 0.002713 415.7 451.9
434(19) 0.002741 415.7 452.2
401(18) 0.003052 415.7 452.1
443(19) 0.002799 415.7 451.7
406(18) 0.002986 415.7 450.9
426(19) 0.002860 415.7 449.9
422(19) 0.002860 415.7 448.7
410(18) 0.002986 415.7 447.3
402(18) 0.003086 415.7 445.8
401(18) 0.003019 415.7 444.2
397(18) 0.003086 415.6 442.6
405(18) 0.002954 415.6 441.0
420(18) 0.002954 415.6 439.4
393(18) 0.003156 415.6 437.9
403(18) 0.003019 415.6 436.4
418(19) 0.002922 415.6 435.1
415(18) 0.002954 415.6 433.8
434(19) 0.002799 415.6 432.6
428(19) 0.002891 415.6 431.5
438(19) 0.002799 415.6 430.5
413(19) 0.002922 415.6 429.5
406(18) 0.002954 415.6 428.7
422(19) 0.002922 415.6 427.9
449(19) 0.002741 415.5 427.2
407(18) 0.003019 415.5 426.6
441(19) 0.002770 415.5 426.0
417(19) 0.002891 415.5 425.5
418(19) 0.002922 415.5 425.1
420(18) 0.002986 415.5 424.6
428(19) 0.002860 415.5 424.3
426(19) 0.002860 415.5 424.0
426(19) 0.002829 415.5 423.7
417(18) 0.002954 415.4 423.4
426(19) 0.002922 415.4 423.2
421(19) 0.002922 415.4 422.9
442(19) 0.002713 415.4 422.8
419(19) 0.002860 415.4 422.6
401(18) 0.003052 415.4 422.4
395(18) 0.003156 415.4 422.3
405(18) 0.002986 415.4 422.1
396(18) 0.003086 415.4 422.0
442(19) 0.002713 415.3 421.9
407(18) 0.002986 415.3 421.8
405(18) 0.003019 415.3 421.7
448(19) 0.002770 415.3 421.6
424(19) 0.002829 415.3 421.6
414(18) 0.002954 415.3 421.5
417(19) 0.002922 415.3 421.4
407(18) 0.003052 415.2 421.4
403(18) 0.003052 415.2 421.3
357(17) 0.003420 415.2 421.3
416(19) 0.002891 415.2 421.2
423(19) 0.002891 415.2 421.2
415(18) 0.002986 415.2 421.1
401(18) 0.003052 415.2 421.1
391(18) 0.003086 415.1 421.1
422(19) 0.002860 415.1 421.1
396(18) 0.003086 415.1 421.0
445(19) 0.002741 415.1 421.0
408(18) 0.003019 415.1 421.0
388(18) 0.003086 415.1 421.1
397(18) 0.003052 415.1 421.1
390(18) 0.003156 415.0 421.1
411(18) 0.002986 415.0 421.1
392(18) 0.003121 415.0 421.2
392(18) 0.003156 415.0 421.3
415(19) 0.002860 415.0 421.3
404(18) 0.003086 415.0 421.4
434(19) 0.002829 414.9 421.5
416(18) 0.002954 414.9 421.6
413(18) 0.002954 414.9 421.7
405(18) 0.002954 414.9 421.8
434(19) 0.002829 414.9 422.0
431(19) 0.002860 414.8 422.1
447(19) 0.002713 414.8 422.3
408(18) 0.003019 414.8 422.5
398(18) 0.002954 414.8 422.7
398(18) 0.003086 414.8 422.9
444(19) 0.002799 414.8 423.1
434(19) 0.002799 414.7 423.3
436(19) 0.002829 414.7 423.5
407(18) 0.002954 414.7 423.8
415(18) 0.002986 414.7 424.0
419(18) 0.002986 414.7 424.2
412(18) 0.002954 414.6 424.4
411(18) 0.002954 414.6 424.7
436(19) 0.002770 414.6 424.8
426(19) 0.002860 414.6 425.0
393(18) 0.003156 414.6 425.2
396(18) 0.003052 414.5 425.4
428(19) 0.002891 414.5 425.6
408(19) 0.002922 414.5 425.8
408(18) 0.002986 414.5 426.1
407(18) 0.003019 414.5 426.4
426(19) 0.002860 414.4 426.7
402(18) 0.003019 414.4 427.1
396(18) 0.003052 414.4 427.6
404(18) 0.003019 414.4 428.2
393(18) 0.003192 414.3 428.9
405(18) 0.003019 414.3 429.8
431(19) 0.002829 414.3 430.9
402(18) 0.002986 414.3 432.3
403(18) 0.003019 414.2 434.0
409(18) 0.003052 414.2 436.1
434(19) 0.002799 414.2 438.8
427(19) 0.002829 414.2 442.1
417(19) 0.002922 414.2 446.2
432(19) 0.002829 414.1 451.1
446(19) 0.002770 414.1 457.0
439(19) 0.002770 414.1 464.0
467(20) 0.002577 414.1 472.0
473(20) 0.002525 414.0 481.2
403(18) 0.003052 414.0 491.3
446(19) 0.002770 414.0 502.3
474(20) 0.002603 414.0 513.7
473(20) 0.002577 413.9 525.1
485(20) 0.002500 413.9 535.9
496(20) 0.002475 413.9 545.0
527(21) 0.002334 413.9 551.6
511(21) 0.002380 413.8 554.7
469(20) 0.002630 413.8 553.9
469(20) 0.002500 413.8 549.2
461(19) 0.002685 413.7 541.5
507(20) 0.002451 413.7 531.5
494(20) 0.002451 413.7 520.3
444(19) 0.002741 413.7 508.7
457(20) 0.002630 413.6 497.3
471(20) 0.002551 413.6 486.5
445(19) 0.002799 413.6 476.6
431(19) 0.002829 413.6 467.8
421(19) 0.002891 413.5 460.1
405(18) 0.002954 413.5 453.5
383(18) 0.003228 413.5 447.8
416(18) 0.002986 413.4 443.1
411(18) 0.002986 413.4 439.2
403(18) 0.002986 413.4 436.1
386(18) 0.003121 413.4 433.5
438(19) 0.002770 413.3 431.3
367(17) 0.003341 413.3 429.6
394(18) 0.003086 413.3 428.2
399(18) 0.003052 413.2 427.0
406(18) 0.002954 413.2 426.0
412(19) 0.002922 413.2 425.1
412(18) 0.002986 413.1 424.4
422(19) 0.002891 413.1 423.7
423(19) 0.002860 413.1 423.2
419(19) 0.002860 413.1 422.7
404(18) 0.003052 413.0 422.2
419(19) 0.002922 413.0 421.8
416(18) 0.002986 413.0 421.4
415(18) 0.002954 412.9 421.1
428(19) 0.002770 412.9 420.7
448(19) 0.002713 412.9 420.4
415(18) 0.003019 412.8 420.2
402(18) 0.003019 412.8 419.9
383(18) 0.003192 412.8 419.7
400(18) 0.003019 412.7 419.5
429(19) 0.002860 412.7 419.2
413(18) 0.002986 412.7 419.1
424(19) 0.002829 412.6 418.9
387(18) 0.003156 412.6 418.7
401(18) 0.002986 412.6 418.5
402(18) 0.003052 412.5 418.4
408(18) 0.003052 412.5 418.2
420(19) 0.002922 412.5 418.1
403(18) 0.003019 412.4 418.0
382(18) 0.003192 412.4 417.9
409(18) 0.002954 412.4 417.8
403(18) 0.003086 412.3 417.7
416(18) 0.002954 412.3 417.6
413(18) 0.002954 412.3 417.5
407(18) 0.002954 412.2 417.4
365(17) 0.003341 412.2 417.3
388(18) 0.003192 412.2 417.2
392(18) 0.003121 412.1 417.1
389(18) 0.003086 412.1 417.0
421(19) 0.002860 412.0 416.9
426(19) 0.002860 412.0 416.9
429(19) 0.002891 412.0 416.8
419(19) 0.002922 411.9 416.7
390(18) 0.003086 411.9 416.7
403(18) 0.002986 411.9 416.6
423(19) 0.002922 411.8 416.5
414(18) 0.002986 411.8 416.5
415(18) 0.002954 411.7 416.4
407(18) 0.002986 411.7 416.3
422(19) 0.002891 411.7 416.3
412(19) 0.002922 411.6 416.2
411(18) 0.003019 411.6 416.2
398(18) 0.003086 411.6 416.1
422(19) 0.002829 411.5 416.1
420(19) 0.002891 411.5 416.0
404(18) 0.003052 411.4 416.0
428(19) 0.002799 411.4 415.9
395(18) 0.003156 411.4 415.9
406(18) 0.002986 411.3 415.8
403(18) 0.002954 411.3 415.8
415(18) 0.002954 411.2 415.8
426(19) 0.002891 411.2 415.7
417(18) 0.002954 411.2 415.7
403(18) 0.002986 411.1 415.6
417(19) 0.002922 411.1 415.6
411(18) 0.002954 411.0 415.6
390(18) 0.003156 411.0 415.6
414(19) 0.002922 411.0 415.5
425(19) 0.002860 410.9 415.5
379(18) 0.003192 410.9 415.5
433(19) 0.002799 410.8 415.4
407(18) 0.003052 410.8 415.4
410(18) 0.002986 410.8 415.4
413(19) 0.002891 410.7 415.4
423(19) 0.002860 410.7 415.3
417(18) 0.002954 410.6 415.3
415(18) 0.002954 410.6 415.3
418(19) 0.002922 410.5 415.3
425(19) 0.002860 410.5 415.3
426(19) 0.002829 410.5 415.3
384(18) 0.003156 410.4 415.2
395(18) 0.003121 410.4 415.2
416(18) 0.002954 410.3 415.2
412(19) 0.002922 410.3 415.2
405(18) 0.002954 410.2 415.2
412(18) 0.002986 410.2 415.2
390(18) 0.003156 410.2 415.2
425(19) 0.002860 410.1 415.2
396(18) 0.003052 410.1 415.2
403(18) 0.002954 410.0 415.2
435(19) 0.002770 410.0 415.2
410(18) 0.003019 409.9 415.2
427(19) 0.002860 409.9 415.2
410(18) 0.002954 409.8 415.2
393(18) 0.003086 409.8 415.2
366(17) 0.003341 409.8 415.2
383(18) 0.003265 409.7 415.2
394(18) 0.003086 409.7 415.2
381(18) 0.003156 409.6 415.2
424(19) 0.002860 409.6 415.3
384(18) 0.003156 409.5 415.3
408(18) 0.003052 409.5 415.3
441(19) 0.002741 409.4 415.3
423(19) 0.002891 409.4 415.4
398(18) 0.003019 409.3 415.4
397(18) 0.003052 409.3 415.4
370(17) 0.003341 409.2 415.5
393(18) 0.003086 409.2 415.5
405(18) 0.003019 409.1 415.5
370(18) 0.003265 409.1 415.6
400(18) 0.003019 409.1 415.6
385(18) 0.003228 409.0 415.7
400(18) 0.003086 409.0 415.8
403(18) 0.002954 408.9 415.8
385(18) 0.003156 408.9 415.9
432(19) 0.002829 408.8 416.0
400(18) 0.003086 408.8 416.0
421(19) 0.002922 408.7 416.1
429(19) 0.002799 408.7 416.2
413(19) 0.002922 408.6 416.3
384(18) 0.003156 408.6 416.4
381(18) 0.003228 408.5 416.5
408(18) 0.003019 408.5 416.6
383(18) 0.003156 408.4 416.7
398(18) 0.003019 408.4 416.9
414(18) 0.002954 408.3 417.0
408(18) 0.003019 408.3 417.2
389(18) 0.003121 408.2 417.3
403(18) 0.003019 408.2 417.5
388(18) 0.003156 408.1 417.7
407(18) 0.002986 408.1 417.9
388(18) 0.003156 408.0 418.1
389(18) 0.003192 408.0 418.3
423(19) 0.002860 407.9 418.5
393(18) 0.003019 407.9 418.8
437(19) 0.002799 407.8 419.0
420(18) 0.002954 407.8 419.3
370(18) 0.003265 407.7 419.6
389(18) 0.003121 407.7 420.0
396(18) 0.003019 407.6 420.3
405(18) 0.002986 407.6 420.7
355(17) 0.003501 407.5 421.1
414(18) 0.002954 407.4 421.5
420(19) 0.002860 407.4 422.0
438(19) 0.002770 407.3 422.5
422(19) 0.002922 407.3 423.0
391(18) 0.003156 407.2 423.6
382(18) 0.003228 407.2 424.2
413(19) 0.002922 407.1 424.9
399(18) 0.003019 407.1 425.7
406(18) 0.002986 407.0 426.5
373(17) 0.003303 407.0 427.3
394(18) 0.003121 406.9 428.3
411(18) 0.002954 406.9 429.3
413(19) 0.002922 406.8 430.5
425(19) 0.002829 406.8 431.7
426(19) 0.002891 406.7 433.1
431(19) 0.002860 406.6 434.7
445(19) 0.002685 406.6 436.4
400(18) 0.003019 406.5 438.2
436(19) 0.002799 406.5 440.3
446(19) 0.002799 406.4 442.7
444(19) 0.002770 406.4 445.4
448(19) 0.002922 406.3 448.4
447(18) 0.002954 406.3 451.9
472(19) 0.002741 406.2 456.1
456(19) 0.002829 406.1 461.1
477(19) 0.002713 406.1 467.1
519(20) 0.002427 406.0 474.7
493(20) 0.002577 406.0 484.4
525(20) 0.002475 405.9 496.8
537(21) 0.002380 405.9 513.0
523(20) 0.002451 405.8 534.1
604(22) 0.002104 405.8 561.2
619(22) 0.002029 405.7 595.9
675(23) 0.001907 405.6 639.1
689(23) 0.001890 405.6 692.2
741(24) 0.001751 405.5 755.6
818(25) 0.001550 405.5 828.8
935(27) 0.001352 405.4 911.0
1022(28) 0.001257 405.4 999.4
1103(29) 0.001181 405.3 1090.1
1143(30) 0.001126 405.2 1176.5
1275(32) 0.000989 405.2 1250.1
1283(32) 0.000989 405.1 1301.4
1257(32) 0.001001 405.1 1321.8
1276(31) 0.001014 405.0 1307.7
1181(30) 0.001082 404.9 1261.6
1244(32) 0.001008 404.9 1191.5
1068(29) 0.001173 404.8 1106.7
954(27) 0.001352 404.8 1016.4
944(27) 0.001362 404.7 927.1
834(25) 0.001550 404.7 843.5
774(25) 0.001639 404.6 768.5
720(24) 0.001751 404.5 703.2
681(23) 0.001907 404.5 648.4
646(22) 0.002011 404.4 603.3
592(21) 0.002184 404.4 567.1
588(22) 0.002163 404.3 538.7
528(20) 0.002403 404.2 516.6
523(20) 0.002451 404.2 499.6
489(20) 0.002630 404.1 486.6
485(19) 0.002657 404.1 476.5
475(19) 0.002657 404.0 468.6
502(20) 0.002500 403.9 462.3
463(19) 0.002770 403.9 457.2
433(18) 0.002986 403.8 453.0
451(19) 0.002829 403.8 449.5
427(18) 0.002986 403.7 446.5
421(18) 0.002986 403.6 443.8
436(18) 0.002954 403.6 441.6
434(18) 0.002986 403.5 439.6
428(18) 0.003019 403.5 437.9
395(18) 0.003192 403.4 436.3
404(18) 0.003156 403.3 435.0
410(18) 0.003121 403.3 433.8
436(18) 0.002954 403.2 432.7
402(18) 0.003192 403.1 431.6
400(18) 0.003156 403.1 430.6
423(18) 0.002954 403.0 429.7
425(18) 0.003052 403.0 428.8
406(18) 0.003156 402.9 427.9
446(19) 0.002860 402.8 427.0
402(18) 0.003192 402.8 426.2
405(18) 0.003086 402.7 425.5
397(18) 0.003265 402.6 424.8
423(18) 0.003019 402.6 424.2
404(18) 0.003192 402.5 423.7
414(18) 0.003121 402.5 423.2
409(18) 0.003052 402.4 422.8
394(18) 0.003265 402.3 422.4
422(18) 0.003121 402.3 422.1
382(17) 0.003303 402.2 421.8
408(18) 0.003121 402.1 421.6
385(17) 0.003303 402.1 421.4
416(18) 0.003019 402.0 421.2
417(18) 0.003121 401.9 421.1
430(18) 0.002986 401.9 421.0
410(18) 0.003052 401.8 421.0
395(18) 0.003156 401.8 420.9
435(18) 0.002954 401.7 420.9
412(18) 0.003121 401.6 420.9
432(18) 0.002986 401.6 421.0
400(18) 0.003156 401.5 421.0
392(18) 0.003265 401.4 421.1
405(18) 0.003156 401.4 421.2
391(17) 0.003303 401.3 421.4
427(18) 0.003019 401.2 421.5
416(18) 0.003086 401.2 421.7
392(18) 0.003192 401.1 422.0
403(18) 0.003192 401.0 422.2
413(18) 0.003121 401.0 422.5
422(18) 0.003052 400.9 422.8
379(17) 0.003341 400.8 423.2
426(18) 0.002954 400.8 423.5
442(19) 0.002860 400.7 423.9
429(18) 0.003019 400.7 424.4
406(18) 0.003228 400.6 424.9
446(19) 0.002799 400.5 425.4
404(18) 0.003121 400.5 426.0
421(18) 0.003086 400.4 426.6
396(18) 0.003265 400.3 427.3
401(18) 0.003156 400.3 428.0
383(17) 0.003341 400.2 428.8
415(18) 0.003052 400.1 429.6
403(18) 0.003192 400.1 430.6
401(18) 0.003192 400.0 431.5
416(18) 0.003121 399.9 432.6
426(18) 0.002954 399.9 433.8
454(19) 0.002770 399.8 435.0
467(19) 0.002770 399.7 436.3
419(18) 0.003052 399.7 437.8
452(19) 0.002829 399.6 439.4
464(19) 0.002741 399.5 441.1
437(19) 0.002891 399.5 442.9
433(18) 0.002954 399.4 444.9
457(19) 0.002829 399.3 447.1
471(19) 0.002741 399.3 449.5
435(19) 0.002922 399.2 452.1
435(19) 0.002860 399.1 455.0
466(19) 0.002770 399.0 458.2
497(20) 0.002603 399.0 461.7
446(19) 0.002891 398.9 465.6
495(20) 0.002577 398.8 469.9
482(20) 0.002577 398.8 474.8
474(19) 0.002741 398.7 480.3
514(20) 0.002500 398.6 486.7
508(20) 0.002500 398.6 494.0
497(20) 0.002577 398.5 502.7
525(21) 0.002356 398.4 513.0
558(21) 0.002311 398.4 525.5
548(21) 0.002380 398.3 540.7
600(22) 0.002124 398.2 559.4
616(22) 0.002066 398.2 582.4
650(23) 0.001958 398.1 610.8
663(23) 0.001924 398.0 645.5
714(24) 0.001811 398.0 687.9
751(24) 0.001694 397.9 738.9
765(24) 0.001680 397.8 799.3
844(26) 0.001479 397.7 870.0
963(27) 0.001332 397.7 951.0
1032(28) 0.001266 397.6 1042.3
1118(30) 0.001126 397.5 1142.3
1251(31) 0.001021 397.5 1248.6
1353(33) 0.000918 397.4 1358.0
1482(34) 0.000855 397.3 1464.3
1544(35) 0.000840 397.3 1560.4
1615(36) 0.000785 397. 1637.
1619(36) 0.000785 397. 1685.
1664(37) 0.000747 397. 1698.
1608(35) 0.000803 397. 1674.
1550(35) 0.000835 396.9 1617.4
1494(34) 0.000850 396.8 1535.1
1419(34) 0.000891 396.8 1436.9
1294(32) 0.000964 396.7 1331.2
1191(31) 0.001075 396.6 1225.2
1122(29) 0.001157 396.6 1123.5
1005(28) 0.001266 396.5 1029.5
874(26) 0.001457 396.4 945.4
853(26) 0.001468 396.4 871.8
812(25) 0.001575 396.3 809.2
777(25) 0.001666 396.2 757.3
781(25) 0.001613 396.1 715.5
728(24) 0.001751 396.1 683.2
657(23) 0.001924 396.0 659.6
709(24) 0.001780 395.9 644.2
677(23) 0.001941 395.9 636.4
685(23) 0.001874 395.8 635.9
695(23) 0.001826 395.7 642.6
725(24) 0.001736 395.6 656.7
724(24) 0.001751 395.6 678.4
707(23) 0.001842 395.5 707.8
769(25) 0.001666 395.4 745.0
848(26) 0.001491 395.4 789.9
867(26) 0.001479 395.3 842.0
913(27) 0.001362 395.2 900.1
996(28) 0.001313 395.2 962.5
1057(29) 0.001214 395.1 1026.3
1065(29) 0.001157 395.0 1087.1
1156(30) 0.001104 394.9 1139.8
1156(30) 0.001096 394.9 1177.9
1263(31) 0.001014 394.8 1196.0
1197(31) 0.001068 394.7 1190.7
1114(30) 0.001141 394.7 1162.6
1167(30) 0.001082 394.6 1115.4
1088(29) 0.001165 394.5 1055.2
1021(28) 0.001266 394.4 987.9
921(27) 0.001392 394.4 918.7
852(26) 0.001468 394.3 851.5
810(25) 0.001575 394.2 788.4
730(24) 0.001751 394.2 731.4
686(23) 0.001874 394.1 680.9
651(23) 0.001975 394.0 637.2
625(22) 0.002029 393.9 600.3
589(22) 0.002124 393.9 569.5
591(22) 0.002163 393.8 544.2
569(21) 0.002289 393.7 523.5
537(21) 0.002380 393.7 506.9
501(20) 0.002525 393.6 493.4
515(20) 0.002451 393.5 482.6
527(20) 0.002451 393.4 473.7
498(20) 0.002603 393.4 466.4
488(20) 0.002630 393.3 460.3
463(19) 0.002741 393.2 455.1
444(19) 0.002829 393.1 450.7
434(18) 0.002954 393.1 446.8
421(18) 0.003086 393.0 443.3
443(19) 0.002860 392.9 440.3
453(19) 0.002829 392.9 437.5
445(19) 0.002829 392.8 435.0
409(18) 0.003121 392.7 432.7
458(19) 0.002829 392.6 430.5
448(19) 0.002829 392.6 428.6
435(19) 0.002922 392.5 426.8
419(18) 0.003019 392.4 425.1
439(19) 0.002860 392.4 423.6
446(19) 0.002922 392.3 422.1
427(18) 0.003019 392.2 420.8
438(19) 0.002891 392.1 419.6
426(18) 0.002986 392.1 418.4
423(18) 0.003019 392.0 417.3
423(18) 0.003086 391.9 416.2
425(18) 0.003019 391.8 415.3
410(18) 0.003121 391.8 414.3
415(18) 0.003019 391.7 413.5
425(18) 0.002986 391.6 412.7
408(18) 0.003192 391.6 411.9
433(18) 0.002954 391.5 411.1
420(18) 0.002986 391.4 410.4
448(19) 0.002860 391.3 409.8
422(18) 0.002986 391.3 409.1
414(18) 0.003121 391.2 408.5
421(18) 0.003052 391.1 407.9
439(19) 0.002922 391.0 407.4
408(18) 0.003086 391.0 406.8
408(18) 0.003156 390.9 406.3
423(18) 0.003052 390.8 405.8
417(18) 0.003052 390.8 405.3
415(18) 0.003086 390.7 404.9
408(18) 0.003121 390.6 404.5
429(18) 0.002954 390.5 404.0
413(18) 0.003156 390.5 403.6
423(18) 0.003019 390.4 403.2
431(18) 0.002954 390.3 402.9
390(18) 0.003228 390.2 402.5
433(18) 0.002954 390.2 402.1
443(19) 0.002922 390.1 401.8
438(19) 0.002891 390.0 401.5
411(18) 0.003121 390.0 401.1
419(18) 0.002986 389.9 400.8
430(18) 0.002986 389.8 400.5
398(17) 0.003303 389.7 400.2
398(18) 0.003192 389.7 399.9
426(18) 0.002986 389.6 399.7
423(18) 0.003019 389.5 399.4
411(18) 0.003121 389.5 399.1
417(18) 0.003121 389.4 398.9
399(18) 0.003192 389.3 398.6
406(18) 0.003156 389.2 398.4
417(18) 0.003019 389.2 398.1
431(19) 0.002922 389.1 397.9
401(18) 0.003265 389.0 397.7
411(18) 0.003052 388.9 397.5
408(18) 0.003121 388.9 397.2
411(18) 0.003086 388.8 397.0
419(18) 0.003052 388.7 396.8
437(18) 0.002954 388.7 396.6
418(18) 0.003121 388.6 396.4
421(18) 0.002986 388.5 396.2
393(18) 0.003265 388.4 396.0
384(17) 0.003303 388.4 395.8
387(17) 0.003420 388.3 395.6
418(18) 0.003052 388.2 395.5
412(18) 0.003121 388.1 395.3
435(19) 0.002860 388.1 395.1
403(18) 0.003192 388.0 394.9
395(17) 0.003303 387.9 394.8
432(18) 0.002954 387.9 394.6
401(18) 0.003156 387.8 394.4
387(18) 0.003228 387.7 394.3
399(18) 0.003228 387.6 394.1
406(18) 0.003228 387.6 394.0
379(17) 0.003341 387.5 393.8
382(17) 0.003380 387.4 393.7
428(19) 0.002922 387.3 393.5
423(18) 0.003052 387.3 393.4
395(17) 0.003303 387.2 393.2
394(18) 0.003228 387.1 393.1
386(17) 0.003341 387.1 392.9
395(18) 0.003192 387.0 392.8
399(18) 0.003192 386.9 392.7
400(18) 0.003265 386.8 392.5
417(18) 0.003052 386.8 392.4
389(17) 0.003303 386.7 392.2
399(18) 0.003121 386.6 392.1
402(18) 0.003192 386.6 392.0
397(18) 0.003265 386.5 391.9
414(18) 0.003052 386.4 391.7
396(18) 0.003228 386.3 391.6
396(18) 0.003192 386.3 391.5
401(18) 0.003156 386.2 391.4
377(17) 0.003501 386.1 391.2
373(17) 0.003420 386.1 391.1
408(18) 0.003086 386.0 391.0
394(18) 0.003192 385.9 390.9
394(17) 0.003303 385.8 390.8
387(17) 0.003303 385.8 390.7
394(18) 0.003265 385.7 390.5
397(18) 0.003228 385.6 390.4
402(18) 0.003121 385.5 390.3
403(18) 0.003192 385.5 390.2
401(18) 0.003228 385.4 390.1
393(18) 0.003228 385.3 390.0
377(17) 0.003420 385.3 389.9
412(18) 0.003052 385.2 389.8
396(18) 0.003228 385.1 389.7
412(18) 0.003156 385.0 389.6
407(18) 0.003156 385.0 389.5
413(18) 0.003086 384.9 389.4
412(18) 0.003052 384.8 389.3
390(18) 0.003265 384.8 389.2
384(17) 0.003460 384.7 389.1
420(18) 0.002986 384.6 389.0
398(18) 0.003228 384.6 388.9
388(18) 0.003265 384.5 388.8
394(18) 0.003192 384.4 388.7
403(18) 0.003265 384.3 388.6
395(18) 0.003192 384.3 388.5
364(17) 0.003460 384.2 388.4
381(17) 0.003341 384.1 388.3
402(18) 0.003156 384.1 388.2
375(17) 0.003460 384.0 388.1
397(18) 0.003192 383.9 388.1
393(18) 0.003265 383.8 388.0
388(17) 0.003303 383.8 387.9
410(18) 0.003121 383.7 387.8
375(17) 0.003460 383.6 387.7
366(17) 0.00354 383.6 387.6
379(17) 0.003341 383.5 387.5
384(17) 0.003303 383.4 387.4
413(18) 0.003086 383.4 387.3
413(18) 0.003156 383.3 387.3
417(18) 0.003052 383.2 387.2
400(18) 0.003121 383.1 387.1
396(18) 0.003228 383.1 387.0
391(18) 0.003228 383.0 386.9
411(18) 0.003156 382.9 386.8
420(18) 0.003052 382.9 386.8
374(17) 0.003380 382.8 386.7
397(18) 0.003228 382.7 386.6
404(18) 0.003192 382.7 386.5
430(18) 0.003052 382.6 386.4
388(17) 0.003341 382.5 386.4
409(18) 0.003052 382.4 386.3
364(17) 0.003501 382.4 386.2
386(17) 0.003341 382.3 386.1
375(17) 0.003420 382.2 386.1
407(18) 0.003156 382.2 386.0
413(18) 0.003086 382.1 385.9
400(18) 0.003156 382.0 385.8
387(18) 0.003265 382.0 385.8
376(17) 0.003460 381.9 385.7
416(18) 0.003052 381.8 385.6
382(17) 0.003341 381.8 385.6
390(18) 0.003192 381.7 385.5
391(17) 0.003341 381.6 385.4
387(17) 0.003341 381.5 385.3
390(17) 0.003303 381.5 385.3
391(17) 0.003303 381.4 385.2
410(18) 0.003052 381.3 385.1
399(18) 0.003156 381.3 385.1
415(18) 0.003192 381.2 385.0
397(18) 0.003192 381.1 384.9
411(18) 0.003121 381.1 384.9
421(18) 0.002986 381.0 384.8
412(18) 0.003086 380.9 384.8
433(18) 0.002986 380.9 384.7
413(18) 0.003052 380.8 384.6
393(18) 0.003192 380.7 384.6
394(18) 0.003228 380.7 384.5
388(18) 0.003228 380.6 384.5
401(18) 0.003265 380.5 384.4
389(17) 0.003303 380.5 384.4
417(18) 0.003019 380.4 384.3
410(18) 0.003192 380.3 384.2
384(17) 0.003303 380.3 384.2
407(18) 0.003192 380.2 384.1
384(17) 0.003341 380.1 384.1
375(17) 0.003341 380.1 384.0
390(18) 0.003228 380.0 384.0
380(17) 0.003341 379.9 384.0
411(18) 0.003192 379.9 383.9
391(17) 0.003303 379.8 383.9
399(18) 0.003121 379.7 383.8
371(17) 0.003420 379.7 383.8
381(17) 0.003341 379.6 383.8
388(17) 0.003303 379.5 383.7
401(18) 0.003192 379.5 383.7
392(18) 0.003265 379.4 383.7
370(17) 0.003420 379.3 383.6
394(17) 0.003303 379.3 383.6
368(17) 0.00359 379.2 383.6
417(18) 0.003052 379.1 383.5
383(17) 0.003341 379.1 383.5
387(18) 0.003228 379.0 383.5
412(18) 0.003121 378.9 383.5
381(17) 0.003420 378.9 383.5
377(17) 0.003341 378.8 383.5
361(17) 0.00354 378.7 383.5
368(17) 0.003460 378.7 383.5
389(18) 0.003228 378.6 383.5
393(17) 0.003341 378.5 383.5
393(18) 0.003228 378.5 383.5
399(18) 0.003156 378.4 383.6
383(17) 0.003341 378.3 383.6
382(17) 0.003303 378.3 383.6
401(18) 0.003265 378.2 383.7
398(18) 0.003265 378.1 383.7
369(17) 0.003420 378.1 383.8
407(18) 0.003156 378.0 383.9
410(18) 0.003121 378.0 384.0
424(18) 0.003019 377.9 384.1
397(18) 0.003228 377.8 384.2
404(18) 0.003156 377.8 384.4
394(18) 0.003192 377.7 384.6
390(17) 0.003341 377.6 384.8
386(17) 0.003341 377.6 385.0
401(18) 0.003156 377.5 385.3
405(18) 0.003121 377.4 385.7
413(18) 0.003052 377.4 386.2
389(18) 0.003265 377.3 386.7
399(18) 0.003265 377.3 387.4
374(17) 0.003420 377.2 388.1
373(17) 0.003380 377.1 389.1
394(18) 0.003265 377.1 390.2
404(18) 0.003192 377.0 391.4
389(17) 0.003303 376.9 392.9
414(18) 0.003121 376.9 394.6
411(18) 0.003086 376.8 396.6
396(18) 0.003156 376.8 398.7
390(17) 0.003303 376.7 401.1
418(18) 0.003086 376.6 403.7
389(17) 0.003303 376.6 406.4
410(18) 0.003086 376.5 409.2
425(18) 0.002954 376.4 412.0
427(18) 0.002986 376.4 414.7
407(18) 0.003192 376.3 417.1
464(19) 0.002741 376.3 418.9
428(18) 0.002954 376.2 420.1
462(19) 0.002713 376.1 420.5
458(19) 0.002829 376.1 420.1
458(19) 0.002860 376.0 418.9
429(18) 0.002986 376.0 417.0
436(19) 0.002922 375.9 414.6
421(18) 0.003019 375.8 411.9
456(19) 0.002770 375.8 409.1
401(18) 0.003228 375.7 406.2
425(18) 0.002986 375.7 403.5
403(18) 0.003121 375.6 400.9
413(18) 0.003086 375.5 398.5
419(18) 0.003052 375.5 396.3
394(18) 0.003265 375.4 394.4
423(18) 0.002986 375.4 392.7
411(18) 0.003086 375.3 391.2
409(18) 0.003086 375.2 389.9
363(17) 0.00354 375.2 388.8
397(18) 0.003228 375.1 387.9
384(17) 0.003420 375.1 387.1
398(18) 0.003228 375.0 386.5
409(18) 0.003086 374.9 385.9
383(17) 0.003341 374.9 385.5
369(17) 0.00354 374.8 385.2
374(17) 0.003380 374.8 384.9
389(18) 0.003228 374.7 384.7
372(17) 0.003420 374.6 384.5
379(17) 0.003341 374.6 384.3
406(18) 0.003228 374.5 384.2
380(17) 0.003341 374.5 384.2
390(18) 0.003228 374.4 384.1
373(17) 0.003380 374.4 384.1
406(18) 0.003121 374.3 384.1
384(17) 0.003380 374.2 384.2
356(17) 0.00359 374.2 384.2
357(17) 0.00354 374.1 384.3
378(17) 0.003380 374.1 384.4
373(17) 0.003460 374.0 384.6
362(17) 0.00359 374.0 384.8
400(18) 0.003192 373.9 385.0
371(17) 0.003420 373.8 385.2
397(18) 0.003192 373.8 385.5
376(17) 0.003380 373.7 385.9
400(18) 0.003265 373.7 386.3
399(18) 0.003192 373.6 386.8
407(18) 0.003121 373.6 387.3
373(17) 0.003380 373.5 388.0
369(17) 0.003460 373.4 388.8
385(17) 0.003380 373.4 389.7
375(17) 0.003420 373.3 390.8
391(18) 0.003265 373.3 392.0
392(18) 0.003192 373.2 393.5
398(18) 0.003265 373.2 395.1
398(17) 0.003303 373.1 397.0
375(17) 0.003420 373.1 399.0
391(18) 0.003265 373.0 401.3
386(17) 0.003303 372.9 403.9
400(18) 0.003156 372.9 406.6
410(18) 0.003192 372.8 409.5
375(17) 0.003420 372.8 412.5
387(18) 0.003265 372.7 415.5
408(18) 0.003086 372.7 418.5
404(18) 0.003156 372.6 421.2
408(18) 0.003156 372.6 423.6
396(18) 0.003228 372.5 425.5
398(18) 0.003192 372.5 426.7
426(18) 0.002954 372.4 427.2
365(17) 0.003501 372.4 427.0
401(18) 0.003228 372.3 426.1
407(18) 0.003156 372.2 424.7
423(18) 0.003086 372.2 422.9
388(18) 0.003228 372.1 421.0
443(19) 0.002891 372.1 419.0
390(17) 0.003341 372.0 417.1
384(17) 0.003303 372.0 415.4
422(18) 0.002986 371.9 413.9
416(18) 0.003052 371.9 412.8
391(17) 0.003303 371.8 412.1
382(17) 0.003341 371.8 411.8
403(18) 0.003192 371.7 411.9
426(18) 0.002986 371.7 412.6
406(18) 0.003052 371.6 413.8
392(18) 0.003265 371.6 415.7
400(18) 0.003228 371.5 418.2
408(18) 0.003121 371.5 421.5
413(18) 0.003086 371.4 425.5
388(17) 0.003303 371.4 430.4
423(18) 0.003052 371.3 436.2
443(19) 0.002922 371.3 443.0
425(18) 0.003052 371.2 450.7
465(19) 0.002741 371.2 459.5
449(19) 0.002770 371.1 469.2
481(19) 0.002657 371.1 479.8
506(20) 0.002577 371.0 491.2
507(20) 0.002500 371.0 503.2
509(20) 0.002525 370.9 515.4
573(21) 0.002184 370.9 527.7
525(20) 0.002451 370.8 539.7
564(21) 0.002289 370.8 551.5
556(21) 0.002289 370.7 563.4
570(21) 0.002246 370.7 575.8
576(21) 0.002184 370.6 589.3
561(21) 0.002311 370.6 604.3
623(22) 0.002124 370.5 621.2
636(22) 0.002011 370.5 640.0
633(22) 0.002011 370.4 660.2
661(23) 0.001907 370.4 681.3
715(24) 0.001795 370.3 702.1
728(24) 0.001765 370.3 721.1
763(25) 0.001666 370.2 736.3
769(25) 0.001652 370.2 745.8
760(24) 0.001680 370.1 748.0
754(24) 0.001694 370.1 742.3
734(24) 0.001765 370.1 728.9
707(24) 0.001795 370.0 709.1
642(23) 0.001975 370.0 684.8
667(23) 0.001907 369.9 657.7
639(22) 0.001993 369.9 629.7
585(21) 0.002225 369.8 601.9
549(21) 0.002334 369.8 575.2
551(21) 0.002311 369.7 550.5
532(20) 0.002403 369.7 527.8
483(19) 0.002657 369.6 507.6
506(20) 0.002551 369.6 489.7
509(20) 0.002551 369.5 474.1
450(19) 0.002799 369.5 460.8
419(18) 0.002986 369.5 449.4
452(19) 0.002860 369.4 439.8
414(18) 0.003121 369.4 431.8
402(18) 0.003156 369.3 425.2
411(18) 0.003086 369.3 419.6
382(18) 0.003265 369.2 415.0
386(17) 0.003341 369.2 411.1
415(18) 0.003121 369.1 407.9
426(18) 0.003019 369.1 405.1
396(18) 0.003228 369.1 402.8
387(18) 0.003265 369.0 400.7
363(17) 0.00363 369.0 398.9
389(17) 0.003303 368.9 397.4
396(18) 0.003265 368.9 396.0
441(19) 0.002922 368.8 394.8
388(18) 0.003228 368.8 393.6
394(18) 0.003228 368.8 392.6
410(18) 0.003192 368.7 391.7
407(18) 0.003121 368.7 390.9
382(17) 0.003341 368.6 390.1
362(17) 0.003501 368.6 389.5
398(18) 0.003192 368.5 388.8
382(17) 0.003380 368.5 388.3
395(18) 0.003192 368.5 387.8
364(17) 0.00354 368.4 387.3
378(17) 0.003303 368.4 386.9
388(17) 0.003341 368.3 386.5
370(17) 0.00359 368.3 386.1
360(17) 0.003501 368.3 385.8
393(18) 0.003265 368.2 385.5
364(17) 0.003501 368.2 385.3
362(17) 0.003501 368.1 385.1
396(17) 0.003303 368.1 384.9
353(17) 0.00359 368.1 384.7
386(17) 0.003303 368.0 384.6
368(17) 0.003460 368.0 384.5
355(17) 0.00363 367.9 384.4
387(17) 0.003341 367.9 384.3
343(17) 0.00367 367.9 384.3
363(17) 0.003501 367.8 384.2
359(17) 0.00354 367.8 384.3
387(17) 0.003303 367.7 384.3
378(17) 0.003420 367.7 384.3
353(16) 0.00372 367.7 384.4
359(17) 0.00354 367.6 384.5
367(17) 0.003460 367.6 384.7
375(17) 0.003460 367.6 384.8
368(17) 0.00354 367.5 385.0
387(17) 0.003303 367.5 385.2
367(17) 0.003501 367.4 385.5
367(17) 0.003420 367.4 385.8
363(17) 0.00354 367.4 386.1
361(17) 0.00363 367.3 386.5
368(17) 0.003460 367.3 386.9
374(17) 0.003380 367.3 387.4
391(18) 0.003228 367.2 387.9
350(17) 0.00367 367.2 388.5
401(18) 0.003228 367.1 389.2
372(17) 0.003420 367.1 389.9
384(17) 0.003341 367.1 390.7
391(18) 0.003228 367.0 391.7
378(17) 0.003420 367.0 392.6
363(17) 0.00359 367.0 393.7
387(17) 0.003341 366.9 395.0
399(18) 0.003192 366.9 396.3
406(18) 0.003121 366.9 397.7
396(18) 0.003228 366.8 399.3
407(18) 0.003228 366.8 401.0
395(18) 0.003228 366.8 402.9
406(18) 0.003156 366.7 404.9
431(19) 0.002922 366.7 407.1
414(18) 0.003086 366.7 409.4
416(18) 0.003121 366.6 411.9
389(18) 0.003265 366.6 414.6
429(18) 0.002954 366.6 417.4
451(19) 0.002829 366.5 420.4
401(18) 0.003192 366.5 423.5
435(18) 0.002986 366.5 426.7
465(19) 0.002770 366.4 430.1
475(19) 0.002713 366.4 433.6
440(19) 0.002860 366.4 437.1
438(19) 0.002922 366.3 440.7
427(18) 0.003052 366.3 444.2
426(18) 0.002986 366.3 447.7
456(19) 0.002799 366.2 451.1
473(19) 0.002685 366.2 454.2
477(19) 0.002685 366.2 457.1
485(19) 0.002657 366.1 459.6
465(19) 0.002741 366.1 461.6
454(19) 0.002799 366.1 463.2
477(20) 0.002603 366.0 464.2
457(19) 0.002829 366.0 464.7
504(20) 0.002603 366.0 464.6
498(20) 0.002551 366.0 463.9
510(20) 0.002525 365.9 462.7
486(20) 0.002603 365.9 461.1
475(19) 0.002713 365.9 459.1
474(19) 0.002741 365.8 456.7
463(19) 0.002741 365.8 454.2
479(19) 0.002657 365.8 451.5
499(20) 0.002500 365.7 448.7
483(20) 0.002630 365.7 445.8
483(19) 0.002713 365.7 443.0
488(20) 0.002577 365.7 440.3
485(20) 0.002630 365.6 437.7
477(19) 0.002657 365.6 435.1
482(20) 0.002603 365.6 432.8
458(19) 0.002829 365.5 430.6
458(19) 0.002770 365.5 428.6
479(19) 0.002657 365.5 426.8
477(19) 0.002685 365.5 425.1
440(19) 0.002891 365.4 423.7
466(19) 0.002860 365.4 422.4
449(19) 0.002829 365.4 421.3
435(19) 0.002922 365.4 420.5
439(19) 0.002891 365.3 419.8
466(19) 0.002741 365.3 419.3
451(19) 0.002860 365.3 419.0
430(18) 0.002986 365.2 418.9
451(19) 0.002829 365.2 419.0
441(19) 0.002860 365.2 419.4
458(19) 0.002770 365.2 419.9
447(19) 0.002891 365.1 420.7
450(19) 0.002829 365.1 421.7
455(19) 0.002770 365.1 422.9
439(19) 0.002922 365.1 424.5
439(19) 0.002922 365.0 426.3
457(19) 0.002860 365.0 428.4
455(19) 0.002829 365.0 430.9
469(19) 0.002713 365.0 433.9
436(18) 0.002954 364.9 437.2
465(19) 0.002741 364.9 441.1
464(19) 0.002799 364.9 445.6
445(19) 0.002860 364.9 450.8
468(19) 0.002713 364.8 456.7
484(20) 0.002630 364.8 463.5
440(19) 0.002891 364.8 471.3
475(19) 0.002713 364.8 480.3
485(19) 0.002657 364.7 490.5
497(20) 0.002525 364.7 502.0
525(20) 0.002403 364.7 515.1
526(20) 0.002427 364.7 529.9
558(21) 0.002334 364.7 546.4
565(21) 0.002289 364.6 564.9
601(22) 0.002124 364.6 585.3
581(21) 0.002184 364.6 607.9
621(22) 0.002085 364.6 632.5
655(23) 0.001975 364.5 659.2
680(23) 0.001874 364.5 687.9
741(24) 0.001708 364.5 718.3
750(24) 0.001694 364.5 750.5
784(25) 0.001639 364.5 783.7
855(26) 0.001514 364.4 817.5
870(26) 0.001446 364.4 851.3
902(27) 0.001413 364.4 883.8
955(28) 0.001313 364.4 914.2
1005(28) 0.001266 364.4 941.0
1028(28) 0.001249 364.3 963.0
1019(28) 0.001257 364.3 978.7
1025(29) 0.001231 364.3 987.2
1045(29) 0.001214 364.3 988.0
1069(29) 0.001214 364.3 980.8
1031(28) 0.001257 364.2 966.3
991(28) 0.001303 364.2 945.4
905(27) 0.001413 364.2 919.3
899(27) 0.001392 364.2 889.3
870(26) 0.001468 364.2 856.9
828(25) 0.001562 364.1 823.0
814(25) 0.001562 364.1 788.9
778(25) 0.001626 364.1 755.3
714(24) 0.001765 364.1 722.6
729(24) 0.001751 364.1 691.6
644(22) 0.002011 364.1 662.2
638(22) 0.001993 364.0 634.8
629(22) 0.002011 364.0 609.5
603(22) 0.002124 364.0 586.2
598(22) 0.002143 364.0 565.1
535(20) 0.002451 364.0 545.9
573(21) 0.002246 364.0 528.6
536(21) 0.002380 363.9 513.2
533(20) 0.002403 363.9 499.4
522(20) 0.002475 363.9 487.1
496(20) 0.002577 363.9 476.3
450(19) 0.002860 363.9 466.7
494(20) 0.002577 363.9 458.3
475(19) 0.002685 363.8 450.8
458(19) 0.002770 363.8 444.2
438(18) 0.002954 363.8 438.4
468(19) 0.002741 363.8 433.2
435(19) 0.002860 363.8 428.7
446(19) 0.002829 363.8 424.6
439(19) 0.002891 363.7 420.9
428(18) 0.003052 363.7 417.6
411(18) 0.003121 363.7 414.7
433(18) 0.002954 363.7 412.0
394(18) 0.003228 363.7 409.5
400(18) 0.003228 363.7 407.3
395(17) 0.003303 363.7 405.2
391(17) 0.003303 363.6 403.3
392(18) 0.003192 363.6 401.5
386(17) 0.003303 363.6 399.9
385(17) 0.003341 363.6 398.3
368(17) 0.003501 363.6 396.9
377(17) 0.003380 363.6 395.5
384(17) 0.003341 363.6 394.3
408(18) 0.003052 363.6 393.1
384(17) 0.003341 363.5 392.0
414(18) 0.003121 363.5 390.9
403(18) 0.003192 363.5 389.9
366(17) 0.003501 363.5 389.0
381(17) 0.003341 363.5 388.1
377(17) 0.003420 363.5 387.3
393(17) 0.003341 363.5 386.5
390(17) 0.003303 363.5 385.7
370(17) 0.003501 363.4 385.0
335(16) 0.00372 363.4 384.3
378(17) 0.003420 363.4 383.6
386(17) 0.003380 363.4 383.0
373(17) 0.003420 363.4 382.4
401(18) 0.003156 363.4 381.9
392(18) 0.003228 363.4 381.3
380(17) 0.003380 363.4 380.8
350(16) 0.00372 363.4 380.3
400(18) 0.003192 363.3 379.9
391(18) 0.003265 363.3 379.4
392(18) 0.003228 363.3 379.0
342(16) 0.00376 363.3 378.6
367(17) 0.00359 363.3 378.2
357(17) 0.00359 363.3 377.8
372(17) 0.003460 363.3 377.4
378(17) 0.003380 363.3 377.1
419(18) 0.003052 363.3 376.7
358(17) 0.00363 363.3 376.4
358(17) 0.00359 363.3 376.1
357(17) 0.00359 363.2 375.8
366(17) 0.003460 363.2 375.5
361(17) 0.00354 363.2 375.2
366(17) 0.00354 363.2 375.0
396(18) 0.003228 363.2 374.7
368(17) 0.003460 363.2 374.5
356(17) 0.003501 363.2 374.2
378(17) 0.003380 363.2 374.0
393(17) 0.003341 363.2 373.8
382(17) 0.003380 363.2 373.5
384(17) 0.003303 363.2 373.3
356(17) 0.00359 363.2 373.1
337(16) 0.00381 363.2 372.9
368(17) 0.00359 363.2 372.8
384(17) 0.003303 363.1 372.6
350(17) 0.00367 363.1 372.4
357(17) 0.00354 363.1 372.2
382(17) 0.003341 363.1 372.1
359(17) 0.00367 363.1 371.9
381(17) 0.003341 363.1 371.7
389(18) 0.003265 363.1 371.6
371(17) 0.003460 363.1 371.4
370(17) 0.003420 363.1 371.3
379(17) 0.003420 363.1 371.2
385(17) 0.003341 363.1 371.0
391(18) 0.003265 363.1 370.9
400(18) 0.003192 363.1 370.8
388(17) 0.003303 363.1 370.6
341(16) 0.00391 363.1 370.5
382(17) 0.003380 363.1 370.4
366(17) 0.003501 363.1 370.3
402(18) 0.003156 363.1 370.2
390(18) 0.003265 363.1 370.1
378(17) 0.003460 363.0 370.0
387(17) 0.003341 363.0 369.9
365(17) 0.003460 363.0 369.8
402(18) 0.003121 363.0 369.7
392(18) 0.003265 363.0 369.6
395(17) 0.003303 363.0 369.5
380(17) 0.003303 363.0 369.4
386(17) 0.003303 363.0 369.3
365(17) 0.003501 363.0 369.3
407(18) 0.003156 363.0 369.2
377(17) 0.003460 363.0 369.1
378(17) 0.003380 363.0 369.0
407(18) 0.003156 363.0 368.9
412(18) 0.003086 363.0 368.9
394(18) 0.003265 363.0 368.8
391(17) 0.003341 363.0 368.7
396(18) 0.003192 363.0 368.7
408(18) 0.003156 363.0 368.6
365(17) 0.003460 363.0 368.5
392(18) 0.003228 363.0 368.5
383(17) 0.003460 363.0 368.4
358(17) 0.00354 363.0 368.4
388(18) 0.003265 363.0 368.3
395(18) 0.003228 363.0 368.2
372(17) 0.003420 363.0 368.2
379(17) 0.003460 363.0 368.1
370(17) 0.003501 363.0 368.0
367(17) 0.003420 363.0 368.0
405(18) 0.003192 363.0 367.9
353(17) 0.00363 363.0 367.9
361(17) 0.00363 363.0 367.8
375(17) 0.003460 363.0 367.8
379(17) 0.003341 363.0 367.7
377(17) 0.003380 363.0 367.7
354(17) 0.00363 363.0 367.7
375(17) 0.003460 363.0 367.6
388(17) 0.003303 363.0 367.6
406(18) 0.003121 363.0 367.5
376(17) 0.003380 363.0 367.5
370(17) 0.003420 363.0 367.5
393(17) 0.003303 363.0 367.4
377(17) 0.003420 363.0 367.4
380(17) 0.003341 363.0 367.4
339(16) 0.00376 363.0 367.3
348(17) 0.00367 363.0 367.3
386(17) 0.003420 363.0 367.3
375(17) 0.003420 363.0 367.2
362(17) 0.00354 363.0 367.2
346(17) 0.00363 363.0 367.2
375(17) 0.003460 363.0 367.2
416(18) 0.003086 363.0 367.1
400(18) 0.003192 363.0 367.1
343(17) 0.00367 363.0 367.1
351(17) 0.00363 363.0 367.1
375(17) 0.003380 363.0 367.0
365(17) 0.00354 363.0 367.0
368(17) 0.003460 363.0 367.0
367(17) 0.003460 363.0 367.0
375(17) 0.003380 363.0 367.0
367(17) 0.003501 363.0 366.9
370(17) 0.00354 363.1 366.9
376(17) 0.003380 363.1 366.9
390(17) 0.003303 363.1 366.9
386(17) 0.003341 363.1 366.9
384(17) 0.003303 363.1 366.8
380(17) 0.003460 363.1 366.8
380(17) 0.003380 363.1 366.8
352(17) 0.00359 363.1 366.8
370(17) 0.003460 363.1 366.8
384(17) 0.003303 363.1 366.8
364(17) 0.00359 363.1 366.8
374(17) 0.003380 363.1 366.7
368(17) 0.003420 363.1 366.7
364(17) 0.003501 363.1 366.7
381(17) 0.003303 363.1 366.7
369(17) 0.00354 363.1 366.7
379(17) 0.003420 363.1 366.7
356(17) 0.00354 363.1 366.7
357(17) 0.00359 363.1 366.7
405(18) 0.003156 363.1 366.7
383(17) 0.003420 363.2 366.7
370(17) 0.003460 363.2 366.6
380(17) 0.003303 363.2 366.6
371(17) 0.003460 363.2 366.6
375(17) 0.003420 363.2 366.6
366(17) 0.003501 363.2 366.6
374(17) 0.003460 363.2 366.5
415(18) 0.003052 363.2 366.5
367(17) 0.003420 363.2 366.5
341(16) 0.00372 363.2 366.5
374(17) 0.003460 363.2 366.5
351(17) 0.00363 363.2 366.5
370(17) 0.003501 363.2 366.5
350(17) 0.00363 363.2 366.5
344(17) 0.00367 363.2 366.5
351(16) 0.00376 363.3 366.5
353(17) 0.00359 363.3 366.5
372(17) 0.003420 363.3 366.5
359(17) 0.00354 363.3 366.5
366(17) 0.003501 363.3 366.5
372(17) 0.003501 363.3 366.6
346(17) 0.00367 363.3 366.6
359(17) 0.00354 363.3 366.6
353(17) 0.00359 363.3 366.6
354(17) 0.00359 363.3 366.6
369(17) 0.00354 363.3 366.6
362(17) 0.003501 363.3 366.6
346(17) 0.00367 363.3 366.6
344(17) 0.00367 363.4 366.6
369(17) 0.003501 363.4 366.6
352(17) 0.00367 363.4 366.7
371(17) 0.003420 363.4 366.7
355(17) 0.00359 363.4 366.7
346(17) 0.00367 363.4 366.7
342(16) 0.00376 363.4 366.7
365(17) 0.00354 363.4 366.7
363(17) 0.00354 363.4 366.7
337(16) 0.00376 363.4 366.7
357(17) 0.003501 363.5 366.7
342(16) 0.00376 363.5 366.7
368(17) 0.003501 363.5 366.7
371(17) 0.003460 363.5 366.7
356(17) 0.00354 363.5 366.8
332(16) 0.00381 363.5 366.8
373(17) 0.003460 363.5 366.8
392(17) 0.003303 363.5 366.8
364(17) 0.00354 363.5 366.8
379(17) 0.003380 363.5 366.8
339(17) 0.00367 363.6 366.8
376(17) 0.003460 363.6 366.9
373(17) 0.003460 363.6 366.9
361(17) 0.00354 363.6 366.9
369(17) 0.003460 363.6 366.9
367(17) 0.003420 363.6 366.9
359(17) 0.00359 363.6 366.9
370(17) 0.003501 363.6 366.9
357(17) 0.00354 363.6 367.0
389(18) 0.003265 363.7 367.0
382(17) 0.003303 363.7 367.0
353(17) 0.00359 363.7 367.0
364(17) 0.00354 363.7 367.0
410(18) 0.003121 363.7 367.1
376(17) 0.003420 363.7 367.1
378(17) 0.003341 363.7 367.1
358(17) 0.00359 363.7 367.1
379(17) 0.003460 363.7 367.1
371(17) 0.003460 363.8 367.2
381(17) 0.003341 363.8 367.2
388(18) 0.003265 363.8 367.2
379(17) 0.003380 363.8 367.2
369(17) 0.00354 363.8 367.3
396(18) 0.003192 363.8 367.3
387(17) 0.003341 363.8 367.3
412(18) 0.003052 363.8 367.3
366(17) 0.003460 363.9 367.4
370(17) 0.00354 363.9 367.4
368(17) 0.003420 363.9 367.4
377(17) 0.003341 363.9 367.4
381(17) 0.003341 363.9 367.5
377(17) 0.003380 363.9 367.5
389(17) 0.003341 363.9 367.5
376(17) 0.003420 363.9 367.6
369(17) 0.003460 364.0 367.6
367(17) 0.003460 364.0 367.6
366(17) 0.003460 364.0 367.7
347(16) 0.00376 364.0 367.7
367(17) 0.003460 364.0 367.7
368(17) 0.003460 364.0 367.8
376(17) 0.003380 364.0 367.8
390(18) 0.003265 364.1 367.8
370(17) 0.003501 364.1 367.9
350(17) 0.00363 364.1 367.9
354(17) 0.00363 364.1 367.9
388(18) 0.003228 364.1 368.0
341(16) 0.00372 364.1 368.0
367(17) 0.00359 364.1 368.1
372(17) 0.003420 364.2 368.1
349(17) 0.00363 364.2 368.1
397(18) 0.003192 364.2 368.2
368(17) 0.003501 364.2 368.2
361(17) 0.00359 364.2 368.3
351(17) 0.00359 364.2 368.3
351(17) 0.00367 364.2 368.4
353(17) 0.00363 364.3 368.4
366(17) 0.003460 364.3 368.5
360(17) 0.00363 364.3 368.5
373(17) 0.003460 364.3 368.6
348(17) 0.00354 364.3 368.6
360(17) 0.00359 364.3 368.7
349(17) 0.00359 364.3 368.7
338(16) 0.00381 364.4 368.8
361(17) 0.00359 364.4 368.9
362(17) 0.003501 364.4 368.9
371(17) 0.003420 364.4 369.0
365(17) 0.003501 364.4 369.0
357(17) 0.00363 364.4 369.1
375(17) 0.003420 364.4 369.2
382(18) 0.003265 364.5 369.2
339(16) 0.00381 364.5 369.3
349(17) 0.00367 364.5 369.4
352(17) 0.00367 364.5 369.5
346(16) 0.00372 364.5 369.5
359(17) 0.00354 364.5 369.6
366(17) 0.003380 364.6 369.7
377(17) 0.003420 364.6 369.8
357(17) 0.00359 364.6 369.9
338(16) 0.00376 364.6 370.0
350(17) 0.00359 364.6 370.0
340(16) 0.00376 364.6 370.1
339(16) 0.00381 364.6 370.2
354(17) 0.00359 364.7 370.3
343(16) 0.00376 364.7 370.5
357(17) 0.00359 364.7 370.6
361(17) 0.003501 364.7 370.7
360(17) 0.00354 364.7 370.8
365(17) 0.00363 364.7 370.9
401(18) 0.003156 364.8 371.1
344(17) 0.00367 364.8 371.2
383(17) 0.003341 364.8 371.3
365(17) 0.003501 364.8 371.5
350(17) 0.00367 364.8 371.6
367(17) 0.003460 364.8 371.8
360(17) 0.00354 364.9 372.0
364(17) 0.003460 364.9 372.2
369(17) 0.003460 364.9 372.4
360(17) 0.00363 364.9 372.6
394(18) 0.003228 364.9 372.8
398(18) 0.003192 364.9 373.1
398(18) 0.003228 365.0 373.4
379(17) 0.003380 365.0 373.7
370(17) 0.003501 365.0 374.0
380(17) 0.003341 365.0 374.4
398(18) 0.003228 365.0 374.8
381(17) 0.003303 365.0 375.3
387(17) 0.003303 365.1 375.9
397(18) 0.003265 365.1 376.5
383(17) 0.003341 365.1 377.2
393(18) 0.003192 365.1 378.0
383(17) 0.003341 365.1 379.0
354(17) 0.00354 365.1 380.0
356(17) 0.00367 365.2 381.2
368(17) 0.003420 365.2 382.5
394(18) 0.003265 365.2 383.9
389(18) 0.003265 365.2 385.5
385(17) 0.003341 365.2 387.2
432(18) 0.003019 365.2 389.0
398(18) 0.003228 365.3 390.8
411(18) 0.003052 365.3 392.7
384(17) 0.003341 365.3 394.5
365(17) 0.003460 365.3 396.2
367(17) 0.00359 365.3 397.8
400(18) 0.003156 365.3 399.1
406(18) 0.003121 365.4 400.3
436(19) 0.002922 365.4 401.2
402(18) 0.003192 365.4 402.0
432(18) 0.002954 365.4 402.6
419(18) 0.003052 365.4 403.1
433(19) 0.002922 365.5 403.4
393(18) 0.003228 365.5 403.6
391(18) 0.003265 365.5 403.6
407(18) 0.003228 365.5 403.4
429(18) 0.003019 365.5 403.0
428(19) 0.002922 365.5 402.5
433(18) 0.002954 365.6 401.7
439(19) 0.002922 365.6 400.9
393(17) 0.003303 365.6 400.0
417(18) 0.003086 365.6 399.0
407(18) 0.003156 365.6 398.0
393(18) 0.003156 365.6 397.2
390(17) 0.003303 365.7 396.4
378(17) 0.003420 365.7 395.8
424(18) 0.002986 365.7 395.4
388(17) 0.003303 365.7 395.2
400(18) 0.003156 365.7 395.2
392(18) 0.003265 365.8 395.5
404(18) 0.003228 365.8 396.0
411(18) 0.003121 365.8 396.9
395(18) 0.003228 365.8 398.1
400(18) 0.003192 365.8 399.7
408(18) 0.003121 365.8 401.6
405(18) 0.003228 365.9 403.9
409(18) 0.003052 365.9 406.5
397(18) 0.003265 365.9 409.5
381(17) 0.003303 365.9 412.7
424(18) 0.002986 365.9 416.2
447(19) 0.002922 365.9 419.8
446(19) 0.002829 366.0 423.4
415(18) 0.003019 366.0 426.9
440(19) 0.002922 366.0 430.1
426(18) 0.002986 366.0 432.7
440(19) 0.002922 366.0 434.5
426(18) 0.002986 366.1 435.4
446(19) 0.002891 366.1 435.3
447(19) 0.002799 366.1 434.3
417(18) 0.003086 366.1 432.5
423(18) 0.003121 366.1 430.0
421(18) 0.003019 366.1 427.2
429(18) 0.002954 366.2 424.2
420(18) 0.003052 366.2 421.2
417(18) 0.003052 366.2 418.2
417(18) 0.003121 366.2 415.5
434(19) 0.002922 366.2 413.0
415(18) 0.003086 366.3 410.8
399(18) 0.003156 366.3 409.0
425(18) 0.002986 366.3 407.4
382(17) 0.003420 366.3 406.2
417(18) 0.003052 366.3 405.3
380(17) 0.003303 366.3 404.7
374(17) 0.003460 366.4 404.4
406(18) 0.003121 366.4 404.4
408(18) 0.003192 366.4 404.6
407(18) 0.003192 366.4 405.0
389(18) 0.003265 366.4 405.7
383(17) 0.003303 366.4 406.6
414(18) 0.003052 366.5 407.7
412(18) 0.003156 366.5 409.0
422(18) 0.002986 366.5 410.5
415(18) 0.003052 366.5 412.3
385(18) 0.003265 366.5 414.3
411(18) 0.003121 366.6 416.6
401(18) 0.003228 366.6 419.2
384(17) 0.003303 366.6 422.1
391(18) 0.003228 366.6 425.4
411(18) 0.003052 366.6 429.1
438(18) 0.002954 366.6 433.3
413(18) 0.003121 366.7 438.1
446(19) 0.002891 366.7 443.4
452(19) 0.002799 366.7 449.4
456(19) 0.002799 366.7 456.2
462(19) 0.002741 366.7 463.7
475(19) 0.002713 366.7 472.2
514(20) 0.002475 366.8 481.7
464(19) 0.002713 366.8 492.2
503(20) 0.002500 366.8 503.8
554(21) 0.002311 366.8 516.6
518(20) 0.002500 366.8 530.8
541(21) 0.002334 366.9 546.2
544(21) 0.002334 366.9 562.8
554(21) 0.002268 366.9 580.9
611(22) 0.002066 366.9 600.1
637(22) 0.002066 366.9 620.6
631(22) 0.002011 366.9 642.3
635(22) 0.002011 367.0 664.8
668(23) 0.001907 367.0 688.0
661(23) 0.001941 367.0 711.4
744(24) 0.001751 367.0 734.8
775(25) 0.001639 367.0 757.6
749(24) 0.001680 367.0 778.9
823(25) 0.001550 367.1 798.3
837(26) 0.001526 367.1 814.7
797(25) 0.001613 367.1 827.6
813(25) 0.001587 367.1 836.2
882(27) 0.001413 367.1 840.0
847(26) 0.001491 367.1 838.8
819(25) 0.001550 367.2 832.7
844(26) 0.001514 367.2 822.1
795(25) 0.001613 367.2 807.4
796(25) 0.001587 367.2 789.5
764(25) 0.001666 367.2 769.1
710(24) 0.001795 367.2 747.0
692(23) 0.001874 367.3 723.8
682(23) 0.001890 367.3 700.3
693(23) 0.001826 367.3 676.9
682(23) 0.001842 367.3 653.9
634(22) 0.002029 367.3 631.8
561(21) 0.002289 367.3 610.7
592(22) 0.002143 367.4 590.7
572(21) 0.002225 367.4 572.0
574(21) 0.002204 367.4 554.5
535(21) 0.002356 367.4 538.4
537(20) 0.002403 367.4 523.6
500(20) 0.002551 367.4 510.0
486(20) 0.002577 367.5 497.7
509(20) 0.002500 367.5 486.6
489(20) 0.002603 367.5 476.5
485(19) 0.002657 367.5 467.4
478(19) 0.002685 367.5 459.3
492(20) 0.002603 367.5 452.1
454(19) 0.002799 367.6 445.6
458(19) 0.002770 367.6 439.8
471(19) 0.002741 367.6 434.6
421(18) 0.003019 367.6 430.0
414(18) 0.003052 367.6 425.9
411(18) 0.003086 367.6 422.3
410(18) 0.003121 367.7 419.0
423(18) 0.003052 367.7 416.0
396(18) 0.003192 367.7 413.4
381(17) 0.003303 367.7 411.0
353(17) 0.00359 367.7 408.8
408(18) 0.003086 367.7 406.8
410(18) 0.003156 367.7 405.0
407(18) 0.003121 367.8 403.3
404(18) 0.003156 367.8 401.8
385(18) 0.003265 367.8 400.3
404(18) 0.003228 367.8 399.0
373(17) 0.003501 367.8 397.8
394(18) 0.003228 367.8 396.7
403(18) 0.003121 367.9 395.6
396(18) 0.003228 367.9 394.6
391(18) 0.003228 367.9 393.7
406(18) 0.003192 367.9 392.8
397(18) 0.003228 367.9 391.9
402(18) 0.003156 367.9 391.2
395(18) 0.003156 367.9 390.4
409(18) 0.003121 368.0 389.7
371(17) 0.003460 368.0 389.1
375(17) 0.003380 368.0 388.4
388(18) 0.003265 368.0 387.9
399(18) 0.003156 368.0 387.3
386(17) 0.003341 368.0 386.8
378(17) 0.003460 368.0 386.3
396(18) 0.003228 368.1 385.8
421(18) 0.003019 368.1 385.3
374(17) 0.003420 368.1 384.9
358(17) 0.003501 368.1 384.5
398(17) 0.003303 368.1 384.1
402(18) 0.003121 368.1 383.7
391(18) 0.003265 368.1 383.4
399(18) 0.003156 368.2 383.0
395(18) 0.003265 368.2 382.7
386(17) 0.003341 368.2 382.4
397(18) 0.003156 368.2 382.1
419(18) 0.003019 368.2 381.8
368(17) 0.003460 368.2 381.6
372(17) 0.003420 368.2 381.3
365(17) 0.00359 368.3 381.1
409(18) 0.003121 368.3 380.9
406(18) 0.003156 368.3 380.6
354(17) 0.00359 368.3 380.4
359(17) 0.00359 368.3 380.2
394(17) 0.003303 368.3 380.0
394(18) 0.003228 368.3 379.8
388(18) 0.003265 368.4 379.7
409(18) 0.003086 368.4 379.5
390(18) 0.003265 368.4 379.3
412(18) 0.003156 368.4 379.2
374(17) 0.003420 368.4 379.0
398(18) 0.003192 368.4 378.9
376(17) 0.003341 368.4 378.8
357(17) 0.00354 368.4 378.6
359(17) 0.00367 368.5 378.5
374(17) 0.003341 368.5 378.4
373(17) 0.003420 368.5 378.3
369(17) 0.003420 368.5 378.2
365(17) 0.003501 368.5 378.1
380(17) 0.003420 368.5 378.0
362(17) 0.00354 368.5 377.9
370(17) 0.003420 368.5 377.8
375(17) 0.003380 368.6 377.7
412(18) 0.003086 368.6 377.7
362(17) 0.00363 368.6 377.6
394(18) 0.003228 368.6 377.5
361(17) 0.003501 368.6 377.5
399(18) 0.003192 368.6 377.4
404(18) 0.003156 368.6 377.3
367(17) 0.003501 368.6 377.3
374(17) 0.003420 368.6 377.2
404(18) 0.003121 368.7 377.2
369(17) 0.003380 368.7 377.2
365(17) 0.00354 368.7 377.1
372(17) 0.003501 368.7 377.1
386(17) 0.003303 368.7 377.0
389(17) 0.003303 368.7 377.0
401(18) 0.003121 368.7 377.0
381(17) 0.003380 368.7 377.0
375(17) 0.003420 368.7 376.9
380(17) 0.003380 368.8 376.9
372(17) 0.003420 368.8 376.9
361(17) 0.003420 368.8 376.9
385(17) 0.003341 368.8 376.9
402(18) 0.003192 368.8 376.9
367(17) 0.003460 368.8 376.9
349(17) 0.00367 368.8 376.9
406(18) 0.003086 368.8 376.9
392(17) 0.003303 368.8 376.9
402(18) 0.003192 368.8 376.9
383(17) 0.003380 368.9 376.9
378(17) 0.003380 368.9 376.9
366(17) 0.003460 368.9 377.0
386(17) 0.003341 368.9 377.0
405(18) 0.003192 368.9 377.0
384(17) 0.003303 368.9 377.0
394(18) 0.003228 368.9 377.1
371(17) 0.003380 368.9 377.1
327(16) 0.00396 368.9 377.1
370(17) 0.003460 368.9 377.2
364(17) 0.00354 368.9 377.2
393(18) 0.003228 369.0 377.3
389(18) 0.003192 369.0 377.3
396(18) 0.003228 369.0 377.4
391(17) 0.003303 369.0 377.4
371(17) 0.003420 369.0 377.5
377(17) 0.003380 369.0 377.6
390(18) 0.003228 369.0 377.6
365(17) 0.00354 369.0 377.7
387(17) 0.003341 369.0 377.8
404(18) 0.003192 369.0 377.9
392(18) 0.003228 369.0 378.0
363(17) 0.003501 369.0 378.1
347(17) 0.00367 369.1 378.2
364(17) 0.00359 369.1 378.3
355(17) 0.00359 369.1 378.4
348(17) 0.00367 369.1 378.5
391(18) 0.003228 369.1 378.6
352(17) 0.00363 369.1 378.7
354(17) 0.00363 369.1 378.9
380(17) 0.003380 369.1 379.0
384(18) 0.003265 369.1 379.2
410(18) 0.003086 369.1 379.3
367(17) 0.003460 369.1 379.5
376(17) 0.003420 369.1 379.7
370(17) 0.00354 369.1 379.8
344(17) 0.00363 369.1 380.0
387(18) 0.003265 369.2 380.2
358(17) 0.00359 369.2 380.4
399(18) 0.003265 369.2 380.7
363(17) 0.003501 369.2 380.9
387(17) 0.003303 369.2 381.1
367(17) 0.003460 369.2 381.4
366(17) 0.003460 369.2 381.7
380(17) 0.003420 369.2 382.0
396(18) 0.003228 369.2 382.3
396(18) 0.003192 369.2 382.6
398(18) 0.003156 369.2 382.9
408(18) 0.003156 369.2 383.3
395(18) 0.003265 369.2 383.7
377(17) 0.003380 369.2 384.1
377(17) 0.003380 369.2 384.5
388(17) 0.003341 369.2 385.0
400(18) 0.003156 369.2 385.5
379(17) 0.003460 369.2 386.0
397(18) 0.003228 369.2 386.6
382(17) 0.003341 369.3 387.2
365(17) 0.003420 369.3 387.8
383(17) 0.003380 369.3 388.5
401(18) 0.003228 369.3 389.2
391(18) 0.003265 369.3 390.0
383(17) 0.003341 369.3 390.8
394(18) 0.003156 369.3 391.8
397(18) 0.003228 369.3 392.8
422(18) 0.003086 369.3 393.8
386(18) 0.003265 369.3 395.0
395(18) 0.003192 369.3 396.3
423(18) 0.002986 369.3 397.7
404(18) 0.003228 369.3 399.3
412(18) 0.003156 369.3 401.0
430(19) 0.002922 369.3 402.9
375(17) 0.003460 369.3 405.1
395(18) 0.003192 369.3 407.7
440(19) 0.002891 369.3 410.6
390(17) 0.003341 369.3 414.0
436(19) 0.002922 369.3 418.0
427(18) 0.002986 369.3 422.7
414(18) 0.003086 369.3 428.4
447(19) 0.002829 369.3 435.2
452(19) 0.002860 369.3 443.3
419(18) 0.003052 369.3 453.1
463(19) 0.002713 369.3 464.7
502(20) 0.002525 369.3 478.4
493(20) 0.002577 369.3 494.4
538(20) 0.002427 369.3 513.0
539(20) 0.002403 369.3 534.3
569(21) 0.002225 369.3 558.3
594(22) 0.002124 369.3 585.0
629(22) 0.002029 369.3 614.1
674(23) 0.001907 369.3 645.3
730(24) 0.001765 369.3 677.8
725(24) 0.001736 369.3 710.5
742(24) 0.001708 369.3 742.1
755(24) 0.001694 369.3 770.4
815(25) 0.001587 369.3 793.6
824(25) 0.001550 369.3 809.4
847(26) 0.001491 369.3 816.1
855(26) 0.001468 369.3 812.9
816(25) 0.001575 369.3 800.3
770(25) 0.001639 369.3 779.8
739(24) 0.001736 369.3 753.4
700(23) 0.001842 369.3 723.4
700(24) 0.001811 369.3 691.6
647(23) 0.001975 369.3 659.8
639(22) 0.002029 369.3 628.9
573(21) 0.002204 369.3 600.0
587(21) 0.002184 369.3 573.5
555(21) 0.002246 369.3 549.7
499(20) 0.002577 369.3 528.7
488(19) 0.002657 369.3 510.5
496(20) 0.002577 369.3 495.0
509(20) 0.002500 369.3 482.0
474(20) 0.002630 369.3 471.2
423(18) 0.003019 369.3 462.6
452(19) 0.002860 369.3 455.7
483(20) 0.002630 369.3 450.5
443(19) 0.002860 369.3 446.6
431(19) 0.002922 369.3 443.9
408(18) 0.003192 369.3 442.2
419(18) 0.003086 369.3 441.3
432(18) 0.002986 369.3 441.3
427(18) 0.002954 369.3 441.9
428(18) 0.002954 369.3 443.2
431(18) 0.002986 369.3 444.9
447(19) 0.002891 369.3 447.3
479(20) 0.002630 369.3 450.1
460(19) 0.002799 369.3 453.3
455(19) 0.002741 369.3 457.0
465(19) 0.002770 369.3 461.0
451(19) 0.002860 369.3 465.3
503(20) 0.002475 369.3 470.0
529(20) 0.002451 369.3 474.7
447(19) 0.002799 369.3 479.6
469(19) 0.002685 369.3 484.5
485(19) 0.002713 369.2 489.2
486(19) 0.002657 369.2 493.7
489(20) 0.002603 369.2 497.6
483(20) 0.002603 369.2 501.0
506(20) 0.002551 369.2 503.6
493(20) 0.002630 369.2 505.4
505(20) 0.002500 369.2 506.3
501(20) 0.002525 369.2 506.3
465(19) 0.002713 369.2 505.6
491(20) 0.002603 369.2 504.2
525(20) 0.002475 369.2 502.4
510(20) 0.002475 369.2 500.4
514(20) 0.002451 369.2 498.4
479(20) 0.002630 369.2 496.6
494(20) 0.002577 369.2 495.3
488(20) 0.002630 369.2 494.8
491(20) 0.002603 369.2 495.2
525(20) 0.002427 369.1 496.7
492(20) 0.002603 369.1 499.8
512(20) 0.002525 369.1 504.4
536(20) 0.002403 369.1 510.9
532(20) 0.002403 369.1 519.6
527(20) 0.002427 369.1 530.4
521(20) 0.002403 369.1 543.6
531(21) 0.002380 369.1 559.3
580(21) 0.002246 369.1 577.6
581(21) 0.002184 369.1 598.2
614(22) 0.002066 369.1 620.9
618(22) 0.002029 369.1 645.6
686(23) 0.001842 369.1 671.4
676(23) 0.001890 369.0 697.7
723(24) 0.001765 369.0 723.3
791(25) 0.001587 369.0 746.7
780(25) 0.001600 369.0 766.2
803(25) 0.001626 369.0 780.2
833(25) 0.001562 369.0 787.1
890(26) 0.001435 369.0 786.1
796(25) 0.001600 369.0 777.2
803(25) 0.001575 369.0 761.3
731(24) 0.001736 369.0 739.7
737(24) 0.001751 369.0 714.1
663(23) 0.001924 368.9 686.3
633(22) 0.001993 368.9 657.7
652(23) 0.001941 368.9 629.2
612(22) 0.002104 368.9 602.0
571(21) 0.002225 368.9 576.2
536(20) 0.002403 368.9 552.5
531(21) 0.002356 368.9 531.0
516(20) 0.002475 368.9 511.7
510(20) 0.002475 368.9 494.6
460(19) 0.002799 368.9 479.6
467(19) 0.002799 368.8 466.6
459(19) 0.002770 368.8 455.5
461(19) 0.002741 368.8 445.9
454(19) 0.002829 368.8 437.8
442(18) 0.002954 368.8 430.9
391(18) 0.003265 368.8 425.1
410(18) 0.003086 368.8 420.1
397(18) 0.003192 368.8 415.9
444(19) 0.002891 368.7 412.3
418(18) 0.003086 368.7 409.2
419(18) 0.003019 368.7 406.5
424(18) 0.002986 368.7 404.1
415(18) 0.003019 368.7 402.0
388(18) 0.003265 368.7 400.2
364(17) 0.00359 368.7 398.5
385(18) 0.003265 368.7 397.0
387(17) 0.003303 368.6 395.6
395(18) 0.003265 368.6 394.3
371(17) 0.003420 368.6 393.2
399(18) 0.003265 368.6 392.1
400(18) 0.003156 368.6 391.1
410(18) 0.003121 368.6 390.2
368(17) 0.003460 368.6 389.3
385(18) 0.003265 368.6 388.5
400(18) 0.003228 368.5 387.7
376(17) 0.003420 368.5 387.0
381(17) 0.003341 368.5 386.4
382(17) 0.003303 368.5 385.8
404(18) 0.003121 368.5 385.2
350(16) 0.00372 368.5 384.6
378(17) 0.003341 368.4 384.1
406(18) 0.003121 368.4 383.6
361(17) 0.003501 368.4 383.2
398(18) 0.003265 368.4 382.7
359(17) 0.00363 368.4 382.3
387(17) 0.003341 368.4 381.9
413(18) 0.003052 368.4 381.5
389(18) 0.003265 368.3 381.2
371(17) 0.003420 368.3 380.8
373(17) 0.003460 368.3 380.5
367(17) 0.003501 368.3 380.2
392(18) 0.003228 368.3 379.9
390(18) 0.003265 368.3 379.6
373(17) 0.003460 368.2 379.4
418(18) 0.003052 368.2 379.1
388(17) 0.003303 368.2 378.9
397(18) 0.003156 368.2 378.6
408(18) 0.003121 368.2 378.4
368(17) 0.003460 368.2 378.2
377(17) 0.003460 368.1 378.0
368(17) 0.003501 368.1 377.8
355(17) 0.00359 368.1 377.6
360(17) 0.003501 368.1 377.4
362(17) 0.00354 368.1 377.2
386(17) 0.003341 368.0 377.0
350(17) 0.00367 368.0 376.9
399(18) 0.003192 368.0 376.7
378(17) 0.003303 368.0 376.5
392(17) 0.003303 368.0 376.4
405(18) 0.003192 368.0 376.2
389(17) 0.003303 367.9 376.1
373(17) 0.003380 367.9 376.0
380(17) 0.003303 367.9 375.8
389(18) 0.003265 367.9 375.7
372(17) 0.003501 367.9 375.6
358(17) 0.00359 367.8 375.5
361(17) 0.003501 367.8 375.4
372(17) 0.003460 367.8 375.2
388(17) 0.003303 367.8 375.1
393(17) 0.003303 367.8 375.0
369(17) 0.003501 367.7 374.9
370(17) 0.003420 367.7 374.8
371(17) 0.003380 367.7 374.7
371(17) 0.003460 367.7 374.6
388(17) 0.003341 367.7 374.5
369(17) 0.003460 367.6 374.4
359(17) 0.00354 367.6 374.4
360(17) 0.003501 367.6 374.3
378(17) 0.003341 367.6 374.2
356(17) 0.00363 367.5 374.1
364(17) 0.003501 367.5 374.0
375(17) 0.003380 367.5 374.0
396(18) 0.003156 367.5 373.9
380(17) 0.003380 367.5 373.8
364(17) 0.00363 367.4 373.7
393(18) 0.003228 367.4 373.7
377(17) 0.003380 367.4 373.6
399(18) 0.003192 367.4 373.5
359(17) 0.00354 367.3 373.5
371(17) 0.003501 367.3 373.4
418(18) 0.003019 367.3 373.3
378(17) 0.003341 367.3 373.3
370(17) 0.003460 367.3 373.2
343(17) 0.00367 367.2 373.2
356(17) 0.00367 367.2 373.1
361(17) 0.003501 367.2 373.1
354(17) 0.00359 367.2 373.0
394(18) 0.003228 367.1 373.0
360(17) 0.003501 367.1 372.9
359(17) 0.00359 367.1 372.9
381(17) 0.003420 367.1 372.8
381(17) 0.003303 367.0 372.8
351(17) 0.00367 367.0 372.7
366(17) 0.003460 367.0 372.7
357(17) 0.00367 367.0 372.6
350(17) 0.00363 366.9 372.6
358(17) 0.00354 366.9 372.5
335(16) 0.00381 366.9 372.5
349(17) 0.00363 366.9 372.5
373(17) 0.003501 366.8 372.4
377(17) 0.003420 366.8 372.4
355(17) 0.003501 366.8 372.3
369(17) 0.003460 366.8 372.3
397(18) 0.003192 366.7 372.3
360(17) 0.00359 366.7 372.2
369(17) 0.003460 366.7 372.2
358(17) 0.00354 366.7 372.2
377(17) 0.003420 366.6 372.1
396(18) 0.003228 366.6 372.1
390(17) 0.003341 366.6 372.1
361(17) 0.00354 366.5 372.0
361(17) 0.00354 366.5 372.0
361(17) 0.003460 366.5 372.0
355(17) 0.00363 366.5 371.9
373(17) 0.003460 366.4 371.9
361(17) 0.003501 366.4 371.9
348(16) 0.00372 366.4 371.9
375(17) 0.003341 366.4 371.8
390(17) 0.003303 366.3 371.8
363(17) 0.00354 366.3 371.8
341(16) 0.00376 366.3 371.8
351(17) 0.00359 366.2 371.7
385(18) 0.003265 366.2 371.7
363(17) 0.00354 366.2 371.7
357(17) 0.00363 366.2 371.7
355(17) 0.00363 366.1 371.6
374(17) 0.003420 366.1 371.6
371(17) 0.003420 366.1 371.6
376(17) 0.003380 366.0 371.6
353(17) 0.00367 366.0 371.6
348(17) 0.00363 366.0 371.5
365(17) 0.003501 366.0 371.5
379(17) 0.003380 365.9 371.5
375(17) 0.003380 365.9 371.5
377(17) 0.003460 365.9 371.5
384(17) 0.003303 365.8 371.5
346(17) 0.00367 365.8 371.4
358(17) 0.003501 365.8 371.4
353(17) 0.00363 365.7 371.4
340(16) 0.00381 365.7 371.4
366(17) 0.003501 365.7 371.4
391(17) 0.003303 365.7 371.4
339(16) 0.00376 365.6 371.4
375(17) 0.003380 365.6 371.4
366(17) 0.00359 365.6 371.4
352(17) 0.00363 365.5 371.3
376(17) 0.003341 365.5 371.3
374(17) 0.003420 365.5 371.3
346(16) 0.00372 365.4 371.3
358(17) 0.00363 365.4 371.3
391(18) 0.003265 365.4 371.3
387(18) 0.003265 365.3 371.3
349(17) 0.00363 365.3 371.3
380(17) 0.003303 365.3 371.3
335(16) 0.00391 365.2 371.3
361(17) 0.00354 365.2 371.3
366(17) 0.003460 365.2 371.3
356(17) 0.00359 365.1 371.3
391(17) 0.003341 365.1 371.3
375(17) 0.003460 365.1 371.3
350(16) 0.00372 365.0 371.3
380(17) 0.003341 365.0 371.3
390(18) 0.003228 365.0 371.3
352(17) 0.00363 364.9 371.3
365(17) 0.00359 364.9 371.3
364(17) 0.003501 364.9 371.4
383(17) 0.003341 364.8 371.4
370(17) 0.003380 364.8 371.4
385(17) 0.003303 364.8 371.4
371(17) 0.003460 364.7 371.4
342(16) 0.00372 364.7 371.4
371(17) 0.003420 364.7 371.4
361(17) 0.003501 364.6 371.4
405(18) 0.003156 364.6 371.5
363(17) 0.00363 364.6 371.5
376(17) 0.003420 364.5 371.5
375(17) 0.003380 364.5 371.5
416(18) 0.003052 364.5 371.5
391(17) 0.003303 364.4 371.6
338(16) 0.00381 364.4 371.6
366(17) 0.003501 364.4 371.6
378(17) 0.003341 364.3 371.6
391(18) 0.003265 364.3 371.7
348(17) 0.00367 364.2 371.7
383(17) 0.003420 364.2 371.7
382(17) 0.003341 364.2 371.8
365(17) 0.003460 364.1 371.8
392(18) 0.003192 364.1 371.8
377(17) 0.003380 364.1 371.9
374(17) 0.003501 364.0 371.9
384(17) 0.003341 364.0 371.9
388(17) 0.003303 364.0 372.0
395(18) 0.003228 363.9 372.0
363(17) 0.00354 363.9 372.1
370(17) 0.00354 363.8 372.1
391(18) 0.003265 363.8 372.2
397(18) 0.003228 363.8 372.2
359(17) 0.003501 363.7 372.3
351(17) 0.00367 363.7 372.3
364(17) 0.00354 363.7 372.4
371(17) 0.003460 363.6 372.5
330(16) 0.00381 363.6 372.5
365(17) 0.003460 363.5 372.6
394(18) 0.003228 363.5 372.7
382(17) 0.003341 363.5 372.7
389(17) 0.003303 363.4 372.8
396(18) 0.003228 363.4 372.9
353(17) 0.00359 363.4 373.0
357(17) 0.00359 363.3 373.0
376(17) 0.00354 363.3 373.1
362(17) 0.003501 363.2 373.2
343(16) 0.00372 363.2 373.3
365(17) 0.003460 363.2 373.4
354(17) 0.00363 363.1 373.5
373(17) 0.003460 363.1 373.6
386(17) 0.003341 363.0 373.7
361(17) 0.003501 363.0 373.8
352(17) 0.00359 363.0 373.9
368(17) 0.003460 362.9 374.0
362(17) 0.00359 362.9 374.2
371(17) 0.003460 362.8 374.3
355(17) 0.003501 362.8 374.4
346(16) 0.00372 362.8 374.6
341(16) 0.00376 362.7 374.7
381(17) 0.003420 362.7 374.9
381(17) 0.003380 362.6 375.0
379(17) 0.003380 362.6 375.2
355(17) 0.00359 362.6 375.3
341(16) 0.00376 362.5 375.5
361(17) 0.00359 362.5 375.7
352(17) 0.00367 362.4 375.9
356(17) 0.00354 362.4 376.0
352(17) 0.00363 362.4 376.2
395(18) 0.003192 362.3 376.4
359(17) 0.00363 362.3 376.7
356(17) 0.00359 362.2 376.9
339(16) 0.00376 362.2 377.1
362(17) 0.003420 362.2 377.3
365(17) 0.003501 362.1 377.6
361(17) 0.00363 362.1 377.8
372(17) 0.003420 362.0 378.1
363(17) 0.003501 362.0 378.4
399(18) 0.003192 361.9 378.7
383(17) 0.003380 361.9 379.0
399(18) 0.003265 361.9 379.3
344(16) 0.00376 361.8 379.6
375(17) 0.003341 361.8 379.9
370(17) 0.003420 361.7 380.3
373(17) 0.003460 361.7 380.7
378(17) 0.003420 361.7 381.1
390(18) 0.003265 361.6 381.5
385(17) 0.003303 361.6 381.9
330(16) 0.00381 361.5 382.3
399(18) 0.003192 361.5 382.8
396(18) 0.003265 361.4 383.2
377(17) 0.003420 361.4 383.7
364(17) 0.003460 361.4 384.3
364(17) 0.003460 361.3 384.8
346(16) 0.00376 361.3 385.4
377(17) 0.003420 361.2 386.0
372(17) 0.003460 361.2 386.6
393(18) 0.003265 361.1 387.3
400(18) 0.003156 361.1 388.0
412(18) 0.003121 361.0 388.7
381(17) 0.003420 361.0 389.5
381(17) 0.003341 361.0 390.4
378(17) 0.003341 360.9 391.2
390(18) 0.003228 360.9 392.2
396(18) 0.003228 360.8 393.2
393(17) 0.003303 360.8 394.2
391(18) 0.003228 360.7 395.3
404(18) 0.003121 360.7 396.6
381(17) 0.003341 360.6 397.9
397(18) 0.003192 360.6 399.3
375(17) 0.003501 360.6 400.8
372(17) 0.003460 360.5 402.4
368(17) 0.003501 360.5 404.2
376(17) 0.003380 360.4 406.1
410(18) 0.003121 360.4 408.1
393(17) 0.003303 360.3 410.4
403(18) 0.003156 360.3 412.9
420(18) 0.002986 360.2 415.6
428(18) 0.002986 360.2 418.5
423(18) 0.002986 360.1 421.7
429(18) 0.003019 360.1 425.2
411(18) 0.003121 360.1 429.0
416(18) 0.003019 360.0 433.1
444(19) 0.002829 360.0 437.6
446(19) 0.002860 359.9 442.5
452(19) 0.002891 359.9 447.9
455(19) 0.002799 359.8 453.7
430(18) 0.002954 359.8 459.9
431(18) 0.002954 359.7 466.7
471(19) 0.002741 359.7 473.9
451(19) 0.002891 359.6 481.8
465(19) 0.002799 359.6 490.1
474(19) 0.002657 359.5 499.0
500(20) 0.002525 359.5 508.5
501(20) 0.002551 359.5 518.5
496(20) 0.002577 359.4 529.1
544(21) 0.002380 359.4 540.3
559(21) 0.002246 359.3 551.9
528(20) 0.002403 359.3 563.9
573(21) 0.002225 359.2 576.3
544(21) 0.002356 359.2 589.0
614(22) 0.002085 359.1 601.9
593(22) 0.002124 359.1 614.8
616(22) 0.002066 359.0 627.6
635(22) 0.002011 359.0 640.0
678(23) 0.001941 358.9 651.9
653(23) 0.001958 358.9 663.0
637(22) 0.002011 358.8 673.0
688(23) 0.001842 358.8 681.7
656(23) 0.001941 358.7 688.8
671(23) 0.001924 358.7 694.1
672(23) 0.001924 358.6 697.4
681(23) 0.001842 358.6 698.6
667(23) 0.001890 358.6 697.7
684(23) 0.001858 358.5 694.7
720(24) 0.001795 358.5 689.9
685(23) 0.001858 358.4 683.2
606(22) 0.002066 358.4 675.1
693(23) 0.001842 358.3 665.7
672(23) 0.001890 358.3 655.3
626(22) 0.002085 358.2 644.2
594(21) 0.002184 358.2 632.6
608(22) 0.002085 358.1 620.8
624(22) 0.002047 358.1 608.9
563(21) 0.002289 358.0 597.1
551(21) 0.002356 358.0 585.5
589(22) 0.002163 357.9 574.3
537(21) 0.002380 357.9 563.6
535(21) 0.002356 357.8 553.3
514(20) 0.002475 357.8 543.6
483(19) 0.002713 357.7 534.4
546(21) 0.002311 357.7 525.9
540(21) 0.002356 357.6 518.0
528(21) 0.002380 357.6 510.8
514(20) 0.002475 357.5 504.2
500(20) 0.002630 357.5 498.2
509(20) 0.002500 357.4 492.9
489(20) 0.002603 357.4 488.2
510(20) 0.002500 357.3 484.1
466(19) 0.002770 357.3 480.7
477(19) 0.002741 357.2 477.9
482(19) 0.002657 357.2 475.7
484(20) 0.002603 357.1 474.2
476(19) 0.002685 357.1 473.2
497(20) 0.002525 357.0 472.9
487(19) 0.002685 357.0 473.3
481(19) 0.002657 356.9 474.2
474(19) 0.002657 356.9 475.9
510(20) 0.002451 356.8 478.2
476(19) 0.002713 356.8 481.3
462(19) 0.002770 356.7 485.0
475(19) 0.002713 356.7 489.6
505(20) 0.002525 356.6 494.8
514(20) 0.002475 356.6 500.9
522(20) 0.002451 356.5 507.8
520(20) 0.002525 356.5 515.6
502(20) 0.002551 356.4 524.2
548(21) 0.002356 356.4 533.6
585(22) 0.002143 356.3 543.9
604(22) 0.002124 356.3 555.0
570(21) 0.002268 356.2 566.9
579(21) 0.002204 356.2 579.5
586(22) 0.002163 356.1 592.7
581(22) 0.002163 356.1 606.5
625(22) 0.002047 356.0 620.6
660(23) 0.001941 356.0 634.8
684(23) 0.001858 355.9 649.0
669(23) 0.001890 355.9 662.8
716(24) 0.001765 355.8 675.9
711(24) 0.001795 355.8 687.9
713(23) 0.001858 355.7 698.6
737(24) 0.001708 355.7 707.8
740(24) 0.001751 355.6 715.1
739(24) 0.001694 355.6 720.8
756(24) 0.001708 355.5 724.9
773(25) 0.001666 355.5 727.7
758(24) 0.001694 355.4 729.6
762(25) 0.001652 355.3 731.3
790(25) 0.001600 355.3 733.2
740(24) 0.001736 355.2 735.9
775(25) 0.001666 355.2 740.2
814(25) 0.001562 355.1 746.7
825(26) 0.001538 355.1 755.8
783(25) 0.001613 355.0 768.1
786(25) 0.001613 355.0 784.2
843(26) 0.001538 354.9 804.4
903(26) 0.001435 354.9 829.2
875(26) 0.001435 354.8 858.7
923(27) 0.001382 354.8 893.3
995(28) 0.001303 354.7 932.8
1016(28) 0.001266 354.7 977.5
1072(29) 0.001206 354.6 1026.9
1092(29) 0.001157 354.6 1080.4
1190(31) 0.001068 354.5 1137.6
1270(32) 0.000989 354.5 1197.0
1373(32) 0.000953 354.4 1257.4
1378(33) 0.000918 354.4 1316.6
1453(34) 0.000865 354.3 1371.8
1510(35) 0.000835 354.3 1420.4
1580(35) 0.000798 354. 1459.
1580(35) 0.000816 354.2 1484.9
1582(35) 0.000812 354. 1496.
1563(35) 0.000803 354. 1490.
1539(35) 0.000826 354.0 1469.0
1537(35) 0.000835 353.9 1433.6
1567(35) 0.000831 353.9 1386.5
1330(32) 0.000959 353.8 1330.7
1305(32) 0.000970 353.8 1269.6
1202(31) 0.001047 353.7 1205.6
1169(30) 0.001089 353.7 1141.3
1102(29) 0.001173 353.6 1078.2
1091(29) 0.001173 353.6 1017.9
1019(29) 0.001231 353.5 961.3
962(28) 0.001303 353.5 908.8
887(26) 0.001435 353.4 860.9
876(26) 0.001479 353.4 817.7
838(26) 0.001502 353.3 779.0
774(25) 0.001652 353.3 744.8
740(24) 0.001708 353.2 714.6
731(24) 0.001722 353.2 688.0
720(23) 0.001826 353.1 664.4
676(23) 0.001907 353.0 643.4
664(23) 0.001890 353.0 624.3
657(23) 0.001941 352.9 606.7
637(22) 0.002029 352.9 590.3
594(21) 0.002184 352.8 574.6
580(21) 0.002204 352.8 559.7
561(21) 0.002268 352.7 545.6
590(22) 0.002143 352.7 532.1
537(21) 0.002380 352.6 519.5
534(20) 0.002427 352.6 507.7
529(20) 0.002403 352.5 496.6
514(20) 0.002427 352.5 486.5
488(20) 0.002577 352.4 477.1
488(20) 0.002630 352.4 468.5
468(19) 0.002770 352.3 460.6
459(19) 0.002770 352.2 453.4
455(19) 0.002799 352.2 446.9
450(19) 0.002799 352.1 441.0
459(19) 0.002799 352.1 435.6
445(18) 0.002954 352.0 430.8
436(18) 0.002954 352.0 426.3
418(18) 0.003052 351.9 422.3
430(19) 0.002922 351.9 418.7
416(18) 0.003086 351.8 415.4
409(18) 0.003156 351.8 412.3
409(18) 0.003121 351.7 409.5
423(18) 0.002986 351.7 407.0
415(18) 0.003019 351.6 404.6
394(18) 0.003228 351.6 402.4
397(18) 0.003265 351.5 400.4
393(18) 0.003228 351.5 398.5
379(17) 0.003341 351.4 396.7
371(17) 0.003420 351.3 395.0
387(17) 0.003303 351.3 393.4
388(17) 0.003380 351.2 391.9
392(18) 0.003228 351.2 390.5
412(18) 0.003121 351.1 389.2
373(17) 0.003420 351.1 387.9
387(17) 0.003303 351.0 386.7
370(17) 0.00354 351.0 385.5
365(17) 0.003501 350.9 384.4
382(17) 0.003303 350.9 383.4
381(17) 0.003341 350.8 382.4
367(17) 0.003460 350.8 381.4
360(17) 0.00359 350.7 380.5
404(18) 0.003121 350.7 379.6
389(18) 0.003265 350.6 378.8
389(18) 0.003228 350.5 378.0
373(17) 0.003380 350.5 377.2
356(17) 0.00367 350.4 376.5
338(16) 0.00381 350.4 375.8
371(17) 0.003380 350.3 375.1
363(17) 0.003501 350.3 374.4
342(16) 0.00372 350.2 373.8
383(17) 0.003420 350.2 373.1
356(17) 0.00359 350.1 372.5
363(17) 0.003460 350.1 372.0
352(17) 0.00363 350.0 371.4
361(17) 0.003501 350.0 370.9
363(17) 0.00359 349.9 370.3
332(16) 0.00386 349.9 369.8
368(17) 0.003380 349.8 369.3
370(17) 0.003460 349.7 368.9
370(17) 0.003420 349.7 368.4
380(17) 0.003420 349.6 368.0
351(17) 0.00367 349.6 367.5
374(17) 0.003341 349.5 367.1
346(17) 0.00367 349.5 366.7
349(17) 0.00367 349.4 366.3
344(16) 0.00376 349.4 365.9
370(17) 0.003460 349.3 365.5
360(17) 0.003501 349.3 365.2
345(17) 0.00367 349.2 364.8
376(17) 0.003380 349.2 364.5
334(16) 0.00386 349.1 364.1
368(17) 0.003501 349.1 363.8
363(17) 0.003460 349.0 363.5
360(17) 0.003460 349.0 363.2
337(16) 0.00376 348.9 362.9
335(16) 0.00386 348.8 362.6
363(17) 0.003501 348.8 362.3
368(17) 0.003460 348.7 362.0
349(17) 0.00359 348.7 361.7
345(16) 0.00376 348.6 361.4
372(17) 0.003501 348.6 361.2
344(17) 0.00367 348.5 360.9
369(17) 0.003460 348.5 360.7
356(17) 0.00354 348.4 360.4
353(17) 0.00363 348.4 360.2
366(17) 0.00354 348.3 359.9
367(17) 0.003460 348.3 359.7
330(16) 0.00386 348.2 359.5
328(16) 0.00386 348.2 359.2
377(17) 0.003380 348.1 359.0
348(16) 0.00376 348.1 358.8
364(17) 0.003460 348.0 358.6
357(17) 0.00359 347.9 358.4
353(17) 0.00354 347.9 358.2
334(16) 0.00386 347.8 358.0
347(17) 0.00367 347.8 357.8
358(17) 0.00359 347.7 357.6
348(17) 0.00367 347.7 357.4
394(18) 0.003192 347.6 357.2
375(17) 0.003380 347.6 357.0
336(16) 0.00396 347.5 356.9
326(16) 0.00391 347.5 356.7
323(16) 0.00391 347.4 356.5
324(16) 0.00396 347.4 356.4
339(16) 0.00376 347.3 356.2
348(16) 0.00372 347.3 356.0
344(16) 0.00372 347.2 355.9
328(16) 0.00386 347.2 355.7
359(17) 0.003501 347.1 355.6
347(17) 0.00367 347.1 355.4
355(17) 0.00367 347.0 355.3
360(17) 0.00354 347.0 355.1
349(17) 0.00363 346.9 355.0
335(16) 0.00376 346.8 354.8
369(17) 0.003501 346.8 354.7
395(18) 0.003265 346.7 354.6
351(17) 0.00359 346.7 354.4
332(16) 0.00386 346.6 354.3
349(17) 0.00363 346.6 354.2
347(17) 0.00367 346.5 354.1
358(17) 0.00363 346.5 354.0
384(17) 0.003341 346.4 353.9
332(16) 0.00381 346.4 353.8
353(17) 0.00354 346.3 353.7
354(17) 0.00359 346.3 353.6
338(16) 0.00386 346.2 353.5
347(17) 0.00367 346.2 353.4
347(17) 0.00363 346.1 353.4
342(16) 0.00372 346.1 353.3
338(16) 0.00381 346.0 353.3
375(17) 0.003460 346.0 353.2
341(16) 0.00376 345.9 353.2
363(17) 0.003501 345.9 353.2
348(17) 0.00359 345.8 353.2
367(17) 0.003501 345.8 353.2
356(17) 0.00367 345.7 353.2
368(17) 0.003460 345.7 353.2
340(17) 0.00367 345.6 353.2
351(17) 0.00363 345.6 353.3
368(17) 0.003460 345.5 353.3
355(17) 0.00363 345.5 353.4
376(17) 0.003341 345.4 353.4
353(17) 0.00363 345.4 353.5
360(17) 0.003501 345.3 353.5
361(17) 0.00354 345.3 353.6
352(16) 0.00372 345.2 353.6
364(17) 0.00354 345.2 353.6
357(17) 0.003501 345.1 353.5
361(17) 0.00354 345.1 353.5
366(17) 0.003460 345.0 353.4
349(16) 0.00376 345.0 353.2
316(16) 0.00411 344.9 353.1
347(17) 0.00363 344.9 352.9
346(17) 0.00367 344.8 352.7
323(16) 0.00396 344.8 352.4
364(17) 0.00359 344.7 352.2
343(16) 0.00372 344.7 351.9
321(16) 0.00391 344.6 351.7
358(17) 0.003501 344.6 351.4
350(17) 0.00367 344.5 351.2
340(16) 0.00386 344.5 350.9
344(17) 0.00367 344.4 350.7
358(17) 0.00354 344.4 350.4
340(16) 0.00372 344.3 350.2
350(17) 0.00363 344.3 350.0
327(16) 0.00401 344.2 349.8
342(16) 0.00372 344.2 349.6
346(16) 0.00372 344.1 349.4
327(16) 0.00386 344.1 349.3
355(17) 0.00359 344.0 349.1
332(16) 0.00396 344.0 348.9
314(16) 0.00401 343.9 348.8
344(17) 0.00367 343.9 348.7
335(16) 0.00376 343.8 348.5
335(16) 0.00381 343.8 348.4
363(17) 0.00354 343.7 348.3
328(16) 0.00391 343.7 348.2
334(16) 0.00381 343.6 348.0
350(17) 0.00359 343.6 347.9
317(16) 0.00406 343.5 347.8
344(16) 0.00376 343.5 347.7
349(17) 0.00363 343.4 347.6
345(17) 0.00367 343.4 347.5
343(17) 0.00367 343.3 347.4
332(16) 0.00386 343.3 347.3
345(16) 0.00376 343.2 347.2
342(16) 0.00376 343.2 347.2
331(16) 0.00381 343.1 347.1
347(17) 0.00359 343.1 347.0
334(16) 0.00381 343.0 346.9
337(16) 0.00386 343.0 346.8
357(17) 0.003501 342.9 346.7
341(16) 0.00372 342.9 346.6
350(17) 0.00359 342.8 346.6
332(16) 0.00381 342.8 346.5
349(16) 0.00372 342.8 346.4
376(17) 0.003420 342.7 346.3
344(16) 0.00372 342.7 346.2
338(16) 0.00372 342.6 346.2
336(16) 0.00381 342.6 346.1
323(16) 0.00406 342.5 346.0
338(16) 0.00376 342.5 345.9
350(17) 0.00363 342.4 345.9
339(16) 0.00372 342.4 345.8
354(17) 0.00359 342.3 345.7
335(16) 0.00386 342.3 345.6
352(17) 0.00363 342.2 345.6
351(17) 0.00359 342.2 345.5
327(16) 0.00381 342.1 345.4
324(16) 0.00396 342.1 345.4
347(16) 0.00376 342.0 345.3
359(17) 0.003501 342.0 345.2
361(17) 0.00354 342.0 345.1
371(17) 0.003380 341.9 345.1
382(17) 0.003341 341.9 345.0
344(16) 0.00376 341.8 344.9
335(16) 0.00376 341.8 344.9
331(16) 0.00386 341.7 344.8
357(17) 0.003501 341.7 344.7
333(16) 0.00386 341.6 344.7
314(16) 0.00416 341.6 344.6
350(17) 0.00363 341.5 344.5
368(17) 0.003420 341.5 344.5
346(17) 0.00363 341.4 344.4
344(16) 0.00372 341.4 344.3
365(17) 0.00354 341.4 344.2
339(16) 0.00372 341.3 344.1
322(16) 0.00396 341.3 344.1
346(17) 0.00367 341.2 344.0
359(17) 0.00359 341.2 344.0
344(16) 0.00376 341.1 343.9
339(16) 0.00376 341.1 343.8
344(16) 0.00372 341.0 343.8
361(17) 0.003460 341.0 343.7
347(16) 0.00372 341.0 343.6
344(16) 0.00376 340.9 343.6
371(17) 0.003460 340.9 343.5
362(17) 0.003501 340.8 343.5
340(16) 0.00372 340.8 343.4
356(17) 0.00354 340.7 343.3
353(17) 0.00367 340.7 343.3
340(16) 0.00372 340.6 343.2
335(16) 0.00376 340.6 343.2
361(17) 0.003501 340.6 343.1
370(17) 0.003420 340.5 343.0
375(17) 0.003501 340.5 343.0
357(17) 0.00354 340.4 342.9
355(17) 0.00359 340.4 342.9
351(17) 0.00359 340.3 342.8
367(17) 0.003501 340.3 342.7
349(17) 0.00367 340.3 342.7
361(17) 0.00354 340.2 342.6
342(16) 0.00372 340.2 342.6
369(17) 0.003380 340.1 342.5
344(16) 0.00372 340.1 342.5
349(16) 0.00372 340.0 342.4
344(16) 0.00372 340.0 342.3
368(17) 0.003380 340.0 342.3
355(17) 0.00359 339.9 342.2
362(17) 0.003501 339.9 342.2
353(17) 0.00363 339.8 342.1
357(17) 0.00363 339.8 342.1
380(17) 0.003341 339.7 342.0
375(17) 0.003341 339.7 342.0
350(17) 0.00367 339.7 341.9
358(17) 0.00363 339.6 341.9
340(16) 0.00372 339.6 341.8
329(16) 0.00386 339.5 341.7
335(16) 0.00376 339.5 341.7
341(16) 0.00376 339.5 341.6
352(17) 0.00367 339.4 341.6
355(17) 0.00359 339.4 341.5
375(17) 0.003341 339.3 341.5
362(17) 0.003420 339.3 341.4
336(16) 0.00381 339.2 341.4
334(16) 0.00391 339.2 341.3
343(17) 0.00367 339.2 341.3
335(16) 0.00381 339.1 341.2
341(16) 0.00372 339.1 341.2
338(16) 0.00381 339.0 341.1
335(16) 0.00386 339.0 341.1
329(16) 0.00391 339.0 341.0
348(17) 0.00367 338.9 341.0
355(17) 0.003501 338.9 340.9
343(16) 0.00376 338.8 340.9
343(16) 0.00376 338.8 340.8
376(17) 0.003420 338.8 340.8
367(17) 0.003420 338.7 340.7
332(16) 0.00376 338.7 340.7
342(16) 0.00372 338.6 340.6
330(16) 0.00396 338.6 340.6
336(16) 0.00376 338.6 340.5
357(17) 0.00354 338.5 340.5
353(17) 0.00359 338.5 340.4
320(16) 0.00401 338.4 340.4
314(16) 0.00416 338.4 340.3
332(16) 0.00391 338.4 340.3
322(16) 0.00396 338.3 340.2
306(16) 0.00411 338.3 340.2
359(17) 0.00359 338.3 340.2
345(16) 0.00376 338.2 340.1
341(16) 0.00372 338.2 340.1
349(17) 0.00363 338.1 340.0
336(16) 0.00381 338.1 340.0
371(17) 0.003380 338.1 339.9
350(16) 0.00372 338.0 339.9
334(16) 0.00376 338.0 339.8
340(17) 0.00367 337.9 339.8
336(16) 0.00376 337.9 339.7
341(16) 0.00376 337.9 339.7
336(16) 0.00386 337.8 339.6
365(17) 0.003501 337.8 339.6
327(16) 0.00391 337.8 339.6
319(16) 0.00396 337.7 339.5
324(16) 0.00391 337.7 339.5
342(16) 0.00381 337.7 339.4
343(16) 0.00372 337.6 339.4
334(16) 0.00376 337.6 339.3
353(17) 0.00359 337.5 339.3
349(17) 0.00367 337.5 339.3
347(16) 0.00372 337.5 339.2
342(16) 0.00372 337.4 339.2
378(17) 0.003341 337.4 339.1
354(17) 0.00354 337.4 339.1
355(17) 0.00354 337.3 339.0
330(16) 0.00396 337.3 339.0
323(16) 0.00396 337.3 339.0
348(17) 0.00363 337.2 338.9
337(16) 0.00381 337.2 338.9
375(17) 0.003420 337.1 338.8
333(16) 0.00396 337.1 338.8
347(17) 0.00367 337.1 338.7
352(17) 0.00359 337.0 338.7
319(16) 0.00401 337.0 338.7
319(16) 0.00396 337.0 338.6
343(16) 0.00376 336.9 338.6
366(17) 0.003501 336.9 338.5
351(17) 0.00359 336.9 338.5
339(17) 0.00367 336.8 338.5
318(16) 0.00406 336.8 338.4
309(16) 0.00411 336.8 338.4
346(16) 0.00372 336.7 338.3
338(16) 0.00376 336.7 338.3
339(17) 0.00367 336.7 338.3
346(16) 0.00372 336.6 338.2
341(16) 0.00386 336.6 338.2
343(16) 0.00372 336.6 338.2
341(16) 0.00376 336.5 338.1
358(17) 0.003501 336.5 338.1
337(16) 0.00376 336.5 338.0
317(16) 0.00411 336.4 338.0
340(16) 0.00372 336.4 338.0
345(17) 0.00367 336.4 337.9
331(16) 0.00386 336.3 337.9
340(17) 0.00367 336.3 337.8
337(16) 0.00396 336.3 337.8
337(16) 0.00372 336.2 337.8
379(17) 0.003341 336.2 337.7
356(17) 0.00359 336.2 337.7
331(16) 0.00386 336.1 337.7
332(16) 0.00386 336.1 337.6
355(17) 0.00363 336.1 337.6
330(16) 0.00386 336.0 337.6
332(16) 0.00386 336.0 337.5
316(16) 0.00401 336.0 337.5
328(16) 0.00401 336.0 337.4
300(15) 0.00422 335.9 337.4
343(17) 0.00363 335.9 337.4
347(17) 0.00367 335.9 337.3
340(16) 0.00376 335.8 337.3
330(16) 0.00391 335.8 337.3
329(16) 0.00386 335.8 337.2
348(17) 0.00363 335.7 337.2
339(17) 0.00367 335.7 337.2
333(16) 0.00381 335.7 337.1
327(16) 0.00401 335.6 337.1
345(17) 0.00367 335.6 337.1
344(17) 0.00367 335.6 337.0
350(17) 0.00367 335.6 337.0
339(16) 0.00376 335.5 337.0
341(16) 0.00386 335.5 336.9
358(17) 0.00354 335.5 336.9
359(17) 0.00354 335.4 336.9
326(16) 0.00386 335.4 336.8
346(17) 0.00363 335.4 336.8
312(15) 0.00422 335.4 336.8
325(16) 0.00391 335.3 336.7
351(17) 0.00354 335.3 336.7
324(16) 0.00396 335.3 336.7
343(16) 0.00372 335.2 336.7
327(16) 0.00391 335.2 336.7
355(17) 0.00363 335.2 336.6
320(16) 0.00391 335.2 336.5
316(16) 0.00401 335.1 336.5
354(17) 0.00359 335.1 336.5
332(16) 0.00396 335.1 336.5
336(16) 0.00386 335.0 336.4
347(17) 0.00363 335.0 336.4
344(17) 0.00367 335.0 336.4
369(17) 0.003501 335.0 336.3
333(16) 0.00381 334.9 336.3
371(17) 0.003460 334.9 336.3
365(17) 0.003460 334.9 336.2
338(16) 0.00372 334.9 336.2
341(16) 0.00372 334.8 336.2
349(16) 0.00372 334.8 336.2
320(16) 0.00401 334.8 336.1
327(16) 0.00381 334.7 336.1
349(17) 0.00363 334.7 336.1
328(16) 0.00391 334.7 336.0
342(16) 0.00376 334.7 336.0
335(16) 0.00381 334.6 336.0
325(16) 0.00391 334.6 336.0
355(17) 0.00359 334.6 335.9
366(17) 0.003460 334.6 335.9
368(17) 0.00354 334.5 335.9
337(16) 0.00376 334.5 335.9
323(16) 0.00391 334.5 335.8
331(16) 0.00381 334.5 335.8
324(16) 0.00391 334.4 335.8
336(16) 0.00386 334.4 335.8
346(16) 0.00372 334.4 335.7
324(16) 0.00386 334.4 335.7
335(16) 0.00376 334.3 335.7
316(16) 0.00401 334.3 335.7
356(17) 0.00367 334.3 335.6
372(17) 0.003420 334.3 335.6
337(16) 0.00372 334.3 335.6
333(16) 0.00381 334.2 335.6
327(16) 0.00396 334.2 335.5
349(16) 0.00372 334.2 335.5
323(16) 0.00401 334.2 335.5
343(17) 0.00367 334.1 335.5
333(16) 0.00376 334.1 335.4
315(16) 0.00406 334.1 335.4
334(16) 0.00386 334.1 335.4
318(16) 0.00396 334.0 335.4
324(16) 0.00391 334.0 335.3
342(16) 0.00372 334.0 335.3
339(16) 0.00376 334.0 335.3
354(17) 0.00363 334.0 335.3
344(17) 0.00367 333.9 335.3
359(17) 0.00354 333.9 335.2
354(17) 0.003501 333.9 335.2
341(16) 0.00372 333.9 335.2
340(16) 0.00386 333.8 335.2
333(16) 0.00386 333.8 335.1
368(17) 0.003460 333.8 335.1
331(16) 0.00376 333.8 335.1
328(16) 0.00396 333.8 335.1
340(16) 0.00381 333.7 335.1
331(16) 0.00386 333.7 335.0
326(16) 0.00386 333.7 335.0
343(17) 0.00367 333.7 335.0
323(16) 0.00396 333.7 335.0
330(16) 0.00396 333.6 335.0
318(16) 0.00401 333.6 334.9
305(16) 0.00416 333.6 334.9
312(16) 0.00401 333.6 334.9
335(16) 0.00386 333.6 334.9
337(16) 0.00381 333.5 334.9
328(16) 0.00391 333.5 334.8
359(17) 0.003501 333.5 334.8
332(16) 0.00386 333.5 334.8
355(17) 0.00363 333.5 334.8
337(16) 0.00381 333.4 334.8
304(15) 0.00422 333.4 334.8
333(16) 0.00381 333.4 334.7
312(16) 0.00401 333.4 334.7
313(16) 0.00411 333.4 334.7
320(16) 0.00406 333.3 334.7
330(16) 0.00386 333.3 334.7
367(17) 0.003420 333.3 334.6
343(17) 0.00367 333.3 334.6
317(16) 0.00401 333.3 334.6
327(16) 0.00396 333.3 334.6
346(17) 0.00367 333.2 334.6
322(16) 0.00396 333.2 334.6
354(17) 0.00354 333.2 334.5
368(17) 0.003460 333.2 334.5
334(16) 0.00396 333.2 334.5
323(16) 0.00396 333.2 334.5
323(16) 0.00391 333.1 334.5
336(16) 0.00376 333.1 334.5
334(16) 0.00386 333.1 334.5
314(16) 0.00411 333.1 334.4
314(16) 0.00406 333.1 334.4
352(17) 0.00363 333.1 334.4
321(16) 0.00391 333.0 334.4
318(16) 0.00401 333.0 334.4
351(17) 0.00367 333.0 334.4
346(17) 0.00367 333.0 334.4
330(16) 0.00386 333.0 334.4
350(17) 0.00359 333.0 334.4
322(16) 0.00401 332.9 334.4
328(16) 0.00396 332.9 334.4
323(16) 0.00396 332.9 334.4
328(16) 0.00396 332.9 334.5
322(16) 0.00391 332.9 334.5
320(16) 0.00396 332.9 334.5
335(16) 0.00391 332.8 334.6
355(17) 0.00359 332.8 334.6
356(17) 0.00359 332.8 334.7
340(17) 0.00367 332.8 334.7
326(16) 0.00396 332.8 334.7
345(16) 0.00376 332.8 334.8
342(16) 0.00372 332.8 334.8
360(17) 0.003501 332.7 334.7
327(16) 0.00386 332.7 334.7
334(16) 0.00381 332.7 334.7
318(16) 0.00406 332.7 334.6
329(16) 0.00386 332.7 334.5
343(16) 0.00372 332.7 334.5
341(16) 0.00372 332.7 334.4
334(16) 0.00386 332.7 334.3
321(16) 0.00406 332.6 334.3
348(17) 0.00363 332.6 334.2
324(16) 0.00391 332.6 334.2
349(17) 0.00359 332.6 334.1
324(16) 0.00401 332.6 334.1
320(16) 0.00401 332.6 334.1
324(16) 0.00396 332.6 334.1
315(16) 0.00406 332.6 334.0
314(16) 0.00401 332.5 334.0
350(17) 0.00363 332.5 334.0
325(16) 0.00396 332.5 334.0
319(16) 0.00406 332.5 334.0
308(16) 0.00406 332.5 334.0
328(16) 0.00386 332.5 333.9
345(16) 0.00376 332.5 333.9
348(16) 0.00372 332.5 333.9
318(16) 0.00406 332.5 333.9
338(16) 0.00376 332.4 333.9
352(17) 0.00354 332.4 333.9
334(16) 0.00381 332.4 333.9
320(16) 0.00411 332.4 333.9
305(16) 0.00416 332.4 333.9
304(16) 0.00416 332.4 333.9
329(16) 0.00386 332.4 333.9
321(16) 0.00401 332.4 333.9
336(16) 0.00386 332.4 333.9
349(17) 0.00363 332.3 333.9
369(17) 0.003460 332.3 333.8
318(16) 0.00401 332.3 333.8
321(16) 0.00396 332.3 333.8
315(16) 0.00416 332.3 333.8
352(17) 0.00363 332.3 333.8
320(16) 0.00401 332.3 333.8
334(16) 0.00376 332.3 333.8
339(16) 0.00376 332.3 333.8
342(16) 0.00381 332.3 333.8
346(17) 0.00367 332.3 333.8
318(16) 0.00401 332.2 333.8
340(17) 0.00367 332.2 333.8
325(16) 0.00391 332.2 333.8
342(16) 0.00386 332.2 333.8
334(16) 0.00376 332.2 333.8
322(16) 0.00396 332.2 333.8
328(16) 0.00386 332.2 333.8
334(16) 0.00381 332.2 333.8
329(16) 0.00396 332.2 333.8
322(16) 0.00396 332.2 333.8
331(16) 0.00381 332.2 333.8
345(16) 0.00372 332.2 333.8
321(16) 0.00396 332.2 333.8
308(15) 0.00427 332.1 333.8
340(16) 0.00372 332.1 333.8
338(16) 0.00372 332.1 333.8
332(16) 0.00386 332.1 333.8
324(16) 0.00386 332.1 333.8
319(16) 0.00406 332.1 333.8
338(16) 0.00381 332.1 333.8
337(16) 0.00372 332.1 333.8
308(16) 0.00411 332.1 333.8
350(17) 0.00363 332.1 333.8
321(16) 0.00406 332.1 333.8
322(16) 0.00396 332.1 333.8
353(17) 0.00354 332.1 333.8
309(16) 0.00411 332.1 333.8
314(16) 0.00411 332.1 333.8
349(16) 0.00372 332.1 333.8
343(16) 0.00376 332.0 333.8
329(16) 0.00386 332.0 333.8
329(16) 0.00376 332.0 333.9
343(16) 0.00372 332.0 333.9
322(16) 0.00401 332.0 333.9
319(16) 0.00401 332.0 333.9
313(16) 0.00401 332.0 333.9
329(16) 0.00381 332.0 333.9
332(16) 0.00391 332.0 333.9
330(16) 0.00386 332.0 333.9
303(15) 0.00422 332.0 333.9
296(15) 0.00427 332.0 334.0
340(17) 0.00367 332.0 334.0
321(16) 0.00401 332.0 334.0
349(16) 0.00372 332.0 334.0
331(16) 0.00386 332.0 334.0
315(16) 0.00406 332.0 334.0
316(16) 0.00401 332.0 334.0
330(16) 0.00386 332.0 334.0
339(16) 0.00381 332.0 334.1
328(16) 0.00391 332.0 334.1
329(16) 0.00386 332.0 334.1
311(16) 0.00396 332.0 334.1
340(16) 0.00381 332.0 334.1
349(16) 0.00372 332.0 334.1
319(16) 0.00401 331.9 334.2
330(16) 0.00381 331.9 334.2
331(16) 0.00376 331.9 334.2
358(17) 0.00359 331.9 334.2
347(16) 0.00372 331.9 334.2
355(17) 0.00359 331.9 334.3
334(16) 0.00381 331.9 334.3
354(17) 0.00359 331.9 334.3
340(16) 0.00381 331.9 334.3
322(16) 0.00406 331.9 334.4
331(16) 0.00381 331.9 334.4
362(17) 0.003501 331.9 334.4
347(17) 0.00363 331.9 334.5
322(16) 0.00396 331.9 334.5
332(16) 0.00391 331.9 334.6
374(17) 0.003380 331.9 334.6
345(17) 0.00367 331.9 334.7
361(17) 0.003460 331.9 334.7
345(17) 0.00367 331.9 334.8
333(16) 0.00391 331.9 334.8
322(16) 0.00396 331.9 334.9
357(17) 0.003501 331.9 334.9
335(16) 0.00381 331.9 335.0
349(17) 0.00363 331.9 335.0
351(16) 0.00372 331.9 335.1
332(16) 0.00391 331.9 335.1
336(16) 0.00376 331.9 335.2
334(16) 0.00381 331.9 335.2
318(16) 0.00401 331.9 335.3
364(17) 0.00359 331.9 335.3
351(17) 0.00363 331.9 335.3
327(16) 0.00381 331.9 335.4
296(15) 0.00427 331.9 335.4
360(17) 0.00354 331.9 335.4
331(16) 0.00391 331.9 335.4
334(16) 0.00381 331.9 335.5
327(16) 0.00386 331.9 335.5
326(16) 0.00386 331.9 335.6
339(16) 0.00376 331.9 335.6
337(16) 0.00386 331.9 335.6
353(17) 0.00363 331.9 335.7
348(17) 0.00363 331.9 335.8
318(16) 0.00396 331.9 335.8
357(17) 0.00363 331.9 335.9
349(17) 0.00367 331.9 336.0
332(16) 0.00386 331.9 336.0
327(16) 0.00386 331.9 336.1
323(16) 0.00386 331.9 336.2
326(16) 0.00391 331.9 336.3
322(16) 0.00406 331.9 336.4
328(16) 0.00391 331.9 336.5
356(17) 0.00354 331.9 336.6
343(17) 0.00363 331.9 336.7
338(16) 0.00376 332.0 336.8
323(16) 0.00401 332.0 336.9
333(16) 0.00381 332.0 337.1
350(17) 0.00363 332.0 337.2
321(16) 0.00396 332.0 337.4
326(16) 0.00396 332.0 337.5
337(16) 0.00386 332.0 337.7
367(17) 0.003501 332.0 337.8
343(17) 0.00367 332.0 338.0
363(17) 0.003501 332.0 338.2
374(17) 0.003380 332.0 338.4
318(16) 0.00411 332.0 338.6
327(16) 0.00391 332.0 338.8
342(16) 0.00372 332.0 339.1
343(17) 0.00367 332.0 339.3
369(17) 0.003460 332.0 339.6
338(16) 0.00381 332.0 339.9
360(17) 0.00354 332.0 340.2
343(16) 0.00372 332.0 340.5
339(16) 0.00372 332.0 340.9
320(16) 0.00396 332.0 341.3
338(16) 0.00391 332.0 341.7
340(16) 0.00376 332.0 342.1
356(17) 0.00359 332.0 342.6
334(16) 0.00376 332.0 343.1
348(16) 0.00372 332.0 343.7
347(16) 0.00376 332.0 344.3
325(16) 0.00386 332.1 345.0
336(16) 0.00381 332.1 345.7
345(17) 0.00363 332.1 346.6
349(17) 0.00363 332.1 347.5
366(17) 0.00354 332.1 348.6
367(17) 0.003460 332.1 349.8
389(18) 0.003228 332.1 351.2
345(17) 0.00363 332.1 352.8
336(16) 0.00381 332.1 354.7
374(17) 0.003501 332.1 356.9
387(18) 0.003265 332.1 359.5
383(17) 0.003303 332.1 362.5
372(17) 0.003420 332.1 366.1
415(18) 0.003086 332.1 370.3
405(18) 0.003192 332.1 375.3
408(18) 0.003121 332.1 381.0
425(18) 0.002986 332.1 387.6
409(18) 0.003052 332.2 395.2
437(19) 0.002922 332.2 403.7
473(19) 0.002770 332.2 413.3
459(19) 0.002770 332.2 423.9
429(18) 0.002954 332.2 435.5
493(20) 0.002551 332.2 448.0
501(20) 0.002551 332.2 461.2
508(20) 0.002551 332.2 474.9
554(21) 0.002311 332.2 488.6
542(21) 0.002334 332.2 501.9
599(22) 0.002104 332.2 514.2
601(22) 0.002143 332.2 524.7
655(22) 0.001993 332.2 532.6
619(22) 0.002085 332.2 537.4
628(22) 0.001993 332.2 538.5
601(22) 0.002124 332.3 535.8
589(22) 0.002163 332.3 529.7
571(21) 0.002246 332.3 520.6
556(21) 0.002311 332.3 509.3
487(20) 0.002603 332.3 496.6
497(20) 0.002551 332.3 483.1
505(20) 0.002500 332.3 469.4
472(19) 0.002770 332.3 455.9
487(20) 0.002630 332.3 443.0
441(19) 0.002829 332.3 430.9
481(19) 0.002657 332.3 419.8
457(19) 0.002799 332.3 409.6
431(18) 0.003019 332.3 400.5
419(18) 0.003086 332.4 392.4
409(18) 0.003121 332.4 385.3
412(18) 0.003086 332.4 379.1
398(18) 0.003192 332.4 373.8
404(18) 0.003228 332.4 369.2
396(18) 0.003228 332.4 365.3
400(18) 0.003156 332.4 362.0
373(17) 0.003380 332.4 359.2
384(17) 0.003341 332.4 356.8
363(17) 0.00359 332.4 354.8
396(18) 0.003228 332.4 353.0
352(17) 0.00359 332.5 351.6
378(17) 0.003341 332.5 350.3
361(17) 0.003501 332.5 349.2
372(17) 0.00354 332.5 348.2
346(16) 0.00372 332.5 347.4
375(17) 0.003341 332.5 346.6
356(17) 0.00363 332.5 346.0
353(17) 0.00363 332.5 345.3
346(16) 0.00376 332.5 344.8
364(17) 0.003501 332.5 344.3
345(16) 0.00372 332.5 343.8
327(16) 0.00386 332.6 343.4
338(16) 0.00376 332.6 343.0
335(16) 0.00391 332.6 342.7
352(17) 0.00367 332.6 342.4
377(17) 0.003303 332.6 342.1
341(16) 0.00372 332.6 341.8
336(16) 0.00381 332.6 341.5
358(17) 0.00363 332.6 341.3
337(16) 0.00381 332.6 341.1
354(17) 0.00359 332.6 340.9
339(16) 0.00376 332.7 340.7
332(16) 0.00386 332.7 340.5
350(16) 0.00372 332.7 340.4
336(16) 0.00381 332.7 340.2
356(17) 0.00359 332.7 340.1
325(16) 0.00386 332.7 340.0
323(16) 0.00401 332.7 339.9
337(16) 0.00386 332.7 339.8
360(17) 0.003501 332.7 339.7
352(17) 0.00363 332.7 339.6
342(17) 0.00367 332.8 339.5
361(17) 0.00354 332.8 339.4
333(16) 0.00391 332.8 339.4
348(17) 0.00363 332.8 339.3
343(16) 0.00372 332.8 339.2
358(17) 0.003501 332.8 339.2
340(16) 0.00376 332.8 339.1
327(16) 0.00401 332.8 339.1
343(17) 0.00367 332.8 339.1
332(16) 0.00391 332.9 339.0
339(16) 0.00376 332.9 339.0
346(17) 0.00367 332.9 339.0
343(16) 0.00386 332.9 339.0
381(17) 0.003303 332.9 339.0
368(17) 0.003420 332.9 339.0
336(16) 0.00376 332.9 339.0
353(17) 0.00363 332.9 339.0
325(16) 0.00396 332.9 339.0
363(17) 0.00354 333.0 339.0
314(16) 0.00401 333.0 339.0
355(17) 0.00354 333.0 339.0
372(17) 0.003460 333.0 339.1
333(16) 0.00391 333.0 339.1
344(16) 0.00372 333.0 339.1
357(17) 0.00359 333.0 339.2
328(16) 0.00386 333.0 339.2
335(16) 0.00386 333.1 339.2
321(16) 0.00401 333.1 339.3
366(17) 0.00359 333.1 339.3
379(17) 0.003303 333.1 339.4
354(17) 0.00354 333.1 339.4
327(16) 0.00396 333.1 339.5
352(17) 0.00363 333.1 339.5
345(16) 0.00372 333.1 339.6
327(16) 0.00391 333.2 339.7
353(17) 0.00354 333.2 339.8
350(17) 0.00363 333.2 339.8
343(16) 0.00381 333.2 339.9
359(17) 0.00354 333.2 340.0
340(16) 0.00372 333.2 340.1
347(17) 0.00367 333.2 340.2
335(16) 0.00381 333.2 340.3
368(17) 0.00354 333.3 340.4
337(16) 0.00381 333.3 340.5
320(16) 0.00401 333.3 340.6
339(16) 0.00372 333.3 340.7
339(16) 0.00376 333.3 340.9
332(16) 0.00396 333.3 341.0
353(17) 0.00359 333.3 341.1
339(16) 0.00372 333.3 341.3
329(16) 0.00386 333.4 341.4
340(16) 0.00376 333.4 341.6
328(16) 0.00391 333.4 341.7
358(17) 0.00359 333.4 341.9
352(17) 0.00354 333.4 342.1
337(16) 0.00376 333.4 342.3
327(16) 0.00391 333.4 342.5
331(16) 0.00391 333.4 342.7
364(17) 0.00354 333.5 342.9
375(17) 0.003380 333.5 343.1
379(17) 0.003341 333.5 343.4
340(16) 0.00376 333.5 343.6
342(16) 0.00381 333.5 343.9
313(16) 0.00411 333.5 344.1
337(16) 0.00376 333.5 344.4
332(16) 0.00381 333.5 344.7
360(17) 0.00359 333.6 345.1
347(16) 0.00372 333.6 345.4
371(17) 0.003460 333.6 345.8
348(17) 0.00363 333.6 346.1
351(17) 0.00354 333.6 346.5
347(17) 0.00367 333.6 347.0
378(17) 0.003460 333.6 347.4
344(17) 0.00367 333.7 347.9
320(16) 0.00401 333.7 348.4
345(16) 0.00372 333.7 349.0
376(17) 0.003380 333.7 349.6
370(17) 0.00354 333.7 350.3
359(17) 0.00359 333.7 351.0
338(16) 0.00376 333.7 351.7
353(17) 0.00359 333.7 352.6
357(17) 0.00359 333.8 353.5
326(16) 0.00401 333.8 354.5
344(16) 0.00376 333.8 355.6
349(17) 0.00363 333.8 356.7
368(17) 0.003420 333.8 358.0
388(17) 0.003303 333.8 359.5
359(17) 0.00359 333.8 361.0
355(17) 0.00359 333.9 362.8
362(17) 0.003501 333.9 364.6
364(17) 0.003420 333.9 366.7
362(17) 0.00359 333.9 369.0
372(17) 0.003501 333.9 371.5
378(17) 0.003341 333.9 374.2
377(17) 0.003420 333.9 377.1
386(18) 0.003265 334.0 380.3
381(17) 0.003380 334.0 383.8
403(18) 0.003228 334.0 387.5
408(18) 0.003156 334.0 391.6
405(18) 0.003121 334.0 396.0
385(17) 0.003303 334.0 400.7
397(18) 0.003228 334.0 405.8
411(18) 0.003121 334.1 411.3
422(18) 0.003019 334.1 417.2
395(18) 0.003192 334.1 423.6
447(19) 0.002799 334.1 430.5
420(18) 0.003052 334.1 437.9
448(19) 0.002891 334.1 445.9
444(19) 0.002922 334.1 454.7
461(19) 0.002770 334.1 464.3
496(20) 0.002525 334.2 474.8
476(19) 0.002741 334.2 486.4
497(20) 0.002603 334.2 499.2
494(20) 0.002603 334.2 513.4
494(20) 0.002577 334.2 528.9
534(21) 0.002356 334.2 545.9
560(21) 0.002289 334.2 564.1
555(21) 0.002311 334.3 583.6
585(21) 0.002184 334.3 603.7
593(22) 0.002124 334.3 623.8
624(22) 0.001993 334.3 643.0
689(23) 0.001858 334.3 660.1
676(23) 0.001907 334.3 673.7
668(23) 0.001890 334.3 682.5
687(23) 0.001858 334.4 685.4
667(23) 0.001907 334.4 682.2
691(23) 0.001842 334.4 673.3
676(23) 0.001907 334.4 659.7
652(22) 0.001993 334.4 642.9
626(22) 0.002011 334.4 624.1
606(22) 0.002085 334.4 604.3
580(21) 0.002225 334.5 584.6
570(21) 0.002268 334.5 565.2
573(21) 0.002225 334.5 546.8
542(21) 0.002356 334.5 529.5
549(21) 0.002268 334.5 513.5
513(20) 0.002475 334.5 498.9
534(20) 0.002427 334.5 485.6
465(19) 0.002741 334.6 473.6
450(19) 0.002799 334.6 462.8
499(20) 0.002500 334.6 453.0
458(19) 0.002829 334.6 444.3
462(19) 0.002799 334.6 436.4
431(18) 0.002954 334.6 429.3
414(18) 0.003086 334.6 422.9
439(19) 0.002891 334.7 417.0
411(18) 0.003086 334.7 411.7
403(18) 0.003228 334.7 406.8
413(18) 0.003052 334.7 402.4
409(18) 0.003121 334.7 398.3
426(18) 0.002954 334.7 394.6
413(18) 0.003086 334.7 391.3
403(18) 0.003228 334.7 388.2
383(17) 0.003303 334.8 385.3
387(18) 0.003265 334.8 382.8
367(17) 0.003460 334.8 380.4
409(18) 0.003052 334.8 378.2
394(17) 0.003303 334.8 376.2
372(17) 0.003420 334.8 374.3
399(18) 0.003192 334.8 372.6
374(17) 0.003380 334.9 370.9
390(18) 0.003265 334.9 369.3
373(17) 0.003501 334.9 367.7
395(18) 0.003228 334.9 366.2
359(17) 0.00354 334.9 364.8
331(16) 0.00381 334.9 363.4
359(17) 0.00359 334.9 362.1
362(17) 0.00354 335.0 360.9
362(17) 0.00354 335.0 359.7
406(18) 0.003086 335.0 358.7
372(17) 0.003341 335.0 357.6
353(17) 0.00363 335.0 356.7
365(17) 0.00354 335.0 355.9
355(17) 0.00354 335.0 355.1
348(16) 0.00372 335.1 354.3
361(17) 0.003501 335.1 353.7
355(17) 0.00359 335.1 353.1
359(17) 0.00359 335.1 352.5
349(16) 0.00372 335.1 352.0
364(17) 0.003501 335.1 351.6
371(17) 0.003380 335.1 351.2
364(17) 0.00354 335.1 350.8
372(17) 0.003501 335.2 350.5
378(17) 0.003341 335.2 350.2
334(16) 0.00386 335.2 349.9
324(16) 0.00386 335.2 349.7
373(17) 0.003420 335.2 349.5
344(16) 0.00376 335.2 349.4
352(17) 0.00363 335.2 349.2
361(17) 0.00354 335.3 349.1
360(17) 0.003460 335.3 349.0
342(16) 0.00376 335.3 349.0
339(16) 0.00381 335.3 348.9
344(16) 0.00372 335.3 348.9
375(17) 0.003380 335.3 348.9
346(17) 0.00367 335.3 349.0
371(17) 0.003460 335.3 349.1
359(17) 0.00363 335.4 349.2
349(17) 0.00363 335.4 349.3
334(16) 0.00381 335.4 349.5
349(17) 0.00363 335.4 349.8
362(17) 0.003501 335.4 350.1
342(16) 0.00376 335.4 350.6
381(17) 0.003341 335.4 351.1
353(17) 0.00363 335.4 351.8
386(18) 0.003265 335.5 352.8
369(17) 0.003460 335.5 354.1
368(17) 0.00354 335.5 355.7
354(17) 0.00359 335.5 357.9
402(18) 0.003156 335.5 360.8
419(18) 0.003019 335.5 364.4
385(17) 0.003341 335.5 369.0
390(17) 0.003341 335.5 374.6
406(18) 0.003156 335.6 381.3
410(18) 0.003121 335.6 389.2
419(18) 0.002986 335.6 398.1
436(19) 0.002922 335.6 407.8
464(19) 0.002829 335.6 418.1
483(20) 0.002630 335.6 428.5
509(20) 0.002451 335.6 438.2
492(20) 0.002577 335.6 446.5
498(20) 0.002551 335.7 452.4
482(19) 0.002685 335.7 455.4
493(20) 0.002577 335.7 454.8
457(19) 0.002799 335.7 450.8
448(19) 0.002799 335.7 443.9
465(19) 0.002770 335.7 435.1
409(18) 0.003156 335.7 425.2
421(18) 0.003052 335.7 414.9
420(18) 0.003052 335.8 404.9
427(18) 0.002954 335.8 395.5
387(17) 0.003303 335.8 387.1
393(18) 0.003265 335.8 379.7
362(17) 0.00354 335.8 373.5
392(18) 0.003228 335.8 368.4
378(17) 0.003341 335.8 364.3
386(18) 0.003265 335.8 361.0
390(17) 0.003341 335.9 358.6
365(17) 0.003501 335.9 356.7
356(17) 0.00354 335.9 355.3
354(17) 0.00359 335.9 354.3
354(17) 0.00359 335.9 353.5
346(16) 0.00376 335.9 353.0
356(17) 0.00359 335.9 352.6
340(16) 0.00376 335.9 352.3
338(16) 0.00376 335.9 352.2
347(17) 0.00367 336.0 352.1
361(17) 0.00363 336.0 352.0
381(17) 0.003303 336.0 352.0
349(17) 0.00363 336.0 352.0
327(16) 0.00386 336.0 352.1
338(16) 0.00376 336.0 352.2
337(16) 0.00381 336.0 352.4
303(15) 0.00422 336.0 352.6
324(16) 0.00391 336.0 352.8
370(17) 0.003420 336.1 353.0
360(17) 0.00354 336.1 353.3
370(17) 0.00354 336.1 353.6
347(17) 0.00367 336.1 353.9
380(17) 0.003380 336.1 354.3
352(17) 0.00359 336.1 354.7
341(16) 0.00376 336.1 355.2
352(16) 0.00372 336.1 355.7
335(16) 0.00381 336.1 356.2
373(17) 0.003420 336.2 356.8
360(17) 0.003501 336.2 357.4
369(17) 0.003420 336.2 358.1
314(16) 0.00416 336.2 358.8
341(17) 0.00367 336.2 359.6
340(16) 0.00372 336.2 360.4
350(17) 0.00359 336.2 361.4
346(17) 0.00367 336.2 362.4
347(16) 0.00376 336.2 363.5
363(17) 0.003501 336.2 364.7
339(16) 0.00376 336.3 366.0
334(16) 0.00381 336.3 367.4
378(17) 0.003380 336.3 369.0
379(17) 0.003460 336.3 370.8
391(18) 0.003265 336.3 372.8
358(17) 0.00354 336.3 375.0
376(17) 0.003380 336.3 377.6
403(18) 0.003156 336.3 380.6
382(17) 0.003380 336.3 384.1
390(18) 0.003265 336.3 388.3
385(17) 0.003303 336.3 393.4
416(18) 0.003019 336.4 399.6
438(19) 0.002891 336.4 407.2
449(19) 0.002891 336.4 416.6
474(19) 0.002685 336.4 428.1
478(19) 0.002657 336.4 442.2
469(19) 0.002685 336.4 459.4
493(20) 0.002577 336.4 480.0
524(20) 0.002525 336.4 504.4
550(21) 0.002289 336.4 533.1
567(21) 0.002246 336.4 565.8
582(21) 0.002204 336.4 602.8
647(23) 0.001941 336.5 643.5
642(22) 0.002047 336.5 687.4
715(24) 0.001780 336.5 733.2
762(25) 0.001666 336.5 779.2
838(26) 0.001491 336.5 823.3
857(26) 0.001491 336.5 862.5
853(26) 0.001514 336.5 893.6
898(27) 0.001392 336.5 913.5
891(27) 0.001424 336.5 919.8
909(27) 0.001392 336.5 911.9
887(27) 0.001424 336.5 891.1
855(26) 0.001526 336.5 859.7
810(25) 0.001562 336.6 821.3
759(24) 0.001680 336.6 779.1
729(24) 0.001736 336.6 735.7
663(23) 0.001941 336.6 693.5
629(22) 0.002029 336.6 654.0
623(22) 0.002066 336.6 618.2
604(22) 0.002104 336.6 586.9
589(22) 0.002124 336.6 560.4
540(21) 0.002334 336.6 538.9
565(21) 0.002311 336.6 522.2
551(21) 0.002289 336.6 510.0
518(20) 0.002427 336.6 501.9
552(21) 0.002268 336.6 497.5
519(20) 0.002475 336.7 496.2
535(20) 0.002403 336.7 497.5
552(21) 0.002311 336.7 500.7
505(20) 0.002500 336.7 505.2
511(20) 0.002475 336.7 510.5
561(21) 0.002289 336.7 515.7
559(21) 0.002311 336.7 520.3
550(21) 0.002311 336.7 523.6
559(21) 0.002268 336.7 525.2
586(22) 0.002163 336.7 524.5
540(21) 0.002356 336.7 521.7
523(20) 0.002451 336.7 516.9
543(21) 0.002356 336.7 510.6
502(20) 0.002525 336.7 503.3
520(20) 0.002403 336.7 495.5
495(20) 0.002525 336.8 487.8
472(19) 0.002741 336.8 480.6
459(19) 0.002770 336.8 474.1
465(19) 0.002713 336.8 468.7
498(20) 0.002551 336.8 464.4
476(19) 0.002685 336.8 461.3
458(19) 0.002799 336.8 459.4
450(19) 0.002860 336.8 458.9
451(19) 0.002799 336.8 459.6
478(20) 0.002603 336.8 461.4
436(18) 0.002954 336.8 464.4
462(19) 0.002799 336.8 468.4
470(19) 0.002713 336.8 473.2
501(20) 0.002525 336.8 478.7
467(19) 0.002685 336.8 484.8
467(19) 0.002741 336.8 491.3
510(20) 0.002500 336.8 497.8
503(20) 0.002500 336.8 504.2
481(19) 0.002657 336.8 510.3
482(20) 0.002603 336.9 515.6
487(20) 0.002603 336.9 520.1
491(19) 0.002685 336.9 523.6
524(20) 0.002403 336.9 525.9
522(20) 0.002427 336.9 527.1
507(20) 0.002500 336.9 527.3
509(20) 0.002500 336.9 526.6
518(20) 0.002475 336.9 525.3
515(20) 0.002475 336.9 523.6
505(20) 0.002525 336.9 521.8
478(20) 0.002630 336.9 520.0
469(19) 0.002685 336.9 518.3
494(20) 0.002630 336.9 517.0
501(20) 0.002525 336.9 516.2
501(20) 0.002475 336.9 515.8
502(20) 0.002500 336.9 515.9
514(20) 0.002475 336.9 516.5
488(19) 0.002657 336.9 517.5
496(20) 0.002551 336.9 519.1
506(20) 0.002525 336.9 520.9
510(20) 0.002475 336.9 523.1
515(20) 0.002451 336.9 525.4
517(20) 0.002525 336.9 527.9
537(21) 0.002356 336.9 530.2
520(20) 0.002427 336.9 532.3
533(20) 0.002403 336.9 534.0
526(20) 0.002403 337.0 535.3
518(20) 0.002500 337.0 535.9
518(20) 0.002427 337.0 535.9
553(21) 0.002289 337.0 535.1
539(21) 0.002334 337.0 533.4
534(21) 0.002356 337.0 530.9
531(20) 0.002403 337.0 527.6
528(20) 0.002427 337.0 523.6
555(21) 0.002289 337.0 518.8
518(20) 0.002427 337.0 513.5
492(20) 0.002577 337.0 507.7
517(20) 0.002475 337.0 501.5
482(19) 0.002685 337.0 495.0
485(20) 0.002577 337.0 488.3
453(19) 0.002770 337.0 481.6
446(19) 0.002891 337.0 474.8
480(19) 0.002685 337.0 468.1
451(19) 0.002860 337.0 461.5
434(19) 0.002891 337.0 455.1
421(18) 0.002954 337.0 448.8
398(18) 0.003228 337.0 442.7
422(18) 0.003019 337.0 436.9
434(18) 0.002954 337.0 431.4
421(18) 0.002986 337.0 426.0
426(19) 0.002922 337.0 421.0
417(18) 0.003086 337.0 416.1
423(18) 0.003052 337.0 411.6
398(18) 0.003192 337.0 407.2
386(18) 0.003265 337.0 403.1
377(17) 0.003341 337.0 399.3
359(17) 0.00359 337.0 395.6
400(18) 0.003192 337.0 392.3
353(17) 0.00363 337.0 389.1
357(17) 0.00359 337.0 386.2
364(17) 0.003420 337.0 383.5
361(17) 0.00354 337.0 381.0
368(17) 0.003460 337.0 378.7
375(17) 0.003420 337.0 376.6
380(17) 0.003303 337.0 374.6
388(18) 0.003192 337.0 372.9
335(16) 0.00381 337.0 371.2
345(16) 0.00376 337.0 369.7
337(16) 0.00376 337.0 368.4
361(17) 0.003501 337.0 367.2
329(16) 0.00386 337.0 366.0
335(16) 0.00376 337.0 365.0
367(17) 0.00354 337.0 364.1
347(17) 0.00363 337.0 363.3
341(16) 0.00372 337.0 362.5
355(17) 0.00354 337.0 361.9
335(16) 0.00386 337.0 361.3
333(16) 0.00391 337.0 360.8
343(17) 0.00367 337.0 360.3
323(16) 0.00391 337.0 360.0
340(16) 0.00372 337.0 359.6
360(17) 0.003501 337.0 359.4
347(16) 0.00372 337.0 359.2
357(17) 0.00359 337.0 359.0
345(17) 0.00367 337.0 358.9
339(16) 0.00372 337.0 358.8
357(17) 0.00354 337.0 358.8
365(17) 0.00354 337.0 358.8
339(16) 0.00376 337.0 358.8
345(17) 0.00367 337.0 358.8
348(17) 0.00359 337.0 358.8
354(17) 0.00363 337.0 358.9
378(17) 0.003420 337.0 358.9
318(16) 0.00401 337.0 358.9
325(16) 0.00391 336.9 358.8
340(16) 0.00372 336.9 358.7
359(17) 0.003501 336.9 358.5
385(17) 0.003380 336.9 358.3
320(16) 0.00396 336.9 358.0
339(16) 0.00372 336.9 357.6
340(16) 0.00372 336.9 357.2
378(17) 0.003380 336.9 356.7
340(16) 0.00386 336.9 356.2
322(16) 0.00396 336.9 355.6
326(16) 0.00391 336.9 355.1
299(15) 0.00427 336.9 354.5
347(17) 0.00367 336.9 353.9
350(17) 0.00367 336.9 353.3
315(16) 0.00411 336.9 352.7
314(16) 0.00406 336.9 352.2
349(17) 0.00363 336.9 351.7
340(16) 0.00372 336.9 351.2
320(16) 0.00406 336.9 350.7
331(16) 0.00386 336.9 350.2
329(16) 0.00381 336.9 349.8
316(16) 0.00401 336.9 349.4
366(17) 0.003460 336.9 349.1
320(16) 0.00406 336.9 348.7
323(16) 0.00396 336.9 348.4
335(16) 0.00381 336.9 348.1
320(16) 0.00396 336.8 347.8
325(16) 0.00386 336.8 347.6
320(16) 0.00411 336.8 347.4
317(16) 0.00401 336.8 347.2
347(17) 0.00363 336.8 347.0
321(16) 0.00396 336.8 346.8
326(16) 0.00391 336.8 346.7
336(16) 0.00386 336.8 346.6
316(16) 0.00401 336.8 346.4
341(16) 0.00372 336.8 346.3
322(16) 0.00391 336.8 346.2
313(16) 0.00406 336.8 346.2
321(16) 0.00401 336.8 346.1
360(17) 0.003460 336.8 346.1
326(16) 0.00396 336.8 346.0
326(16) 0.00386 336.8 346.0
312(16) 0.00411 336.8 346.1
315(16) 0.00411 336.7 346.1
332(16) 0.00386 336.7 346.2
342(16) 0.00372 336.7 346.3
344(17) 0.00363 336.7 346.4
328(16) 0.00391 336.7 346.6
334(16) 0.00391 336.7 346.8
319(16) 0.00401 336.7 347.1
317(16) 0.00406 336.7 347.5
320(16) 0.00391 336.7 347.9
325(16) 0.00391 336.7 348.4
334(16) 0.00386 336.7 349.0
340(16) 0.00372 336.7 349.6
348(17) 0.00363 336.7 350.3
338(16) 0.00372 336.7 351.1
354(17) 0.00359 336.6 352.0
356(17) 0.00363 336.6 352.9
354(17) 0.00363 336.6 353.8
343(17) 0.00367 336.6 354.7
350(17) 0.00359 336.6 355.6
344(16) 0.00372 336.6 356.4
358(17) 0.00359 336.6 357.0
353(17) 0.00359 336.6 357.4
349(17) 0.00367 336.6 357.6
342(16) 0.00372 336.6 357.6
338(16) 0.00372 336.6 357.3
314(16) 0.00416 336.6 356.8
335(16) 0.00376 336.5 356.1
351(17) 0.00363 336.5 355.3
338(16) 0.00372 336.5 354.4
334(16) 0.00381 336.5 353.6
337(16) 0.00381 336.5 352.7
347(17) 0.00367 336.5 351.8
324(16) 0.00396 336.5 351.1
362(17) 0.003460 336.5 350.4
326(16) 0.00391 336.5 349.7
338(16) 0.00386 336.5 349.2
318(16) 0.00401 336.4 348.7
319(16) 0.00396 336.4 348.4
316(16) 0.00401 336.4 348.1
331(16) 0.00391 336.4 347.9
323(16) 0.00401 336.4 347.7
367(17) 0.003460 336.4 347.7
349(17) 0.00363 336.4 347.7
348(17) 0.00359 336.4 347.7
325(16) 0.00396 336.4 347.8
348(17) 0.00367 336.4 348.0
349(17) 0.00363 336.3 348.2
335(16) 0.00381 336.3 348.4
317(16) 0.00391 336.3 348.7
334(16) 0.00386 336.3 349.0
356(17) 0.00363 336.3 349.4
352(17) 0.00363 336.3 349.8
350(17) 0.00363 336.3 350.3
348(17) 0.00363 336.3 350.8
327(16) 0.00391 336.3 351.3
347(16) 0.00372 336.2 351.9
358(17) 0.00359 336.2 352.5
382(17) 0.003303 336.2 353.1
341(16) 0.00372 336.2 353.8
348(17) 0.00363 336.2 354.5
347(16) 0.00376 336.2 355.3
340(16) 0.00376 336.2 356.0
349(17) 0.00359 336.2 356.8
360(17) 0.00354 336.2 357.7
376(17) 0.003380 336.1 358.5
359(17) 0.00359 336.1 359.3
337(16) 0.00381 336.1 360.1
356(17) 0.00359 336.1 361.0
340(16) 0.00372 336.1 361.7
346(16) 0.00372 336.1 362.5
353(17) 0.00367 336.1 363.2
341(16) 0.00372 336.1 363.8
335(16) 0.00381 336.0 364.4
362(17) 0.003501 336.0 364.9
336(16) 0.00376 336.0 365.2
350(17) 0.00367 336.0 365.5
375(17) 0.003341 336.0 365.6
348(17) 0.00367 336.0 365.6
360(17) 0.003460 336.0 365.5
354(17) 0.00363 335.9 365.2
372(17) 0.003460 335.9 364.9
348(17) 0.00363 335.9 364.4
363(17) 0.00354 335.9 363.9
331(16) 0.00381 335.9 363.2
330(16) 0.00391 335.9 362.5
332(16) 0.00391 335.9 361.8
351(17) 0.00363 335.8 361.0
325(16) 0.00391 335.8 360.1
360(17) 0.003501 335.8 359.3
320(16) 0.00401 335.8 358.5
330(16) 0.00396 335.8 357.6
334(16) 0.00381 335.8 356.8
330(16) 0.00391 335.8 356.0
334(16) 0.00372 335.7 355.2
305(15) 0.00422 335.7 354.5
339(16) 0.00381 335.7 353.8
334(16) 0.00376 335.7 353.1
340(16) 0.00372 335.7 352.5
321(16) 0.00396 335.7 351.8
321(16) 0.00401 335.7 351.3
324(16) 0.00401 335.6 350.8
316(16) 0.00406 335.6 350.3
341(16) 0.00372 335.6 349.8
316(16) 0.00391 335.6 349.4
339(16) 0.00381 335.6 349.1
314(16) 0.00411 335.6 348.7
335(16) 0.00376 335.5 348.5
317(16) 0.00406 335.5 348.2
364(17) 0.003460 335.5 348.0
325(16) 0.00391 335.5 347.9
315(16) 0.00406 335.5 347.8
299(15) 0.00433 335.5 347.8
325(16) 0.00391 335.5 347.8
340(17) 0.00363 335.4 347.9
332(16) 0.00391 335.4 348.1
330(16) 0.00391 335.4 348.3
366(17) 0.003460 335.4 348.6
328(16) 0.00396 335.4 349.0
357(17) 0.003501 335.4 349.5
315(16) 0.00406 335.3 350.1
333(16) 0.00391 335.3 350.9
362(17) 0.003460 335.3 351.7
334(16) 0.00386 335.3 352.7
349(17) 0.00359 335.3 353.8
353(17) 0.00359 335.3 355.1
336(16) 0.00391 335.2 356.5
346(17) 0.00363 335.2 358.0
366(17) 0.003420 335.2 359.7
372(17) 0.003420 335.2 361.5
355(17) 0.00354 335.2 363.3
362(17) 0.00354 335.1 365.2
345(16) 0.00372 335.1 367.2
375(17) 0.003380 335.1 369.0
376(17) 0.003380 335.1 370.8
372(17) 0.003460 335.1 372.3
368(17) 0.003501 335.1 373.6
361(17) 0.00359 335.0 374.4
376(17) 0.003341 335.0 374.9
384(17) 0.003303 335.0 374.8
378(17) 0.003380 335.0 374.3
359(17) 0.00359 335.0 373.4
361(17) 0.003501 334.9 372.1
351(17) 0.00367 334.9 370.5
383(18) 0.003192 334.9 368.7
375(17) 0.003420 334.9 366.8
367(17) 0.00354 334.9 364.8
347(17) 0.00367 334.9 362.9
324(16) 0.00391 334.8 361.0
343(17) 0.00367 334.8 359.2
350(17) 0.00367 334.8 357.5
316(16) 0.00411 334.8 355.9
323(16) 0.00396 334.8 354.4
349(17) 0.00367 334.7 353.1
345(17) 0.00363 334.7 352.0
304(15) 0.00422 334.7 350.9
346(16) 0.00376 334.7 350.0
347(17) 0.00363 334.7 349.2
347(17) 0.00367 334.6 348.5
356(17) 0.00359 334.6 347.9
364(17) 0.003460 334.6 347.4
370(17) 0.003501 334.6 347.0
365(17) 0.003460 334.6 346.6
349(17) 0.00367 334.5 346.3
358(17) 0.003501 334.5 346.1
330(16) 0.00391 334.5 345.9
345(16) 0.00376 334.5 345.8
355(17) 0.00359 334.5 345.6
352(17) 0.00367 334.4 345.6
351(17) 0.00359 334.4 345.5
301(15) 0.00427 334.4 345.5
339(16) 0.00386 334.4 345.5
317(16) 0.00396 334.4 345.6
350(17) 0.00367 334.3 345.6
320(16) 0.00391 334.3 345.7
314(16) 0.00406 334.3 345.8
345(16) 0.00372 334.3 345.9
345(16) 0.00372 334.3 346.0
362(17) 0.003501 334.2 346.2
355(17) 0.00354 334.2 346.4
340(16) 0.00372 334.2 346.6
332(16) 0.00391 334.2 346.8
354(17) 0.00354 334.1 347.0
323(16) 0.00401 334.1 347.3
319(16) 0.00396 334.1 347.6
318(16) 0.00406 334.1 347.9
339(16) 0.00381 334.1 348.3
369(17) 0.003460 334.0 348.7
333(16) 0.00386 334.0 349.2
339(17) 0.00367 334.0 349.7
381(17) 0.003341 334.0 350.2
382(17) 0.003380 333.9 350.8
348(17) 0.00363 333.9 351.5
339(16) 0.00381 333.9 352.3
347(17) 0.00359 333.9 353.2
372(17) 0.003420 333.9 354.3
348(16) 0.00372 333.8 355.5
364(17) 0.003501 333.8 357.0
345(17) 0.00367 333.8 358.7
358(17) 0.00354 333.8 360.8
405(18) 0.003121 333.7 363.3
378(17) 0.003460 333.7 366.3
404(18) 0.003156 333.7 369.9
393(18) 0.003228 333.7 374.2
383(18) 0.003265 333.7 379.2
384(17) 0.003341 333.6 385.1
403(18) 0.003192 333.6 392.0
407(18) 0.003086 333.6 399.8
407(18) 0.003121 333.6 408.6
385(18) 0.003265 333.5 418.3
440(19) 0.002860 333.5 428.9
418(18) 0.003121 333.5 440.1
456(19) 0.002770 333.5 451.9
442(19) 0.002860 333.4 463.6
471(19) 0.002657 333.4 474.9
480(19) 0.002657 333.4 485.3
460(19) 0.002770 333.4 493.9
514(20) 0.002525 333.4 500.2
525(20) 0.002427 333.3 503.5
500(20) 0.002525 333.3 503.6
493(20) 0.002577 333.3 500.8
502(20) 0.002577 333.3 495.4
476(19) 0.002657 333.2 488.2
440(19) 0.002891 333.2 480.0
494(20) 0.002500 333.2 471.4
464(19) 0.002770 333.2 463.0
449(19) 0.002860 333.1 455.3
454(19) 0.002770 333.1 448.7
423(18) 0.003052 333.1 443.2
423(18) 0.002954 333.1 439.2
433(19) 0.002922 333.0 436.6
463(19) 0.002799 333.0 435.5
467(19) 0.002713 333.0 435.9
431(18) 0.002954 333.0 437.6
476(19) 0.002685 332.9 440.5
455(19) 0.002799 332.9 444.4
468(19) 0.002799 332.9 449.3
488(20) 0.002577 332.9 454.6
481(20) 0.002630 332.8 460.3
516(20) 0.002427 332.8 465.8
510(20) 0.002475 332.8 470.9
523(20) 0.002451 332.8 475.1
523(20) 0.002451 332.7 478.0
506(20) 0.002500 332.7 479.3
506(20) 0.002475 332.7 478.8
513(20) 0.002475 332.7 476.6
492(20) 0.002603 332.6 472.7
503(20) 0.002551 332.6 467.4
486(20) 0.002577 332.6 461.1
507(20) 0.002500 332.6 454.1
496(20) 0.002577 332.5 446.7
456(19) 0.002829 332.5 439.2
467(19) 0.002741 332.5 431.8
452(19) 0.002799 332.5 424.7
435(19) 0.002891 332.4 418.0
416(18) 0.003052 332.4 411.8
423(18) 0.003052 332.4 406.1
394(18) 0.003228 332.4 401.0
401(18) 0.003156 332.3 396.5
421(18) 0.003019 332.3 392.6
373(17) 0.003380 332.3 389.2
384(17) 0.003380 332.3 386.4
379(17) 0.003341 332.2 384.1
409(18) 0.003086 332.2 382.3
406(18) 0.003156 332.2 380.9
394(18) 0.003192 332.1 380.0
423(18) 0.003052 332.1 379.5
395(18) 0.003265 332.1 379.4
386(17) 0.003303 332.1 379.7
432(18) 0.002954 332.0 380.3
397(18) 0.003192 332.0 381.4
405(18) 0.003192 332.0 382.9
390(18) 0.003265 332.0 384.8
410(18) 0.003052 331.9 387.3
404(18) 0.003121 331.9 390.3
372(17) 0.003420 331.9 394.0
391(17) 0.003303 331.9 398.4
407(18) 0.003086 331.8 403.7
418(18) 0.003052 331.8 409.9
441(19) 0.002829 331.8 417.2
435(19) 0.002922 331.7 425.6
447(19) 0.002891 331.7 435.5
501(20) 0.002551 331.7 446.7
448(19) 0.002829 331.7 459.5
491(20) 0.002603 331.6 473.9
504(20) 0.002525 331.6 490.0
500(20) 0.002630 331.6 507.7
522(20) 0.002427 331.6 527.1
534(20) 0.002403 331.5 547.9
583(22) 0.002163 331.5 570.2
599(22) 0.002104 331.5 593.3
622(22) 0.002085 331.4 617.1
646(23) 0.001958 331.4 640.8
668(23) 0.001907 331.4 663.6
717(24) 0.001765 331.4 684.8
711(24) 0.001765 331.3 703.0
749(24) 0.001736 331.3 717.2
754(24) 0.001694 331.3 726.4
738(24) 0.001708 331.2 729.9
798(25) 0.001562 331.2 727.5
758(24) 0.001694 331.2 719.3
748(24) 0.001751 331.2 706.1
713(24) 0.001780 331.1 688.7
651(23) 0.001975 331.1 668.5
695(23) 0.001826 331.1 646.5
642(23) 0.001975 331.0 623.6
588(21) 0.002184 331.0 600.6
575(21) 0.002225 331.0 578.3
548(21) 0.002289 331.0 557.0
536(21) 0.002356 330.9 537.1
499(20) 0.002577 330.9 518.9
488(19) 0.002657 330.9 502.4
459(19) 0.002741 330.9 487.7
472(19) 0.002685 330.8 474.9
463(19) 0.002741 330.8 463.9
455(19) 0.002770 330.8 454.7
464(19) 0.002799 330.7 447.0
444(19) 0.002891 330.7 441.0
447(19) 0.002860 330.7 436.4
432(18) 0.002954 330.7 433.1
398(18) 0.003192 330.6 431.1
405(18) 0.003228 330.6 430.1
443(19) 0.002891 330.6 430.1
457(19) 0.002741 330.5 430.9
428(18) 0.002986 330.5 432.5
451(19) 0.002829 330.5 434.7
437(18) 0.002954 330.4 437.4
454(19) 0.002799 330.4 440.5
419(18) 0.003019 330.4 443.9
450(19) 0.002770 330.4 447.5
478(19) 0.002657 330.3 451.0
474(19) 0.002713 330.3 454.4
440(19) 0.002891 330.3 457.4
462(19) 0.002741 330.2 459.8
470(19) 0.002685 330.2 461.6
488(20) 0.002630 330.2 462.5
473(19) 0.002741 330.2 462.5
468(19) 0.002713 330.1 461.4
455(19) 0.002799 330.1 459.4
461(19) 0.002741 330.1 456.4
463(19) 0.002741 330.0 452.6
433(18) 0.002986 330.0 448.1
430(18) 0.003019 330.0 443.0
438(19) 0.002860 330.0 437.6
404(18) 0.003156 329.9 431.9
406(18) 0.003121 329.9 426.1
416(18) 0.003086 329.9 420.3
389(18) 0.003265 329.8 414.6
415(18) 0.003052 329.8 409.0
418(18) 0.003019 329.8 403.6
396(18) 0.003228 329.7 398.5
425(18) 0.003052 329.7 393.7
407(18) 0.003192 329.7 389.2
417(18) 0.003019 329.7 384.9
396(18) 0.003192 329.6 381.0
378(17) 0.003420 329.6 377.4
367(17) 0.003501 329.6 374.0
367(17) 0.003501 329.5 370.9
365(17) 0.003501 329.5 368.1
360(17) 0.003501 329.5 365.6
376(17) 0.003380 329.4 363.3
378(17) 0.003420 329.4 361.2
348(17) 0.00367 329.4 359.3
366(17) 0.003460 329.4 357.6
368(17) 0.003460 329.3 356.0
358(17) 0.003501 329.3 354.6
373(17) 0.003501 329.3 353.4
363(17) 0.00354 329.2 352.2
351(17) 0.00359 329.2 351.2
350(17) 0.00367 329.2 350.3
328(16) 0.00386 329.1 349.4
339(16) 0.00381 329.1 348.6
353(17) 0.00367 329.1 347.9
350(17) 0.00359 329.1 347.3
360(17) 0.003501 329.0 346.7
321(16) 0.00396 329.0 346.1
324(16) 0.00401 329.0 345.6
328(16) 0.00386 328.9 345.2
334(16) 0.00381 328.9 344.7
338(16) 0.00376 328.9 344.3
358(17) 0.00354 328.8 344.0
334(16) 0.00386 328.8 343.6
317(16) 0.00401 328.8 343.3
337(16) 0.00376 328.8 343.0
348(17) 0.00359 328.7 342.7
352(17) 0.00367 328.7 342.4
313(16) 0.00416 328.7 342.1
359(17) 0.00354 328.6 341.9
327(16) 0.00391 328.6 341.7
353(17) 0.00359 328.6 341.4
328(16) 0.00386 328.5 341.2
352(17) 0.00367 328.5 341.1
337(16) 0.00381 328.5 340.9
336(16) 0.00381 328.4 340.7
314(16) 0.00396 328.4 340.6
327(16) 0.00396 328.4 340.4
344(16) 0.00372 328.4 340.3
316(16) 0.00406 328.3 340.2
346(17) 0.00363 328.3 340.1
335(16) 0.00372 328.3 339.9
322(16) 0.00401 328.2 339.9
339(16) 0.00376 328.2 339.8
335(16) 0.00386 328.2 339.7
340(16) 0.00376 328.1 339.6
322(16) 0.00386 328.1 339.6
311(16) 0.00416 328.1 339.6
325(16) 0.00396 328.0 339.5
342(17) 0.00367 328.0 339.5
329(16) 0.00391 328.0 339.5
345(17) 0.00367 328.0 339.5
323(16) 0.00391 327.9 339.5
325(16) 0.00401 327.9 339.5
349(17) 0.00363 327.9 339.5
341(17) 0.00367 327.8 339.6
334(16) 0.00376 327.8 339.6
338(16) 0.00376 327.8 339.7
335(16) 0.00386 327.7 339.7
357(17) 0.00359 327.7 339.8
339(16) 0.00376 327.7 339.9
335(16) 0.00381 327.6 340.0
350(17) 0.00363 327.6 340.1
332(16) 0.00386 327.6 340.2
340(16) 0.00381 327.6 340.4
326(16) 0.00386 327.5 340.5
352(17) 0.00354 327.5 340.7
331(16) 0.00391 327.5 340.9
337(16) 0.00381 327.4 341.2
342(17) 0.00367 327.4 341.4
358(17) 0.00354 327.4 341.7
356(17) 0.00354 327.3 342.0
364(17) 0.003420 327.3 342.4
340(16) 0.00386 327.3 342.8
340(16) 0.00372 327.2 343.2
328(16) 0.00386 327.2 343.7
366(17) 0.003420 327.2 344.2
366(17) 0.00354 327.2 344.8
365(17) 0.00354 327.1 345.5
324(16) 0.00396 327.1 346.3
342(16) 0.00372 327.1 347.1
346(17) 0.00367 327.0 348.0
336(16) 0.00381 327.0 349.1
368(17) 0.003460 327.0 350.2
397(18) 0.003265 326.9 351.5
354(17) 0.00354 326.9 352.9
342(17) 0.00367 326.9 354.5
376(17) 0.003420 326.8 356.2
342(16) 0.00376 326.8 358.1
370(17) 0.003420 326.8 360.2
368(17) 0.003460 326.8 362.4
342(17) 0.00367 326.7 364.9
341(16) 0.00372 326.7 367.5
402(18) 0.003265 326.7 370.4
384(17) 0.003303 326.6 373.5
398(18) 0.003228 326.6 376.7
400(18) 0.003156 326.6 380.2
417(18) 0.003086 326.5 383.9
409(18) 0.003156 326.5 387.7
405(18) 0.003121 326.5 391.7
409(18) 0.003121 326.4 395.8
420(18) 0.002986 326.4 400.0
470(19) 0.002713 326.4 404.2
427(18) 0.003052 326.3 408.3
407(18) 0.003086 326.3 412.4
417(18) 0.003052 326.3 416.2
445(19) 0.002799 326.3 419.8
470(19) 0.002713 326.2 422.9
448(19) 0.002891 326.2 425.5
474(19) 0.002685 326.2 427.5
461(19) 0.002770 326.1 428.8
460(19) 0.002770 326.1 429.3
462(19) 0.002770 326.1 429.1
471(19) 0.002770 326.0 428.1
449(19) 0.002860 326.0 426.4
446(19) 0.002860 326.0 424.0
454(19) 0.002741 325.9 421.1
452(19) 0.002799 325.9 417.7
414(18) 0.003156 325.9 414.0
457(19) 0.002741 325.9 410.0
432(19) 0.002922 325.8 405.9
407(18) 0.003121 325.8 401.7
375(17) 0.003341 325.8 397.5
423(18) 0.003052 325.7 393.4
418(18) 0.003019 325.7 389.4
411(18) 0.003121 325.7 385.5
401(18) 0.003121 325.6 381.8
377(17) 0.003380 325.6 378.2
387(17) 0.003420 325.6 374.9
385(18) 0.003265 325.5 371.8
407(18) 0.003156 325.5 368.9
386(17) 0.003303 325.5 366.2
363(17) 0.003501 325.5 363.7
349(16) 0.00372 325.4 361.3
371(17) 0.003380 325.4 359.2
354(17) 0.00359 325.4 357.3
374(17) 0.003380 325.3 355.5
368(17) 0.003420 325.3 354.0
356(17) 0.00367 325.3 352.5
349(17) 0.00363 325.2 351.2
347(17) 0.00367 325.2 350.1
365(17) 0.003460 325.2 349.0
360(17) 0.00354 325.1 348.1
373(17) 0.003460 325.1 347.3
363(17) 0.00354 325.1 346.6
352(17) 0.00363 325.1 345.9
326(16) 0.00391 325.0 345.3
326(16) 0.00396 325.0 344.8
361(17) 0.00354 325.0 344.4
336(16) 0.00381 324.9 344.0
350(17) 0.00363 324.9 343.7
315(16) 0.00396 324.9 343.4
349(17) 0.00367 324.8 343.1
359(17) 0.00359 324.8 342.9
328(16) 0.00391 324.8 342.8
355(17) 0.00354 324.7 342.6
350(17) 0.00363 324.7 342.5
340(16) 0.00376 324.7 342.4
358(17) 0.00359 324.7 342.4
333(16) 0.00386 324.6 342.3
336(16) 0.00381 324.6 342.3
321(16) 0.00391 324.6 342.4
325(16) 0.00396 324.5 342.4
339(16) 0.00386 324.5 342.5
332(16) 0.00386 324.5 342.5
335(16) 0.00381 324.4 342.7
352(17) 0.00359 324.4 342.8
319(16) 0.00396 324.4 342.9
357(17) 0.00363 324.4 343.1
364(17) 0.003460 324.3 343.3
339(16) 0.00376 324.3 343.5
345(17) 0.00367 324.3 343.8
348(17) 0.00363 324.2 344.1
366(17) 0.00354 324.2 344.4
354(17) 0.00359 324.2 344.7
322(16) 0.00391 324.1 345.1
321(16) 0.00396 324.1 345.4
362(17) 0.00354 324.1 345.9
379(17) 0.003420 324.1 346.3
350(17) 0.00367 324.0 346.8
325(16) 0.00396 324.0 347.3
334(16) 0.00376 324.0 347.9
339(16) 0.00381 323.9 348.5
360(17) 0.00359 323.9 349.2
350(17) 0.00363 323.9 349.9
348(17) 0.00367 323.8 350.6
336(16) 0.00372 323.8 351.4
377(17) 0.003380 323.8 352.3
362(17) 0.00359 323.8 353.3
341(16) 0.00372 323.7 354.3
351(17) 0.00363 323.7 355.4
348(17) 0.00363 323.7 356.6
351(17) 0.00367 323.6 357.9
360(17) 0.00359 323.6 359.3
365(17) 0.00354 323.6 360.8
381(17) 0.003341 323.5 362.5
355(17) 0.00359 323.5 364.4
372(17) 0.003420 323.5 366.4
356(17) 0.00367 323.5 368.7
354(17) 0.00359 323.4 371.3
371(17) 0.003380 323.4 374.2
395(18) 0.003228 323.4 377.4
376(17) 0.003380 323.3 381.2
377(17) 0.003420 323.3 385.5
410(18) 0.003121 323.3 390.4
425(18) 0.002986 323.2 396.1
402(18) 0.003121 323.2 402.6
446(19) 0.002891 323.2 410.2
460(19) 0.002829 323.2 419.0
437(19) 0.002922 323.1 429.1
450(19) 0.002829 323.1 440.8
445(19) 0.002829 323.1 454.1
471(19) 0.002741 323.0 469.2
482(19) 0.002713 323.0 486.3
479(19) 0.002685 323.0 505.5
531(20) 0.002403 323.0 526.8
563(21) 0.002225 322.9 550.4
589(22) 0.002163 322.9 576.1
628(22) 0.002085 322.9 603.8
626(22) 0.002011 322.8 633.5
685(23) 0.001858 322.8 664.5
741(24) 0.001708 322.8 696.7
790(25) 0.001613 322.7 729.2
815(25) 0.001587 322.7 761.3
854(26) 0.001491 322.7 791.7
858(26) 0.001491 322.7 819.0
899(27) 0.001392 322.6 842.1
929(27) 0.001372 322.6 859.2
976(27) 0.001332 322.6 869.3
931(27) 0.001372 322.5 871.7
915(27) 0.001403 322.5 866.1
956(28) 0.001322 322.5 853.0
916(27) 0.001392 322.5 833.5
808(25) 0.001600 322.4 808.9
824(25) 0.001550 322.4 780.5
788(25) 0.001613 322.4 749.9
753(25) 0.001666 322.3 718.3
691(23) 0.001842 322.3 686.7
651(22) 0.001993 322.3 655.7
640(23) 0.001975 322.3 626.2
612(22) 0.002066 322.2 598.4
540(21) 0.002311 322.2 572.6
522(20) 0.002475 322.2 549.0
523(20) 0.002475 322.1 527.7
514(20) 0.002475 322.1 508.6
467(19) 0.002741 322.1 491.9
471(19) 0.002713 322.1 477.2
470(19) 0.002713 322.0 464.7
456(19) 0.002860 322.0 454.0
465(19) 0.002713 322.0 445.1
438(19) 0.002922 321.9 437.9
434(19) 0.002891 321.9 432.2
417(18) 0.003052 321.9 427.9
416(18) 0.003156 321.9 424.8
447(19) 0.002829 321.8 422.8
449(19) 0.002829 321.8 421.9
450(19) 0.002799 321.8 422.0
404(18) 0.003121 321.7 423.0
437(18) 0.002986 321.7 424.8
457(19) 0.002799 321.7 427.4
446(19) 0.002860 321.7 430.7
462(19) 0.002713 321.6 434.8
456(19) 0.002829 321.6 439.6
488(19) 0.002685 321.6 444.9
468(19) 0.002741 321.6 450.9
485(20) 0.002630 321.5 457.4
476(19) 0.002657 321.5 464.3
484(19) 0.002657 321.5 471.6
527(20) 0.002451 321.4 479.2
522(20) 0.002451 321.4 486.8
561(21) 0.002268 321.4 494.5
560(21) 0.002246 321.4 501.9
580(21) 0.002184 321.3 508.9
558(21) 0.002311 321.3 515.3
553(21) 0.002311 321.3 520.7
606(22) 0.002104 321.2 525.2
609(22) 0.002047 321.2 528.5
551(21) 0.002356 321.2 530.6
582(21) 0.002204 321.2 531.6
606(22) 0.002104 321.1 531.6
578(21) 0.002225 321.1 530.8
572(21) 0.002204 321.1 529.6
568(21) 0.002246 321.1 528.2
552(21) 0.002356 321.0 527.0
527(20) 0.002427 321.0 526.1
552(21) 0.002289 321.0 525.9
550(21) 0.002289 320.9 526.4
555(21) 0.002311 320.9 527.5
562(21) 0.002289 320.9 529.3
581(21) 0.002204 320.9 531.5
558(21) 0.002268 320.8 533.7
574(21) 0.002184 320.8 535.3
505(20) 0.002525 320.8 535.8
542(20) 0.002403 320.8 534.5
531(20) 0.002403 320.7 530.8
550(21) 0.002289 320.7 524.5
519(20) 0.002451 320.7 515.7
502(20) 0.002551 320.7 504.7
528(20) 0.002475 320.6 492.2
498(20) 0.002551 320.6 478.9
465(19) 0.002741 320.6 465.4
470(19) 0.002685 320.5 452.0
445(19) 0.002829 320.5 439.3
463(19) 0.002829 320.5 427.4
454(19) 0.002799 320.5 416.6
440(19) 0.002860 320.4 406.9
402(18) 0.003192 320.4 398.3
437(19) 0.002860 320.4 390.8
385(17) 0.003420 320.4 384.4
407(18) 0.003121 320.3 378.9
388(18) 0.003265 320.3 374.4
374(17) 0.003420 320.3 370.6
381(17) 0.003303 320.3 367.4
377(17) 0.003460 320.2 364.8
392(17) 0.003303 320.2 362.7
398(18) 0.003156 320.2 361.0
370(17) 0.003460 320.1 359.6
381(17) 0.003341 320.1 358.5
348(16) 0.00372 320.1 357.6
363(17) 0.00354 320.1 356.9
342(17) 0.00367 320.0 356.4
371(17) 0.003420 320.0 356.1
396(18) 0.003228 320.0 355.8
356(17) 0.00363 320.0 355.8
391(18) 0.003265 319.9 355.8
370(17) 0.003460 319.9 356.0
359(17) 0.003460 319.9 356.4
384(17) 0.003380 319.9 356.9
362(17) 0.00359 319.8 357.7
366(17) 0.003460 319.8 358.6
414(18) 0.003121 319.8 359.8
380(17) 0.003303 319.8 361.4
398(18) 0.003192 319.7 363.3
404(18) 0.003265 319.7 365.7
404(18) 0.003121 319.7 368.6
382(17) 0.003341 319.7 372.1
409(18) 0.003086 319.6 376.4
381(17) 0.003341 319.6 381.6
408(18) 0.003192 319.6 387.8
403(18) 0.003156 319.6 395.1
411(18) 0.003086 319.5 403.6
427(18) 0.002954 319.5 413.4
428(18) 0.002954 319.5 424.7
438(18) 0.002986 319.5 437.4
446(19) 0.002829 319.4 451.6
461(19) 0.002770 319.4 467.0
531(21) 0.002380 319.4 483.7
534(21) 0.002380 319.4 501.3
529(20) 0.002451 319.3 519.4
585(21) 0.002184 319.3 537.5
559(21) 0.002289 319.3 554.8
573(21) 0.002184 319.3 570.6
593(22) 0.002143 319.2 583.7
609(22) 0.002124 319.2 593.2
601(22) 0.002124 319.2 598.3
614(22) 0.002047 319.2 598.6
633(22) 0.001993 319.1 594.1
602(22) 0.002143 319.1 585.4
584(21) 0.002204 319.1 573.1
567(21) 0.002246 319.1 558.5
557(21) 0.002289 319.0 542.6
480(20) 0.002630 319.0 526.0
502(20) 0.002525 319.0 509.6
465(19) 0.002829 319.0 493.9
471(19) 0.002685 318.9 479.2
477(19) 0.002657 318.9 465.9
426(18) 0.002986 318.9 454.0
477(19) 0.002685 318.9 443.6
474(19) 0.002713 318.8 434.8
441(19) 0.002891 318.8 427.5
400(18) 0.003192 318.8 421.6
419(18) 0.003019 318.8 417.1
448(19) 0.002829 318.7 413.7
439(18) 0.002954 318.7 411.4
432(18) 0.002954 318.7 410.0
394(18) 0.003228 318.7 409.4
427(18) 0.002954 318.6 409.4
393(18) 0.003265 318.6 409.9
418(18) 0.003086 318.6 410.8
393(18) 0.003265 318.6 412.0
410(18) 0.003121 318.5 413.3
409(18) 0.003052 318.5 414.6
431(18) 0.002954 318.5 415.8
438(18) 0.003019 318.5 416.9
441(19) 0.002860 318.4 417.7
445(19) 0.002829 318.4 418.1
421(18) 0.003019 318.4 418.2
421(18) 0.003019 318.4 417.8
424(18) 0.003052 318.4 417.0
438(19) 0.002922 318.3 415.7
407(18) 0.003086 318.3 414.0
417(18) 0.003019 318.3 411.9
419(18) 0.003019 318.3 409.4
413(18) 0.003121 318.2 406.6
425(18) 0.002986 318.2 403.6
393(18) 0.003228 318.2 400.5
403(18) 0.003121 318.2 397.2
396(18) 0.003228 318.1 393.9
392(17) 0.003341 318.1 390.5
384(17) 0.003303 318.1 387.2
386(17) 0.003341 318.1 384.0
369(17) 0.003380 318.0 380.8
369(17) 0.003460 318.0 377.8
367(17) 0.00354 318.0 374.9
370(17) 0.003420 318.0 372.1
369(17) 0.003460 318.0 369.5
391(18) 0.003192 317.9 367.0
363(17) 0.003460 317.9 364.6
386(17) 0.003420 317.9 362.4
355(17) 0.00354 317.9 360.3
353(17) 0.00359 317.8 358.3
361(17) 0.003501 317.8 356.4
368(17) 0.003460 317.8 354.5
356(17) 0.00367 317.8 352.8
334(16) 0.00381 317.7 351.1
353(17) 0.00359 317.7 349.5
348(17) 0.00363 317.7 347.9
351(17) 0.00363 317.7 346.4
354(17) 0.00367 317.7 345.0
329(16) 0.00381 317.6 343.6
358(17) 0.00359 317.6 342.3
331(16) 0.00381 317.6 341.1
334(16) 0.00376 317.6 340.0
333(16) 0.00391 317.5 338.9
329(16) 0.00381 317.5 337.9
345(16) 0.00372 317.5 336.9
349(17) 0.00363 317.5 336.1
343(17) 0.00367 317.5 335.3
335(16) 0.00386 317.4 334.5
325(16) 0.00396 317.4 333.8
346(17) 0.00363 317.4 333.2
332(16) 0.00381 317.4 332.6
362(17) 0.003501 317.3 332.0
334(16) 0.00391 317.3 331.5
354(17) 0.00367 317.3 331.1
315(16) 0.00396 317.3 330.6
322(16) 0.00391 317.3 330.2
315(16) 0.00411 317.2 329.9
324(16) 0.00396 317.2 329.5
320(16) 0.00396 317.2 329.2
329(16) 0.00386 317.2 328.9
330(16) 0.00386 317.1 328.7
334(16) 0.00381 317.1 328.4
347(16) 0.00376 317.1 328.2
344(17) 0.00367 317.1 328.0
336(16) 0.00376 317.1 327.8
340(16) 0.00376 317.0 327.7
341(17) 0.00367 317.0 327.5
314(16) 0.00416 317.0 327.4
346(17) 0.00367 317.0 327.3
336(16) 0.00381 316.9 327.2
301(16) 0.00416 316.9 327.1
338(16) 0.00372 316.9 327.1
344(16) 0.00376 316.9 327.1
332(16) 0.00386 316.9 327.1
332(16) 0.00376 316.8 327.1
326(16) 0.00386 316.8 327.2
341(16) 0.00372 316.8 327.2
309(16) 0.00416 316.8 327.4
337(16) 0.00381 316.8 327.5
339(16) 0.00372 316.7 327.7
356(17) 0.003501 316.7 327.9
328(16) 0.00391 316.7 328.2
326(16) 0.00401 316.7 328.5
345(17) 0.00367 316.6 328.8
329(16) 0.00381 316.6 329.2
345(16) 0.00372 316.6 329.7
324(16) 0.00396 316.6 330.2
341(16) 0.00376 316.6 330.8
328(16) 0.00386 316.5 331.5
329(16) 0.00386 316.5 332.2
323(16) 0.00391 316.5 333.0
332(16) 0.00381 316.5 334.0
325(16) 0.00396 316.5 335.0
334(16) 0.00381 316.4 336.1
334(16) 0.00381 316.4 337.4
341(16) 0.00372 316.4 338.8
354(17) 0.00359 316.4 340.3
340(16) 0.00381 316.3 342.0
349(16) 0.00372 316.3 343.8
345(17) 0.00363 316.3 345.8
331(16) 0.00381 316.3 347.9
354(17) 0.00363 316.3 350.1
349(16) 0.00372 316.2 352.3
351(17) 0.00367 316.2 354.5
353(17) 0.00359 316.2 356.5
372(17) 0.003380 316.2 358.3
358(17) 0.00359 316.2 359.5
390(17) 0.003341 316.1 360.2
386(17) 0.003303 316.1 360.2
374(17) 0.003341 316.1 359.4
356(17) 0.00359 316.1 358.0
386(17) 0.003341 316.1 355.9
353(17) 0.00367 316.0 353.4
360(17) 0.00354 316.0 350.7
350(17) 0.00363 316.0 347.8
348(17) 0.00367 316.0 344.9
374(17) 0.003380 316.0 342.1
371(17) 0.003501 315.9 339.5
338(16) 0.00381 315.9 337.0
363(17) 0.003501 315.9 334.8
338(16) 0.00372 315.9 332.8
319(16) 0.00401 315.8 331.0
333(16) 0.00386 315.8 329.5
334(16) 0.00381 315.8 328.1
339(16) 0.00376 315.8 327.0
312(16) 0.00401 315.8 326.0
304(16) 0.00416 315.7 325.2
320(16) 0.00406 315.7 324.5
327(16) 0.00396 315.7 323.9
326(16) 0.00386 315.7 323.4
323(16) 0.00391 315.7 323.0
315(16) 0.00411 315.6 322.7
317(16) 0.00411 315.6 322.3
311(16) 0.00406 315.6 322.1
336(16) 0.00381 315.6 321.8
313(16) 0.00401 315.6 321.6
289(15) 0.00444 315.5 321.4
320(16) 0.00406 315.5 321.2
305(16) 0.00416 315.5 321.1
337(16) 0.00376 315.5 320.9
287(15) 0.00439 315.5 320.8
303(15) 0.00422 315.4 320.6
300(15) 0.00427 315.4 320.5
302(15) 0.00422 315.4 320.4
330(16) 0.00386 315.4 320.3
319(16) 0.00396 315.4 320.2
303(15) 0.00422 315.3 320.1
321(16) 0.00401 315.3 320.0
307(16) 0.00416 315.3 319.9
301(15) 0.00422 315.3 319.8
318(16) 0.00396 315.3 319.7
341(17) 0.00367 315.2 319.6
309(15) 0.00427 315.2 319.5
330(16) 0.00386 315.2 319.5
328(16) 0.00386 315.2 319.4
294(15) 0.00427 315.2 319.3
286(15) 0.00444 315.1 319.3
326(16) 0.00396 315.1 319.2
323(16) 0.00396 315.1 319.1
310(16) 0.00406 315.1 319.1
301(16) 0.00416 315.1 319.0
324(16) 0.00396 315.0 318.9
331(16) 0.00396 315.0 318.9
317(16) 0.00401 315.0 318.8
309(16) 0.00411 315.0 318.8
299(15) 0.00422 315.0 318.7
318(16) 0.00406 314.9 318.7
313(16) 0.00411 314.9 318.6
306(16) 0.00411 314.9 318.6
347(16) 0.00372 314.9 318.5
331(16) 0.00381 314.9 318.5
330(16) 0.00381 314.8 318.4
328(16) 0.00396 314.8 318.4
338(16) 0.00381 314.8 318.3
317(16) 0.00396 314.8 318.3
292(15) 0.00433 314.8 318.3
282(15) 0.00450 314.7 318.2
292(15) 0.00444 314.7 318.2
322(16) 0.00401 314.7 318.1
333(16) 0.00376 314.7 318.1
326(16) 0.00386 314.7 318.1
311(16) 0.00411 314.6 318.0
306(15) 0.00427 314.6 318.0
306(16) 0.00411 314.6 318.0
317(16) 0.00396 314.6 317.9
322(16) 0.00396 314.6 317.9
328(16) 0.00386 314.6 317.8
312(16) 0.00416 314.5 317.8
308(16) 0.00411 314.5 317.8
307(16) 0.00411 314.5 317.7
312(16) 0.00401 314.5 317.7
311(16) 0.00411 314.5 317.7
320(16) 0.00401 314.4 317.6
342(16) 0.00372 314.4 317.6
320(16) 0.00401 314.4 317.6
304(16) 0.00411 314.4 317.6
290(15) 0.00439 314.4 317.5
318(16) 0.00411 314.3 317.5
304(16) 0.00416 314.3 317.5
337(16) 0.00376 314.3 317.4
301(16) 0.00416 314.3 317.4
337(16) 0.00372 314.3 317.4
296(15) 0.00439 314.2 317.4
313(16) 0.00406 314.2 317.3
303(15) 0.00422 314.2 317.3
302(16) 0.00411 314.2 317.3
287(15) 0.00444 314.2 317.2
295(15) 0.00439 314.1 317.2
322(16) 0.00391 314.1 317.2
316(16) 0.00401 314.1 317.2
299(16) 0.00416 314.1 317.1
325(16) 0.00396 314.1 317.1
307(15) 0.00427 314.0 317.1
312(16) 0.00401 314.0 317.1
311(16) 0.00411 314.0 317.0
299(15) 0.00422 314.0 317.0
318(16) 0.00396 314.0 317.0
297(15) 0.00439 313.9 317.0
311(16) 0.00411 313.9 316.9
288(15) 0.00439 313.9 316.9
325(16) 0.00391 313.9 316.9
301(15) 0.00422 313.9 316.9
317(16) 0.00406 313.9 316.9
311(16) 0.00411 313.8 316.8
297(15) 0.00422 313.8 316.8
297(15) 0.00422 313.8 316.8
303(15) 0.00422 313.8 316.8
282(15) 0.00457 313.8 316.7
296(15) 0.00439 313.7 316.7
286(15) 0.00444 313.7 316.7
321(16) 0.00391 313.7 316.7
319(16) 0.00401 313.7 316.7
336(16) 0.00386 313.7 316.6
292(15) 0.00433 313.6 316.6
296(15) 0.00422 313.6 316.6
293(15) 0.00439 313.6 316.6
306(16) 0.00411 313.6 316.6
318(16) 0.00406 313.6 316.6
316(16) 0.00401 313.5 316.5
299(16) 0.00416 313.5 316.5
303(16) 0.00416 313.5 316.5
295(15) 0.00427 313.5 316.5
313(16) 0.00411 313.5 316.5
304(15) 0.00422 313.4 316.4
301(16) 0.00416 313.4 316.4
333(16) 0.00381 313.4 316.4
302(15) 0.00422 313.4 316.4
286(15) 0.00450 313.4 316.4
324(16) 0.00396 313.3 316.4
296(15) 0.00433 313.3 316.3
291(15) 0.00427 313.3 316.3
301(15) 0.00422 313.3 316.3
317(16) 0.00416 313.3 316.3
296(15) 0.00422 313.2 316.3
293(15) 0.00439 313.2 316.3
283(15) 0.00444 313.2 316.3
307(16) 0.00411 313.2 316.2
300(15) 0.00433 313.2 316.2
336(16) 0.00376 313.2 316.2
315(16) 0.00401 313.1 316.2
286(15) 0.00439 313.1 316.2
299(15) 0.00427 313.1 316.2
299(15) 0.00433 313.1 316.2
290(15) 0.00439 313.1 316.1
296(15) 0.00427 313.0 316.1
301(15) 0.00422 313.0 316.1
302(16) 0.00416 313.0 316.1
328(16) 0.00396 313.0 316.1
307(16) 0.00416 313.0 316.1
276(15) 0.00457 312.9 316.1
269(15) 0.00469 312.9 316.1
330(16) 0.00386 312.9 316.1
333(16) 0.00391 312.9 316.0
310(16) 0.00406 312.9 316.0
315(16) 0.00401 312.8 316.0
318(16) 0.00401 312.8 316.0
297(15) 0.00422 312.8 316.0
319(16) 0.00411 312.8 316.0
296(15) 0.00433 312.8 316.0
290(15) 0.00439 312.7 316.0
322(16) 0.00391 312.7 316.0
313(16) 0.00406 312.7 316.0
296(15) 0.00444 312.7 316.0
273(15) 0.00457 312.7 315.9
295(15) 0.00427 312.6 315.9
284(15) 0.00450 312.6 315.9
327(16) 0.00381 312.6 315.9
317(16) 0.00416 312.6 315.9
317(16) 0.00401 312.6 315.9
305(16) 0.00406 312.5 315.9
322(16) 0.00396 312.5 315.9
319(16) 0.00391 312.5 315.9
325(16) 0.00401 312.5 315.9
304(16) 0.00416 312.5 315.9
297(15) 0.00422 312.4 315.9
325(16) 0.00386 312.4 315.9
314(16) 0.00411 312.4 315.9
317(16) 0.00406 312.4 315.9
317(16) 0.00401 312.4 315.9
303(15) 0.00422 312.3 315.9
298(16) 0.00416 312.3 315.9
307(16) 0.00416 312.3 315.9
312(16) 0.00416 312.3 315.9
297(15) 0.00433 312.3 315.8
334(16) 0.00376 312.2 315.8
315(16) 0.00401 312.2 315.8
278(15) 0.00457 312.2 315.8
289(15) 0.00450 312.2 315.8
323(16) 0.00391 312.2 315.8
323(16) 0.00391 312.1 315.8
312(16) 0.00406 312.1 315.8
299(15) 0.00422 312.1 315.8
302(15) 0.00427 312.1 315.8
296(15) 0.00427 312.1 315.8
289(15) 0.00439 312.0 315.8
313(16) 0.00401 312.0 315.8
310(16) 0.00411 312.0 315.8
328(16) 0.00401 312.0 315.9
296(15) 0.00427 312.0 315.9
279(15) 0.00457 311.9 315.9
313(16) 0.00406 311.9 315.9
287(15) 0.00444 311.9 315.9
325(16) 0.00396 311.9 315.9
310(16) 0.00411 311.9 315.9
306(16) 0.00411 311.8 315.9
304(16) 0.00416 311.8 315.9
325(16) 0.00391 311.8 315.9
285(15) 0.00450 311.8 315.9
286(15) 0.00450 311.8 315.9
289(15) 0.00439 311.7 315.9
278(15) 0.00450 311.7 315.9
310(16) 0.00416 311.7 315.9
326(16) 0.00396 311.7 315.9
311(16) 0.00411 311.7 316.0
311(16) 0.00411 311.6 316.0
280(15) 0.00450 311.6 316.0
283(15) 0.00457 311.6 316.0
300(15) 0.00427 311.6 316.0
293(15) 0.00439 311.5 316.0
294(15) 0.00433 311.5 316.0
313(16) 0.00401 311.5 316.0
325(16) 0.00396 311.5 316.1
320(16) 0.00401 311.5 316.1
290(15) 0.00439 311.4 316.1
285(15) 0.00439 311.4 316.1
285(15) 0.00444 311.4 316.1
307(16) 0.00416 311.4 316.1
321(16) 0.00401 311.4 316.2
309(16) 0.00416 311.3 316.2
308(16) 0.00411 311.3 316.2
283(15) 0.00444 311.3 316.2
307(16) 0.00416 311.3 316.3
323(16) 0.00401 311.3 316.3
300(15) 0.00427 311.2 316.3
314(16) 0.00401 311.2 316.3
316(16) 0.00401 311.2 316.3
299(15) 0.00427 311.2 316.4
288(15) 0.00444 311.1 316.4
320(16) 0.00401 311.1 316.4
309(16) 0.00406 311.1 316.5
294(15) 0.00427 311.1 316.5
325(16) 0.00396 311.1 316.5
272(15) 0.00476 311.0 316.6
291(15) 0.00439 311.0 316.6
314(16) 0.00406 311.0 316.6
295(15) 0.00427 311.0 316.7
306(16) 0.00416 311.0 316.7
300(15) 0.00427 310.9 316.7
310(16) 0.00416 310.9 316.8
304(16) 0.00416 310.9 316.8
314(16) 0.00406 310.9 316.9
296(15) 0.00433 310.8 316.9
304(15) 0.00427 310.8 317.0
319(16) 0.00401 310.8 317.0
303(16) 0.00416 310.8 317.1
282(15) 0.00450 310.8 317.1
306(16) 0.00411 310.7 317.2
303(15) 0.00433 310.7 317.2
326(16) 0.00391 310.7 317.3
331(16) 0.00381 310.7 317.3
318(16) 0.00401 310.6 317.4
292(15) 0.00433 310.6 317.4
298(15) 0.00439 310.6 317.5
313(16) 0.00406 310.6 317.6
296(15) 0.00427 310.6 317.6
304(15) 0.00422 310.5 317.7
311(16) 0.00411 310.5 317.8
310(15) 0.00422 310.5 317.9
298(15) 0.00427 310.5 317.9
311(16) 0.00406 310.4 318.0
317(16) 0.00396 310.4 318.1
301(15) 0.00422 310.4 318.2
309(16) 0.00416 310.4 318.3
322(16) 0.00396 310.4 318.3
325(16) 0.00386 310.3 318.4
295(15) 0.00427 310.3 318.5
324(16) 0.00396 310.3 318.6
306(15) 0.00427 310.3 318.7
314(16) 0.00406 310.2 318.8
311(16) 0.00406 310.2 318.9
332(16) 0.00381 310.2 319.1
299(15) 0.00427 310.2 319.2
306(15) 0.00422 310.2 319.3
324(16) 0.00396 310.1 319.4
311(16) 0.00406 310.1 319.5
314(16) 0.00401 310.1 319.7
312(16) 0.00401 310.1 319.8
337(16) 0.00391 310.0 320.0
333(16) 0.00381 310.0 320.1
325(16) 0.00381 310.0 320.3
307(16) 0.00416 310.0 320.4
334(16) 0.00376 309.9 320.6
306(15) 0.00422 309.9 320.8
293(15) 0.00444 309.9 320.9
307(16) 0.00411 309.9 321.1
311(16) 0.00406 309.9 321.3
297(15) 0.00427 309.8 321.5
325(16) 0.00401 309.8 321.7
336(16) 0.00376 309.8 321.9
341(16) 0.00372 309.8 322.1
312(16) 0.00406 309.7 322.4
315(16) 0.00406 309.7 322.6
311(16) 0.00411 309.7 322.9
341(16) 0.00376 309.7 323.1
359(17) 0.003501 309.6 323.4
285(15) 0.00439 309.6 323.7
310(16) 0.00411 309.6 323.9
311(16) 0.00416 309.6 324.3
327(16) 0.00391 309.5 324.6
343(17) 0.00367 309.5 324.9
321(16) 0.00396 309.5 325.2
333(16) 0.00386 309.5 325.6
338(16) 0.00381 309.5 326.0
304(15) 0.00422 309.4 326.4
315(16) 0.00396 309.4 326.8
324(16) 0.00391 309.4 327.2
336(16) 0.00376 309.4 327.7
351(17) 0.00367 309.3 328.2
323(16) 0.00396 309.3 328.7
306(16) 0.00411 309.3 329.2
312(16) 0.00401 309.3 329.7
314(16) 0.00406 309.2 330.3
343(16) 0.00376 309.2 330.9
323(16) 0.00396 309.2 331.6
359(17) 0.003501 309.2 332.3
342(16) 0.00372 309.1 333.0
327(16) 0.00386 309.1 333.8
321(16) 0.00411 309.1 334.6
351(17) 0.00367 309.1 335.4
328(16) 0.00386 309.0 336.4
306(16) 0.00411 309.0 337.3
344(16) 0.00372 309.0 338.4
323(16) 0.00401 309.0 339.5
342(16) 0.00372 308.9 340.7
312(16) 0.00401 308.9 341.9
341(16) 0.00372 308.9 343.3
336(16) 0.00376 308.9 344.7
344(16) 0.00376 308.8 346.3
349(17) 0.00363 308.8 348.0
364(17) 0.003460 308.8 349.9
360(17) 0.003501 308.8 351.9
352(17) 0.00363 308.7 354.1
410(18) 0.003156 308.7 356.6
399(18) 0.003192 308.7 359.4
374(17) 0.003420 308.7 362.5
380(17) 0.003380 308.6 366.0
391(18) 0.003228 308.6 370.0
386(17) 0.003341 308.6 374.6
401(18) 0.003192 308.6 380.0
413(18) 0.003052 308.5 386.3
439(19) 0.002860 308.5 393.8
444(19) 0.002891 308.5 402.4
459(19) 0.002829 308.5 412.7
468(19) 0.002685 308.4 424.8
474(19) 0.002657 308.4 438.9
476(19) 0.002657 308.4 455.3
476(20) 0.002630 308.4 474.3
538(20) 0.002403 308.3 496.2
544(21) 0.002380 308.3 521.1
598(22) 0.002085 308.3 549.0
643(23) 0.001975 308.3 580.2
636(22) 0.002047 308.2 614.4
688(23) 0.001858 308.2 651.5
715(24) 0.001795 308.2 691.2
831(26) 0.001526 308.2 732.5
872(26) 0.001435 308.1 775.0
876(26) 0.001435 308.1 817.0
902(26) 0.001435 308.1 857.4
983(28) 0.001294 308.0 893.9
1004(28) 0.001257 308.0 924.5
1032(29) 0.001206 308.0 947.0
1071(29) 0.001189 308.0 959.7
1028(28) 0.001257 307.9 961.5
1028(29) 0.001214 307.9 952.4
991(28) 0.001285 307.9 933.4
1017(28) 0.001240 307.9 906.1
947(27) 0.001332 307.8 872.8
897(26) 0.001491 307.8 835.6
866(26) 0.001468 307.8 796.3
795(25) 0.001587 307.8 756.8
713(24) 0.001780 307.7 718.0
688(23) 0.001858 307.7 681.2
679(23) 0.001890 307.7 646.7
660(23) 0.001924 307.6 615.1
633(22) 0.002011 307.6 586.7
639(23) 0.001975 307.6 561.4
594(22) 0.002143 307.6 539.4
551(21) 0.002356 307.5 520.3
548(21) 0.002311 307.5 504.2
531(21) 0.002356 307.5 490.7
526(21) 0.002380 307.5 479.6
527(20) 0.002427 307.4 470.7
474(19) 0.002713 307.4 463.7
491(20) 0.002603 307.4 458.3
488(20) 0.002630 307.3 454.3
460(19) 0.002741 307.3 451.5
479(19) 0.002657 307.3 449.7
481(19) 0.002713 307.3 448.7
480(19) 0.002657 307.2 448.4
472(20) 0.002630 307.2 448.6
487(20) 0.002603 307.2 449.3
495(20) 0.002577 307.1 450.3
456(19) 0.002829 307.1 451.6
456(19) 0.002799 307.1 453.1
482(20) 0.002603 307.1 454.7
494(20) 0.002525 307.0 456.4
461(19) 0.002770 307.0 458.1
465(19) 0.002799 307.0 459.8
485(20) 0.002630 307.0 461.4
514(20) 0.002451 306.9 463.0
453(19) 0.002829 306.9 464.5
508(20) 0.002500 306.9 466.1
512(20) 0.002551 306.8 467.6
491(20) 0.002603 306.8 469.3
491(20) 0.002577 306.8 471.0
496(20) 0.002551 306.8 473.0
514(20) 0.002451 306.7 475.3
483(19) 0.002685 306.7 478.0
496(20) 0.002577 306.7 481.2
507(20) 0.002451 306.6 484.9
506(20) 0.002525 306.6 489.2
530(21) 0.002380 306.6 494.3
507(20) 0.002551 306.5 500.2
513(20) 0.002475 306.5 506.9
579(22) 0.002163 306.5 514.5
504(20) 0.002500 306.5 523.0
547(21) 0.002311 306.4 532.5
547(20) 0.002403 306.4 543.0
545(21) 0.002334 306.4 554.5
592(22) 0.002124 306.3 566.9
585(21) 0.002184 306.3 580.2
582(21) 0.002184 306.3 594.2
641(22) 0.002011 306.3 608.9
633(22) 0.001993 306.2 624.1
645(23) 0.001958 306.2 639.6
683(23) 0.001858 306.2 655.1
668(23) 0.001890 306.1 670.2
693(23) 0.001890 306.1 684.8
687(23) 0.001826 306.1 698.2
688(23) 0.001842 306.0 710.1
702(24) 0.001780 306.0 720.1
721(24) 0.001765 306.0 727.8
722(24) 0.001780 306.0 732.9
719(24) 0.001765 305.9 735.1
709(24) 0.001811 305.9 734.5
707(24) 0.001765 305.9 731.0
761(24) 0.001680 305.8 724.8
712(23) 0.001826 305.8 716.1
659(23) 0.001907 305.8 705.2
708(24) 0.001780 305.7 692.5
696(24) 0.001811 305.7 678.2
664(23) 0.001907 305.7 662.8
638(22) 0.002047 305.7 646.5
624(22) 0.002029 305.6 629.7
601(22) 0.002104 305.6 612.6
618(22) 0.002029 305.6 595.4
562(21) 0.002268 305.5 578.5
563(21) 0.002289 305.5 561.8
514(20) 0.002475 305.5 545.6
530(21) 0.002380 305.4 530.1
517(20) 0.002451 305.4 515.1
504(20) 0.002551 305.4 501.0
523(20) 0.002475 305.3 487.7
489(20) 0.002603 305.3 475.1
454(19) 0.002799 305.3 463.4
476(19) 0.002657 305.3 452.5
478(19) 0.002657 305.2 442.4
459(19) 0.002799 305.2 433.0
447(19) 0.002860 305.2 424.4
434(19) 0.002922 305.1 416.5
409(18) 0.003052 305.1 409.3
388(17) 0.003303 305.1 402.7
401(18) 0.003265 305.0 396.7
445(19) 0.002799 305.0 391.2
412(18) 0.003086 305.0 386.2
398(18) 0.003156 304.9 381.7
356(17) 0.00354 304.9 377.6
384(17) 0.003420 304.9 373.9
357(17) 0.00359 304.8 370.5
373(17) 0.003380 304.8 367.4
355(17) 0.00354 304.8 364.6
359(17) 0.00363 304.8 362.1
356(17) 0.00363 304.7 359.8
358(17) 0.003501 304.7 357.8
342(16) 0.00372 304.7 355.9
366(17) 0.003460 304.6 354.2
356(17) 0.003501 304.6 352.7
351(16) 0.00372 304.6 351.3
362(17) 0.003501 304.5 350.0
369(17) 0.003420 304.5 348.8
348(17) 0.00363 304.5 347.8
342(16) 0.00372 304.4 346.9
357(17) 0.00363 304.4 346.0
330(16) 0.00386 304.4 345.3
335(16) 0.00381 304.3 344.6
336(16) 0.00376 304.3 344.1
330(16) 0.00391 304.3 343.6
331(16) 0.00391 304.2 343.2
336(16) 0.00376 304.2 342.8
338(16) 0.00376 304.2 342.6
346(17) 0.00359 304.1 342.4
332(16) 0.00386 304.1 342.3
357(17) 0.00363 304.1 342.2
315(16) 0.00401 304.0 342.3
354(17) 0.00359 304.0 342.4
343(17) 0.00363 304.0 342.7
314(16) 0.00411 303.9 343.0
351(17) 0.00367 303.9 343.4
332(16) 0.00381 303.9 343.9
357(17) 0.00359 303.8 344.6
349(17) 0.00363 303.8 345.4
335(16) 0.00381 303.8 346.3
316(16) 0.00416 303.7 347.3
359(17) 0.00354 303.7 348.5
371(17) 0.003420 303.7 349.9
360(17) 0.003501 303.6 351.4
357(17) 0.00354 303.6 353.1
348(16) 0.00372 303.6 355.1
372(17) 0.003460 303.5 357.2
374(17) 0.003341 303.5 359.7
363(17) 0.003501 303.5 362.4
347(17) 0.00363 303.4 365.4
368(17) 0.00354 303.4 368.8
394(18) 0.003228 303.4 372.7
375(17) 0.003303 303.3 377.1
406(18) 0.003121 303.3 382.1
416(18) 0.003052 303.3 387.9
424(18) 0.003086 303.2 394.7
414(18) 0.003121 303.2 402.7
406(18) 0.003156 303.2 412.0
476(20) 0.002630 303.1 422.8
470(19) 0.002741 303.1 435.5
496(19) 0.002657 303.1 450.2
461(19) 0.002713 303.0 467.0
547(21) 0.002334 303.0 486.1
544(21) 0.002334 303.0 507.7
558(21) 0.002268 302.9 531.6
583(21) 0.002225 302.9 557.9
639(22) 0.001993 302.9 586.5
687(23) 0.001842 302.8 617.0
679(23) 0.001842 302.8 649.0
783(25) 0.001613 302.8 681.9
816(25) 0.001587 302.7 714.9
855(26) 0.001491 302.7 746.8
868(26) 0.001468 302.7 776.3
898(27) 0.001413 302.6 802.0
907(27) 0.001403 302.6 822.1
933(27) 0.001403 302.6 835.2
923(27) 0.001382 302.5 840.2
916(27) 0.001372 302.5 836.8
946(27) 0.001332 302.4 825.0
870(26) 0.001468 302.4 806.0
831(25) 0.001550 302.4 781.0
804(25) 0.001587 302.3 751.6
730(24) 0.001736 302.3 719.5
701(24) 0.001780 302.3 686.0
677(23) 0.001907 302.2 652.4
653(23) 0.001958 302.2 619.4
602(22) 0.002104 302.2 587.7
595(22) 0.002143 302.1 558.0
576(21) 0.002204 302.1 530.3
544(21) 0.002356 302.1 505.0
503(20) 0.002603 302.0 482.1
467(19) 0.002741 302.0 461.6
444(19) 0.002891 302.0 443.4
455(19) 0.002770 301.9 427.4
406(18) 0.003156 301.9 413.4
398(18) 0.003228 301.9 401.3
414(18) 0.003086 301.8 390.9
415(18) 0.003019 301.8 381.9
370(17) 0.003420 301.7 374.3
357(17) 0.00354 301.7 367.7
369(17) 0.00354 301.7 362.1
382(17) 0.003303 301.6 357.2
376(17) 0.003341 301.6 353.1
341(17) 0.00367 301.6 349.5
324(16) 0.00396 301.5 346.3
384(17) 0.003380 301.5 343.6
362(17) 0.00354 301.5 341.1
350(17) 0.00363 301.4 338.9
330(16) 0.00386 301.4 337.0
354(17) 0.00363 301.4 335.2
341(16) 0.00381 301.3 333.5
347(17) 0.00367 301.3 332.1
333(16) 0.00386 301.2 330.7
349(17) 0.00363 301.2 329.4
334(16) 0.00381 301.2 328.2
338(16) 0.00381 301.1 327.1
338(16) 0.00376 301.1 326.1
320(16) 0.00396 301.1 325.2
328(16) 0.00386 301.0 324.3
346(17) 0.00363 301.0 323.4
326(16) 0.00401 301.0 322.6
344(16) 0.00372 300.9 321.9
285(15) 0.00450 300.9 321.2
323(16) 0.00391 300.8 320.5
325(16) 0.00391 300.8 319.9
331(16) 0.00396 300.8 319.3
326(16) 0.00391 300.7 318.7
315(16) 0.00396 300.7 318.2
302(15) 0.00422 300.7 317.7
315(16) 0.00401 300.6 317.2
291(15) 0.00450 300.6 316.8
292(15) 0.00433 300.6 316.3
320(16) 0.00396 300.5 315.9
287(15) 0.00439 300.5 315.5
313(16) 0.00406 300.4 315.1
303(15) 0.00427 300.4 314.8
303(16) 0.00416 300.4 314.4
296(15) 0.00427 300.3 314.1
296(15) 0.00433 300.3 313.8
303(15) 0.00427 300.3 313.5
291(15) 0.00444 300.2 313.2
312(16) 0.00411 300.2 313.0
307(16) 0.00416 300.2 312.7
276(15) 0.00457 300.1 312.4
299(15) 0.00433 300.1 312.2
312(16) 0.00411 300.0 312.0
313(16) 0.00411 300.0 311.8
279(15) 0.00450 300.0 311.6
313(16) 0.00401 299.9 311.4
314(16) 0.00406 299.9 311.2
288(15) 0.00450 299.9 311.1
300(15) 0.00422 299.8 310.9
300(16) 0.00416 299.8 310.8
283(15) 0.00444 299.7 310.6
319(16) 0.00401 299.7 310.5
324(16) 0.00396 299.7 310.4
321(16) 0.00406 299.6 310.3
283(15) 0.00439 299.6 310.2
296(15) 0.00433 299.6 310.1
299(15) 0.00433 299.5 310.0
278(15) 0.00463 299.5 310.0
307(16) 0.00416 299.4 309.9
296(15) 0.00427 299.4 309.9
310(16) 0.00406 299.4 309.9
301(15) 0.00422 299.3 309.9
309(16) 0.00416 299.3 309.9
285(15) 0.00450 299.3 310.0
293(15) 0.00427 299.2 310.0
284(15) 0.00444 299.2 310.1
295(15) 0.00433 299.1 310.2
280(15) 0.00457 299.1 310.3
315(16) 0.00406 299.1 310.4
330(16) 0.00386 299.0 310.6
312(16) 0.00401 299.0 310.8
298(15) 0.00433 299.0 310.9
305(15) 0.00427 298.9 311.2
308(16) 0.00416 298.9 311.4
315(16) 0.00401 298.8 311.7
314(16) 0.00396 298.8 312.0
317(16) 0.00411 298.8 312.3
337(16) 0.00376 298.7 312.6
315(16) 0.00401 298.7 313.0
314(16) 0.00411 298.7 313.4
311(16) 0.00401 298.6 313.8
310(16) 0.00411 298.6 314.2
305(15) 0.00427 298.5 314.7
310(16) 0.00406 298.5 315.2
303(16) 0.00416 298.5 315.6
301(15) 0.00422 298.4 316.2
267(14) 0.00482 298.4 316.7
317(16) 0.00411 298.4 317.2
305(16) 0.00416 298.3 317.7
276(15) 0.00469 298.3 318.2
314(16) 0.00396 298.2 318.7
299(15) 0.00427 298.2 319.2
320(16) 0.00406 298.2 319.6
301(15) 0.00427 298.1 320.1
314(16) 0.00396 298.1 320.4
334(16) 0.00376 298.1 320.8
326(16) 0.00396 298.0 321.0
328(16) 0.00391 298.0 321.2
339(16) 0.00372 297.9 321.3
306(15) 0.00422 297.9 321.3
308(16) 0.00401 297.9 321.3
312(16) 0.00411 297.8 321.1
319(16) 0.00411 297.8 320.9
321(16) 0.00396 297.8 320.6
338(16) 0.00372 297.7 320.2
303(15) 0.00427 297.7 319.7
317(16) 0.00401 297.6 319.2
307(15) 0.00422 297.6 318.7
331(16) 0.00386 297.6 318.1
305(16) 0.00411 297.5 317.4
322(16) 0.00391 297.5 316.8
351(17) 0.00363 297.5 316.1
323(16) 0.00401 297.4 315.4
307(16) 0.00416 297.4 314.7
321(16) 0.00391 297.3 314.0
312(16) 0.00411 297.3 313.4
328(16) 0.00376 297.3 312.7
325(16) 0.00401 297.2 312.0
317(16) 0.00406 297.2 311.4
321(16) 0.00396 297.1 310.8
305(16) 0.00411 297.1 310.2
287(15) 0.00444 297.1 309.6
310(15) 0.00427 297.0 309.1
307(16) 0.00411 297.0 308.6
295(15) 0.00427 297.0 308.1
275(15) 0.00457 296.9 307.6
288(15) 0.00444 296.9 307.1
293(15) 0.00444 296.8 306.7
296(15) 0.00427 296.8 306.3
285(15) 0.00444 296.8 305.9
300(16) 0.00416 296.7 305.5
283(15) 0.00450 296.7 305.2
264(14) 0.00489 296.7 304.8
277(15) 0.00463 296.6 304.5
292(15) 0.00433 296.6 304.2
300(15) 0.00422 296.5 304.0
301(15) 0.00427 296.5 303.7
290(15) 0.00444 296.5 303.5
309(16) 0.00416 296.4 303.2
295(15) 0.00439 296.4 303.0
331(16) 0.00381 296.4 302.8
321(16) 0.00401 296.3 302.7
291(15) 0.00439 296.3 302.5
301(15) 0.00427 296.2 302.3
294(15) 0.00427 296.2 302.2
302(16) 0.00411 296.2 302.0
301(15) 0.00427 296.1 301.9
272(15) 0.00476 296.1 301.8
284(15) 0.00444 296.0 301.7
291(15) 0.00433 296.0 301.6
285(15) 0.00439 296.0 301.5
284(15) 0.00457 295.9 301.4
277(15) 0.00469 295.9 301.3
304(15) 0.00427 295.9 301.2
309(16) 0.00411 295.8 301.1
287(15) 0.00444 295.8 301.0
300(15) 0.00433 295.7 301.0
296(15) 0.00439 295.7 300.9
294(15) 0.00427 295.7 300.8
306(15) 0.00422 295.6 300.7
301(16) 0.00416 295.6 300.6
286(15) 0.00450 295.6 300.6
292(15) 0.00439 295.5 300.5
293(15) 0.00433 295.5 300.4
274(15) 0.00463 295.4 300.3
293(15) 0.00427 295.4 300.2
313(16) 0.00406 295.4 300.1
293(15) 0.00439 295.3 300.0
287(15) 0.00444 295.3 299.9
323(16) 0.00401 295.3 299.8
312(16) 0.00401 295.2 299.7
292(15) 0.00444 295.2 299.6
276(15) 0.00476 295.1 299.5
280(15) 0.00450 295.1 299.4
306(16) 0.00416 295.1 299.3
283(15) 0.00450 295.0 299.2
303(16) 0.00416 295.0 299.1
288(15) 0.00450 295.0 299.0
307(15) 0.00422 294.9 298.9
282(15) 0.00444 294.9 298.8
288(15) 0.00439 294.8 298.8
288(15) 0.00450 294.8 298.7
273(15) 0.00469 294.8 298.6
320(16) 0.00401 294.7 298.5
292(15) 0.00433 294.7 298.5
300(15) 0.00427 294.7 298.4
315(16) 0.00406 294.6 298.3
299(15) 0.00439 294.6 298.3
296(15) 0.00433 294.5 298.2
299(15) 0.00427 294.5 298.1
283(15) 0.00450 294.5 298.1
286(15) 0.00444 294.4 298.0
296(15) 0.00439 294.4 298.0
297(15) 0.00433 294.4 297.9
270(15) 0.00463 294.3 297.9
287(15) 0.00444 294.3 297.8
281(15) 0.00450 294.2 297.8
312(16) 0.00416 294.2 297.7
272(15) 0.00463 294.2 297.7
303(15) 0.00422 294.1 297.6
277(15) 0.00450 294.1 297.6
286(15) 0.00444 294.1 297.5
280(15) 0.00469 294.0 297.5
275(15) 0.00469 294.0 297.4
304(16) 0.00411 294.0 297.4
316(16) 0.00406 293.9 297.3
290(15) 0.00444 293.9 297.3
314(16) 0.00416 293.8 297.2
280(15) 0.00450 293.8 297.2
269(15) 0.00469 293.8 297.2
318(16) 0.00396 293.7 297.1
277(15) 0.00463 293.7 297.1
280(15) 0.00457 293.7 297.0
289(15) 0.00444 293.6 297.0
297(15) 0.00427 293.6 297.0
297(15) 0.00422 293.5 296.9
281(15) 0.00457 293.5 296.9
278(15) 0.00469 293.5 296.9
289(15) 0.00439 293.4 296.8
294(15) 0.00433 293.4 296.8
281(15) 0.00450 293.4 296.8
306(16) 0.00416 293.3 296.7
281(15) 0.00469 293.3 296.7
309(16) 0.00416 293.3 296.7
262(14) 0.00482 293.2 296.6
285(15) 0.00439 293.2 296.6
302(15) 0.00427 293.1 296.6
303(15) 0.00427 293.1 296.5
263(14) 0.00482 293.1 296.5
268(15) 0.00476 293.0 296.5
274(15) 0.00463 293.0 296.5
285(15) 0.00444 293.0 296.4
295(15) 0.00439 292.9 296.4
291(15) 0.00439 292.9 296.4
286(15) 0.00439 292.9 296.4
272(15) 0.00476 292.8 296.4
300(15) 0.00427 292.8 296.3
275(15) 0.00469 292.7 296.3
271(14) 0.00482 292.7 296.3
277(15) 0.00463 292.7 296.3
305(16) 0.00411 292.6 296.3
310(16) 0.00416 292.6 296.3
278(15) 0.00463 292.6 296.3
258(14) 0.00503 292.5 296.3
273(15) 0.00457 292.5 296.3
297(15) 0.00427 292.5 296.3
310(16) 0.00411 292.4 296.3
288(15) 0.00450 292.4 296.3
287(15) 0.00444 292.4 296.3
287(15) 0.00439 292.3 296.3
299(16) 0.00416 292.3 296.3
289(15) 0.00450 292.2 296.3
279(15) 0.00463 292.2 296.3
325(16) 0.00396 292.2 296.3
282(15) 0.00450 292.1 296.4
282(15) 0.00450 292.1 296.4
280(15) 0.00463 292.1 296.4
266(14) 0.00489 292.0 296.5
290(15) 0.00439 292.0 296.5
288(15) 0.00444 292.0 296.6
263(15) 0.00476 291.9 296.6
292(15) 0.00439 291.9 296.7
308(16) 0.00416 291.9 296.7
311(16) 0.00416 291.8 296.8
284(15) 0.00439 291.8 296.8
292(15) 0.00433 291.8 296.9
296(15) 0.00433 291.7 297.0
266(14) 0.00482 291.7 297.0
292(15) 0.00444 291.7 297.1
306(16) 0.00411 291.6 297.1
289(15) 0.00439 291.6 297.1
273(15) 0.00469 291.6 297.2
320(16) 0.00411 291.5 297.2
280(15) 0.00457 291.5 297.2
290(15) 0.00433 291.4 297.3
289(15) 0.00439 291.4 297.3
313(16) 0.00406 291.4 297.3
309(16) 0.00416 291.3 297.3
306(16) 0.00416 291.3 297.3
291(15) 0.00427 291.3 297.3
308(16) 0.00411 291.2 297.3
296(15) 0.00433 291.2 297.3
291(15) 0.00439 291.2 297.3
293(15) 0.00433 291.1 297.4
277(15) 0.00463 291.1 297.4
320(16) 0.00396 291.1 297.4
290(15) 0.00439 291.0 297.5
297(15) 0.00439 291.0 297.5
293(15) 0.00439 291.0 297.6
286(15) 0.00444 290.9 297.6
304(16) 0.00416 290.9 297.7
267(14) 0.00482 290.9 297.8
291(15) 0.00444 290.8 297.9
295(15) 0.00433 290.8 298.0
308(16) 0.00411 290.8 298.1
287(15) 0.00439 290.7 298.2
303(15) 0.00422 290.7 298.4
282(15) 0.00463 290.7 298.5
300(16) 0.00416 290.6 298.7
299(15) 0.00427 290.6 298.9
288(15) 0.00433 290.6 299.1
307(16) 0.00416 290.5 299.3
301(15) 0.00433 290.5 299.5
283(15) 0.00450 290.5 299.8
268(15) 0.00469 290.4 300.1
287(15) 0.00444 290.4 300.4
313(16) 0.00416 290.4 300.7
295(15) 0.00439 290.3 301.0
302(16) 0.00416 290.3 301.4
282(15) 0.00457 290.3 301.8
298(16) 0.00416 290.2 302.3
305(15) 0.00422 290.2 302.8
307(15) 0.00422 290.2 303.4
299(15) 0.00427 290.1 304.0
316(16) 0.00396 290.1 304.7
307(16) 0.00411 290.1 305.5
309(16) 0.00411 290.0 306.3
292(15) 0.00439 290.0 307.3
311(16) 0.00411 290.0 308.4
308(16) 0.00416 290.0 309.7
321(16) 0.00386 289.9 311.1
323(16) 0.00401 289.9 312.8
318(16) 0.00411 289.9 314.6
320(16) 0.00401 289.8 316.8
314(16) 0.00401 289.8 319.1
340(16) 0.00372 289.8 321.9
348(16) 0.00372 289.7 324.9
360(17) 0.00354 289.7 328.3
310(16) 0.00411 289.7 332.2
321(16) 0.00396 289.6 336.4
365(17) 0.003380 289.6 341.1
321(16) 0.00401 289.6 346.3
370(17) 0.003501 289.5 351.9
360(17) 0.003501 289.5 358.0
364(17) 0.003501 289.5 364.6
377(17) 0.003341 289.5 371.6
355(17) 0.00363 289.4 379.0
410(18) 0.003121 289.4 386.7
403(18) 0.003192 289.4 394.6
414(18) 0.003086 289.3 402.6
428(19) 0.002922 289.3 410.5
434(19) 0.002922 289.3 418.2
451(19) 0.002922 289.2 425.4
415(18) 0.003052 289.2 431.7
448(19) 0.002770 289.2 437.1
457(19) 0.002770 289.1 441.1
435(19) 0.002922 289.1 443.7
463(19) 0.002741 289.1 444.8
448(19) 0.002891 289.1 444.3
424(18) 0.002954 289.0 442.3
459(19) 0.002713 289.0 439.0
411(18) 0.003121 289.0 434.7
433(18) 0.002986 288.9 429.5
456(19) 0.002770 288.9 423.7
434(19) 0.002922 288.9 417.5
415(18) 0.003086 288.8 411.0
397(18) 0.003228 288.8 404.3
407(18) 0.003156 288.8 397.5
375(17) 0.003420 288.8 390.7
404(18) 0.003156 288.7 383.9
387(18) 0.003228 288.7 377.1
386(17) 0.003303 288.7 370.5
374(17) 0.003460 288.6 364.1
369(17) 0.003420 288.6 357.9
347(17) 0.00363 288.6 352.0
360(17) 0.00354 288.6 346.5
336(16) 0.00376 288.5 341.4
344(16) 0.00376 288.5 336.7
318(16) 0.00406 288.5 332.4
339(16) 0.00372 288.4 328.5
310(16) 0.00401 288.4 325.0
335(16) 0.00386 288.4 321.8
342(16) 0.00381 288.4 319.0
325(16) 0.00391 288.3 316.5
322(16) 0.00396 288.3 314.3
322(16) 0.00391 288.3 312.3
325(16) 0.00391 288.2 310.6
337(16) 0.00386 288.2 309.1
307(16) 0.00411 288.2 307.8
304(16) 0.00416 288.2 306.6
292(15) 0.00433 288.1 305.6
310(16) 0.00411 288.1 304.6
271(14) 0.00482 288.1 303.8
308(16) 0.00406 288.0 303.1
270(15) 0.00476 288.0 302.5
268(15) 0.00469 288.0 302.0
264(14) 0.00482 288.0 301.5
270(14) 0.00482 287.9 301.0
313(16) 0.00411 287.9 300.6
285(15) 0.00444 287.9 300.3
288(15) 0.00433 287.9 300.0
289(15) 0.00444 287.8 299.7
319(16) 0.00406 287.8 299.5
324(16) 0.00386 287.8 299.3
298(15) 0.00433 287.7 299.2
297(16) 0.00416 287.7 299.1
317(16) 0.00401 287.7 299.0
291(15) 0.00444 287.7 299.0
286(15) 0.00444 287.6 299.1
332(16) 0.00381 287.6 299.2
285(15) 0.00439 287.6 299.3
296(15) 0.00439 287.6 299.5
311(16) 0.00416 287.5 299.8
306(16) 0.00411 287.5 300.2
276(15) 0.00469 287.5 300.7
309(16) 0.00406 287.5 301.3
350(17) 0.00363 287.4 301.9
291(15) 0.00444 287.4 302.7
300(15) 0.00427 287.4 303.6
291(15) 0.00439 287.4 304.6
322(16) 0.00386 287.3 305.8
288(15) 0.00444 287.3 307.0
308(15) 0.00422 287.3 308.3
337(17) 0.00367 287.3 309.7
335(16) 0.00386 287.2 311.2
291(15) 0.00427 287.2 312.7
330(16) 0.00376 287.2 314.1
325(16) 0.00406 287.2 315.5
295(15) 0.00433 287.1 316.8
309(16) 0.00406 287.1 317.9
310(16) 0.00406 287.1 318.7
326(16) 0.00396 287.1 319.3
317(16) 0.00406 287.0 319.5
322(16) 0.00391 287.0 319.5
339(16) 0.00376 287.0 319.2
342(17) 0.00367 287.0 318.6
320(16) 0.00396 286.9 317.9
318(16) 0.00406 286.9 317.1
326(16) 0.00386 286.9 316.1
332(16) 0.00381 286.9 315.1
334(16) 0.00376 286.8 314.1
313(16) 0.00406 286.8 313.0
312(16) 0.00416 286.8 311.9
338(16) 0.00372 286.8 310.8
305(16) 0.00416 286.7 309.6
307(16) 0.00411 286.7 308.5
311(16) 0.00406 286.7 307.5
332(16) 0.00391 286.7 306.4
311(16) 0.00411 286.6 305.4
309(16) 0.00411 286.6 304.4
308(16) 0.00406 286.6 303.5
301(15) 0.00427 286.6 302.6
312(15) 0.00422 286.6 301.8
308(16) 0.00411 286.5 301.1
318(16) 0.00396 286.5 300.4
309(16) 0.00411 286.5 299.7
303(15) 0.00422 286.5 299.2
281(15) 0.00457 286.4 298.6
305(15) 0.00422 286.4 298.1
298(16) 0.00416 286.4 297.7
305(16) 0.00411 286.4 297.3
316(16) 0.00406 286.3 296.9
298(15) 0.00433 286.3 296.6
298(15) 0.00427 286.3 296.3
306(16) 0.00411 286.3 296.1
312(16) 0.00411 286.3 295.9
282(15) 0.00457 286.2 295.7
285(15) 0.00450 286.2 295.6
288(15) 0.00444 286.2 295.5
310(16) 0.00406 286.2 295.5
291(15) 0.00439 286.2 295.5
311(16) 0.00401 286.1 295.5
286(15) 0.00457 286.1 295.5
312(16) 0.00411 286.1 295.6
296(15) 0.00422 286.1 295.8
308(16) 0.00411 286.0 296.0
326(16) 0.00396 286.0 296.2
333(16) 0.00386 286.0 296.5
312(16) 0.00411 286.0 296.9
322(16) 0.00391 286.0 297.3
288(15) 0.00439 285.9 297.8
306(16) 0.00416 285.9 298.3
302(15) 0.00433 285.9 298.9
289(15) 0.00439 285.9 299.5
281(15) 0.00450 285.9 300.2
306(16) 0.00411 285.8 301.0
315(16) 0.00406 285.8 301.8
307(15) 0.00422 285.8 302.6
304(16) 0.00416 285.8 303.5
311(16) 0.00401 285.8 304.3
320(16) 0.00396 285.7 305.2
300(15) 0.00422 285.7 306.0
302(15) 0.00422 285.7 306.8
310(16) 0.00416 285.7 307.5
301(15) 0.00422 285.7 308.1
303(16) 0.00411 285.6 308.7
326(16) 0.00396 285.6 309.1
304(15) 0.00427 285.6 309.3
314(16) 0.00411 285.6 309.4
328(16) 0.00381 285.6 309.3
290(15) 0.00433 285.5 309.1
260(14) 0.00503 285.5 308.7
315(16) 0.00406 285.5 308.2
279(15) 0.00457 285.5 307.6
332(16) 0.00381 285.5 307.0
316(16) 0.00391 285.4 306.3
300(15) 0.00433 285.4 305.7
295(15) 0.00433 285.4 305.1
298(15) 0.00427 285.4 304.5
286(15) 0.00439 285.4 304.0
301(16) 0.00416 285.4 303.6
325(16) 0.00396 285.3 303.2
302(15) 0.00427 285.3 302.9
317(16) 0.00406 285.3 302.7
345(17) 0.00367 285.3 302.6
304(16) 0.00416 285.3 302.6
299(15) 0.00433 285.2 302.7
295(15) 0.00433 285.2 302.9
328(16) 0.00396 285.2 303.2
299(16) 0.00416 285.2 303.5
321(16) 0.00396 285.2 304.0
292(15) 0.00433 285.2 304.5
314(16) 0.00411 285.1 305.1
280(15) 0.00457 285.1 305.8
294(15) 0.00427 285.1 306.5
304(16) 0.00411 285.1 307.4
308(16) 0.00416 285.1 308.3
316(16) 0.00406 285.1 309.3
311(16) 0.00411 285.0 310.4
323(16) 0.00391 285.0 311.5
312(16) 0.00406 285.0 312.7
280(15) 0.00463 285.0 314.0
294(15) 0.00439 285.0 315.4
307(16) 0.00411 285.0 316.9
308(16) 0.00416 284.9 318.4
305(16) 0.00411 284.9 320.0
309(16) 0.00411 284.9 321.7
348(16) 0.00376 284.9 323.4
330(16) 0.00381 284.9 325.2
326(16) 0.00386 284.9 327.0
325(16) 0.00386 284.8 329.0
335(16) 0.00381 284.8 330.9
330(16) 0.00396 284.8 332.9
336(16) 0.00376 284.8 335.0
347(17) 0.00367 284.8 337.1
340(16) 0.00372 284.8 339.3
334(16) 0.00376 284.7 341.5
330(16) 0.00401 284.7 343.7
353(17) 0.00363 284.7 346.1
345(17) 0.00363 284.7 348.5
345(17) 0.00367 284.7 351.1
348(17) 0.00367 284.7 353.9
347(16) 0.00372 284.7 356.8
361(17) 0.00354 284.6 359.9
364(17) 0.003460 284.6 363.3
352(17) 0.00354 284.6 367.0
376(17) 0.003420 284.6 371.0
371(17) 0.003420 284.6 375.2
385(17) 0.003341 284.6 379.8
392(18) 0.003228 284.6 384.7
348(17) 0.00359 284.5 389.9
383(17) 0.003380 284.5 395.3
420(18) 0.003052 284.5 400.9
408(18) 0.003156 284.5 406.6
419(18) 0.003052 284.5 412.2
446(19) 0.002799 284.5 417.8
433(18) 0.002954 284.5 423.1
438(19) 0.002922 284.4 427.8
407(18) 0.003156 284.4 432.0
437(19) 0.002860 284.4 435.2
455(19) 0.002713 284.4 437.4
443(19) 0.002891 284.4 438.4
444(19) 0.002922 284.4 438.2
448(19) 0.002829 284.4 436.6
436(19) 0.002891 284.3 433.8
425(18) 0.002954 284.3 429.8
450(19) 0.002829 284.3 424.9
438(18) 0.002986 284.3 419.1
404(18) 0.003156 284.3 412.7
443(19) 0.002829 284.3 405.9
415(18) 0.003086 284.3 398.9
394(18) 0.003228 284.3 391.8
374(17) 0.003460 284.2 384.7
386(17) 0.003303 284.2 377.8
358(17) 0.003501 284.2 371.1
382(17) 0.003303 284.2 364.6
363(17) 0.003501 284.2 358.5
365(17) 0.00354 284.2 352.8
341(16) 0.00372 284.2 347.4
350(17) 0.00359 284.2 342.3
340(16) 0.00372 284.1 337.7
329(16) 0.00386 284.1 333.4
339(16) 0.00386 284.1 329.5
317(16) 0.00401 284.1 325.9
308(16) 0.00406 284.1 322.7
333(16) 0.00386 284.1 319.8
307(16) 0.00411 284.1 317.1
311(16) 0.00416 284.1 314.7
307(15) 0.00422 284.0 312.6
305(16) 0.00411 284.0 310.7
301(16) 0.00416 284.0 309.0
283(15) 0.00457 284.0 307.4
329(16) 0.00391 284.0 306.1
331(16) 0.00386 284.0 304.8
318(16) 0.00396 284.0 303.7
289(15) 0.00433 284.0 302.7
298(15) 0.00427 284.0 301.8
301(15) 0.00427 283.9 301.0
288(15) 0.00439 283.9 300.3
298(15) 0.00427 283.9 299.6
275(15) 0.00457 283.9 299.0
316(16) 0.00406 283.9 298.5
267(14) 0.00482 283.9 298.0
285(15) 0.00450 283.9 297.5
297(15) 0.00427 283.9 297.0
313(16) 0.00401 283.9 296.6
287(15) 0.00444 283.8 296.3
299(15) 0.00433 283.8 295.9
284(15) 0.00444 283.8 295.6
290(15) 0.00439 283.8 295.3
270(15) 0.00469 283.8 295.0
276(15) 0.00450 283.8 294.7
300(15) 0.00433 283.8 294.5
286(15) 0.00444 283.8 294.3
267(15) 0.00469 283.8 294.1
252(14) 0.00496 283.8 293.8
297(15) 0.00427 283.7 293.7
283(15) 0.00457 283.7 293.5
289(15) 0.00439 283.7 293.3
289(15) 0.00439 283.7 293.2
284(15) 0.00444 283.7 293.0
288(15) 0.00444 283.7 292.9
279(15) 0.00469 283.7 292.7
283(15) 0.00444 283.7 292.6
270(15) 0.00469 283.7 292.5
287(15) 0.00439 283.7 292.4
282(15) 0.00450 283.7 292.3
295(15) 0.00439 283.6 292.2
300(15) 0.00427 283.6 292.2
302(16) 0.00416 283.6 292.1
276(15) 0.00450 283.6 292.0
263(14) 0.00489 283.6 292.0
273(15) 0.00469 283.6 291.9
267(14) 0.00482 283.6 291.9
280(15) 0.00450 283.6 291.8
277(15) 0.00463 283.6 291.8
268(15) 0.00476 283.6 291.8
303(15) 0.00427 283.6 291.8
278(15) 0.00469 283.5 291.7
288(15) 0.00433 283.5 291.7
307(16) 0.00406 283.5 291.7
313(16) 0.00416 283.5 291.7
306(15) 0.00422 283.5 291.8
279(15) 0.00450 283.5 291.8
268(15) 0.00476 283.5 291.8
268(15) 0.00469 283.5 291.8
321(16) 0.00396 283.5 291.9
293(15) 0.00444 283.5 291.9
307(16) 0.00411 283.5 292.0
286(15) 0.00439 283.5 292.1
292(15) 0.00427 283.4 292.1
296(15) 0.00433 283.4 292.2
312(16) 0.00416 283.4 292.3
281(15) 0.00450 283.4 292.4
278(15) 0.00463 283.4 292.5
279(15) 0.00450 283.4 292.6
302(15) 0.00422 283.4 292.8
281(15) 0.00457 283.4 292.9
289(15) 0.00444 283.4 293.1
292(15) 0.00427 283.4 293.2
293(15) 0.00427 283.4 293.4
324(16) 0.00396 283.4 293.6
295(15) 0.00433 283.4 293.9
297(15) 0.00427 283.3 294.1
313(16) 0.00406 283.3 294.4
316(16) 0.00391 283.3 294.7
289(15) 0.00444 283.3 295.0
301(15) 0.00433 283.3 295.4
294(15) 0.00433 283.3 295.7
302(16) 0.00411 283.3 296.2
311(16) 0.00411 283.3 296.6
323(16) 0.00406 283.3 297.1
308(16) 0.00411 283.3 297.7
306(16) 0.00416 283.3 298.3
319(16) 0.00401 283.3 298.9
316(16) 0.00396 283.3 299.6
297(15) 0.00427 283.3 300.3
282(15) 0.00463 283.3 301.2
281(15) 0.00450 283.2 302.1
322(16) 0.00391 283.2 303.0
318(16) 0.00396 283.2 304.0
342(16) 0.00372 283.2 305.1
334(16) 0.00386 283.2 306.3
332(16) 0.00381 283.2 307.6
332(16) 0.00381 283.2 308.9
325(16) 0.00391 283.2 310.3
320(16) 0.00391 283.2 311.9
315(15) 0.00422 283.2 313.5
355(17) 0.00359 283.2 315.2
367(17) 0.003420 283.2 316.9
350(17) 0.00363 283.2 318.8
348(17) 0.00363 283.2 320.7
341(16) 0.00381 283.2 322.7
341(16) 0.00372 283.1 324.8
323(16) 0.00391 283.1 326.9
362(17) 0.003460 283.1 329.1
361(17) 0.003501 283.1 331.3
376(17) 0.003420 283.1 333.5
383(17) 0.003303 283.1 335.7
374(17) 0.003380 283.1 337.8
400(18) 0.003156 283.1 339.9
376(17) 0.003420 283.1 341.9
395(18) 0.003265 283.1 343.8
398(18) 0.003228 283.1 345.4
400(18) 0.003192 283.1 346.9
386(18) 0.003228 283.1 348.2
379(17) 0.003420 283.1 349.1
383(17) 0.003341 283.1 349.8
360(17) 0.00354 283.1 350.2
385(18) 0.003265 283.1 350.3
397(18) 0.003156 283.0 350.1
358(17) 0.00359 283.0 349.6
388(17) 0.003341 283.0 348.8
404(18) 0.003121 283.0 347.8
393(18) 0.003228 283.0 346.6
372(17) 0.003341 283.0 345.2
390(18) 0.003265 283.0 343.6
381(17) 0.003420 283.0 342.0
337(16) 0.00381 283.0 340.3
325(16) 0.00386 283.0 338.5
347(17) 0.00367 283.0 336.8
345(16) 0.00372 283.0 335.0
315(16) 0.00411 283.0 333.3
346(17) 0.00367 283.0 331.7
349(17) 0.00363 283.0 330.0
353(17) 0.00359 283.0 328.5
328(16) 0.00386 283.0 327.0
358(17) 0.00363 283.0 325.6
340(16) 0.00372 283.0 324.3
354(17) 0.00354 282.9 323.1
346(17) 0.00363 282.9 321.9
343(16) 0.00372 282.9 320.9
319(16) 0.00406 282.9 319.9
351(17) 0.00363 282.9 318.9
332(16) 0.00381 282.9 318.1
307(16) 0.00411 282.9 317.3
357(17) 0.00359 282.9 316.6
294(15) 0.00444 282.9 315.9
322(16) 0.00401 282.9 315.3
315(16) 0.00406 282.9 314.8
321(16) 0.00386 282.9 314.3
302(15) 0.00427 282.9 313.9
322(16) 0.00401 282.9 313.6
325(16) 0.00386 282.9 313.3
331(16) 0.00381 282.9 313.1
318(16) 0.00396 282.9 313.0
311(16) 0.00411 282.9 313.0
311(16) 0.00411 282.9 313.1
330(16) 0.00391 282.9 313.3
343(17) 0.00367 282.8 313.6
335(16) 0.00372 282.8 314.1
319(16) 0.00406 282.8 314.7
328(16) 0.00396 282.8 315.6
295(15) 0.00427 282.8 316.6
305(15) 0.00422 282.8 317.9
330(16) 0.00386 282.8 319.6
314(16) 0.00406 282.8 321.6
339(16) 0.00381 282.8 324.0
333(16) 0.00386 282.8 326.9
331(16) 0.00381 282.8 330.3
361(17) 0.003501 282.8 334.3
361(17) 0.003501 282.8 339.0
390(17) 0.003341 282.8 344.4
372(17) 0.003420 282.8 350.7
377(17) 0.003341 282.8 357.8
371(17) 0.003420 282.8 365.9
369(17) 0.003460 282.8 374.8
402(18) 0.003192 282.8 384.8
407(18) 0.003121 282.8 395.7
417(18) 0.003019 282.7 407.5
435(19) 0.002922 282.7 420.1
480(19) 0.002685 282.7 433.3
474(19) 0.002741 282.7 447.1
462(19) 0.002741 282.7 461.0
532(21) 0.002380 282.7 474.7
539(21) 0.002356 282.7 487.9
551(21) 0.002311 282.7 499.9
534(20) 0.002427 282.7 510.1
548(21) 0.002311 282.7 518.1
556(21) 0.002289 282.7 523.1
568(21) 0.002184 282.7 524.9
572(21) 0.002268 282.7 523.3
555(21) 0.002311 282.7 518.5
567(21) 0.002225 282.7 510.7
519(20) 0.002475 282.7 500.5
512(20) 0.002427 282.7 488.5
490(20) 0.002630 282.7 475.2
502(20) 0.002630 282.7 461.3
450(19) 0.002799 282.7 447.2
429(18) 0.002954 282.6 433.2
428(19) 0.002922 282.6 419.6
411(18) 0.003121 282.6 406.7
396(18) 0.003265 282.6 394.5
385(17) 0.003303 282.6 383.3
370(17) 0.003460 282.6 372.9
337(16) 0.00372 282.6 363.5
364(17) 0.003501 282.6 355.1
345(16) 0.00376 282.6 347.6
356(17) 0.00359 282.6 340.9
328(16) 0.00381 282.6 335.0
316(16) 0.00401 282.6 329.9
308(16) 0.00416 282.6 325.4
330(16) 0.00391 282.6 321.5
330(16) 0.00386 282.6 318.2
287(15) 0.00444 282.6 315.3
322(16) 0.00391 282.6 312.8
299(15) 0.00427 282.6 310.7
307(15) 0.00422 282.6 308.8
303(15) 0.00422 282.6 307.2
292(15) 0.00427 282.5 305.8
279(15) 0.00457 282.5 304.6
312(16) 0.00406 282.5 303.5
309(16) 0.00416 282.5 302.5
287(15) 0.00444 282.5 301.7
294(15) 0.00427 282.5 300.9
297(16) 0.00416 282.5 300.2
287(15) 0.00444 282.5 299.6
297(15) 0.00439 282.5 299.0
313(16) 0.00406 282.5 298.5
297(15) 0.00427 282.5 298.0
285(15) 0.00444 282.5 297.6
295(15) 0.00439 282.5 297.2
269(14) 0.00482 282.5 296.8
292(15) 0.00439 282.5 296.5
298(15) 0.00427 282.5 296.2
299(16) 0.00416 282.5 295.9
289(15) 0.00444 282.5 295.7
312(16) 0.00411 282.4 295.4
280(15) 0.00450 282.4 295.2
283(15) 0.00450 282.4 295.1
338(17) 0.00367 282.4 294.9
321(16) 0.00396 282.4 294.8
298(15) 0.00439 282.4 294.6
279(15) 0.00450 282.4 294.5
261(14) 0.00482 282.4 294.4
289(15) 0.00433 282.4 294.4
296(15) 0.00433 282.4 294.3
296(15) 0.00439 282.4 294.3
291(15) 0.00439 282.4 294.2
293(15) 0.00433 282.4 294.2
297(15) 0.00422 282.4 294.3
309(16) 0.00416 282.4 294.3
290(15) 0.00450 282.4 294.3
303(16) 0.00416 282.4 294.4
297(15) 0.00427 282.3 294.5
294(15) 0.00427 282.3 294.6
301(15) 0.00422 282.3 294.7
292(15) 0.00444 282.3 294.9
288(15) 0.00439 282.3 295.0
310(16) 0.00401 282.3 295.2
297(15) 0.00422 282.3 295.5
270(15) 0.00469 282.3 295.7
284(15) 0.00457 282.3 296.0
311(16) 0.00406 282.3 296.4
289(15) 0.00444 282.3 296.7
290(15) 0.00439 282.3 297.1
304(15) 0.00422 282.3 297.6
298(15) 0.00439 282.3 298.1
277(15) 0.00463 282.3 298.7
319(16) 0.00396 282.2 299.4
298(15) 0.00422 282.2 300.1
302(15) 0.00422 282.2 300.9
311(15) 0.00422 282.2 301.8
313(16) 0.00401 282.2 302.9
314(16) 0.00401 282.2 304.1
315(16) 0.00401 282.2 305.4
321(16) 0.00391 282.2 306.8
344(16) 0.00381 282.2 308.4
325(16) 0.00391 282.2 310.2
306(16) 0.00406 282.2 312.2
319(16) 0.00401 282.2 314.4
339(16) 0.00376 282.2 316.8
342(16) 0.00381 282.2 319.5
344(16) 0.00372 282.1 322.4
331(16) 0.00381 282.1 325.5
356(17) 0.00354 282.1 328.9
343(17) 0.00367 282.1 332.6
371(17) 0.003501 282.1 336.5
383(17) 0.003303 282.1 340.7
366(17) 0.003420 282.1 345.1
405(18) 0.003121 282.1 349.8
365(17) 0.003460 282.1 354.6
386(17) 0.003341 282.1 359.6
377(17) 0.003380 282.1 364.7
385(18) 0.003265 282.1 369.9
377(17) 0.003341 282.1 375.1
365(17) 0.003501 282.0 380.1
418(18) 0.003121 282.0 384.9
448(19) 0.002860 282.0 389.4
460(19) 0.002741 282.0 393.4
441(19) 0.002860 282.0 396.7
420(18) 0.003052 282.0 399.4
433(18) 0.002986 282.0 401.2
432(19) 0.002922 282.0 402.0
416(18) 0.003052 282.0 401.9
412(18) 0.003019 282.0 400.8
413(18) 0.003086 282.0 398.8
458(19) 0.002829 281.9 396.0
452(19) 0.002799 281.9 392.5
434(19) 0.002891 281.9 388.3
409(18) 0.003052 281.9 383.7
422(18) 0.003052 281.9 378.8
388(17) 0.003341 281.9 373.7
426(18) 0.002954 281.9 368.4
399(18) 0.003228 281.9 363.2
359(17) 0.003501 281.9 358.0
392(18) 0.003265 281.9 353.0
363(17) 0.00363 281.9 348.1
368(17) 0.003420 281.8 343.4
348(17) 0.00363 281.8 339.0
353(17) 0.00354 281.8 334.8
369(17) 0.003501 281.8 330.8
350(17) 0.00363 281.8 327.1
327(16) 0.00391 281.8 323.7
319(16) 0.00401 281.8 320.5
323(16) 0.00381 281.8 317.6
322(16) 0.00401 281.8 314.9
296(15) 0.00439 281.8 312.5
326(16) 0.00386 281.7 310.2
340(16) 0.00372 281.7 308.2
334(16) 0.00376 281.7 306.3
314(16) 0.00406 281.7 304.7
302(15) 0.00433 281.7 303.2
322(16) 0.00396 281.7 301.8
299(15) 0.00422 281.7 300.6
303(16) 0.00416 281.7 299.5
342(16) 0.00376 281.7 298.5
301(15) 0.00427 281.7 297.6
300(15) 0.00427 281.6 296.8
299(15) 0.00422 281.6 296.0
288(15) 0.00439 281.6 295.3
289(15) 0.00439 281.6 294.7
299(15) 0.00427 281.6 294.2
295(15) 0.00433 281.6 293.7
288(15) 0.00439 281.6 293.2
296(15) 0.00422 281.6 292.8
287(15) 0.00450 281.6 292.4
322(16) 0.00406 281.5 292.0
288(15) 0.00444 281.5 291.7
272(15) 0.00469 281.5 291.3
290(15) 0.00433 281.5 291.0
287(15) 0.00444 281.5 290.8
271(14) 0.00482 281.5 290.5
272(15) 0.00469 281.5 290.3
291(15) 0.00433 281.5 290.0
286(15) 0.00444 281.4 289.8
275(15) 0.00463 281.4 289.6
273(15) 0.00476 281.4 289.4
280(15) 0.00450 281.4 289.2
276(15) 0.00457 281.4 289.0
290(15) 0.00433 281.4 288.9
282(15) 0.00450 281.4 288.7
263(14) 0.00489 281.4 288.6
271(15) 0.00469 281.3 288.4
270(15) 0.00469 281.3 288.3
275(15) 0.00457 281.3 288.1
280(15) 0.00463 281.3 288.0
300(15) 0.00433 281.3 287.9
280(15) 0.00450 281.3 287.8
253(14) 0.00503 281.3 287.7
256(14) 0.00489 281.3 287.6
289(15) 0.00439 281.2 287.5
269(14) 0.00482 281.2 287.4
266(15) 0.00476 281.2 287.3
265(15) 0.00476 281.2 287.2
258(14) 0.00482 281.2 287.2
290(15) 0.00444 281.2 287.1
291(15) 0.00444 281.2 287.0
281(15) 0.00450 281.1 287.0
266(15) 0.00476 281.1 286.9
277(15) 0.00457 281.1 286.8
261(14) 0.00489 281.1 286.8
270(15) 0.00476 281.1 286.7
262(14) 0.00489 281.1 286.7
285(15) 0.00444 281.1 286.6
286(15) 0.00433 281.0 286.6
252(14) 0.00510 281.0 286.6
268(14) 0.00482 281.0 286.5
270(15) 0.00463 281.0 286.5
279(15) 0.00457 281.0 286.5
281(15) 0.00450 281.0 286.4
258(14) 0.00489 281.0 286.4
285(15) 0.00457 280.9 286.4
275(15) 0.00463 280.9 286.4
287(15) 0.00439 280.9 286.4
303(16) 0.00416 280.9 286.4
276(15) 0.00463 280.9 286.4
277(15) 0.00469 280.9 286.4
258(14) 0.00496 280.8 286.3
277(15) 0.00457 280.8 286.4
284(15) 0.00444 280.8 286.4
301(15) 0.00427 280.8 286.4
296(15) 0.00433 280.8 286.4
307(16) 0.00416 280.8 286.4
308(16) 0.00411 280.7 286.4
295(15) 0.00427 280.7 286.4
276(15) 0.00463 280.7 286.5
290(15) 0.00450 280.7 286.5
256(14) 0.00496 280.7 286.5
268(15) 0.00469 280.7 286.6
300(16) 0.00416 280.6 286.6
284(15) 0.00450 280.6 286.6
263(14) 0.00489 280.6 286.7
266(14) 0.00482 280.6 286.8
277(15) 0.00463 280.6 286.8
281(15) 0.00450 280.6 286.9
295(15) 0.00433 280.5 286.9
287(15) 0.00457 280.5 287.0
282(15) 0.00457 280.5 287.1
306(16) 0.00411 280.5 287.2
271(15) 0.00463 280.5 287.3
279(15) 0.00463 280.5 287.4
274(15) 0.00476 280.4 287.5
280(15) 0.00450 280.4 287.6
273(15) 0.00469 280.4 287.7
278(15) 0.00450 280.4 287.9
280(15) 0.00450 280.4 288.0
271(14) 0.00482 280.3 288.1
285(15) 0.00444 280.3 288.3
267(15) 0.00476 280.3 288.5
261(14) 0.00482 280.3 288.7
280(15) 0.00457 280.3 288.9
286(15) 0.00457 280.2 289.1
317(16) 0.00401 280.2 289.3
276(15) 0.00463 280.2 289.5
297(15) 0.00422 280.2 289.8
292(15) 0.00439 280.2 290.1
272(14) 0.00482 280.2 290.4
267(15) 0.00469 280.1 290.7
305(15) 0.00422 280.1 291.1
288(15) 0.00433 280.1 291.5
276(15) 0.00463 280.1 291.9
282(15) 0.00463 280.1 292.4
293(15) 0.00433 280.0 292.9
294(15) 0.00427 280.0 293.4
298(15) 0.00422 280.0 294.1
298(15) 0.00433 280.0 294.7
283(15) 0.00457 280.0 295.5
312(16) 0.00406 279.9 296.3
287(15) 0.00444 279.9 297.2
307(16) 0.00411 279.9 298.3
265(14) 0.00489 279.9 299.4
309(16) 0.00416 279.8 300.6
315(16) 0.00406 279.8 302.0
304(16) 0.00416 279.8 303.5
290(15) 0.00433 279.8 305.1
306(16) 0.00416 279.8 306.9
298(15) 0.00439 279.7 308.9
294(15) 0.00433 279.7 311.1
326(16) 0.00386 279.7 313.4
303(16) 0.00416 279.7 316.0
326(16) 0.00386 279.7 318.7
334(16) 0.00386 279.6 321.7
308(15) 0.00422 279.6 324.9
324(16) 0.00386 279.6 328.4
348(17) 0.00363 279.6 332.0
340(16) 0.00381 279.5 335.9
319(16) 0.00406 279.5 339.9
352(17) 0.00367 279.5 344.2
343(17) 0.00367 279.5 348.7
348(17) 0.00359 279.5 353.3
372(17) 0.003501 279.4 358.0
386(17) 0.003380 279.4 362.7
366(17) 0.003420 279.4 367.5
395(18) 0.003228 279.4 372.3
400(18) 0.003156 279.3 376.9
366(17) 0.003460 279.3 381.2
373(17) 0.003501 279.3 385.3
394(18) 0.003228 279.3 388.9
398(18) 0.003156 279.2 392.0
416(18) 0.003052 279.2 394.4
411(18) 0.003121 279.2 396.2
373(17) 0.003460 279.2 397.2
391(18) 0.003265 279.1 397.3
414(18) 0.003121 279.1 396.7
395(18) 0.003156 279.1 395.3
432(18) 0.002954 279.1 393.3
382(17) 0.003420 279.1 390.6
413(18) 0.003052 279.0 387.4
423(18) 0.002986 279.0 383.7
392(18) 0.003228 279.0 379.7
383(17) 0.003303 279.0 375.5
367(17) 0.00354 278.9 371.0
375(17) 0.003380 278.9 366.4
365(17) 0.003420 278.9 361.8
346(17) 0.00359 278.9 357.1
324(16) 0.00401 278.8 352.4
348(16) 0.00372 278.8 347.9
346(16) 0.00372 278.8 343.4
325(16) 0.00391 278.8 339.1
347(17) 0.00367 278.7 334.9
345(16) 0.00372 278.7 330.9
332(16) 0.00391 278.7 327.1
331(16) 0.00386 278.6 323.6
348(17) 0.00363 278.6 320.2
337(16) 0.00376 278.6 317.1
307(16) 0.00416 278.6 314.3
283(15) 0.00457 278.5 311.6
305(16) 0.00416 278.5 309.1
292(15) 0.00433 278.5 306.9
295(15) 0.00422 278.5 304.8
297(15) 0.00427 278.4 302.9
309(15) 0.00422 278.4 301.2
316(16) 0.00401 278.4 299.6
327(16) 0.00391 278.4 298.2
290(15) 0.00433 278.3 296.9
301(15) 0.00422 278.3 295.8
317(16) 0.00416 278.3 294.7
301(15) 0.00422 278.2 293.8
288(15) 0.00439 278.2 292.9
279(15) 0.00457 278.2 292.1
264(14) 0.00489 278.2 291.4
279(15) 0.00463 278.1 290.7
272(15) 0.00463 278.1 290.1
264(14) 0.00482 278.1 289.6
275(15) 0.00450 278.1 289.0
302(15) 0.00422 278.0 288.6
292(15) 0.00444 278.0 288.1
279(15) 0.00444 278.0 287.7
292(15) 0.00439 277.9 287.3
268(15) 0.00476 277.9 287.0
314(16) 0.00406 277.9 286.6
301(15) 0.00427 277.9 286.3
269(14) 0.00482 277.8 286.0
293(15) 0.00439 277.8 285.7
298(15) 0.00422 277.8 285.5
285(15) 0.00450 277.7 285.2
268(14) 0.00489 277.7 285.0
280(15) 0.00450 277.7 284.7
284(15) 0.00444 277.7 284.5
264(14) 0.00482 277.6 284.3
299(15) 0.00427 277.6 284.1
272(15) 0.00476 277.6 283.9
265(14) 0.00482 277.5 283.7
269(15) 0.00469 277.5 283.5
288(15) 0.00427 277.5 283.3
291(15) 0.00450 277.4 283.2
263(14) 0.00496 277.4 283.0
289(15) 0.00433 277.4 282.8
287(15) 0.00450 277.4 282.7
274(15) 0.00463 277.3 282.5
253(14) 0.00503 277.3 282.4
263(14) 0.00496 277.3 282.3
274(15) 0.00463 277.2 282.1
297(15) 0.00427 277.2 282.0
277(15) 0.00457 277.2 281.9
286(15) 0.00450 277.1 281.8
290(15) 0.00444 277.1 281.6
273(15) 0.00469 277.1 281.5
270(15) 0.00469 277.0 281.4
279(15) 0.00439 277.0 281.3
283(15) 0.00450 277.0 281.2
315(16) 0.00411 277.0 281.1
264(14) 0.00482 276.9 281.0
280(15) 0.00450 276.9 280.9
297(15) 0.00427 276.9 280.8
281(15) 0.00457 276.8 280.7
271(14) 0.00489 276.8 280.6
255(14) 0.00496 276.8 280.5
264(15) 0.00476 276.7 280.5
266(15) 0.00476 276.7 280.4
319(16) 0.00401 276.7 280.3
269(14) 0.00482 276.6 280.2
269(15) 0.00469 276.6 280.1
283(15) 0.00444 276.6 280.0
271(15) 0.00463 276.5 280.0
291(15) 0.00433 276.5 279.9
284(15) 0.00457 276.5 279.8
284(15) 0.00439 276.4 279.8
281(15) 0.00450 276.4 279.7
297(15) 0.00427 276.4 279.6
269(15) 0.00469 276.3 279.5
283(15) 0.00463 276.3 279.5
268(15) 0.00476 276.3 279.4
293(15) 0.00433 276.2 279.4
275(15) 0.00463 276.2 279.3
246(14) 0.00510 276.2 279.2
282(15) 0.00463 276.1 279.2
278(15) 0.00463 276.1 279.1
269(15) 0.00463 276.1 279.1
303(16) 0.00411 276.0 279.0
262(14) 0.00489 276.0 278.9
260(14) 0.00503 276.0 278.9
263(15) 0.00476 275.9 278.8
270(15) 0.00469 275.9 278.8
254(14) 0.00489 275.9 278.7
290(15) 0.00444 275.8 278.7
270(14) 0.00489 275.8 278.6
242(14) 0.00518 275.8 278.6
276(15) 0.00457 275.7 278.5
268(14) 0.00482 275.7 278.5
268(15) 0.00476 275.7 278.4
253(14) 0.00518 275.6 278.4
282(15) 0.00450 275.6 278.3
291(15) 0.00433 275.6 278.3
261(14) 0.00482 275.5 278.2
271(15) 0.00469 275.5 278.2
277(15) 0.00469 275.5 278.2
276(15) 0.00463 275.4 278.1
277(15) 0.00450 275.4 278.1
252(14) 0.00503 275.4 278.0
265(15) 0.00476 275.3 278.0
279(15) 0.00463 275.3 278.0
266(14) 0.00482 275.2 277.9
272(15) 0.00469 275.2 277.9
243(14) 0.00510 275.2 277.8
257(14) 0.00503 275.1 277.8
292(15) 0.00457 275.1 277.8
290(15) 0.00439 275.1 277.7
265(15) 0.00476 275.0 277.7
272(15) 0.00463 275.0 277.7
248(14) 0.00510 275.0 277.6
256(14) 0.00510 274.9 277.6
268(15) 0.00476 274.9 277.6
256(14) 0.00489 274.9 277.5
248(14) 0.00510 274.8 277.5
266(14) 0.00482 274.8 277.5
254(14) 0.00503 274.8 277.5
267(15) 0.00469 274.7 277.4
279(15) 0.00457 274.7 277.4
279(15) 0.00450 274.6 277.4
287(15) 0.00444 274.6 277.4
290(15) 0.00450 274.6 277.4
278(15) 0.00463 274.5 277.3
282(15) 0.00450 274.5 277.3
252(14) 0.00503 274.5 277.3
279(15) 0.00450 274.4 277.3
251(14) 0.00525 274.4 277.3
274(15) 0.00463 274.4 277.3
290(15) 0.00433 274.3 277.2
242(14) 0.00525 274.3 277.2
276(15) 0.00457 274.2 277.2
268(14) 0.00489 274.2 277.2
272(15) 0.00469 274.2 277.2
263(15) 0.00469 274.1 277.2
254(14) 0.00489 274.1 277.2
270(14) 0.00482 274.1 277.2
251(14) 0.00518 274.0 277.2
298(15) 0.00427 274.0 277.2
258(14) 0.00496 273.9 277.3
278(15) 0.00457 273.9 277.3
269(14) 0.00482 273.9 277.3
255(14) 0.00510 273.8 277.3
250(14) 0.00510 273.8 277.4
285(15) 0.00444 273.8 277.4
275(15) 0.00457 273.7 277.4
260(14) 0.00489 273.7 277.5
272(15) 0.00476 273.6 277.5
288(15) 0.00439 273.6 277.6
273(15) 0.00463 273.6 277.6
288(15) 0.00433 273.5 277.7
275(15) 0.00463 273.5 277.8
280(15) 0.00463 273.5 277.9
272(15) 0.00469 273.4 278.0
294(15) 0.00439 273.4 278.1
269(15) 0.00463 273.3 278.2
280(15) 0.00463 273.3 278.4
259(14) 0.00503 273.3 278.5
277(15) 0.00457 273.2 278.7
291(15) 0.00439 273.2 278.9
267(15) 0.00469 273.2 279.1
267(14) 0.00489 273.1 279.3
268(14) 0.00482 273.1 279.5
254(14) 0.00496 273.0 279.8
273(15) 0.00463 273.0 280.0
280(15) 0.00444 273.0 280.3
260(14) 0.00489 272.9 280.7
270(14) 0.00482 272.9 281.0
260(14) 0.00482 272.9 281.4
273(15) 0.00463 272.8 281.8
284(15) 0.00450 272.8 282.2
268(15) 0.00476 272.7 282.7
286(15) 0.00457 272.7 283.1
284(15) 0.00450 272.7 283.7
283(15) 0.00457 272.6 284.2
262(15) 0.00476 272.6 284.8
260(14) 0.00489 272.5 285.3
281(15) 0.00469 272.5 286.0
283(15) 0.00444 272.5 286.6
286(15) 0.00439 272.4 287.3
277(15) 0.00457 272.4 288.0
298(15) 0.00427 272.4 288.7
271(15) 0.00476 272.3 289.4
279(15) 0.00463 272.3 290.1
258(14) 0.00482 272.2 290.8
272(15) 0.00463 272.2 291.6
276(15) 0.00469 272.2 292.3
289(15) 0.00444 272.1 293.0
282(15) 0.00457 272.1 293.7
270(15) 0.00463 272.0 294.4
247(14) 0.00518 272.0 295.0
276(15) 0.00469 272.0 295.5
304(15) 0.00422 271.9 296.0
269(15) 0.00476 271.9 296.4
290(15) 0.00433 271.9 296.8
263(14) 0.00482 271.8 297.0
281(15) 0.00450 271.8 297.1
310(15) 0.00422 271.7 297.1
317(16) 0.00406 271.7 297.1
298(16) 0.00416 271.7 296.9
269(15) 0.00469 271.6 296.6
271(15) 0.00469 271.6 296.2
274(15) 0.00469 271.5 295.7
295(15) 0.00439 271.5 295.2
282(15) 0.00450 271.5 294.6
298(15) 0.00427 271.4 293.9
287(15) 0.00444 271.4 293.2
274(14) 0.00482 271.3 292.4
293(15) 0.00439 271.3 291.6
286(15) 0.00433 271.3 290.8
280(15) 0.00457 271.2 290.0
276(15) 0.00469 271.2 289.2
282(15) 0.00457 271.2 288.4
262(14) 0.00489 271.1 287.6
295(15) 0.00427 271.1 286.8
253(14) 0.00496 271.0 286.0
272(15) 0.00469 271.0 285.3
280(15) 0.00463 271.0 284.6
274(15) 0.00463 270.9 283.9
273(15) 0.00469 270.9 283.2
283(15) 0.00444 270.8 282.6
271(15) 0.00476 270.8 281.9
296(15) 0.00439 270.8 281.3
270(15) 0.00476 270.7 280.8
267(15) 0.00476 270.7 280.2
282(15) 0.00444 270.7 279.7
266(14) 0.00482 270.6 279.3
254(14) 0.00510 270.6 278.8
282(15) 0.00450 270.5 278.4
259(14) 0.00489 270.5 278.0
278(15) 0.00444 270.5 277.6
270(15) 0.00476 270.4 277.2
276(15) 0.00476 270.4 276.9
277(15) 0.00457 270.3 276.6
284(15) 0.00439 270.3 276.3
270(15) 0.00469 270.3 276.0
270(15) 0.00469 270.2 275.7
240(14) 0.00549 270.2 275.5
263(14) 0.00482 270.2 275.3
270(15) 0.00469 270.1 275.0
260(14) 0.00489 270.1 274.8
272(15) 0.00469 270.0 274.7
268(14) 0.00489 270.0 274.5
247(14) 0.00510 270.0 274.3
280(15) 0.00450 269.9 274.1
254(14) 0.00496 269.9 274.0
261(14) 0.00482 269.8 273.9
269(14) 0.00482 269.8 273.7
283(15) 0.00450 269.8 273.6
278(15) 0.00450 269.7 273.5
242(14) 0.00518 269.7 273.4
262(14) 0.00482 269.7 273.3
279(15) 0.00463 269.6 273.2
276(15) 0.00463 269.6 273.1
271(15) 0.00463 269.5 273.0
250(14) 0.00496 269.5 272.9
265(14) 0.00489 269.5 272.8
269(14) 0.00482 269.4 272.7
272(15) 0.00463 269.4 272.6
267(15) 0.00476 269.4 272.5
277(15) 0.00457 269.3 272.5
290(15) 0.00439 269.3 272.4
269(14) 0.00482 269.2 272.3
276(15) 0.00457 269.2 272.3
285(15) 0.00444 269.2 272.2
276(15) 0.00457 269.1 272.1
254(14) 0.00496 269.1 272.1
256(14) 0.00510 269.1 272.0
258(14) 0.00489 269.0 272.0
265(15) 0.00476 269.0 271.9
281(15) 0.00450 268.9 271.9
282(15) 0.00450 268.9 271.8
273(15) 0.00476 268.9 271.8
246(14) 0.00525 268.8 271.7
244(14) 0.00510 268.8 271.7
270(15) 0.00469 268.8 271.6
265(14) 0.00489 268.7 271.6
255(14) 0.00503 268.7 271.6
282(15) 0.00457 268.7 271.5
295(15) 0.00427 268.6 271.5
279(15) 0.00444 268.6 271.5
262(14) 0.00489 268.5 271.4
266(14) 0.00482 268.5 271.4
268(15) 0.00476 268.5 271.4
282(15) 0.00444 268.4 271.3
246(14) 0.00518 268.4 271.3
253(14) 0.00503 268.4 271.3
276(15) 0.00469 268.3 271.3
267(14) 0.00482 268.3 271.3
284(15) 0.00439 268.3 271.2
258(14) 0.00489 268.2 271.2
250(14) 0.00510 268.2 271.2
251(14) 0.00510 268.1 271.2
263(14) 0.00489 268.1 271.2
250(14) 0.00503 268.1 271.2
280(15) 0.00450 268.0 271.2
249(14) 0.00510 268.0 271.2
253(14) 0.00518 268.0 271.2
257(14) 0.00489 267.9 271.2
278(15) 0.00450 267.9 271.2
256(14) 0.00489 267.9 271.2
238(14) 0.00533 267.8 271.3
244(14) 0.00533 267.8 271.3
289(15) 0.00439 267.8 271.3
252(14) 0.00503 267.7 271.3
267(15) 0.00469 267.7 271.4
286(15) 0.00444 267.7 271.4
263(14) 0.00496 267.6 271.5
258(14) 0.00489 267.6 271.5
281(15) 0.00444 267.5 271.6
268(15) 0.00457 267.5 271.6
281(15) 0.00433 267.5 271.7
282(15) 0.00433 267.4 271.8
261(15) 0.00463 267.4 271.9
285(15) 0.00422 267.4 272.0
283(15) 0.00422 267.3 272.1
294(16) 0.00411 267.3 272.2
259(15) 0.00476 267.3 272.4
275(15) 0.00439 267.2 272.5
272(15) 0.00444 267.2 272.7
280(15) 0.00427 267.2 272.9
269(15) 0.00457 267.1 273.1
270(15) 0.00457 267.1 273.3
301(16) 0.00406 267.1 273.6
280(15) 0.00433 267.0 273.9
280(15) 0.00422 267.0 274.3
278(15) 0.00444 267.0 274.8
285(15) 0.00433 266.9 275.3
271(15) 0.00439 266.9 275.9
280(15) 0.00433 266.9 276.7
292(16) 0.00411 266.8 277.6
279(15) 0.00433 266.8 278.7
291(15) 0.00422 266.8 280.1
284(15) 0.00427 266.7 281.8
289(16) 0.00411 266.7 283.8
282(15) 0.00422 266.7 286.3
284(15) 0.00433 266.7 289.2
315(16) 0.00391 266.6 292.7
297(16) 0.00401 266.6 296.7
309(16) 0.00401 266.6 301.4
335(17) 0.00354 266.5 306.7
328(17) 0.00367 266.5 312.6
331(16) 0.00376 266.5 319.0
357(17) 0.003380 266.4 326.0
394(18) 0.003052 266.4 333.3
343(17) 0.003420 266.4 340.8
370(17) 0.003303 266.3 348.1
405(18) 0.003052 266.3 355.1
399(18) 0.002986 266.3 361.4
394(18) 0.003086 266.2 366.4
382(18) 0.003086 266.2 369.8
348(17) 0.003460 266.2 371.4
375(17) 0.003341 266.2 370.9
401(18) 0.002986 266.1 368.3
377(18) 0.003192 266.1 364.0
366(17) 0.003303 266.1 358.3
357(17) 0.003420 266.0 351.7
360(17) 0.003420 266.0 344.4
328(17) 0.00363 266.0 336.9
325(16) 0.00372 265.9 329.5
356(17) 0.003380 265.9 322.4
340(17) 0.003501 265.9 315.7
323(16) 0.00386 265.9 309.4
313(16) 0.00391 265.8 303.8
263(15) 0.00450 265.8 298.9
284(16) 0.00416 265.8 294.5
291(16) 0.00416 265.7 290.7
292(15) 0.00422 265.7 287.5
296(16) 0.00401 265.7 284.8
291(16) 0.00416 265.7 282.6
309(16) 0.00386 265.6 280.7
303(16) 0.00391 265.6 279.2
275(15) 0.00457 265.6 278.0
271(15) 0.00450 265.5 277.0
288(16) 0.00411 265.5 276.1
264(15) 0.00457 265.5 275.5
303(16) 0.00401 265.5 274.9
254(14) 0.00482 265.4 274.4
274(15) 0.00439 265.4 274.1
270(15) 0.00444 265.4 273.7
249(15) 0.00476 265.4 273.5
267(15) 0.00450 265.3 273.2
252(14) 0.00489 265.3 273.0
288(16) 0.00416 265.3 272.9
278(15) 0.00433 265.2 272.7
282(15) 0.00427 265.2 272.6
277(15) 0.00433 265.2 272.5
279(15) 0.00439 265.2 272.4
308(16) 0.00396 265.1 272.4
264(15) 0.00457 265.1 272.3
263(15) 0.00457 265.1 272.3
269(15) 0.00450 265.1 272.3
300(16) 0.00416 265.0 272.3
259(15) 0.00469 265.0 272.4
270(15) 0.00444 265.0 272.4
261(15) 0.00463 265.0 272.5
260(15) 0.00463 264.9 272.6
272(15) 0.00450 264.9 272.7
276(15) 0.00439 264.9 272.8
290(16) 0.00411 264.9 272.9
273(15) 0.00433 264.8 273.1
265(15) 0.00457 264.8 273.3
262(15) 0.00469 264.8 273.5
300(16) 0.00401 264.8 273.7
296(16) 0.00406 264.8 274.0
273(15) 0.00439 264.7 274.3
274(15) 0.00450 264.7 274.6
269(15) 0.00450 264.7 275.0
297(16) 0.00411 264.7 275.4
314(16) 0.00386 264.6 275.9
306(16) 0.00386 264.6 276.4
282(15) 0.00433 264.6 277.0
274(15) 0.00450 264.6 277.8
320(16) 0.00376 264.6 278.6
280(15) 0.00427 264.5 279.6
303(16) 0.00396 264.5 280.8
285(15) 0.00422 264.5 282.3
279(15) 0.00439 264.5 284.0
305(16) 0.00401 264.4 286.1
289(16) 0.00411 264.4 288.6
304(16) 0.00386 264.4 291.6
308(16) 0.00396 264.4 295.2
314(16) 0.00396 264.4 299.4
333(17) 0.00363 264.3 304.4
337(17) 0.00354 264.3 310.3
337(17) 0.00354 264.3 317.1
375(18) 0.003228 264.3 324.8
383(18) 0.003228 264.3 333.5
377(18) 0.003192 264.2 343.1
373(18) 0.003192 264.2 353.6
386(18) 0.003086 264.2 364.9
409(18) 0.002954 264.2 376.8
424(19) 0.002891 264.2 389.0
430(19) 0.002799 264.1 401.2
446(19) 0.002685 264.1 413.0
479(20) 0.002500 264.1 423.8
434(19) 0.002770 264.1 432.9
457(19) 0.002685 264.1 439.8
469(20) 0.002577 264.1 443.9
472(20) 0.002577 264.0 444.8
468(20) 0.002551 264.0 442.5
433(19) 0.002770 264.0 437.1
450(19) 0.002770 264.0 429.2
422(19) 0.002860 264.0 419.2
405(18) 0.002986 263.9 408.0
433(19) 0.002713 263.9 395.9
402(18) 0.003019 263.9 383.7
382(18) 0.003265 263.9 371.6
395(18) 0.003019 263.9 360.0
359(17) 0.003380 263.9 349.1
336(17) 0.00354 263.8 339.0
332(17) 0.00359 263.8 329.8
318(16) 0.00396 263.8 321.6
332(17) 0.00359 263.8 314.3
305(16) 0.00386 263.8 308.0
317(16) 0.00381 263.8 302.6
308(16) 0.00396 263.8 298.0
314(16) 0.00396 263.7 294.1
298(16) 0.00406 263.7 290.9
301(16) 0.00401 263.7 288.2
302(16) 0.00396 263.7 286.0
299(16) 0.00406 263.7 284.2
311(16) 0.00396 263.7 282.7
311(16) 0.00391 263.7 281.5
286(15) 0.00422 263.6 280.6
296(16) 0.00406 263.6 279.8
295(16) 0.00401 263.6 279.2
280(15) 0.00444 263.6 278.7
300(16) 0.00401 263.6 278.3
290(16) 0.00411 263.6 278.0
292(16) 0.00406 263.6 277.9
284(15) 0.00427 263.6 277.7
299(16) 0.00416 263.5 277.7
297(16) 0.00406 263.5 277.7
289(16) 0.00416 263.5 277.8
291(16) 0.00411 263.5 278.0
293(16) 0.00416 263.5 278.2
296(16) 0.00416 263.5 278.4
279(15) 0.00433 263.5 278.8
278(15) 0.00433 263.5 279.1
293(16) 0.00406 263.4 279.5
272(15) 0.00444 263.4 280.0
263(15) 0.00469 263.4 280.5
283(15) 0.00422 263.4 281.0
298(16) 0.00406 263.4 281.6
315(16) 0.00381 263.4 282.1
291(16) 0.00411 263.4 282.7
288(15) 0.00427 263.4 283.3
275(15) 0.00444 263.4 283.9
299(16) 0.00406 263.4 284.5
297(16) 0.00401 263.4 285.1
303(16) 0.00406 263.3 285.6
296(16) 0.00416 263.3 286.1
283(15) 0.00427 263.3 286.6
304(16) 0.00401 263.3 287.0
291(16) 0.00411 263.3 287.4
304(16) 0.00396 263.3 287.7
296(15) 0.00422 263.3 288.0
279(15) 0.00427 263.3 288.2
290(16) 0.00416 263.3 288.3
304(16) 0.00391 263.3 288.4
291(16) 0.00416 263.3 288.4
304(16) 0.00406 263.3 288.3
297(16) 0.00406 263.3 288.2
297(16) 0.00406 263.2 288.0
288(16) 0.00416 263.2 287.7
297(16) 0.00411 263.2 287.5
286(15) 0.00433 263.2 287.1
293(16) 0.00411 263.2 286.8
291(15) 0.00422 263.2 286.4
303(16) 0.00391 263.2 286.0
314(16) 0.00391 263.2 285.7
292(15) 0.00422 263.2 285.3
297(16) 0.00406 263.2 285.0
289(16) 0.00416 263.2 284.7
303(16) 0.00396 263.2 284.4
301(16) 0.00401 263.2 284.1
285(15) 0.00433 263.2 283.9
291(16) 0.00416 263.2 283.7
297(16) 0.00411 263.2 283.6
303(16) 0.00391 263.2 283.5
304(16) 0.00401 263.2 283.4
282(15) 0.00444 263.2 283.3
293(16) 0.00416 263.2 283.2
294(16) 0.00406 263.2 283.2
282(15) 0.00427 263.2 283.1
288(15) 0.00422 263.2 283.1
274(15) 0.00450 263.1 283.0
288(15) 0.00422 263.1 282.9
291(16) 0.00411 263.1 282.8
284(15) 0.00422 263.1 282.7
282(15) 0.00427 263.1 282.6
289(15) 0.00427 263.1 282.4
297(16) 0.00401 263.1 282.2
273(15) 0.00444 263.1 282.0
287(16) 0.00416 263.1 281.7
279(15) 0.00433 263.1 281.4
275(15) 0.00450 263.1 281.1
288(15) 0.00422 263.1 280.7
302(16) 0.00401 263.1 280.4
313(16) 0.00381 263.1 280.0
287(15) 0.00422 263.1 279.6
275(15) 0.00450 263.1 279.3
289(16) 0.00416 263.1 278.9
279(15) 0.00433 263.1 278.5
285(16) 0.00416 263.1 278.2
287(16) 0.00416 263.1 277.8
279(15) 0.00450 263.1 277.5
293(16) 0.00401 263.1 277.2
254(15) 0.00476 263.1 276.9
281(15) 0.00427 263.2 276.7
278(15) 0.00433 263.2 276.5
304(16) 0.00411 263.2 276.3
310(16) 0.00386 263.2 276.1
288(16) 0.00416 263.2 275.9
293(16) 0.00411 263.2 275.8
255(14) 0.00482 263.2 275.8
290(15) 0.00433 263.2 275.7
288(16) 0.00411 263.2 275.7
280(15) 0.00439 263.2 275.7
260(15) 0.00457 263.2 275.7
261(15) 0.00463 263.2 275.8
283(15) 0.00439 263.2 275.9
290(16) 0.00416 263.2 276.1
313(16) 0.00376 263.2 276.2
293(16) 0.00411 263.2 276.4
298(16) 0.00406 263.2 276.6
301(16) 0.00406 263.2 276.9
257(15) 0.00476 263.2 277.1
281(15) 0.00427 263.2 277.4
294(16) 0.00406 263.2 277.7
280(15) 0.00433 263.2 278.0
313(16) 0.00396 263.2 278.3
278(15) 0.00439 263.2 278.7
264(15) 0.00450 263.3 279.0
270(15) 0.00444 263.3 279.3
256(15) 0.00476 263.3 279.6
271(15) 0.00457 263.3 279.9
288(15) 0.00422 263.3 280.2
290(16) 0.00416 263.3 280.4
314(16) 0.00376 263.3 280.6
287(15) 0.00422 263.3 280.7
285(15) 0.00439 263.3 280.8
293(16) 0.00406 263.3 280.9
282(15) 0.00433 263.3 280.9
295(16) 0.00406 263.3 280.8
296(16) 0.00406 263.3 280.7
292(15) 0.00427 263.4 280.5
282(15) 0.00433 263.4 280.3
299(16) 0.00401 263.4 280.0
273(15) 0.00444 263.4 279.7
275(15) 0.00439 263.4 279.4
284(15) 0.00433 263.4 279.0
280(15) 0.00433 263.4 278.6
261(15) 0.00457 263.4 278.2
282(15) 0.00422 263.4 277.8
268(15) 0.00450 263.4 277.3
296(16) 0.00416 263.5 276.9
278(15) 0.00439 263.5 276.4
265(15) 0.00444 263.5 276.0
271(15) 0.00444 263.5 275.6
290(16) 0.00416 263.5 275.1
262(15) 0.00469 263.5 274.7
272(15) 0.00450 263.5 274.3
277(15) 0.00433 263.5 273.9
289(16) 0.00416 263.5 273.6
269(15) 0.00450 263.6 273.2
267(15) 0.00469 263.6 272.9
273(15) 0.00439 263.6 272.6
293(16) 0.00411 263.6 272.3
265(15) 0.00450 263.6 272.0
306(16) 0.00391 263.6 271.7
261(15) 0.00469 263.6 271.5
271(15) 0.00450 263.6 271.2
256(15) 0.00463 263.7 271.0
268(15) 0.00450 263.7 270.8
251(15) 0.00476 263.7 270.6
292(16) 0.00416 263.7 270.5
272(15) 0.00450 263.7 270.3
281(15) 0.00427 263.7 270.2
268(15) 0.00444 263.7 270.1
257(15) 0.00476 263.8 270.0
258(15) 0.00476 263.8 269.9
266(15) 0.00463 263.8 269.9
250(15) 0.00476 263.8 269.8
267(15) 0.00439 263.8 269.8
255(14) 0.00482 263.8 269.8
250(14) 0.00489 263.8 269.8
265(15) 0.00450 263.9 269.8
277(15) 0.00439 263.9 269.8
273(15) 0.00433 263.9 269.9
267(15) 0.00450 263.9 270.0
271(15) 0.00457 263.9 270.1
271(15) 0.00444 263.9 270.3
298(16) 0.00401 263.9 270.4
276(15) 0.00427 264.0 270.6
286(15) 0.00427 264.0 270.8
269(15) 0.00457 264.0 271.1
257(15) 0.00469 264.0 271.4
275(15) 0.00444 264.0 271.7
262(15) 0.00457 264.0 272.0
272(15) 0.00444 264.1 272.4
261(15) 0.00469 264.1 272.8
268(15) 0.00457 264.1 273.3
257(15) 0.00457 264.1 273.7
280(15) 0.00427 264.1 274.2
249(14) 0.00496 264.2 274.6
245(14) 0.00496 264.2 275.1
253(14) 0.00482 264.2 275.6
295(16) 0.00411 264.2 276.0
261(15) 0.00450 264.2 276.3
294(16) 0.00411 264.2 276.7
300(16) 0.00411 264.3 276.9
277(15) 0.00439 264.3 277.1
286(16) 0.00416 264.3 277.1
283(15) 0.00433 264.3 277.1
239(14) 0.00510 264.3 277.1
267(15) 0.00463 264.4 277.0
263(15) 0.00463 264.4 276.8
262(15) 0.00457 264.4 276.6
292(16) 0.00406 264.4 276.4
290(16) 0.00416 264.4 276.3
262(15) 0.00476 264.5 276.1
249(14) 0.00489 264.5 276.0
266(15) 0.00450 264.5 275.9
274(15) 0.00439 264.5 275.8
283(15) 0.00427 264.5 275.7
294(16) 0.00416 264.6 275.8
284(15) 0.00422 264.6 275.8
278(15) 0.00439 264.6 275.9
305(16) 0.00391 264.6 276.0
273(15) 0.00444 264.6 276.2
295(15) 0.00427 264.7 276.5
269(15) 0.00444 264.7 276.7
263(15) 0.00457 264.7 277.0
260(15) 0.00463 264.7 277.4
265(15) 0.00450 264.7 277.8
289(15) 0.00422 264.8 278.2
279(15) 0.00433 264.8 278.7
288(16) 0.00411 264.8 279.2
291(16) 0.00406 264.8 279.7
268(15) 0.00463 264.9 280.3
276(15) 0.00439 264.9 280.9
282(15) 0.00433 264.9 281.5
276(15) 0.00433 264.9 282.2
301(16) 0.00396 264.9 282.9
291(15) 0.00422 265.0 283.7
272(15) 0.00450 265.0 284.5
300(16) 0.00406 265.0 285.2
297(16) 0.00411 265.0 286.0
273(15) 0.00433 265.1 286.8
304(16) 0.00406 265.1 287.6
280(15) 0.00444 265.1 288.4
288(16) 0.00416 265.1 289.1
309(16) 0.00391 265.2 289.7
295(16) 0.00401 265.2 290.3
301(16) 0.00401 265.2 290.8
297(16) 0.00416 265.2 291.2
310(16) 0.00386 265.2 291.4
305(16) 0.00396 265.3 291.5
313(16) 0.00381 265.3 291.5
301(16) 0.00401 265.3 291.2
293(15) 0.00422 265.3 290.9
288(15) 0.00422 265.4 290.5
303(16) 0.00396 265.4 289.9
277(15) 0.00439 265.4 289.3
279(15) 0.00444 265.4 288.6
297(16) 0.00416 265.5 287.9
319(16) 0.00381 265.5 287.1
300(16) 0.00406 265.5 286.4
301(16) 0.00396 265.5 285.7
274(15) 0.00439 265.6 284.9
297(16) 0.00416 265.6 284.2
320(16) 0.00381 265.6 283.6
291(16) 0.00411 265.6 282.9
275(15) 0.00439 265.7 282.3
256(15) 0.00476 265.7 281.8
278(15) 0.00439 265.7 281.3
294(16) 0.00416 265.7 280.8
274(15) 0.00433 265.8 280.3
270(15) 0.00444 265.8 279.9
304(16) 0.00406 265.8 279.6
274(15) 0.00450 265.8 279.2
305(16) 0.00401 265.9 278.9
283(15) 0.00422 265.9 278.7
258(15) 0.00469 265.9 278.5
256(15) 0.00476 265.9 278.3
286(15) 0.00427 266.0 278.2
269(15) 0.00457 266.0 278.1
272(15) 0.00439 266.0 278.0
311(16) 0.00386 266.0 278.0
285(15) 0.00427 266.1 278.0
281(15) 0.00439 266.1 278.0
284(15) 0.00427 266.1 278.1
290(16) 0.00411 266.2 278.2
260(15) 0.00457 266.2 278.4
292(16) 0.00416 266.2 278.6
291(15) 0.00422 266.2 278.8
280(15) 0.00433 266.3 279.1
246(14) 0.00503 266.3 279.4
262(15) 0.00457 266.3 279.7
251(14) 0.00482 266.3 280.1
273(15) 0.00457 266.4 280.6
298(16) 0.00406 266.4 281.0
292(16) 0.00411 266.4 281.6
271(15) 0.00439 266.4 282.1
285(15) 0.00427 266.5 282.7
267(15) 0.00463 266.5 283.4
278(15) 0.00433 266.5 284.1
294(16) 0.00406 266.5 284.8
282(15) 0.00422 266.6 285.6
270(15) 0.00450 266.6 286.4
282(15) 0.00433 266.6 287.2
261(15) 0.00463 266.7 288.1
286(15) 0.00422 266.7 289.0
290(16) 0.00411 266.7 289.9
304(16) 0.00411 266.7 290.8
311(16) 0.00396 266.8 291.8
295(16) 0.00411 266.8 292.8
292(16) 0.00411 266.8 293.8
328(17) 0.00363 266.8 294.7
313(16) 0.00391 266.9 295.7
289(15) 0.00427 266.9 296.6
282(15) 0.00427 266.9 297.5
307(16) 0.00396 267.0 298.4
311(16) 0.00381 267.0 299.1
316(16) 0.00386 267.0 299.9
314(16) 0.00391 267.0 300.6
299(16) 0.00406 267.1 301.2
299(16) 0.00396 267.1 301.7
312(16) 0.00386 267.1 302.2
337(17) 0.00359 267.1 302.7
316(16) 0.00396 267.2 303.1
300(16) 0.00406 267.2 303.5
313(16) 0.00381 267.2 303.8
301(16) 0.00401 267.2 304.2
302(16) 0.00401 267.3 304.5
309(16) 0.00401 267.3 304.9
319(16) 0.00381 267.3 305.3
326(17) 0.00367 267.4 305.8
324(17) 0.00367 267.4 306.3
292(16) 0.00416 267.4 306.8
314(16) 0.00396 267.4 307.3
304(16) 0.00396 267.5 307.9
324(17) 0.00367 267.5 308.5
290(16) 0.00416 267.5 309.1
317(16) 0.00376 267.5 309.7
321(16) 0.00381 267.6 310.2
306(16) 0.00401 267.6 310.7
317(16) 0.00381 267.6 311.0
308(16) 0.00391 267.7 311.3
318(16) 0.00386 267.7 311.4
349(17) 0.003501 267.7 311.3
306(16) 0.00396 267.7 311.2
320(16) 0.00376 267.8 310.8
311(16) 0.00381 267.8 310.4
290(16) 0.00416 267.8 309.8
315(16) 0.00391 267.8 309.1
316(16) 0.00391 267.9 308.2
325(17) 0.00363 267.9 307.2
296(16) 0.00401 267.9 306.2
294(16) 0.00416 267.9 305.0
293(16) 0.00416 268.0 303.7
319(16) 0.00381 268.0 302.4
300(16) 0.00406 268.0 301.0
304(16) 0.00391 268.0 299.6
303(16) 0.00411 268.1 298.2
299(16) 0.00411 268.1 296.8
289(15) 0.00422 268.1 295.4
292(16) 0.00411 268.2 294.1
281(15) 0.00422 268.2 292.9
286(15) 0.00422 268.2 291.8
286(15) 0.00427 268.2 290.7
291(16) 0.00416 268.3 289.7
302(16) 0.00396 268.3 288.9
296(16) 0.00401 268.3 288.1
268(15) 0.00457 268.3 287.4
297(16) 0.00411 268.4 286.9
267(15) 0.00457 268.4 286.4
264(15) 0.00450 268.4 286.0
262(15) 0.00457 268.4 285.7
266(15) 0.00463 268.5 285.5
311(16) 0.00396 268.5 285.4
263(15) 0.00463 268.5 285.4
272(15) 0.00444 268.5 285.5
288(16) 0.00411 268.6 285.7
286(15) 0.00427 268.6 286.0
255(14) 0.00482 268.6 286.4
285(15) 0.00422 268.6 286.9
270(15) 0.00444 268.7 287.6
301(16) 0.00396 268.7 288.3
301(16) 0.00401 268.7 289.3
274(15) 0.00450 268.7 290.4
287(16) 0.00416 268.8 291.6
297(16) 0.00406 268.8 293.1
302(16) 0.00391 268.8 294.8
309(16) 0.00391 268.8 296.7
308(16) 0.00401 268.9 298.8
292(16) 0.00416 268.9 301.3
304(16) 0.00401 268.9 304.0
328(17) 0.00363 268.9 307.0
284(15) 0.00427 268.9 310.3
304(16) 0.00411 269.0 314.0
293(16) 0.00411 269.0 317.9
324(17) 0.00367 269.0 322.2
304(16) 0.00391 269.0 326.8
331(17) 0.00367 269.1 331.7
349(17) 0.00354 269.1 336.9
359(17) 0.003341 269.1 342.3
371(18) 0.003228 269.1 347.8
367(18) 0.003228 269.2 353.4
371(18) 0.003228 269.2 358.9
363(17) 0.003420 269.2 364.3
342(17) 0.003501 269.2 369.3
374(18) 0.003192 269.2 373.9
370(18) 0.003265 269.3 377.9
388(18) 0.003156 269.3 381.0
427(19) 0.002891 269.3 383.1
404(18) 0.002986 269.3 384.1
401(18) 0.003019 269.4 384.1
396(18) 0.002986 269.4 382.9
359(17) 0.003380 269.4 380.7
400(18) 0.003086 269.4 377.6
369(18) 0.003265 269.4 373.8
372(18) 0.003228 269.5 369.5
357(17) 0.003341 269.5 364.9
393(18) 0.002986 269.5 360.2
380(18) 0.003052 269.5 355.5
340(17) 0.003380 269.5 350.9
362(18) 0.003192 269.6 346.7
351(18) 0.003228 269.6 342.8
362(18) 0.003192 269.6 339.3
314(16) 0.00386 269.6 336.3
308(16) 0.00376 269.6 333.8
359(18) 0.003192 269.7 331.9
327(17) 0.00354 269.7 330.4
303(16) 0.00381 269.7 329.3
345(17) 0.003380 269.7 328.6
362(18) 0.003192 269.7 328.1
343(17) 0.003341 269.8 327.8
358(18) 0.003156 269.8 327.5
344(17) 0.003380 269.8 327.0
351(17) 0.003380 269.8 326.2
337(17) 0.003341 269.8 325.0
298(16) 0.00386 269.8 323.3
340(17) 0.003341 269.9 321.1
327(17) 0.003501 269.9 318.5
367(18) 0.003228 269.9 315.7
295(16) 0.00391 269.9 312.6
318(17) 0.00367 269.9 309.5
331(17) 0.003420 270.0 306.4
290(16) 0.00406 270.0 303.4
326(17) 0.00363 270.0 300.6
310(16) 0.00372 270.0 298.0
280(16) 0.00411 270.0 295.7
275(16) 0.00416 270.0 293.6
289(16) 0.00401 270.1 291.8
302(16) 0.00391 270.1 290.2
302(16) 0.00381 270.1 288.9
291(16) 0.00391 270.1 287.8
272(16) 0.00416 270.1 286.8
272(15) 0.00427 270.1 286.1
293(16) 0.00401 270.1 285.5
291(16) 0.00396 270.2 285.0
297(16) 0.00386 270.2 284.7
289(16) 0.00401 270.2 284.4
286(16) 0.00411 270.2 284.2
272(15) 0.00439 270.2 284.1
274(15) 0.00422 270.2 284.1
267(15) 0.00433 270.3 284.1
261(15) 0.00433 270.3 284.2
289(16) 0.00401 270.3 284.3
272(15) 0.00433 270.3 284.5
282(16) 0.00411 270.3 284.7
294(16) 0.00386 270.3 285.0
259(15) 0.00444 270.3 285.4
274(15) 0.00422 270.3 285.8
258(15) 0.00457 270.4 286.2
290(16) 0.00401 270.4 286.8
276(16) 0.00416 270.4 287.4
264(15) 0.00427 270.4 288.0
304(16) 0.00386 270.4 288.8
295(16) 0.00396 270.4 289.6
285(16) 0.00411 270.4 290.6
267(15) 0.00433 270.4 291.6
284(16) 0.00401 270.5 292.7
256(15) 0.00463 270.5 293.9
279(15) 0.00422 270.5 295.2
265(15) 0.00433 270.5 296.6
277(16) 0.00416 270.5 298.1
299(16) 0.00381 270.5 299.8
283(16) 0.00406 270.5 301.6
295(16) 0.00401 270.5 303.5
309(16) 0.00372 270.5 305.5
284(16) 0.00396 270.5 307.6
307(16) 0.00376 270.6 309.8
298(16) 0.00391 270.6 312.2
281(16) 0.00416 270.6 314.6
307(16) 0.00381 270.6 317.1
305(16) 0.00381 270.6 319.6
325(17) 0.003501 270.6 322.2
338(17) 0.003501 270.6 324.7
314(16) 0.00376 270.6 327.2
326(17) 0.00354 270.6 329.5
309(16) 0.00372 270.6 331.7
329(17) 0.003460 270.6 333.7
352(17) 0.003303 270.6 335.3
344(17) 0.003380 270.6 336.6
316(17) 0.00367 270.6 337.5
315(17) 0.00363 270.7 338.0
322(17) 0.003501 270.7 338.1
339(17) 0.003460 270.7 337.7
352(17) 0.003303 270.7 336.9
350(17) 0.003303 270.7 335.7
333(17) 0.003420 270.7 334.2
336(17) 0.003460 270.7 332.4
317(17) 0.00363 270.7 330.5
325(17) 0.00367 270.7 328.3
352(17) 0.003303 270.7 326.1
322(17) 0.00359 270.7 323.8
308(17) 0.00367 270.7 321.5
327(17) 0.00354 270.7 319.3
319(16) 0.00372 270.7 317.1
317(17) 0.00359 270.7 315.0
313(17) 0.00367 270.7 313.0
288(16) 0.00401 270.7 311.0
304(16) 0.00376 270.7 309.1
307(16) 0.00386 270.7 307.3
318(17) 0.00363 270.7 305.6
302(16) 0.00376 270.7 304.0
328(17) 0.003460 270.7 302.4
293(16) 0.00401 270.7 300.9
285(16) 0.00416 270.7 299.5
293(16) 0.00391 270.7 298.1
303(16) 0.00381 270.7 296.9
294(16) 0.00391 270.7 295.8
295(16) 0.00391 270.7 294.8
274(15) 0.00433 270.7 293.9
290(16) 0.00391 270.7 293.2
293(16) 0.00391 270.7 292.5
285(16) 0.00401 270.7 292.1
281(16) 0.00411 270.7 291.7
258(15) 0.00463 270.7 291.4
293(16) 0.00391 270.7 291.3
295(16) 0.00391 270.7 291.3
275(16) 0.00416 270.7 291.5
285(16) 0.00401 270.7 291.7
277(15) 0.00433 270.7 292.1
307(16) 0.00376 270.7 292.6
289(16) 0.00406 270.7 293.2
282(16) 0.00401 270.7 293.9
285(16) 0.00411 270.7 294.7
297(16) 0.00406 270.7 295.7
287(16) 0.00401 270.7 296.8
296(16) 0.00386 270.7 298.0
297(16) 0.00386 270.7 299.3
294(16) 0.00391 270.7 300.7
309(16) 0.00381 270.7 302.3
304(16) 0.00386 270.7 304.0
311(17) 0.00367 270.7 305.8
317(17) 0.00359 270.7 307.7
284(16) 0.00411 270.6 309.7
308(16) 0.00381 270.6 311.8
313(16) 0.00372 270.6 314.1
319(17) 0.00359 270.6 316.4
309(16) 0.00372 270.6 318.7
309(16) 0.00376 270.6 321.1
305(16) 0.00391 270.6 323.6
336(17) 0.003460 270.6 326.0
326(17) 0.00354 270.6 328.4
356(18) 0.003192 270.6 330.7
356(17) 0.003303 270.6 332.9
347(17) 0.003341 270.6 334.9
372(18) 0.003156 270.6 336.7
365(18) 0.003156 270.5 338.3
348(18) 0.003265 270.5 339.5
348(17) 0.003380 270.5 340.4
339(17) 0.003460 270.5 341.0
356(18) 0.003228 270.5 341.1
360(18) 0.003192 270.5 340.8
330(17) 0.003460 270.5 340.2
356(18) 0.003265 270.5 339.2
318(16) 0.00372 270.5 337.8
366(18) 0.003156 270.4 336.1
359(18) 0.003228 270.4 334.2
320(17) 0.00359 270.4 332.1
309(16) 0.00372 270.4 329.8
347(17) 0.003460 270.4 327.4
356(18) 0.003228 270.4 324.9
347(17) 0.003303 270.4 322.4
307(16) 0.00376 270.4 319.9
346(17) 0.003303 270.3 317.5
312(16) 0.00376 270.3 315.1
319(17) 0.00367 270.3 312.7
312(17) 0.00363 270.3 310.5
316(17) 0.00359 270.3 308.3
293(16) 0.00396 270.3 306.3
301(16) 0.00396 270.3 304.4
298(16) 0.00386 270.2 302.6
298(16) 0.00386 270.2 300.9
275(16) 0.00416 270.2 299.4
296(16) 0.00396 270.2 298.0
294(16) 0.00406 270.2 296.8
286(16) 0.00401 270.2 295.8
304(16) 0.00376 270.1 294.8
289(16) 0.00396 270.1 294.1
282(16) 0.00411 270.1 293.5
292(16) 0.00406 270.1 293.0
295(16) 0.00391 270.1 292.7
332(17) 0.003460 270.1 292.5
281(16) 0.00406 270.0 292.5
283(16) 0.00406 270.0 292.6
262(15) 0.00450 270.0 292.9
304(16) 0.00376 270.0 293.2
329(17) 0.003460 270.0 293.7
273(15) 0.00427 269.9 294.3
294(16) 0.00391 269.9 294.9
300(16) 0.00396 269.9 295.6
281(16) 0.00416 269.9 296.2
285(16) 0.00401 269.9 296.9
288(16) 0.00401 269.8 297.5
306(16) 0.00381 269.8 298.0
305(16) 0.00386 269.8 298.4
304(16) 0.00381 269.8 298.5
299(16) 0.00381 269.7 298.5
297(16) 0.00391 269.7 298.2
282(16) 0.00411 269.7 297.7
295(16) 0.00401 269.7 296.9
308(16) 0.00376 269.7 296.0
275(16) 0.00411 269.6 294.9
270(15) 0.00427 269.6 293.7
304(16) 0.00386 269.6 292.5
290(16) 0.00411 269.6 291.2
278(16) 0.00416 269.5 289.9
289(16) 0.00396 269.5 288.6
308(16) 0.00381 269.5 287.3
268(15) 0.00427 269.5 286.1
273(15) 0.00433 269.4 284.9
275(15) 0.00427 269.4 283.8
263(15) 0.00433 269.4 282.8
283(16) 0.00406 269.4 281.9
285(16) 0.00411 269.3 281.0
266(15) 0.00444 269.3 280.2
278(16) 0.00411 269.3 279.5
275(16) 0.00416 269.3 278.8
266(15) 0.00433 269.2 278.2
282(16) 0.00406 269.2 277.7
287(16) 0.00411 269.2 277.2
285(16) 0.00411 269.1 276.8
244(15) 0.00469 269.1 276.4
253(15) 0.00450 269.1 276.1
284(16) 0.00411 269.1 275.8
272(15) 0.00439 269.0 275.5
281(16) 0.00411 269.0 275.3
262(15) 0.00439 269.0 275.1
282(16) 0.00406 268.9 274.9
269(15) 0.00433 268.9 274.7
292(16) 0.00406 268.9 274.5
252(15) 0.00457 268.9 274.4
258(15) 0.00444 268.8 274.3
251(15) 0.00457 268.8 274.2
296(16) 0.00391 268.8 274.1
265(15) 0.00439 268.7 274.0
251(15) 0.00463 268.7 273.9
249(15) 0.00463 268.7 273.9
277(16) 0.00411 268.6 273.9
276(15) 0.00422 268.6 273.9
271(15) 0.00433 268.6 273.9
264(15) 0.00444 268.5 273.9
258(15) 0.00444 268.5 273.9
276(16) 0.00416 268.5 274.0
272(15) 0.00422 268.4 274.0
263(15) 0.00450 268.4 274.1
255(15) 0.00457 268.4 274.2
269(15) 0.00422 268.3 274.4
288(16) 0.00396 268.3 274.5
273(15) 0.00427 268.3 274.7
288(16) 0.00406 268.2 274.9
228(14) 0.00510 268.2 275.1
264(15) 0.00427 268.2 275.3
276(16) 0.00411 268.1 275.5
276(15) 0.00422 268.1 275.6
287(16) 0.00411 268.1 275.8
255(15) 0.00450 268.0 276.0
299(16) 0.00386 268.0 276.1
284(16) 0.00406 268.0 276.2
236(14) 0.00489 267.9 276.3
264(15) 0.00450 267.9 276.3
293(16) 0.00391 267.8 276.3
284(16) 0.00411 267.8 276.2
279(16) 0.00406 267.8 276.0
307(16) 0.00376 267.7 275.9
299(16) 0.00401 267.7 275.7
278(16) 0.00416 267.7 275.4
271(16) 0.00416 267.6 275.2
286(16) 0.00401 267.6 275.0
248(15) 0.00463 267.5 274.8
284(16) 0.00416 267.5 274.6
285(16) 0.00411 267.5 274.4
246(15) 0.00463 267.4 274.2
284(16) 0.00401 267.4 274.1
281(15) 0.00422 267.4 274.0
253(15) 0.00463 267.3 273.9
284(16) 0.00406 267.3 273.9
274(15) 0.00422 267.2 273.9
277(16) 0.00411 267.2 274.0
253(15) 0.00457 267.2 274.1
254(15) 0.00469 267.1 274.3
259(15) 0.00444 267.1 274.6
219(14) 0.00525 267.0 274.9
288(16) 0.00396 267.0 275.4
286(16) 0.00401 266.9 275.9
274(15) 0.00427 266.9 276.5
260(15) 0.00444 266.9 277.3
285(16) 0.00406 266.8 278.1
265(15) 0.00433 266.8 279.1
270(15) 0.00427 266.7 280.2
288(16) 0.00411 266.7 281.5
285(16) 0.00406 266.7 282.9
323(17) 0.00354 266.6 284.5
276(16) 0.00416 266.6 286.1
282(16) 0.00411 266.5 287.9
287(16) 0.00411 266.5 289.9
302(16) 0.00381 266.4 291.8
305(16) 0.00376 266.4 293.9
321(17) 0.00354 266.4 295.9
301(16) 0.00386 266.3 297.9
316(16) 0.00372 266.3 299.7
313(17) 0.00367 266.2 301.3
310(17) 0.00367 266.2 302.7
314(17) 0.00359 266.1 303.7
322(17) 0.00363 266.1 304.2
311(16) 0.00381 266.1 304.3
314(17) 0.00363 266.0 303.9
306(16) 0.00376 266.0 303.1
306(16) 0.00376 265.9 301.8
323(17) 0.00354 265.9 300.2
318(16) 0.00372 265.8 298.4
307(16) 0.00376 265.8 296.4
301(16) 0.00376 265.7 294.3
289(16) 0.00396 265.7 292.1
269(15) 0.00433 265.7 290.0
294(16) 0.00401 265.6 288.0
299(16) 0.00386 265.6 286.0
269(15) 0.00422 265.5 284.1
283(16) 0.00406 265.5 282.4
251(15) 0.00457 265.4 280.8
256(15) 0.00457 265.4 279.4
263(15) 0.00450 265.3 278.0
256(15) 0.00444 265.3 276.9
260(15) 0.00439 265.2 275.8
257(15) 0.00457 265.2 274.9
268(15) 0.00439 265.2 274.1
295(16) 0.00386 265.1 273.4
288(16) 0.00401 265.1 272.8
268(15) 0.00427 265.0 272.3
272(15) 0.00422 265.0 271.8
268(15) 0.00444 264.9 271.5
257(15) 0.00450 264.9 271.2
289(16) 0.00396 264.8 271.0
287(16) 0.00396 264.8 270.8
254(15) 0.00450 264.7 270.7
257(15) 0.00457 264.7 270.6
270(15) 0.00422 264.6 270.6
261(15) 0.00444 264.6 270.7
259(15) 0.00444 264.5 270.8
243(15) 0.00476 264.5 270.9
267(15) 0.00444 264.4 271.1
257(15) 0.00457 264.4 271.4
265(15) 0.00433 264.4 271.7
259(15) 0.00433 264.3 272.0
293(16) 0.00401 264.3 272.4
272(15) 0.00433 264.2 272.9
283(16) 0.00406 264.2 273.3
280(16) 0.00411 264.1 273.8
279(16) 0.00411 264.1 274.4
295(16) 0.00386 264.0 274.9
273(15) 0.00433 264.0 275.4
269(15) 0.00433 263.9 275.9
262(15) 0.00427 263.9 276.4
270(15) 0.00422 263.8 276.7
285(16) 0.00416 263.8 277.0
279(16) 0.00416 263.7 277.2
274(15) 0.00427 263.7 277.2
284(16) 0.00406 263.6 277.0
290(16) 0.00396 263.6 276.8
291(16) 0.00401 263.5 276.4
300(16) 0.00391 263.5 275.8
302(16) 0.00386 263.4 275.2
271(15) 0.00427 263.4 274.6
266(15) 0.00427 263.3 273.9
261(15) 0.00444 263.3 273.2
283(16) 0.00416 263.2 272.5
264(15) 0.00433 263.2 271.8
261(15) 0.00439 263.1 271.1
281(16) 0.00401 263.1 270.4
264(15) 0.00433 263.0 269.8
275(15) 0.00439 263.0 269.2
277(16) 0.00411 263.0 268.7
261(15) 0.00439 262.9 268.2
259(15) 0.00450 262.9 267.8
255(15) 0.00450 262.8 267.4
261(15) 0.00457 262.8 267.0
267(15) 0.00433 262.7 266.7
290(16) 0.00391 262.7 266.4
270(15) 0.00427 262.6 266.1
281(16) 0.00411 262.6 265.9
277(15) 0.00422 262.5 265.6
264(15) 0.00439 262.5 265.4
287(16) 0.00396 262.4 265.3
256(15) 0.00450 262.4 265.1
254(15) 0.00450 262.3 265.0
272(15) 0.00433 262.3 264.8
293(16) 0.00391 262.2 264.7
257(15) 0.00450 262.2 264.6
235(14) 0.00489 262.1 264.5
272(15) 0.00427 262.1 264.4
267(15) 0.00444 262.0 264.3
270(15) 0.00433 262.0 264.2
286(16) 0.00396 261.9 264.1
256(15) 0.00450 261.9 264.0
234(14) 0.00496 261.8 263.9
256(15) 0.00457 261.8 263.8
250(15) 0.00463 261.7 263.8
254(15) 0.00450 261.7 263.7
264(15) 0.00433 261.6 263.6
262(15) 0.00444 261.6 263.6
236(14) 0.00496 261.5 263.5
274(16) 0.00416 261.5 263.4
264(15) 0.00433 261.4 263.4
242(15) 0.00469 261.4 263.3
273(15) 0.00427 261.4 263.2
286(16) 0.00411 261.3 263.2
273(15) 0.00422 261.3 263.1
255(15) 0.00457 261.2 263.1
261(15) 0.00433 261.2 263.0
270(15) 0.00433 261.1 262.9
262(15) 0.00450 261.1 262.9
259(15) 0.00439 261.0 262.8
267(15) 0.00439 261.0 262.8
246(15) 0.00463 260.9 262.7
280(16) 0.00416 260.9 262.7
260(15) 0.00457 260.8 262.6
256(15) 0.00444 260.8 262.6
246(15) 0.00463 260.7 262.5
268(15) 0.00422 260.7 262.5
277(15) 0.00422 260.6 262.4
268(15) 0.00439 260.6 262.4
264(15) 0.00439 260.6 262.4
256(15) 0.00457 260.5 262.3
263(15) 0.00433 260.5 262.3
253(15) 0.00457 260.4 262.2
235(14) 0.00510 260.4 262.2
238(14) 0.00482 260.3 262.2
248(15) 0.00463 260.3 262.1
249(15) 0.00463 260.2 262.1
279(16) 0.00416 260.2 262.1
265(15) 0.00439 260.1 262.0
258(15) 0.00450 260.1 262.0
272(15) 0.00422 260.1 262.0
259(15) 0.00433 260.0 261.9
270(15) 0.00427 260.0 261.9
269(15) 0.00439 259.9 261.9
269(15) 0.00422 259.9 261.9
269(15) 0.00433 259.8 261.9
286(16) 0.00401 259.8 261.8
279(16) 0.00416 259.7 261.8
281(15) 0.00427 259.7 261.8
263(15) 0.00439 259.7 261.8
252(15) 0.00450 259.6 261.8
273(15) 0.00422 259.6 261.8
271(15) 0.00427 259.5 261.8
275(15) 0.00433 259.5 261.8
243(15) 0.00469 259.4 261.8
277(16) 0.00416 259.4 261.8
279(16) 0.00406 259.4 261.8
298(16) 0.00386 259.3 261.9
245(14) 0.00482 259.3 261.9
256(15) 0.00444 259.2 261.9
248(15) 0.00457 259.2 262.0
261(15) 0.00439 259.1 262.0
254(15) 0.00457 259.1 262.1
268(15) 0.00439 259.1 262.1
298(16) 0.00386 259.0 262.2
261(15) 0.00444 259.0 262.3
261(15) 0.00433 258.9 262.4
258(15) 0.00450 258.9 262.5
260(15) 0.00457 258.9 262.6
248(15) 0.00463 258.8 262.7
253(15) 0.00450 258.8 262.9
283(16) 0.00406 258.7 263.0
278(16) 0.00416 258.7 263.2
291(16) 0.00401 258.7 263.4
277(16) 0.00416 258.6 263.6
268(15) 0.00433 258.6 263.8
262(15) 0.00427 258.5 264.0
283(16) 0.00406 258.5 264.2
287(16) 0.00416 258.5 264.5
274(16) 0.00416 258.4 264.7
256(15) 0.00444 258.4 265.0
290(16) 0.00401 258.3 265.3
304(16) 0.00381 258.3 265.5
269(15) 0.00439 258.3 265.8
244(15) 0.00469 258.2 266.1
248(15) 0.00469 258.2 266.4
260(15) 0.00433 258.2 266.7
256(15) 0.00450 258.1 267.0
280(15) 0.00427 258.1 267.3
281(16) 0.00401 258.1 267.6
265(15) 0.00433 258.0 267.9
307(17) 0.00367 258.0 268.1
240(15) 0.00476 257.9 268.4
244(14) 0.00482 257.9 268.6
284(16) 0.00396 257.9 268.7
276(15) 0.00422 257.8 268.8
254(15) 0.00444 257.8 268.9
263(15) 0.00444 257.8 269.0
292(16) 0.00406 257.7 269.0
283(16) 0.00406 257.7 268.9
300(16) 0.00381 257.7 268.8
259(15) 0.00439 257.6 268.7
273(15) 0.00427 257.6 268.5
242(14) 0.00482 257.6 268.3
263(15) 0.00439 257.5 268.1
278(16) 0.00416 257.5 267.9
271(16) 0.00416 257.5 267.7
264(15) 0.00439 257.4 267.4
272(15) 0.00433 257.4 267.2
231(14) 0.00496 257.4 267.0
271(15) 0.00422 257.4 266.8
264(15) 0.00427 257.3 266.7
264(15) 0.00439 257.3 266.6
288(16) 0.00406 257.3 266.6
280(16) 0.00416 257.2 266.6
276(16) 0.00416 257.2 266.7
254(15) 0.00439 257.2 266.8
260(15) 0.00450 257.1 267.1
252(15) 0.00469 257.1 267.4
257(15) 0.00444 257.1 267.8
258(15) 0.00444 257.1 268.3
278(16) 0.00411 257.0 268.9
274(15) 0.00422 257.0 269.6
281(16) 0.00416 257.0 270.2
265(15) 0.00433 257.0 271.0
246(15) 0.00463 256.9 271.7
294(16) 0.00381 256.9 272.4
254(15) 0.00457 256.9 273.0
271(15) 0.00433 256.9 273.4
262(15) 0.00439 256.8 273.7
261(15) 0.00439 256.8 273.8
255(15) 0.00444 256.8 273.7
266(15) 0.00439 256.8 273.3
257(15) 0.00457 256.7 272.7
276(16) 0.00411 256.7 271.9
289(16) 0.00401 256.7 271.1
272(16) 0.00416 256.7 270.1
269(15) 0.00427 256.6 269.1
270(15) 0.00433 256.6 268.0
266(15) 0.00433 256.6 267.0
239(15) 0.00476 256.6 266.0
250(15) 0.00450 256.5 265.1
273(15) 0.00427 256.5 264.3
244(14) 0.00482 256.5 263.5
265(15) 0.00433 256.5 262.8
256(15) 0.00450 256.5 262.2
269(15) 0.00422 256.4 261.6
240(14) 0.00489 256.4 261.2
270(15) 0.00433 256.4 260.8
259(15) 0.00444 256.4 260.4
272(15) 0.00422 256.4 260.1
259(15) 0.00439 256.4 259.8
273(15) 0.00422 256.3 259.6
243(14) 0.00489 256.3 259.4
257(15) 0.00444 256.3 259.3
251(15) 0.00444 256.3 259.1
276(16) 0.00396 256.3 259.0
277(16) 0.00396 256.3 258.9
267(16) 0.00416 256.2 258.8
234(15) 0.00469 256.2 258.7
259(15) 0.00422 256.2 258.7
262(16) 0.00411 256.2 258.6
221(14) 0.00503 256.2 258.5
262(15) 0.00433 256.2 258.5
261(15) 0.00422 256.1 258.4
263(16) 0.00416 256.1 258.4
274(16) 0.00401 256.1 258.3
295(17) 0.00367 256.1 258.3
273(16) 0.00416 256.1 258.3
264(15) 0.00422 256.1 258.2
282(16) 0.00386 256.1 258.2
265(16) 0.00411 256.1 258.2
263(15) 0.00422 256.0 258.1
276(16) 0.00411 256.0 258.1
252(15) 0.00433 256.0 258.1
279(16) 0.00386 256.0 258.1
287(16) 0.00386 256.0 258.0
242(15) 0.00444 256.0 258.0
261(15) 0.00433 256.0 258.0
248(15) 0.00444 256.0 258.0
260(15) 0.00422 256.0 258.0
256(15) 0.00433 256.0 258.0
274(16) 0.00401 256.0 257.9
264(15) 0.00427 256.0 257.9
247(15) 0.00444 255.9 257.9
249(15) 0.00444 255.9 257.9
272(16) 0.00401 255.9 257.9
233(15) 0.00469 255.9 257.9
232(14) 0.00489 255.9 257.9
260(15) 0.00427 255.9 257.9
263(16) 0.00406 255.9 257.9
263(16) 0.00416 255.9 257.9
250(15) 0.00444 255.9 257.9
252(15) 0.00439 255.9 257.9
270(16) 0.00406 255.9 257.9
260(15) 0.00422 255.9 257.9
259(16) 0.00416 255.9 257.9
261(15) 0.00422 255.9 257.9
228(14) 0.00496 255.9 257.9
265(16) 0.00416 255.9 258.0
264(16) 0.00406 255.9 258.0
268(16) 0.00411 255.9 258.0
256(15) 0.00433 255.9 258.0
256(15) 0.00439 255.9 258.0
287(16) 0.00381 255.9 258.0
236(15) 0.00469 255.9 258.0
263(16) 0.00406 255.9 258.1
269(16) 0.00411 255.9 258.1
275(16) 0.00411 255.9 258.1
242(15) 0.00450 255.9 258.1
257(15) 0.00427 255.9 258.1
286(16) 0.00376 255.9 258.2
242(15) 0.00457 255.9 258.2
261(15) 0.00433 255.9 258.2
258(15) 0.00427 255.9 258.3
257(15) 0.00427 255.9 258.3
243(15) 0.00444 255.9 258.3
279(16) 0.00396 255.9 258.4
272(16) 0.00416 255.9 258.4
236(15) 0.00469 255.9 258.4
258(15) 0.00422 255.9 258.5
255(15) 0.00427 255.9 258.5
256(15) 0.00427 255.9 258.6
270(16) 0.00416 256.0 258.6
274(16) 0.00406 256.0 258.7
305(17) 0.00354 256.0 258.7
249(15) 0.00433 256.0 258.8
254(15) 0.00433 256.0 258.8
270(15) 0.00422 256.0 258.9
258(15) 0.00422 256.0 258.9
266(16) 0.00411 256.0 259.0
253(15) 0.00439 256.0 259.1
252(15) 0.00427 256.0 259.1
256(15) 0.00444 256.0 259.2
253(15) 0.00433 256.1 259.3
250(15) 0.00439 256.1 259.3
276(16) 0.00396 256.1 259.4
244(15) 0.00450 256.1 259.5
288(16) 0.00396 256.1 259.6
249(15) 0.00439 256.1 259.7
260(15) 0.00422 256.1 259.8
271(16) 0.00401 256.1 259.9
264(16) 0.00411 256.2 260.0
248(15) 0.00457 256.2 260.1
269(16) 0.00401 256.2 260.2
266(16) 0.00411 256.2 260.3
275(16) 0.00396 256.2 260.5
284(16) 0.00391 256.2 260.6
297(16) 0.00376 256.2 260.8
292(16) 0.00381 256.3 260.9
271(16) 0.00396 256.3 261.1
271(16) 0.00406 256.3 261.2
256(15) 0.00427 256.3 261.4
262(15) 0.00433 256.3 261.6
259(15) 0.00427 256.4 261.8
270(16) 0.00406 256.4 262.0
258(16) 0.00416 256.4 262.2
259(15) 0.00427 256.4 262.5
255(15) 0.00444 256.4 262.7
226(14) 0.00482 256.4 263.0
263(16) 0.00411 256.5 263.3
291(16) 0.00376 256.5 263.6
268(16) 0.00406 256.5 263.9
253(15) 0.00444 256.5 264.3
261(15) 0.00439 256.5 264.7
273(15) 0.00450 256.6 265.1
266(13) 0.00592 256.6 265.6
280(17) 0.003303 256.6 266.1
302(18) 0.003052 256.6 266.7
270(17) 0.003380 256.7 267.3
246(17) 0.00367 256.7 268.1
244(17) 0.00367 256.7 269.0
262(17) 0.00354 256.7 270.0
271(17) 0.003380 256.7 271.1
287(18) 0.003192 256.8 272.5
274(17) 0.003303 256.8 274.2
310(19) 0.002860 256.8 276.1
298(18) 0.003086 256.8 278.4
281(18) 0.003265 256.9 281.2
300(18) 0.003052 256.9 284.4
327(19) 0.002741 256.9 288.2
330(19) 0.002741 256.9 292.7
313(18) 0.002954 257.0 297.8
346(20) 0.002630 257.0 303.6
304(18) 0.003019 257.0 310.3
339(19) 0.002713 257.1 317.7
354(20) 0.002525 257.1 326.0
327(19) 0.002799 257.1 334.9
364(20) 0.002551 257.1 344.6
347(19) 0.002657 257.2 354.8
385(21) 0.002356 257.2 365.3
391(21) 0.002268 257.2 376.0
418(21) 0.002204 257.3 386.5
426(22) 0.002143 257.3 396.4
417(22) 0.002163 257.3 405.3
413(21) 0.002246 257.3 412.6
431(22) 0.002011 257.4 417.9
433(22) 0.002163 257.4 420.8
437(22) 0.002124 257.4 421.0
439(22) 0.002085 257.5 418.6
427(22) 0.002143 257.5 413.7
454(23) 0.001975 257.5 406.7
390(21) 0.002356 257.6 398.2
419(21) 0.002204 257.6 388.5
373(20) 0.002451 257.6 378.2
364(20) 0.002525 257.7 367.6
392(21) 0.002289 257.7 357.2
358(20) 0.002525 257.7 347.0
370(20) 0.002500 257.8 337.4
313(19) 0.002922 257.8 328.5
328(19) 0.002770 257.8 320.3
320(19) 0.002799 257.9 312.9
327(19) 0.002770 257.9 306.3
324(19) 0.002860 257.9 300.4
303(18) 0.003052 258.0 295.3
288(18) 0.003192 258.0 291.0
284(18) 0.003156 258.0 287.2
290(18) 0.003192 258.1 284.1
286(18) 0.003265 258.1 281.4
287(18) 0.003156 258.1 279.2
245(16) 0.00376 258.2 277.3
285(18) 0.003156 258.2 275.8
257(17) 0.003501 258.2 274.5
270(17) 0.003460 258.3 273.5
310(18) 0.002954 258.3 272.6
297(18) 0.003019 258.3 271.9
283(18) 0.003192 258.4 271.3
274(17) 0.003341 258.4 270.8
289(18) 0.003192 258.5 270.3
246(17) 0.00367 258.5 270.0
261(17) 0.00354 258.5 269.7
267(17) 0.003420 258.6 269.4
277(18) 0.003265 258.6 269.2
279(17) 0.003380 258.6 269.1
268(17) 0.003380 258.7 268.9
267(17) 0.003420 258.7 268.8
280(18) 0.003228 258.7 268.7
289(18) 0.003156 258.8 268.7
261(17) 0.00354 258.8 268.7
296(18) 0.003086 258.9 268.7
258(17) 0.00354 258.9 268.7
282(18) 0.003156 258.9 268.7
251(17) 0.00359 259.0 268.8
311(18) 0.003019 259.0 268.9
276(18) 0.003265 259.1 269.1
266(17) 0.003420 259.1 269.2
283(18) 0.003156 259.1 269.4
251(17) 0.00367 259.2 269.7
300(18) 0.003086 259.2 270.0
285(18) 0.003265 259.3 270.3
275(17) 0.003303 259.3 270.7
294(18) 0.003019 259.3 271.1
266(17) 0.003460 259.4 271.6
285(17) 0.003303 259.4 272.1
287(18) 0.003121 259.5 272.8
269(17) 0.003420 259.5 273.5
271(17) 0.003341 259.5 274.3
279(18) 0.003192 259.6 275.3
283(17) 0.003303 259.6 276.3
278(17) 0.003303 259.7 277.5
284(18) 0.003156 259.7 278.8
273(18) 0.003265 259.7 280.2
276(17) 0.003341 259.8 281.8
316(19) 0.002891 259.8 283.6
300(18) 0.003086 259.9 285.6
278(17) 0.003341 259.9 287.7
289(18) 0.003086 259.9 290.0
289(18) 0.003121 260.0 292.5
294(18) 0.003192 260.0 295.1
304(18) 0.002986 260.1 298.0
291(18) 0.003121 260.1 300.9
325(19) 0.002770 260.1 304.1
343(19) 0.002657 260.2 307.3
329(19) 0.002829 260.2 310.6
323(19) 0.002829 260.3 313.9
334(19) 0.002713 260.3 317.2
358(20) 0.002500 260.3 320.4
374(20) 0.002451 260.4 323.4
319(19) 0.002891 260.4 326.1
377(20) 0.002427 260.5 328.5
327(19) 0.002770 260.5 330.4
322(19) 0.002860 260.5 331.8
370(20) 0.002475 260.6 332.5
369(20) 0.002525 260.6 332.7
347(20) 0.002630 260.7 332.2
382(21) 0.002380 260.7 331.1
349(20) 0.002577 260.7 329.5
340(19) 0.002657 260.8 327.4
316(19) 0.002922 260.8 325.0
312(18) 0.002954 260.9 322.2
358(20) 0.002500 260.9 319.3
337(19) 0.002657 260.9 316.3
317(19) 0.002829 261.0 313.2
320(19) 0.002922 261.0 310.2
325(19) 0.002799 261.1 307.3
305(18) 0.002986 261.1 304.4
323(19) 0.002770 261.1 301.7
325(19) 0.002829 261.2 299.2
281(17) 0.003341 261.2 296.8
292(18) 0.003156 261.3 294.6
261(17) 0.003460 261.3 292.6
302(18) 0.002986 261.3 290.8
307(18) 0.002986 261.4 289.2
260(17) 0.00354 261.4 287.8
260(17) 0.003501 261.4 286.5
269(17) 0.003380 261.5 285.4
258(17) 0.003501 261.5 284.4
265(17) 0.003420 261.6 283.6
282(18) 0.003265 261.6 283.0
281(18) 0.003228 261.6 282.4
279(18) 0.003265 261.7 282.0
277(18) 0.003228 261.7 281.7
269(17) 0.003380 261.8 281.5
296(18) 0.003156 261.8 281.3
272(17) 0.003380 261.8 281.3
252(17) 0.00363 261.9 281.3
289(18) 0.003121 261.9 281.4
284(18) 0.003192 261.9 281.5
271(17) 0.003420 262.0 281.7
255(17) 0.00363 262.0 281.9
293(18) 0.003019 262.0 282.2
278(18) 0.003228 262.1 282.6
268(17) 0.003420 262.1 282.9
273(17) 0.003380 262.2 283.4
298(18) 0.003086 262.2 283.9
298(18) 0.003019 262.2 284.4
259(17) 0.003380 262.3 285.0
286(18) 0.003265 262.3 285.6
283(18) 0.003228 262.3 286.4
305(18) 0.002986 262.4 287.2
298(18) 0.003052 262.4 288.1
287(18) 0.003192 262.4 289.1
319(19) 0.002829 262.5 290.2
317(18) 0.002986 262.5 291.5
295(18) 0.003052 262.5 292.9
312(19) 0.002922 262.6 294.4
319(19) 0.002829 262.6 296.1
291(18) 0.003121 262.6 297.9
312(18) 0.002954 262.7 299.9
307(18) 0.002986 262.7 302.1
343(19) 0.002657 262.7 304.4
306(19) 0.002891 262.8 306.9
311(19) 0.002922 262.8 309.5
336(19) 0.002770 262.8 312.3
322(19) 0.002799 262.8 315.1
304(18) 0.003019 262.9 318.1
310(19) 0.002860 262.9 321.0
362(20) 0.002577 262.9 323.9
337(19) 0.002799 263.0 326.8
358(20) 0.002551 263.0 329.4
336(19) 0.002713 263.0 331.8
332(19) 0.002657 263.0 333.9
344(19) 0.002685 263.1 335.6
381(20) 0.002403 263.1 336.9
374(20) 0.002427 263.1 337.6
335(19) 0.002741 263.2 337.8
355(20) 0.002500 263.2 337.6
369(20) 0.002500 263.2 336.8
366(20) 0.002525 263.2 335.6
352(20) 0.002577 263.3 334.1
344(19) 0.002657 263.3 332.4
339(20) 0.002630 263.3 330.4
349(20) 0.002630 263.3 328.4
342(19) 0.002713 263.4 326.2
322(19) 0.002860 263.4 324.1
359(20) 0.002577 263.4 322.0
332(19) 0.002713 263.4 320.0
307(19) 0.002922 263.5 318.1
312(18) 0.002986 263.5 316.2
323(19) 0.002829 263.5 314.5
294(18) 0.003052 263.5 312.9
340(20) 0.002630 263.5 311.3
324(19) 0.002829 263.6 309.9
327(19) 0.002829 263.6 308.6
295(18) 0.003052 263.6 307.4
320(19) 0.002860 263.6 306.2
309(19) 0.002860 263.6 305.2
331(19) 0.002741 263.7 304.2
300(18) 0.003121 263.7 303.2
291(18) 0.003086 263.7 302.4
297(18) 0.003086 263.7 301.6
294(18) 0.003121 263.7 300.8
282(18) 0.003265 263.7 300.2
280(17) 0.003303 263.8 299.5
293(18) 0.003121 263.8 298.9
306(18) 0.002986 263.8 298.3
320(19) 0.002770 263.8 297.7
298(18) 0.003052 263.8 297.2
313(18) 0.002954 263.8 296.6
310(18) 0.002954 263.9 296.0
273(18) 0.003265 263.9 295.3
286(18) 0.003156 263.9 294.6
276(17) 0.003303 263.9 293.8
287(18) 0.003156 263.9 292.9
265(17) 0.003501 263.9 291.9
298(18) 0.003052 263.9 290.9
275(18) 0.003228 263.9 289.8
278(17) 0.003303 263.9 288.7
272(17) 0.003501 264.0 287.5
266(17) 0.003460 264.0 286.3
265(17) 0.003420 264.0 285.2
292(18) 0.003121 264.0 284.0
288(18) 0.003121 264.0 282.9
273(17) 0.003380 264.0 281.9
255(17) 0.00363 264.0 280.8
285(18) 0.003156 264.0 279.9
268(17) 0.003341 264.0 278.9
251(16) 0.00372 264.0 278.1
268(17) 0.003380 264.0 277.3
281(18) 0.003228 264.0 276.5
263(17) 0.003501 264.0 275.8
250(17) 0.00354 264.0 275.2
250(17) 0.00367 264.0 274.6
278(17) 0.003341 264.0 274.0
252(17) 0.00363 264.0 273.5
273(17) 0.003420 264.0 273.0
235(16) 0.00376 264.0 272.6
267(17) 0.003420 264.0 272.2
257(17) 0.00363 264.0 271.8
278(18) 0.003228 264.0 271.5
270(17) 0.003380 264.0 271.2
253(17) 0.003501 264.0 270.9
261(17) 0.003460 264.0 270.7
237(16) 0.00396 264.0 270.4
268(17) 0.003420 264.0 270.2
252(17) 0.00354 264.0 270.0
272(17) 0.003303 264.0 269.8
247(17) 0.00367 264.0 269.6
271(17) 0.003380 264.0 269.5
265(17) 0.003460 264.0 269.3
268(17) 0.003420 264.0 269.1
274(18) 0.003265 264.0 269.0
259(17) 0.00359 264.0 268.9
255(17) 0.00363 264.0 268.7
274(17) 0.003341 264.0 268.6
259(17) 0.003501 263.9 268.5
287(18) 0.003121 263.9 268.4
224(16) 0.00406 263.9 268.3
253(17) 0.00363 263.9 268.2
290(18) 0.003156 263.9 268.1
257(17) 0.00359 263.9 268.0
242(17) 0.00367 263.9 267.9
250(17) 0.00363 263.9 267.8
265(17) 0.003501 263.9 267.7
237(16) 0.00386 263.8 267.6
231(16) 0.00391 263.8 267.6
255(17) 0.003501 263.8 267.5
285(18) 0.003228 263.8 267.4
278(17) 0.003380 263.8 267.3
269(17) 0.003420 263.8 267.3
285(18) 0.003228 263.7 267.2
265(17) 0.003341 263.7 267.1
251(17) 0.00367 263.7 267.1
261(17) 0.00354 263.7 267.0
267(17) 0.003341 263.7 266.9
265(17) 0.003460 263.6 266.9
231(16) 0.00386 263.6 266.8
302(18) 0.003019 263.6 266.8
257(17) 0.00363 263.6 266.7
249(17) 0.00363 263.6 266.6
258(17) 0.003501 263.5 266.6
253(17) 0.00354 263.5 266.5
251(17) 0.00363 263.5 266.5
242(16) 0.00386 263.5 266.4
248(17) 0.00367 263.4 266.4
251(16) 0.00372 263.4 266.3
254(17) 0.003501 263.4 266.3
260(17) 0.003501 263.3 266.2
253(17) 0.00367 263.3 266.2
218(16) 0.00416 263.3 266.1
230(16) 0.00396 263.3 266.1
259(17) 0.003460 263.2 266.1
267(17) 0.003380 263.2 266.0
237(16) 0.00396 263.2 266.0
261(17) 0.003501 263.1 265.9
252(17) 0.00363 263.1 265.9
275(18) 0.003228 263.1 265.9
273(17) 0.003341 263.0 265.8
282(18) 0.003265 263.0 265.8
257(17) 0.00359 263.0 265.8
251(17) 0.00363 262.9 265.8
256(17) 0.00354 262.9 265.7
272(17) 0.003420 262.9 265.7
252(17) 0.00367 262.8 265.7
269(17) 0.003420 262.8 265.7
240(16) 0.00381 262.8 265.7
241(17) 0.00367 262.7 265.7
285(18) 0.003192 262.7 265.7
267(17) 0.003501 262.6 265.7
252(17) 0.00359 262.6 265.7
255(17) 0.00359 262.6 265.7
244(16) 0.00372 262.5 265.7
265(17) 0.003420 262.5 265.7
247(16) 0.00376 262.4 265.7
265(17) 0.003420 262.4 265.7
251(17) 0.00363 262.4 265.8
254(17) 0.003501 262.3 265.8
266(17) 0.003460 262.3 265.9
259(17) 0.00363 262.2 265.9
263(17) 0.00354 262.2 265.9
254(17) 0.00359 262.1 266.0
268(17) 0.003341 262.1 266.1
248(16) 0.00372 262.1 266.1
251(16) 0.00372 262.0 266.2
230(16) 0.00396 262.0 266.2
266(17) 0.003380 261.9 266.3
259(17) 0.003460 261.9 266.4
254(17) 0.00367 261.8 266.5
271(17) 0.003341 261.8 266.6
258(17) 0.00359 261.7 266.7
260(17) 0.003460 261.7 266.8
254(17) 0.00354 261.6 267.0
257(17) 0.00354 261.6 267.2
269(17) 0.003460 261.5 267.4
266(17) 0.003501 261.5 267.7
255(17) 0.00359 261.4 268.0
291(18) 0.003121 261.4 268.3
264(17) 0.003460 261.3 268.7
248(16) 0.00372 261.3 269.1
264(17) 0.003501 261.2 269.6
245(17) 0.00367 261.2 270.0
276(18) 0.003265 261.1 270.5
264(17) 0.003420 261.1 271.0
267(17) 0.003501 261.0 271.5
255(17) 0.00363 260.9 271.9
304(18) 0.002954 260.9 272.3
270(17) 0.003341 260.8 272.5
264(17) 0.003420 260.8 272.7
259(17) 0.00359 260.7 272.7
273(17) 0.003303 260.7 272.6
246(16) 0.00372 260.6 272.4
279(18) 0.003228 260.5 272.0
237(16) 0.00381 260.5 271.6
249(16) 0.00376 260.4 271.0
256(17) 0.00359 260.4 270.4
252(17) 0.00359 260.3 269.8
252(17) 0.00359 260.3 269.2
272(17) 0.003303 260.2 268.6
265(17) 0.003501 260.1 268.0
272(17) 0.003380 260.1 267.4
255(17) 0.00354 260.0 266.9
260(17) 0.003420 259.9 266.4
263(17) 0.003420 259.9 265.9
294(18) 0.003156 259.8 265.6
267(17) 0.003420 259.8 265.2
265(17) 0.003420 259.7 264.9
297(18) 0.003019 259.6 264.7
267(17) 0.003420 259.6 264.4
253(17) 0.00367 259.5 264.3
263(17) 0.003501 259.5 264.2
268(17) 0.003341 259.4 264.1
277(18) 0.003265 259.3 264.1
270(17) 0.003380 259.3 264.2
263(17) 0.00354 259.2 264.3
242(16) 0.00376 259.1 264.5
276(17) 0.003303 259.1 264.9
254(17) 0.00354 259.0 265.4
274(17) 0.003303 258.9 266.0
260(17) 0.00359 258.9 267.0
275(17) 0.003303 258.8 268.1
291(18) 0.003086 258.7 269.7
312(19) 0.002860 258.7 271.5
258(17) 0.003501 258.6 273.8
239(16) 0.00391 258.5 276.5
277(17) 0.003303 258.5 279.7
278(18) 0.003228 258.4 283.3
260(17) 0.003501 258.3 287.2
276(17) 0.003303 258.3 291.4
295(18) 0.003156 258.2 295.8
280(18) 0.003265 258.1 300.2
262(17) 0.003420 258.1 304.4
281(18) 0.003192 258.0 308.1
301(18) 0.002986 257.9 311.1
314(18) 0.002954 257.9 313.2
297(18) 0.003052 257.8 314.1
292(18) 0.003121 257.7 313.7
286(18) 0.003121 257.7 312.2
304(19) 0.002922 257.6 309.6
312(18) 0.003019 257.5 306.1
304(18) 0.002986 257.5 302.0
277(18) 0.003265 257.4 297.6
293(18) 0.003121 257.3 293.0
289(18) 0.003156 257.3 288.5
293(18) 0.003156 257.2 284.3
267(17) 0.003501 257.1 280.3
267(17) 0.003380 257.1 276.8
286(18) 0.003086 257.0 273.7
269(17) 0.003420 256.9 271.0
288(18) 0.003228 256.9 268.7
286(18) 0.003156 256.8 266.9
280(18) 0.003228 256.7 265.3
298(18) 0.003019 256.7 264.1
263(17) 0.003460 256.6 263.1
277(17) 0.003303 256.5 262.4
247(17) 0.00367 256.5 261.8
256(17) 0.00354 256.4 261.3
243(17) 0.00367 256.4 260.9
235(16) 0.00391 256.3 260.6
249(17) 0.00354 256.2 260.3
270(18) 0.003265 256.2 260.1
236(17) 0.00367 256.1 259.9
263(18) 0.003228 256.0 259.8
274(18) 0.003228 256.0 259.6
271(18) 0.003228 255.9 259.5
269(18) 0.003228 255.8 259.4
253(17) 0.003420 255.8 259.3
242(17) 0.003460 255.7 259.2
233(16) 0.00372 255.6 259.1
260(17) 0.003380 255.6 259.0
267(18) 0.003228 255.5 259.0
263(18) 0.003265 255.5 258.9
271(18) 0.003121 255.4 258.8
258(17) 0.003380 255.3 258.8
257(17) 0.003420 255.3 258.7
285(18) 0.003052 255.2 258.7
236(16) 0.00372 255.1 258.6
273(18) 0.003086 255.1 258.6
242(17) 0.00363 255.0 258.6
230(16) 0.00391 255.0 258.6
268(18) 0.003228 254.9 258.6
249(17) 0.003420 254.8 258.6
265(18) 0.003265 254.8 258.6
267(18) 0.003265 254.7 258.6
266(18) 0.003265 254.7 258.6
252(17) 0.003460 254.6 258.6
248(17) 0.003501 254.6 258.7
256(18) 0.003265 254.5 258.7
247(17) 0.00354 254.4 258.8
264(17) 0.003303 254.4 258.9
235(17) 0.00367 254.3 259.1
273(18) 0.003156 254.3 259.2
262(18) 0.003265 254.2 259.4
269(18) 0.003228 254.2 259.7
249(17) 0.00354 254.1 260.0
242(17) 0.00367 254.1 260.4
262(18) 0.003265 254.0 260.8
259(18) 0.003265 254.0 261.4
248(17) 0.00354 253.9 262.1
276(18) 0.003192 253.9 262.9
256(17) 0.003380 253.8 263.9
277(18) 0.003121 253.8 265.0
272(18) 0.003121 253.7 266.3
286(18) 0.002986 253.7 267.9
284(18) 0.003121 253.6 269.6
295(18) 0.002954 253.6 271.5
310(19) 0.002741 253.5 273.6
282(18) 0.003019 253.5 275.9
296(18) 0.002954 253.5 278.3
310(19) 0.002891 253.4 280.9
330(20) 0.002603 253.4 283.5
324(19) 0.002685 253.3 286.1
309(19) 0.002799 253.3 288.6
306(19) 0.002799 253.2 291.0
297(18) 0.002954 253.2 293.0
309(19) 0.002829 253.2 294.6
337(20) 0.002551 253.1 295.6
316(19) 0.002657 253.1 296.0
335(20) 0.002577 253.1 295.7
312(19) 0.002829 253.0 294.8
327(20) 0.002630 253.0 293.3
309(19) 0.002770 252.9 291.3
303(19) 0.002799 252.9 289.0
285(18) 0.003019 252.9 286.5
295(18) 0.003019 252.9 283.8
327(19) 0.002657 252.8 281.1
319(19) 0.002685 252.8 278.5
264(18) 0.003265 252.8 276.0
303(19) 0.002860 252.7 273.6
265(17) 0.003380 252.7 271.4
289(18) 0.003052 252.7 269.4
307(19) 0.002741 252.7 267.6
272(18) 0.003121 252.6 266.0
286(18) 0.003052 252.6 264.6
295(18) 0.002986 252.6 263.4
250(17) 0.003420 252.6 262.3
262(17) 0.003341 252.6 261.4
265(18) 0.003228 252.5 260.7
264(18) 0.003265 252.5 260.0
262(17) 0.003341 252.5 259.5
269(18) 0.003228 252.5 259.1
280(18) 0.003086 252.5 258.7
311(19) 0.002741 252.5 258.4
279(18) 0.003121 252.4 258.1
249(17) 0.00354 252.4 257.9
252(17) 0.00354 252.4 257.8
277(18) 0.003121 252.4 257.6
283(18) 0.002986 252.4 257.5
273(18) 0.003192 252.4 257.4
269(18) 0.003265 252.4 257.3
252(17) 0.003420 252.4 257.2
268(18) 0.003192 252.4 257.2
267(18) 0.003192 252.4 257.1
251(17) 0.003460 252.4 257.1
240(17) 0.00363 252.4 257.0
256(17) 0.003420 252.4 257.0
245(17) 0.003460 252.4 257.0
261(18) 0.003228 252.4 257.0
280(18) 0.003121 252.4 257.0
240(17) 0.00367 252.4 257.0
239(17) 0.00363 252.4 257.0
269(18) 0.003265 252.4 257.0
260(17) 0.003303 252.4 257.1
225(16) 0.00391 252.4 257.1
285(18) 0.003086 252.4 257.1
281(18) 0.003086 252.5 257.2
251(17) 0.003420 252.5 257.2
234(17) 0.00363 252.5 257.3
260(17) 0.003380 252.5 257.3
277(18) 0.003156 252.5 257.4
253(17) 0.003460 252.5 257.5
227(16) 0.00381 252.6 257.5
269(18) 0.003121 252.6 257.6
253(17) 0.003420 252.6 257.7
233(16) 0.00381 252.6 257.8
261(17) 0.003341 252.7 257.9
270(18) 0.003156 252.7 258.0
285(18) 0.002986 252.7 258.1
258(17) 0.003420 252.8 258.2
247(17) 0.00359 252.8 258.4
262(17) 0.003303 252.8 258.5
245(17) 0.00367 252.9 258.6
234(16) 0.00411 252.9 258.8
275(15) 0.00476 252.9 258.9
257(19) 0.002829 253.0 259.1
289(21) 0.002380 253.0 259.3
291(21) 0.002380 253.1 259.5
291(20) 0.002403 253.1 259.7
270(20) 0.002577 253.1 259.9
258(19) 0.002770 253.2 260.1
250(19) 0.002770 253.2 260.4
260(19) 0.002713 253.3 260.6
238(19) 0.002922 253.3 260.9
263(19) 0.002685 253.4 261.2
261(19) 0.002741 253.4 261.5
272(20) 0.002577 253.5 261.9
274(20) 0.002551 253.6 262.3
250(19) 0.002741 253.6 262.7
287(20) 0.002451 253.7 263.2
253(19) 0.002860 253.7 263.7
263(20) 0.002603 253.8 264.3
264(19) 0.002657 253.9 265.1
278(20) 0.002500 253.9 265.9
250(19) 0.002770 254.0 266.8
270(19) 0.002685 254.1 267.9
309(21) 0.002225 254.1 269.1
302(21) 0.002246 254.2 270.6
277(20) 0.002551 254.3 272.3
279(20) 0.002475 254.3 274.2
280(20) 0.002603 254.4 276.5
298(21) 0.002334 254.5 279.0
299(21) 0.002334 254.6 281.8
307(21) 0.002311 254.7 285.0
279(20) 0.002525 254.7 288.5
299(21) 0.002380 254.8 292.3
296(21) 0.002356 254.9 296.5
302(21) 0.002289 255.0 300.8
279(20) 0.002500 255.1 305.3
306(21) 0.002225 255.2 309.9
327(21) 0.002225 255.3 314.5
332(22) 0.002085 255.4 318.9
360(23) 0.001907 255.4 323.0
350(23) 0.001975 255.5 326.5
348(22) 0.002029 255.6 329.3
309(21) 0.002311 255.7 331.2
320(21) 0.002184 255.8 332.0
342(22) 0.002011 255.9 331.7
332(22) 0.002104 256.0 330.5
341(22) 0.002104 256.1 328.3
385(23) 0.001858 256.2 325.4
320(21) 0.002184 256.4 321.9
322(22) 0.002163 256.5 318.1
319(22) 0.002163 256.6 314.1
315(21) 0.002225 256.7 310.1
304(21) 0.002356 256.8 306.2
299(21) 0.002334 256.9 302.5
278(20) 0.002500 257.0 299.0
310(21) 0.002246 257.1 295.9
326(22) 0.002143 257.3 293.0
314(21) 0.002246 257.4 290.5
319(21) 0.002225 257.5 288.3
289(20) 0.002403 257.6 286.5
302(21) 0.002289 257.7 285.0
322(21) 0.002225 257.9 283.7
306(21) 0.002334 258.0 282.8
292(20) 0.002427 258.1 282.1
300(21) 0.002311 258.3 281.7
270(20) 0.002551 258.4 281.4
285(20) 0.002475 258.5 281.4
305(21) 0.002334 258.6 281.5
301(21) 0.002311 258.8 281.8
318(21) 0.002184 258.9 282.2
273(20) 0.002525 259.1 282.7
302(21) 0.002334 259.2 283.3
295(21) 0.002380 259.3 284.1
270(20) 0.002577 259.5 284.9
278(20) 0.002475 259.6 285.9
292(21) 0.002380 259.8 286.9
284(20) 0.002500 259.9 288.1
322(21) 0.002225 260.0 289.3
308(21) 0.002225 260.2 290.6
289(20) 0.002451 260.3 292.1
301(21) 0.002289 260.5 293.6
287(20) 0.002475 260.6 295.2
326(22) 0.002163 260.8 297.0
270(20) 0.002630 260.9 298.8
323(22) 0.002143 261.1 300.7
308(21) 0.002225 261.2 302.7
310(21) 0.002289 261.4 304.8
321(21) 0.002246 261.6 307.0
328(22) 0.002066 261.7 309.3
313(21) 0.002246 261.9 311.7
329(22) 0.002085 262.0 314.1
303(21) 0.002311 262.2 316.6
319(21) 0.002246 262.4 319.2
313(21) 0.002225 262.5 321.8
340(22) 0.002029 262.7 324.4
361(23) 0.001907 262.8 327.1
373(23) 0.001924 263.0 329.8
363(23) 0.001958 263.2 332.4
377(24) 0.001811 263.3 335.1
368(23) 0.001941 263.5 337.7
396(24) 0.001736 263.7 340.3
346(22) 0.002011 263.8 342.9
386(23) 0.001874 264.0 345.5
382(24) 0.001811 264.2 348.0
373(23) 0.001858 264.4 350.5
367(23) 0.001890 264.5 353.1
368(23) 0.001924 264.7 355.7
356(23) 0.001975 264.9 358.3
389(24) 0.001795 265.0 361.1
380(23) 0.001842 265.2 364.0
339(22) 0.002011 265.4 367.1
341(22) 0.002085 265.6 370.3
427(25) 0.001666 265.7 373.7
401(24) 0.001751 265.9 377.4
398(24) 0.001736 266.1 381.3
392(24) 0.001736 266.3 385.5
419(24) 0.001680 266.5 389.8
413(24) 0.001736 266.6 394.4
453(26) 0.001514 266.8 399.3
467(26) 0.001502 267.0 404.2
448(26) 0.001538 267.2 409.3
434(25) 0.001613 267.4 414.5
442(25) 0.001600 267.5 419.5
407(24) 0.001722 267.7 424.5
438(25) 0.001562 267.9 429.1
438(25) 0.001587 268.1 433.4
490(26) 0.001446 268.2 437.2
468(26) 0.001514 268.4 440.3
459(26) 0.001502 268.6 442.6
466(26) 0.001514 268.8 444.1
471(26) 0.001446 269.0 444.6
474(26) 0.001491 269.1 444.2
469(26) 0.001502 269.3 442.8
468(26) 0.001502 269.5 440.4
469(26) 0.001479 269.7 437.1
410(24) 0.001694 269.9 433.1
423(25) 0.001666 270.0 428.3
480(26) 0.001479 270.2 423.0
413(24) 0.001680 270.4 417.1
430(25) 0.001613 270.6 410.9
413(25) 0.001652 270.8 404.5
396(24) 0.001780 270.9 398.0
395(23) 0.001826 271.1 391.3
373(23) 0.001858 271.3 384.8
400(24) 0.001736 271.5 378.3
371(23) 0.001874 271.6 372.0
358(23) 0.001958 271.8 365.9
366(23) 0.001941 272.0 360.1
366(23) 0.001858 272.2 354.5
323(21) 0.002184 272.3 349.2
335(22) 0.002047 272.5 344.3
338(22) 0.002066 272.7 339.6
278(20) 0.002603 272.9 335.3
306(21) 0.002225 273.0 331.3
332(22) 0.002104 273.2 327.6
310(21) 0.002268 273.4 324.2
327(22) 0.002104 273.5 321.1
295(20) 0.002451 273.7 318.3
289(21) 0.002380 273.9 315.7
296(21) 0.002356 274.0 313.3
290(20) 0.002403 274.2 311.2
280(20) 0.002500 274.3 309.3
318(21) 0.002268 274.5 307.6
311(21) 0.002225 274.7 306.1
287(21) 0.002380 274.8 304.8
318(21) 0.002225 275.0 303.6
299(21) 0.002311 275.1 302.5
283(20) 0.002551 275.3 301.6
276(20) 0.002525 275.4 300.7
294(21) 0.002334 275.6 300.0
271(20) 0.002577 275.7 299.4
279(20) 0.002500 275.9 298.9
297(21) 0.002380 276.0 298.4
291(21) 0.002380 276.2 298.0
280(20) 0.002451 276.3 297.7
253(19) 0.002770 276.5 297.4
260(19) 0.002713 276.6 297.2
279(20) 0.002551 276.7 297.0
290(21) 0.002380 276.9 296.9
304(21) 0.002311 277.0 296.8
281(20) 0.002451 277.1 296.8
273(20) 0.002551 277.3 296.8
273(20) 0.002630 277.4 296.9
278(20) 0.002500 277.5 297.0
299(21) 0.002289 277.6 297.2
311(21) 0.002268 277.8 297.4
278(20) 0.002500 277.9 297.7
304(21) 0.002334 278.0 298.1
255(19) 0.002770 278.1 298.5
264(20) 0.002577 278.2 299.0
287(20) 0.002403 278.3 299.7
268(19) 0.002657 278.4 300.4
301(21) 0.002334 278.5 301.2
284(20) 0.002475 278.6 302.2
268(20) 0.002551 278.7 303.3
255(19) 0.002713 278.8 304.6
255(19) 0.002799 278.9 306.1
299(21) 0.002356 279.0 307.8
275(20) 0.002525 279.1 309.6
273(20) 0.002500 279.2 311.7
275(20) 0.002551 279.2 314.0
297(21) 0.002380 279.3 316.6
271(20) 0.002577 279.4 319.4
300(21) 0.002356 279.5 322.5
325(22) 0.002124 279.5 325.9
325(22) 0.002104 279.6 329.6
317(21) 0.002225 279.7 333.4
315(21) 0.002246 279.7 337.5
276(20) 0.002500 279.8 341.9
323(21) 0.002184 279.8 346.4
340(22) 0.002047 279.9 351.1
342(22) 0.002029 279.9 355.8
333(21) 0.002184 280.0 360.4
368(23) 0.001890 280.0 365.0
378(24) 0.001811 280.0 369.4
359(23) 0.001941 280.1 373.4
385(23) 0.001842 280.1 377.0
381(23) 0.001858 280.1 379.9
426(25) 0.001613 280.1 382.0
360(23) 0.001958 280.1 383.3
392(24) 0.001751 280.2 383.7
403(24) 0.001736 280.2 383.1
433(24) 0.001680 280.2 381.7
419(25) 0.001613 280.2 379.4
402(24) 0.001736 280.2 376.4
370(23) 0.001874 280.1 372.9
352(22) 0.002011 280.1 369.0
372(23) 0.001907 280.1 364.8
328(22) 0.002104 280.1 360.4
370(23) 0.001907 280.1 355.9
372(23) 0.001858 280.0 351.5
375(23) 0.001842 280.0 347.3
320(21) 0.002268 280.0 343.2
310(21) 0.002225 279.9 339.3
301(21) 0.002311 279.9 335.6
303(21) 0.002268 279.8 332.2
278(20) 0.002500 279.8 329.1
289(20) 0.002500 279.7 326.2
285(20) 0.002403 279.7 323.7
307(21) 0.002268 279.6 321.4
318(21) 0.002184 279.5 319.4
306(21) 0.002246 279.4 317.7
276(19) 0.002657 279.4 316.2
306(21) 0.002246 279.3 314.9
320(22) 0.002163 279.2 313.9
309(21) 0.002268 279.1 313.1
306(21) 0.002311 279.0 312.4
313(21) 0.002268 278.9 311.9
294(21) 0.002356 278.8 311.6
310(21) 0.002225 278.6 311.4
340(22) 0.002047 278.5 311.4
275(20) 0.002525 278.4 311.4
316(21) 0.002246 278.3 311.6
309(21) 0.002268 278.1 311.8
327(22) 0.002124 278.0 312.1
367(23) 0.001874 277.9 312.6
352(22) 0.001993 277.7 313.0
338(22) 0.002104 277.6 313.6
321(22) 0.002143 277.4 314.3
343(22) 0.002029 277.2 315.0
323(22) 0.002143 277.1 315.9
333(22) 0.002124 276.9 316.8
338(22) 0.002163 276.7 317.8
289(21) 0.002356 276.5 318.9
322(22) 0.002143 276.3 320.2
332(22) 0.002104 276.1 321.5
321(22) 0.002163 276.0 322.8
354(22) 0.002029 275.8 324.3
355(23) 0.001941 275.5 325.8
321(22) 0.002143 275.3 327.2
341(22) 0.002047 275.1 328.6
343(22) 0.002029 274.9 329.9
352(22) 0.002029 274.7 331.0
352(23) 0.001941 274.4 331.8
364(23) 0.001890 274.2 332.3
348(23) 0.001975 274.0 332.5
352(22) 0.002029 273.7 332.3
331(22) 0.002143 273.5 331.8
349(22) 0.002011 273.2 331.2
311(21) 0.002246 273.0 330.4
334(22) 0.002066 272.7 329.5
320(22) 0.002163 272.4 328.7
335(22) 0.002143 272.1 328.0
345(22) 0.001993 271.9 327.3
314(21) 0.002225 271.6 326.8
330(22) 0.002085 271.3 326.4
300(21) 0.002356 271.0 326.1
322(21) 0.002225 270.7 325.9
298(21) 0.002289 270.4 325.7
321(22) 0.002143 270.1 325.6
339(22) 0.002047 269.8 325.4
317(21) 0.002184 269.5 325.1
332(21) 0.002184 269.2 324.7
321(22) 0.002163 268.9 324.0
313(21) 0.002225 268.5 323.1
278(20) 0.002500 268.2 321.8
325(21) 0.002184 267.9 320.1
303(21) 0.002356 267.6 318.1
313(21) 0.002184 267.2 315.8
330(22) 0.002124 266.9 313.1
260(19) 0.002657 266.5 310.3
309(21) 0.002225 266.2 307.4
302(20) 0.002403 265.8 304.4
296(21) 0.002334 265.5 301.4
289(21) 0.002380 265.1 298.5
289(21) 0.002380 264.8 295.6
280(20) 0.002500 264.4 292.9
283(20) 0.002500 264.1 290.4
285(20) 0.002427 263.7 288.0
272(20) 0.002577 263.3 285.7
295(21) 0.002380 263.0 283.6
283(20) 0.002451 262.6 281.7
274(19) 0.002657 262.2 280.0
278(20) 0.002475 261.8 278.4
276(20) 0.002475 261.5 276.9
235(18) 0.002954 261.1 275.6
266(20) 0.002630 260.7 274.4
227(18) 0.003121 260.3 273.3
246(19) 0.002829 259.9 272.2
287(21) 0.002380 259.6 271.3
264(19) 0.002657 259.2 270.5
273(20) 0.002525 258.8 269.7
261(19) 0.002713 258.4 269.0
266(20) 0.002603 258.0 268.3
268(20) 0.002551 257.7 267.7
272(20) 0.002525 257.3 267.1
279(20) 0.002577 256.9 266.6
282(20) 0.002525 256.5 266.1
261(19) 0.002685 256.1 265.6
245(19) 0.002829 255.8 265.1
251(19) 0.002799 255.4 264.7
298(21) 0.002311 255.0 264.3
261(19) 0.002770 254.6 263.9
266(20) 0.002551 254.3 263.6
293(21) 0.002380 253.9 263.3
264(20) 0.002630 253.5 263.0
260(19) 0.002713 253.2 262.8
269(19) 0.002657 252.8 262.6
285(20) 0.002427 252.5 262.4
274(20) 0.002525 252.1 262.3
227(18) 0.003019 251.8 262.2
244(19) 0.002829 251.4 262.1
282(20) 0.002551 251.1 262.1
309(21) 0.002204 250.8 262.2
277(20) 0.002500 250.4 262.3
260(19) 0.002685 250.1 262.4
272(20) 0.002577 249.8 262.6
264(19) 0.002685 249.5 262.9
274(20) 0.002551 249.2 263.2
267(20) 0.002551 248.9 263.6
272(20) 0.002551 248.6 264.0
290(20) 0.002451 248.3 264.5
270(20) 0.002630 248.1 265.0
261(20) 0.002630 247.8 265.6
294(21) 0.002334 247.6 266.3
303(21) 0.002289 247.3 267.0
298(21) 0.002334 247.1 267.7
298(21) 0.002356 246.9 268.4
313(21) 0.002246 246.7 269.1
317(22) 0.002163 246.5 269.8
320(22) 0.002163 246.3 270.5
280(20) 0.002551 246.1 271.2
297(20) 0.002403 245.9 271.7
287(21) 0.002380 245.8 272.2
278(20) 0.002500 245.7 272.6
288(20) 0.002403 245.5 272.8
252(19) 0.002770 245.4 272.9
275(20) 0.002577 245.4 272.9
303(21) 0.002311 245.3 272.7
307(21) 0.002225 245.2 272.4
306(21) 0.002268 245.2 271.9
285(20) 0.002475 245.2 271.4
324(22) 0.002163 245.2 270.7
280(20) 0.002475 245.2 270.0
306(21) 0.002246 245.2 269.3
262(20) 0.002630 245.3 268.5
293(20) 0.002427 245.3 267.8
263(19) 0.002685 245.4 267.1
316(21) 0.002225 245.6 266.4
256(19) 0.002685 245.7 265.8
254(19) 0.002713 245.9 265.2
275(20) 0.002551 246.1 264.7
288(20) 0.002451 246.3 264.3
283(20) 0.002451 246.5 263.9
287(21) 0.002380 246.8 263.7
254(19) 0.002713 247.1 263.5
274(20) 0.002577 247.4 263.5
275(20) 0.002577 247.7 263.5
270(20) 0.002551 248.1 263.6
267(20) 0.002551 248.5 263.8
258(19) 0.002657 249.0 264.2
298(21) 0.002380 249.4 264.6
260(19) 0.002685 249.9 265.2
269(20) 0.002577 250.5 265.9
262(19) 0.002713 251.0 266.7
271(20) 0.002525 251.6 267.7
285(20) 0.002475 252.3 268.8
222(18) 0.003228 252.9 270.1
299(21) 0.002289 253.7 271.6
282(20) 0.002451 254.4 273.2
257(19) 0.002657 255.2 275.1
252(19) 0.002799 256.0 277.2
264(19) 0.002685 256.9 279.5
265(20) 0.002577 257.8 282.1
259(19) 0.002685 258.8 285.0
314(22) 0.002163 259.8 288.2
303(21) 0.002311 260.9 291.7
266(19) 0.002713 261.9 295.5
319(22) 0.002124 263.1 299.7
316(21) 0.002204 264.3 304.2
331(22) 0.002085 265.5 309.1
281(20) 0.002500 266.8 314.3
307(21) 0.002356 268.2 319.9
372(23) 0.001842 269.6 325.8
343(22) 0.002011 271.0 332.0
289(21) 0.002380 272.6 338.5
358(23) 0.001975 274.1 345.1
358(23) 0.001975 275.8 351.9
338(22) 0.001993 277.4 358.6
372(23) 0.001924 279.2 365.3
368(23) 0.001842 281.0 371.7
373(23) 0.001842 282.9 377.7
352(22) 0.002066 284.8 383.3
344(23) 0.001958 286.8 388.2
412(25) 0.001652 288.9 392.5
338(22) 0.002085 291.1 396.0
395(24) 0.001751 293.3 398.9
368(23) 0.001958 295.6 401.2
344(22) 0.002011 297.9 403.1
384(23) . . .
404(24) . . .
372(23) . . .
355(22) . . .
350(23) . . .
419(25) . . .
331(22) . . .
346(23) . . .
357(23) . . .
347(23) . . .
325(22) . . .
326(22) . . .
269(20) . . .
304(21) . . .
312(22) . . .
306(22) . . .
317(22) . . .
310(22) . . .
271(20) . . .
236(19) . . .
282(21) . . .
292(21) . . .
287(21) . . .
260(20) . . .
279(21) . . .
302(22) . . .
268(20) . . .
265(20) . . .
253(20) . . .
270(20) . . .
260(20) . . .
268(20) . . .
268(20) . . .
273(20) . . .
262(20) . . .
222(18) . . .
254(20) . . .
234(19) . . .
307(21) . . .
287(21) . . .
266(20) . . .
277(21) . . .
254(20) . . .
283(21) . . .
261(20) . . .
262(20) . . .
304(22) . . .
283(21) . . .
325(22) . . .
293(21) . . .
280(21) . . .
273(20) . . .
276(20) . . .
293(21) . . .
302(22) . . .
304(22) . . .
322(22) . . .
307(22) . . .
281(21) . . .
289(21) . . .
287(21) . . .
338(23) . . .
326(22) . . .
348(23) . . .
331(23) . . .
325(22) . . .
333(23) . . .
343(23) . . .
350(23) . . .
305(22) . . .
319(22) . . .
350(23) . . .
329(22) . . .
339(23) . . .
337(22) . . .
306(22) . . .
316(22) . . .
327(22) . . .
333(22) . . .
283(21) . . .
292(21) . . .
330(23) . . .
314(21) . . .
308(21) . . .
257(20) . . .
260(20) . . .
299(22) . . .
325(22) . . .
284(21) . . .
283(21) . . .
294(21) . . .
297(21) . . .
279(21) . . .
240(19) . . .
237(19) . . .
318(22) . . .
279(21) . . .
261(20) . . .
267(20) . . .
246(19) . . .
244(19) . . .
257(20) . . .
257(20) . . .
248(19) . . .
261(20) . . .
260(20) . . .
250(20) . . .
282(20) . . .
244(19) . . .
254(20) . . .
227(19) . . .
247(20) . . .
260(20) . . .
267(20) . . .
276(21) . . .
295(21) . . .
256(20) . . .
232(19) . . .
254(19) . . .
241(18) . . .
247(15) . . .
236(22) . . .
254(23) . . .
210(20) . . .
302(25) . . .
258(23) . . .
255(23) . . .
281(24) . . .
257(22) . . .
254(23) . . .
236(22) . . .
247(22) . . .
284(24) . . .
240(22) . . .
264(23) . . .
285(24) . . .
263(23) . . .
257(23) . . .
276(23) . . .
241(22) . . .
243(22) . . .
256(23) . . .
203(20) . . .
237(22) . . .
241(22) . . .
277(24) . . .
289(24) . . .
278(24) . . .
262(23) . . .
251(22) . . .
280(24) . . .
253(23) . . .
282(24) . . .
269(23) . . .
268(23) . . .
275(23) . . .
276(24) . . .
272(23) . . .
239(22) . . .
241(22) . . .
251(22) . . .
253(23) . . .
279(24) . . .
261(23) . . .
283(24) . . .
286(24) . . .
238(22) . . .
253(22) . . .
242(22) . . .
266(23) . . .
255(23) . . .
258(23) . . .
256(23) . . .
261(23) . . .
243(22) . . .
288(24) . . .
247(23) . . .
266(23) . . .
264(23) . . .
252(23) . . .
273(23) . . .
251(22) . . .
250(22) . . .
265(23) . . .
266(23) . . .
285(24) . . .
271(23) . . .
255(23) . . .
232(21) . . .
259(23) . . .
280(24) . . .
219(21) . . .
255(23) . . .
261(23) . . .
212(21) . . .
254(23) . . .
227(21) . . .
276(24) . . .
240(22) . . .
230(21) . . .
248(23) . . .
254(22) . . .
226(21) . . .
230(21) . . .
239(22) . . .
263(23) . . .
274(24) . . .
245(22) . . .
257(22) . . .
265(23) . . .
221(21) . . .
245(22) . . .
287(24) . . .
292(24) . . .
230(21) . . .
243(22) . . .
255(22) . . .
228(21) . . .
283(24) . . .
280(23) . . .
270(23) . . .
262(23) . . .
245(22) . . .
309(25) . . .
254(22) . . .
252(23) . . .
255(23) . . .
246(22) . . .
249(22) . . .
306(25) . . .
274(24) . . .
267(23) . . .
275(23) . . .
249(22) . . .
267(23) . . .
277(24) . . .
301(25) . . .
249(22) . . .
274(23) . . .
289(24) . . .
264(23) . . .
283(24) . . .
266(23) . . .
243(22) . . .
282(24) . . .
278(24) . . .
273(24) . . .
241(22) . . .
258(23) . . .
268(23) . . .
304(25) . . .
255(23) . . .
311(25) . . .
295(24) . . .
286(24) . . .
300(25) . . .
320(25) . . .
329(26) . . .
267(23) . . .
274(23) . . .
308(25) . . .
282(24) . . .
330(26) . . .
278(23) . . .
264(23) . . .
286(24) . . .
291(24) . . .
310(25) . . .
354(26) . . .
329(26) . . .
357(27) . . .
327(26) . . .
309(25) . . .
313(25) . . .
309(25) . . .
318(26) . . .
353(27) . . .
315(25) . . .
356(27) . . .
327(25) . . .
309(25) . . .
321(26) . . .
314(25) . . .
304(24) . . .
329(26) . . .
317(25) . . .
324(26) . . .
295(24) . . .
272(23) . . .
278(24) . . .
310(25) . . .
283(24) . . .
301(25) . . .
287(24) . . .
266(23) . . .
293(24) . . .
299(25) . . .
247(22) . . .
285(24) . . .
260(23) . . .
285(24) . . .
271(24) . . .
286(24) . . .
245(22) . . .
295(25) . . .
275(23) . . .
281(24) . . .
293(24) . . .
257(22) . . .
282(24) . . .
258(23) . . .
257(23) . . .
282(24) . . .
289(24) . . .
303(25) . . .
303(25) . . .
322(25) . . .
303(25) . . .
295(24) . . .
301(25) . . .
309(25) . . .
284(24) . . .
316(25) . . .
302(24) . . .
327(26) . . .
343(27) . . .
331(26) . . .
251(23) . . .
288(24) . . .
278(24) . . .
322(25) . . .
307(25) . . .
313(25) . . .
276(23) . . .
284(24) . . .
271(23) . . .
272(24) . . .
252(23) . . .
239(22) . . .
243(22) . . .
283(24) . . .
306(25) . . .
261(23) . . .
282(24) . . .
288(24) . . .
265(23) . . .
272(23) . . .
320(25) . . .
255(22) . . .
256(23) . . .
333(26) . . .
282(24) . . .
269(23) . . .
265(23) . . .
244(22) . . .
299(25) . . .
288(24) . . .
290(24) . . .
271(23) . . .
278(24) . . .
236(22) . . .
279(24) . . .
277(23) . . .
314(25) . . .
289(24) . . .
266(23) . . .
299(25) . . .
282(24) . . .
297(24) . . .
265(23) . . .
277(23) . . .
327(26) . . .
291(24) . . .
321(25) . . .
299(25) . . .
311(25) . . .
306(25) . . .
285(24) . . .
281(23) . . .
357(27) . . .
300(25) . . .
298(24) . . .
321(26) . . .
336(25) . . .
294(24) . . .
330(26) . . .
361(27) . . .
344(26) . . .
319(25) . . .
294(24) . . .
321(25) . . .
391(28) . . .
329(26) . . .
295(24) . . .
371(27) . . .
317(25) . . .
313(25) . . .
336(26) . . .
359(26) . . .
322(25) . . .
341(26) . . .
342(26) . . .
321(25) . . .
332(26) . . .
365(27) . . .
307(25) . . .
309(25) . . .
349(26) . . .
357(27) . . .
285(24) . . .
352(26) . . .
359(27) . . .
357(27) . . .
292(24) . . .
316(25) . . .
369(27) . . .
342(26) . . .
346(26) . . .
309(24) . . .
297(25) . . .
346(26) . . .
370(28) . . .
306(25) . . .
354(26) . . .
383(28) . . .
344(26) . . .
315(25) . . .
378(28) . . .
345(26) . . .
356(27) . . .
366(27) . . .
337(26) . . .
339(26) . . .
369(27) . . .
396(28) . . .
350(27) . . .
382(28) . . .
384(28) . . .
349(26) . . .
351(27) . . .
336(26) . . .
377(28) . . .
374(28) . . .
340(26) . . .
380(28) . . .
388(28) . . .
418(29) . . .
406(29) . . .
382(27) . . .
371(27) . . .
426(29) . . .
427(29) . . .
414(29) . . .
337(26) . . .
380(28) . . .
357(27) . . .
357(27) . . .
384(28) . . .
337(26) . . .
349(27) . . .
323(25) . . .
338(26) . . .
300(24) . . .
389(28) . . .
341(26) . . .
323(25) . . .
351(27) . . .
330(26) . . .
305(24) . . .
280(24) . . .
295(25) . . .
383(28) . . .
311(25) . . .
312(25) . . .
327(26) . . .
348(26) . . .
322(26) . . .
314(25) . . .
275(23) . . .
322(26) . . .
307(25) . . .
304(25) . . .
302(25) . . .
315(25) . . .
290(24) . . .
314(25) . . .
305(25) . . .
295(24) . . .
344(26) . . .
320(26) . . .
354(26) . . .
366(27) . . .
322(26) . . .
305(24) . . .
319(25) . . .
288(24) . . .
321(25) . . .
318(25) . . .
327(25) . . .
316(25) . . .
299(24) . . .
278(24) . . .
291(24) . . .
335(26) . . .
341(26) . . .
281(24) . . .
301(25) . . .
346(26) . . .
325(25) . . .
310(25) . . .
268(23) . . .
270(23) . . .
253(23) . . .
266(23) . . .
251(22) . . .
289(24) . . .
299(25) . . .
291(24) . . .
320(25) . . .
289(24) . . .
314(26) . . .
307(25) . . .
275(23) . . .
301(25) . . .
230(21) . . .
259(23) . . .
233(22) . . .
236(22) . . .
246(22) . . .
263(23) . . .
269(23) . . .
268(23) . . .
258(23) . . .
292(24) . . .
280(24) . . .
236(22) . . .
238(22) . . .
272(24) . . .
265(23) . . .
232(21) . . .
257(23) . . .
245(22) . . .
270(23) . . .
271(23) . . .
229(22) . . .
256(23) . . .
219(21) . . .
223(21) . . .
266(23) . . .
272(23) . . .
268(23) . . .
239(22) . . .
261(23) . . .
236(22) . . .
225(21) . . .
247(22) . . .
253(24) . . .
243(24) . . .
311(26) . . .
234(23) . . .
227(23) . . .
298(26) . . .
231(23) . . .
256(24) . . .
219(22) . . .
270(25) . . .
273(25) . . .
242(24) . . .
230(23) . . .
270(25) . . .
253(24) . . .
239(24) . . .
252(24) . . .
232(23) . . .
234(23) . . .
249(24) . . .
222(23) . . .
223(23) . . .
228(23) . . .
262(25) . . .
263(25) . . .
260(25) . . .
231(23) . . .
254(24) . . .
229(23) . . .
235(23) . . .
266(25) . . .
227(23) . . .
229(23) . . .
283(25) . . .
236(23) . . .
223(23) . . .
259(24) . . .
235(23) . . .
252(24) . . .
249(24) . . .
268(25) . . .
268(25) . . .
252(24) . . .
235(23) . . .
232(23) . . .
231(23) . . .
254(24) . . .
273(25) . . .
283(26) . . .
274(25) . . .
244(24) . . .
238(24) . . .
276(25) . . .
226(23) . . .
295(26) . . .
262(25) . . .
248(24) . . .
274(25) . . .
235(23) . . .
233(23) . . .
226(23) . . .
269(25) . . .
248(23) . . .
288(26) . . .
220(22) . . .
188(21) . . .
245(24) . . .
246(24) . . .
224(23) . . .
222(23) . . .
229(23) . . .
215(22) . . .
242(23) . . .
238(23) . . .
274(25) . . .
251(24) . . .
249(24) . . .
242(23) . . .
229(23) . . .
243(24) . . .
234(23) . . .
260(25) . . .
278(25) . . .
268(25) . . .
269(25) . . .
250(24) . . .
249(24) . . .
208(21) . . .
279(25) . . .
227(23) . . .
270(25) . . .
240(24) . . .
227(23) . . .
273(25) . . .
279(25) . . .
247(24) . . .
281(25) . . .
227(23) . . .
213(22) . . .
280(25) . . .
245(24) . . .
231(23) . . .
235(23) . . .
271(25) . . .
291(26) . . .
265(24) . . .
266(22) . . .
256(18) . . .
245(29) . . .
272(30) . . .
225(28) . . .
229(28) . . .
291(30) . . .
234(28) . . .
275(30) . . .
273(31) . . .
241(28) . . .
280(30) . . .
215(27) . . .
265(30) . . .
277(31) . . .
257(29) . . .
211(26) . . .
232(28) . . .
259(30) . . .
218(27) . . .
265(30) . . .
240(28) . . .
308(32) . . .
310(32) . . .
285(31) . . .
260(29) . . .
278(30) . . .
287(31) . . .
282(31) . . .
254(30) . . .
245(28) . . .
243(28) . . .
310(33) . . .
302(32) . . .
297(32) . . .
300(31) . . .
225(27) . . .
277(31) . . .
322(33) . . .
296(31) . . .
270(30) . . .
291(31) . . .
273(30) . . .
243(29) . . .
270(30) . . .
275(30) . . .
321(32) . . .
299(32) . . .
268(30) . . .
309(32) . . .
267(30) . . .
263(29) . . .
242(28) . . .
247(29) . . .
285(31) . . .
216(27) . . .
231(27) . . .
265(30) . . .
238(29) . . .
287(31) . . .
304(32) . . .
267(29) . . .
225(28) . . .
218(28) . . .
265(30) . . .
258(29) . . .
249(29) . . .
288(31) . . .
236(29) . . .
251(29) . . .
296(31) . . .
287(30) . . .
288(31) . . .
241(28) . . .
291(31) . . .
286(31) . . .
234(28) . . .
231(28) . . .
267(30) . . .
249(29) . . .
235(28) . . .
274(30) . . .
261(30) . . .
280(31) . . .
264(30) . . .
280(30) . . .
274(30) . . .
242(28) . . .
251(29) . . .
204(26) . . .
247(29) . . .
251(29) . . .
289(31) . . .
280(31) . . .
246(29) . . .
249(29) . . .
251(29) . . .
222(27) . . .
259(30) . . .
294(32) . . .
252(29) . . .
292(31) . . .
253(29) . . .
255(29) . . .
271(30) . . .
233(28) . . .
302(31) . . .
257(29) . . .
234(29) . . .
277(30) . . .
254(29) . . .
261(29) . . .
291(31) . . .
320(33) . . .
259(30) . . .
233(28) . . .
317(32) . . .
280(31) . . .
353(35) . . .
272(30) . . .
304(32) . . .
312(32) . . .
278(31) . . .
305(32) . . .
341(34) . . .
311(32) . . .
310(32) . . .
311(32) . . .
401(37) . . .
347(35) . . .
333(33) . . .
377(35) . . .
438(38) . . .
403(37) . . .
381(36) . . .
406(37) . . .
449(37) . . .
445(39) . . .
494(41) . . .
441(39) . . .
436(38) . . .
481(40) . . .
511(41) . . .
466(40) . . .
450(39) . . .
479(40) . . .
449(38) . . .
515(42) . . .
416(38) . . .
441(39) . . .
386(36) . . .
390(35) . . .
394(36) . . .
336(34) . . .
405(37) . . .
402(36) . . .
372(35) . . .
388(35) . . .
340(34) . . .
404(38) . . .
382(35) . . .
396(36) . . .
359(35) . . .
313(33) . . .
295(32) . . .
329(33) . . .
370(34) . . .
356(35) . . .
311(33) . . .
318(32) . . .
328(33) . . .
347(33) . . .
323(33) . . .
348(35) . . .
326(33) . . .
275(30) . . .
258(29) . . .
302(32) . . .
306(32) . . .
313(33) . . .
291(31) . . .
296(31) . . .
273(30) . . .
286(31) . . .
334(34) . . .
307(32) . . .
281(30) . . .
268(30) . . .
310(33) . . .
271(30) . . .
225(27) . . .
250(29) . . .
254(29) . . .
244(29) . . .
279(31) . . .
207(26) . . .
257(29) . . .
263(30) . . .
255(30) . . .
257(29) . . .
318(33) . . .
286(31) . . .
224(27) . . .
243(29) . . .
323(33) . . .
283(30) . . .
244(28) . . .
236(28) . . .
225(28) . . .
263(30) . . .
225(27) . . .
240(28) . . .
282(31) . . .
271(30) . . .
251(29) . . .
302(32) . . .
234(27) . . .
234(28) . . .
236(28) . . .
259(30) . . .
251(28) . . .
226(27) . . .
249(29) . . .
259(30) . . .
314(33) . . .
220(27) . . .
227(27) . . .
235(28) . . .
258(30) . . .
269(30) . . .
252(29) . . .
271(30) . . .
254(29) . . .
252(29) . . .
246(29) . . .
264(30) . . .
269(29) . . .
232(28) . . .
229(28) . . .
239(28) . . .
216(27) . . .
232(27) . . .
236(28) . . .
247(29) . . .
225(28) . . .
222(27) . . .
262(29) . . .
236(28) . . .
241(29) . . .
234(28) . . .
261(29) . . .
227(27) . . .
237(28) . . .
250(29) . . .
229(28) . . .
244(28) . . .
214(26) . . .
251(29) . . .
254(30) . . .
243(29) . . .
224(27) . . .
208(26) . . .
274(30) . . .
254(30) . . .
241(29) . . .
229(28) . . .
221(27) . . .
252(29) . . .
282(31) . . .
194(26) . . .
235(28) . . .
220(26) . . .
281(31) . . .
266(30) . . .
250(29) . . .
255(29) . . .
261(29) . . .
255(29) . . .
297(32) . . .
282(31) . . .
251(29) . . .
255(29) . . .
199(26) . . .
276(31) . . .
265(31) . . .
259(29) . . .
256(29) . . .
269(30) . . .
228(28) . . .
255(29) . . .
216(27) . . .
212(26) . . .
300(32) . . .
215(27) . . .
282(31) . . .
262(29) . . .
242(28) . . .
268(30) . . .
257(30) . . .
269(30) . . .
264(30) . . .
288(30) . . .
214(27) . . .
258(30) . . .
255(29) . . .
221(27) . . .
239(28) . . .
243(28) . . .
242(29) . . .
245(29) . . .
293(31) . . .
256(29) . . .
211(27) . . .
254(30) . . .
272(30) . . .
281(31) . . .
272(30) . . .
270(30) . . .
317(33) . . .
302(32) . . .
247(28) . . .
286(30) . . .
284(30) . . .
269(30) . . .
256(30) . . .
276(30) . . .
321(32) . . .
339(33) . . .
317(33) . . .
286(31) . . .
259(29) . . .
302(32) . . .
302(32) . . .
273(31) . . .
326(33) . . .
284(30) . . .
260(29) . . .
234(28) . . .
307(32) . . .
329(33) . . .
262(30) . . .
236(28) . . .
266(30) . . .
226(28) . . .
293(32) . . .
259(29) . . .
257(29) . . .
278(30) . . .
233(29) . . .
238(29) . . .
263(30) . . .
230(27) . . .
281(30) . . .
230(29) . . .
242(28) . . .
241(28) . . .
270(30) . . .
263(29) . . .
263(30) . . .
310(32) . . .
227(28) . . .
188(25) . . .
242(28) . . .
230(28) . . .
266(30) . . .
237(28) . . .
254(29) . . .
254(29) . . .
246(29) . . .
257(29) . . .
238(28) . . .
224(27) . . .
242(28) . . .
239(29) . . .
259(30) . . .
238(28) . . .
212(27) . . .
243(28) . . .
250(30) . . .
264(30) . . .
279(31) . . .
265(29) . . .
219(27) . . .
226(28) . . .
245(29) . . .
275(30) . . .
259(29) . . .
310(32) . . .
287(31) . . .
265(30) . . .
229(28) . . .
302(31) . . .
235(28) . . .
240(29) . . .
302(32) . . .
292(31) . . .
274(30) . . .
306(32) . . .
333(34) . . .
345(35) . . .
297(31) . . .
278(30) . . .
335(34) . . .
322(34) . . .
305(32) . . .
344(33) . . .
328(33) . . .
337(34) . . .
299(32) . . .
341(34) . . .
326(33) . . .
348(33) . . .
263(30) . . .
313(33) . . .
342(34) . . .
279(31) . . .
234(28) . . .
251(29) . . .
286(31) . . .
278(31) . . .
273(30) . . .
253(28) . . .
308(32) . . .
272(30) . . .
249(29) . . .
312(32) . . .
248(28) . . .
192(26) . . .
248(29) . . .
228(28) . . .
250(29) . . .
246(28) . . .
271(31) . . .
199(26) . . .
224(28) . . .
244(29) . . .
279(30) . . .
211(27) . . .
241(29) . . .
207(26) . . .
273(30) . . .
281(30) . . .
261(30) . . .
285(31) . . .
260(30) . . .
224(28) . . .
253(28) . . .
246(29) . . .
186(25) . . .
238(28) . . .
234(28) . . .
280(30) . . .
196(26) . . .
234(28) . . .
197(26) . . .
215(26) . . .
243(28) . . .
211(27) . . .
205(27) . . .
234(28) . . .
257(29) . . .
249(29) . . .
289(31) . . .
206(27) . . .
216(27) . . .
285(31) . . .
254(29) . . .
212(27) . . .
206(27) . . .
242(29) . . .
269(30) . . .
243(28) . . .
201(25) . . .
264(30) . . .
274(31) . . .
290(31) . . .
275(30) . . .
273(30) . . .
272(30) . . .
219(27) . . .
214(27) . . .
233(27) . . .
208(27) . . .
276(31) . . .
227(28) . . .
286(31) . . .
256(29) . . .
227(28) . . .
202(26) . . .
170(24) . . .
259(29) . . .
223(27) . . .
243(29) . . .
243(29) . . .
158(23) . . .
216(27) . . .
246(28) . . .
283(30) . . .
197(26) . . .
227(28) . . .
221(27) . . .
228(27) . . .
258(29) . . .
227(28) . . .
267(30) . . .
217(27) . . .
246(28) . . .
255(29) . . .
280(32) . . .
275(31) . . .
226(27) . . .
233(28) . . .
263(30) . . .
214(27) . . .
201(26) . . .
262(30) . . .
271(30) . . .
278(30) . . .
260(30) . . .
288(31) . . .
204(26) . . .
217(27) . . .
236(28) . . .
330(34) . . .
233(28) . . .
237(28) . . .
261(29) . . .
219(27) . . .
246(29) . . .
235(28) . . .
272(30) . . .
291(31) . . .
238(28) . . .
249(29) . . .
223(28) . . .
231(27) . . .
208(26) . . .
242(29) . . .
226(28) . . .
244(28) . . .
226(27) . . .
244(28) . . .
231(28) . . .
231(28) . . .
195(26) . . .
230(27) . . .
234(28) . . .
164(23) . . .
209(27) . . .
235(29) . . .
231(28) . . .
308(31) . . .
253(29) . . .
259(30) . . .
273(31) . . .
261(29) . . .
230(27) . . .
224(27) . . .
243(28) . . .
236(25) . . .
310(24) . . .
187(31) . . .
210(35) . . .
250(37) . . .
217(34) . . .
240(36) . . .
225(34) . . .
214(35) . . .
242(36) . . .
285(40) . . .
234(35) . . .
262(36) . . .
253(37) . . .
216(34) . . .
230(35) . . .
244(36) . . .
293(39) . . .
203(33) . . .
216(35) . . .
222(35) . . .
259(37) . . .
206(32) . . .
200(33) . . .
246(38) . . .
257(36) . . .
226(35) . . .
247(36) . . .
274(39) . . .
270(38) . . .
241(36) . . .
264(37) . . .
229(34) . . .
244(37) . . .
264(38) . . .
288(39) . . .
194(32) . . .
224(35) . . .
302(40) . . .
273(39) . . .
307(41) . . .
252(36) . . .
269(37) . . .
216(35) . . .
301(41) . . .
241(36) . . .
307(40) . . .
279(37) . . .
271(39) . . .
259(37) . . .
305(41) . . .
307(40) . . .
215(33) . . .
266(39) . . .
230(35) . . .
290(40) . . .
213(34) . . .
239(35) . . .
238(36) . . .
252(37) . . .
288(39) . . .
269(37) . . .
251(36) . . .
243(36) . . .
244(36) . . .
273(38) . . .
260(37) . . .
238(34) . . .
280(39) . . .
252(37) . . .
246(36) . . .
218(34) . . .
208(33) . . .
163(30) . . .
230(35) . . .
320(42) . . .
216(34) . . .
236(34) . . .
246(38) . . .
234(35) . . .
288(39) . . .
196(32) . . .
192(32) . . .
208(34) . . .
265(38) . . .
233(36) . . .
226(34) . . .
262(36) . . .
251(37) . . .
193(33) . . .
233(35) . . .
248(36) . . .
227(34) . . .
271(38) . . .
246(37) . . .
197(32) . . .
226(34) . . .
246(35) . . .
318(42) . . .
288(40) . . .
253(36) . . .
282(39) . . .
272(37) . . .
199(33) . . .
339(43) . . .
239(36) . . .
307(40) . . .
277(38) . . .
316(42) . . .
336(43) . . .
281(39) . . .
286(39) . . .
242(36) . . .
269(37) . . .
374(45) . . .
305(41) . . .
313(40) . . .
350(42) . . .
291(40) . . .
320(42) . . .
340(43) . . .
295(39) . . .
309(40) . . .
337(43) . . .
324(42) . . .
304(40) . . .
352(43) . . .
303(39) . . .
277(39) . . .
315(41) . . .
267(38) . . .
246(36) . . .
251(36) . . .
280(39) . . .
270(38) . . .
198(32) . . .
232(35) . . .
256(36) . . .
228(35) . . .
227(36) . . .
218(34) . . .
207(33) . . .
229(34) . . .
268(38) . . .
261(38) . . .
216(34) . . .
267(38) . . .
226(33) . . .
255(38) . . .
253(38) . . .
207(32) . . .
259(37) . . .
211(33) . . .
228(35) . . .
251(37) . . .
249(36) . . .
258(37) . . .
279(38) . . .
248(38) . . .
211(34) . . .
193(32) . . .
192(32) . . .
264(37) . . .
265(37) . . .
245(38) . . .
299(40) . . .
227(34) . . .
258(37) . . .
219(34) . . .
203(34) . . .
231(35) . . .
234(35) . . .
348(42) . . .
258(38) . . .
311(42) . . .
210(33) . . .
225(35) . . .
258(36) . . .
291(40) . . .
270(38) . . .
262(37) . . .
267(38) . . .
231(34) . . .
206(33) . . .
210(34) . . .
224(34) . . .
209(33) . . .
256(36) . . .
276(39) . . .
285(39) . . .
225(35) . . .
232(35) . . .
210(33) . . .
209(34) . . .
262(39) . . .
212(34) . . .
226(34) . . .
223(34) . . .
227(36) . . .
283(39) . . .
229(35) . . .
220(34) . . .
262(37) . . .
255(37) . . .
253(38) . . .
309(41) . . .
260(37) . . .
237(35) . . .
221(35) . . .
269(39) . . .
234(35) . . .
217(34) . . .
236(34) . . .
278(39) . . .
265(39) . . .
242(35) . . .
197(32) . . .
259(36) . . .
196(33) . . .
223(35) . . .
280(38) . . .
244(36) . . .
256(36) . . .
239(36) . . .
227(36) . . .
300(40) . . .
263(37) . . .
210(33) . . .
259(38) . . .
177(31) . . .
234(35) . . .
251(36) . . .
248(35) . . .
271(38) . . .
254(38) . . .
311(41) . . .
264(37) . . .
204(32) . . .
272(39) . . .
233(36) . . .
249(36) . . .
268(38) . . .
247(36) . . .
256(38) . . .
246(37) . . .
226(35) . . .
211(33) . . .
239(34) . . .
332(43) . . .
264(38) . . .
235(35) . . .
281(38) . . .
218(34) . . .
264(38) . . .
223(35) . . .
282(39) . . .
283(39) . . .
299(39) . . .
245(37) . . .
190(33) . . .
225(34) . . .
263(37) . . .
222(33) . . .
224(35) . . .
239(36) . . .
252(36) . . .
241(36) . . .
212(32) . . .
290(40) . . .
228(36) . . .
202(33) . . .
255(37) . . .
243(35) . . .
228(36) . . .
295(41) . . .
282(38) . . .
319(42) . . .
269(37) . . .
268(39) . . .
264(38) . . .
257(37) . . .
230(34) . . .
299(39) . . .
265(38) . . .
287(40) . . .
276(38) . . .
229(35) . . .
234(34) . . .
279(39) . . .
271(39) . . .
203(33) . . .
248(36) . . .
191(32) . . .
255(38) . . .
289(40) . . .
230(35) . . .
251(36) . . .
306(39) . . .
283(39) . . .
252(38) . . .
214(33) . . .
223(34) . . .
245(36) . . .
199(33) . . .
254(37) . . .
251(37) . . .
250(37) . . .
295(38) . . .
298(41) . . .
324(43) . . .
293(39) . . .
301(40) . . .
299(38) . . .
292(40) . . .
290(40) . . .
321(41) . . .
309(41) . . .
310(39) . . .
346(44) . . .
289(40) . . .
229(35) . . .
289(39) . . .
284(38) . . .
236(36) . . .
332(43) . . .
235(35) . . .
399(46) . . .
305(39) . . .
265(38) . . .
291(40) . . .
293(39) . . .
304(40) . . .
231(34) . . .
253(38) . . .
278(39) . . .
292(39) . . .
255(37) . . .
239(35) . . .
254(38) . . .
251(37) . . .
295(40) . . .
314(41) . . .
225(33) . . .
230(36) . . .
206(34) . . .
207(33) . . .
226(34) . . .
223(34) . . .
236(36) . . .
312(41) . . .
233(36) . . .
269(38) . . .
195(31) . . .
237(36) . . .
240(37) . . .
217(34) . . .
247(36) . . .
250(36) . . .
230(36) . . .
251(37) . . .
253(37) . . .
218(34) . . .
253(35) . . .
254(37) . . .
194(33) . . .
267(38) . . .
233(35) . . .
224(34) . . .
272(39) . . .
230(35) . . .
272(38) . . .
242(36) . . .
242(35) . . .
261(38) . . .
197(33) . . .
218(35) . . .
257(36) . . .
251(36) . . .
309(42) . . .
247(36) . . .
225(35) . . .
265(37) . . .
241(35) . . .
281(39) . . .
226(36) . . .
187(32) . . .
194(32) . . .
208(32) . . .
278(39) . . .
284(40) . . .
240(36) . . .
337(42) . . .
179(31) . . .
231(36) . . .
200(33) . . .
306(40) . . .
337(42) . . .
262(37) . . .
263(38) . . .
265(38) . . .
291(40) . . .
369(43) . . .
289(39) . . .
308(41) . . .
300(41) . . .
301(40) . . .
306(40) . . .
290(39) . . .
255(37) . . .
330(43) . . .
313(41) . . .
235(35) . . .
284(37) . . .
210(34) . . .
319(42) . . .
342(43) . . .
250(36) . . .
320(41) . . .
256(38) . . .
280(39) . . .
281(39) . . .
308(40) . . .
252(36) . . .
233(36) . . .
272(39) . . .
255(37) . . .
321(41) . . .
292(38) . . .
281(40) . . .
321(42) . . .
244(36) . . .
222(34) . . .
216(33) . . .
252(37) . . .
272(39) . . .
256(37) . . .
208(34) . . .
250(35) . . .
212(34) . . .
273(39) . . .
223(35) . . .
252(36) . . .
220(33) . . .
219(35) . . .
219(35) . . .
181(31) . . .
269(37) . . .
236(35) . . .
246(37) . . .
224(35) . . .
262(37) . . .
246(37) . . .
278(38) . . .
294(40) . . .
197(33) . . .
251(37) . . .
236(35) . . .
185(31) . . .
245(37) . . .
159(30) . . .
260(37) . . .
198(32) . . .
242(35) . . .
312(42) . . .
253(36) . . .
297(41) . . .
238(36) . . .
238(35) . . .
239(37) . . .
258(38) . . .
262(38) . . .
225(34) . . .
225(34) . . .
220(36) . . .
388(46) . . .
228(35) . . .
240(36) . . .
266(37) . . .
226(35) . . .
220(34) . . .
223(35) . . .
222(34) . . .
196(32) . . .
265(38) . . .
251(38) . . .
250(37) . . .
218(34) . . .
250(36) . . .
212(35) . . .
240(36) . . .
205(34) . . .
301(40) . . .
269(37) . . .
241(37) . . .
254(38) . . .
189(32) . . .
211(33) . . .
163(29) . . .
241(37) . . .
245(37) . . .
232(35) . . .
294(39) . . .
256(37) . . .
205(34) . . .
197(33) . . .
242(36) . . .
205(34) . . .
236(35) . . .
232(36) . . .
205(34) . . .
205(33) . . .
213(34) . . .
254(36) . . .
253(38) . . .
268(38) . . .
178(31) . . .
273(38) . . .
226(34) . . .
250(38) . . .
293(40) . . .
195(32) . . .
168(30) . . .
225(34) . . .
269(39) . . .
242(37) . . .
190(32) . . .
254(36) . . .
173(30) . . .
240(37) . . .
223(35) . . .
254(36) . . .
221(34) . . .
281(39) . . .
155(29) . . .
213(35) . . .
243(36) . . .
221(34) . . .
298(39) . . .
245(37) . . .
311(42) . . .
225(35) . . .
230(35) . . .
232(35) . . .
172(31) . . .
203(34) . . .
266(38) . . .
320(41) . . .
197(31) . . .
198(30) . . .
228(25) . . .
loop_
_refln_index_h
_refln_index_k
_refln_index_l
_refln_observed_status
_refln_F_squared_meas
_refln_F_squared_calc
_refln_phase_calc
_refln_d_spacing
_gsas_i100_meas
0 2 0 o 213.158 226.271 180.00 8.50321 5.59
0 4 0 o 3434.585 3360.240 0.00 4.25161 22.55
1 3 0 o 13630.055 13573.981 0.00 3.17261 100.00
0 1 1 o 1207.163 1275.286 0.00 2.93666 7.60
0 6 0 o 6430.555 6528.044 0.00 2.83440 18.86
0 3 1 o 645.610 634.084 180.00 2.63874 3.29
1 5 0 o 1349.516 1164.344 0.00 2.54270 6.39
0 5 1 o 11230.016 11053.892 0.00 2.24203 41.47
1 0 1 o 84.011 102.107 0.00 2.35226 0.34
1 2 1 o 1824.624 1988.996 0.00 2.26711 13.78
0 8 0 o 381.585 246.048 0.00 2.12580 0.63
1 4 1 o 181.776 211.304 0.00 2.05824 1.14
1 7 0 o 1677.442 1835.781 0.00 2.05130 5.20
0 7 1 o 803.095 772.106 180.00 1.88337 2.11
2 0 0 o 16218.966 16642.842 0.00 1.91416 21.96
1 6 1 o 307.170 342.265 180.00 1.81011 1.49
2 2 0 o 38.544 12.129 180.00 1.86743 0.10
2 4 0 o 1810.269 1786.288 0.00 1.74542 4.10
0 10 0 o 7582.456 7373.131 0.00 1.70064 8.16
1 9 0 o 3194.547 3158.215 0.00 1.69444 6.82
0 9 1 o 91.067 92.649 0.00 1.59604 0.17
1 8 1 o 5342.227 5400.666 0.00 1.57717 19.86
2 6 0 o 3498.765 3630.548 0.00 1.58631 6.58
2 1 1 o 714.966 755.403 0.00 1.60358 2.74
2 3 1 o 323.307 305.700 180.00 1.54943 1.16
2 5 1 o 5731.924 5491.675 0.00 1.45577 18.26
0 2 2 o 2366.863 2404.669 180.00 1.46833 3.83
0 0 2 o 2975.226 3066.785 0.00 1.49072 2.48
1 11 0 o 1.415 0.462 180.00 1.43355 0.00
0 11 1 o 1690.568 1862.201 0.00 1.37248 2.41
0 4 2 o 132.145 99.996 180.00 1.40676 0.20
2 8 0 o 248.330 127.268 0.00 1.42247 0.38
0 12 0 o 204.024 108.670 0.00 1.41720 0.15
1 10 1 o 24.153 38.158 180.00 1.37818 0.07
0 6 2 o 157.120 66.602 0.00 1.31937 0.21
1 1 2 o 604.832 819.937 180.00 1.38451 1.75
1 3 2 o 651.978 606.431 0.00 1.34921 1.80
2 7 1 o 253.371 309.459 180.00 1.34250 0.69
1 5 2 o 644.698 585.101 180.00 1.28600 1.62
0 8 2 o 905.427 926.638 180.00 1.22053 1.03
2 10 0 o 4416.195 4349.313 0.00 1.27135 5.43
3 1 0 o 275.986 282.897 0.00 1.27253 0.34
1 12 1 o 18.331 17.791 0.00 1.21391 0.04
2 9 1 o 53.921 64.654 0.00 1.22583 0.12
1 7 2 o 10.642 57.874 180.00 1.20592 0.02
0 13 1 o 0.276 9.216 180.00 1.19794 0.00
1 13 0 o 6023.009 6047.109 0.00 1.23791 7.05
3 3 0 o 4487.641 4125.863 0.00 1.24495 5.31
0 14 0 o 426.417 342.534 0.00 1.21474 0.24
3 5 0 o 102.295 296.858 0.00 1.19479 0.11
0 10 2 o 504.185 431.837 0.00 1.12101 0.49
1 9 2 o 6.124 4.605 0.00 1.11923 0.01
2 2 2 o 1430.032 1424.734 180.00 1.16504 2.98
2 0 2 o 1561.749 1665.840 0.00 1.17613 1.66
3 0 1 o 1.678 3.399 0.00 1.17316 0.00
2 11 1 o 1294.661 1194.603 0.00 1.11539 2.49
3 2 1 o 875.130 808.939 0.00 1.16216 1.82
2 12 0 o 165.821 111.271 0.00 1.13900 0.17
2 4 2 o 44.319 60.675 180.00 1.13356 0.09
3 4 1 o 103.302 108.712 0.00 1.13090 0.20
3 7 0 o 904.202 932.396 0.00 1.12974 0.89
1 14 1 o 1050.577 1059.755 0.00 1.07932 1.90
2 6 2 o 48.376 42.677 0.00 1.08632 0.09
1 15 0 o 40.397 36.851 0.00 1.08709 0.04
3 6 1 o 82.176 81.939 180.00 1.08398 0.15
0 15 1 o 479.345 489.589 0.00 1.05973 0.42
1 11 2 o 927.249 995.282 180.00 1.03329 1.55
0 12 2 o 515.712 492.402 180.00 1.02712 0.43
3 9 0 o 1319.717 1304.729 0.00 1.05754 1.15
0 16 0 o 2655.925 2620.530 0.00 1.06290 1.17
2 8 2 o 660.903 632.473 180.00 1.02912 1.10
3 8 1 o 2127.242 2008.607 0.00 1.02713 3.51
2 13 1 o 5.009 7.821 180.00 1.01547 0.01
2 14 0 o 256.589 236.115 0.00 1.02565 0.21
2 10 2 o 304.768 279.589 0.00 0.96733 0.45
0 14 2 o 66.864 206.345 180.00 0.94169 0.05
1 13 2 o 590.660 685.988 0.00 0.95236 0.85
1 16 1 o 188.741 183.286 180.00 0.96861 0.28
3 11 0 o 2.833 1.434 0.00 0.98416 0.00
0 3 3 o 1097.190 800.774 180.00 0.97889 0.83
0 17 1 o 9.929 53.433 0.00 0.94841 0.01
0 1 3 o 2.259 1.771 180.00 0.99212 0.00
3 10 1 o 18.234 15.040 180.00 0.96568 0.03
0 5 3 o 596.192 651.514 0.00 0.95393 0.43
1 17 0 o 152.991 148.383 0.00 0.96788 0.11
3 1 2 o 336.378 328.883 180.00 0.96785 0.50
3 3 2 o 254.862 237.591 0.00 0.95555 0.37
4 0 0 o 3680.989 3694.985 0.00 0.95708 1.34
1 2 3 o 20.889 19.136 0.00 0.95583 0.03
0 7 3 o 797.785 667.345 180.00 0.91983 0.54
1 4 3 o 52.938 80.506 180.00 0.93822 0.07
1 0 3 o 395.138 301.613 180.00 0.96193 0.29
0 18 0 o 19.420 112.552 0.00 0.94480 0.01
2 15 1 o 343.759 344.485 0.00 0.92713 0.47
4 2 0 o 3.177 4.053 0.00 0.95108 0.00
2 12 2 o 339.330 329.611 180.00 0.90506 0.45
3 5 2 o 343.367 297.318 180.00 0.93230 0.48
2 16 0 o 1864.578 1801.354 0.00 0.92925 1.28
1 6 3 o 632.526 546.584 180.00 0.91090 0.84
4 4 0 o 557.716 564.534 0.00 0.93372 0.39
1 15 2 o 414.360 399.977 180.00 0.87835 0.52
3 13 0 o 2838.728 2661.816 0.00 0.91347 1.89
3 12 1 o 17.111 16.617 0.00 0.90370 0.02
3 7 2 o 20.042 19.941 180.00 0.90039 0.03
0 9 3 o 103.319 98.095 180.00 0.87958 0.06
1 8 3 o 383.875 391.717 0.00 0.87638 0.48
0 16 2 o 108.617 192.799 0.00 0.86544 0.07
4 6 0 o 1176.778 1106.044 0.00 0.90678 0.77
4 1 1 o 277.238 246.155 0.00 0.90997 0.37
1 18 1 o 1130.436 1150.283 0.00 0.87672 1.40
4 3 1 o 79.647 73.977 180.00 0.89973 0.10
2 14 2 o 140.165 147.661 180.00 0.84497 0.16
3 9 2 o 0.000 2.296 0.00 0.86254 0.00
0 19 1 o 0.682 8.268 180.00 0.85728 0.00
4 5 1 o 1590.198 1460.992 0.00 0.88023 1.98
1 10 3 o 418.752 301.495 180.00 0.83727 0.48
0 11 3 o 96.647 78.713 0.00 0.83599 0.06
2 1 3 o 1.123 0.988 180.00 0.88084 0.00
2 17 1 o 48.601 40.026 0.00 0.84982 0.06
4 8 0 o 40.704 37.776 0.00 0.87271 0.03
1 19 0 o 1695.995 1548.349 0.00 0.87157 1.04
2 3 3 o 623.840 568.676 180.00 0.87153 0.76
2 5 3 o 443.617 455.573 0.00 0.85378 0.52
4 7 1 o 63.972 63.850 180.00 0.85323 0.08
3 14 1 o 504.455 514.884 0.00 0.84387 0.58
3 15 0 o 24.752 21.669 0.00 0.84757 0.01
2 18 0 o 79.119 76.836 0.00 0.84722 0.05
2 7 3 o 563.387 474.003 180.00 0.82907 0.63
0 20 0 o 243.515 213.119 0.00 0.85032 0.07
1 17 2 o 27.357 141.556 180.00 0.81178 0.03
0 18 2 o 211.628 158.975 180.00 0.79802 0.11
3 11 2 o 442.348 499.377 180.00 0.82132 0.49
1 12 3 o 104.043 85.888 180.00 0.79591 0.11
4 10 0 o 1526.391 1384.364 0.00 0.83407 0.87
0 13 3 o 245.092 219.651 180.00 0.79136 0.13
2 9 3 o 94.635 70.008 180.00 0.79924 0.10
4 9 1 o 22.735 24.539 0.00 0.82081 0.03
2 16 2 o 149.217 141.439 0.00 0.78859 0.15
1 20 1 o 34.228 24.793 180.00 0.79968 0.04
3 16 1 o 103.686 100.420 180.00 0.78769 0.11
3 13 2 o 351.419 353.694 0.00 0.77887 0.35
2 19 1 o 4.538 6.793 180.00 0.78239 0.00
0 21 1 o 497.186 577.045 0.00 0.78151 0.25
2 11 3 o 77.854 59.074 0.00 0.76611 0.08
4 0 2 o 594.002 508.266 0.00 0.80538 0.32
4 12 0 o 38.679 50.439 0.00 0.79315 0.02
1 21 0 o 2.039 1.963 180.00 0.79230 0.00
4 11 1 o 429.000 419.706 0.00 0.78505 0.44
0 15 3 o 0.000 4.397 0.00 0.74734 0.00
4 2 2 o 582.421 471.067 180.00 0.80179 0.62
1 14 3 o 54.187 55.290 0.00 0.75412 0.05
1 19 2 o 128.348 155.400 0.00 0.75241 0.12
3 17 0 o 77.038 78.936 0.00 0.78730 0.04
4 4 2 o 22.279 18.335 180.00 0.79131 0.02
2 20 0 o 126.543 155.947 0.00 0.77710 0.06
3 2 3 o 10.021 11.042 0.00 0.78077 0.01
4 6 2 o 12.460 16.778 0.00 0.77471 0.01
3 0 3 o 187.143 166.251 180.00 0.78409 0.10
0 22 0 o 492.297 497.515 0.00 0.77302 0.12
0 20 2 o 41.229 32.941 180.00 0.73861 0.02
3 4 3 o 43.368 39.551 180.00 0.77108 0.04
2 13 3 o 173.667 166.164 180.00 0.73132 0.16
3 15 2 o 254.345 216.413 180.00 0.73680 0.23
2 18 2 o 136.790 119.517 180.00 0.73657 0.13
3 6 3 o 344.341 291.480 180.00 0.75570 0.33
4 8 2 o 271.315 248.440 180.00 0.75314 0.26
4 14 0 o 50.314 84.082 0.00 0.75178 0.02
5 1 0 o 65.920 80.570 0.00 0.76489 0.03
4 13 1 o 0.000 5.202 180.00 0.74774 0.00
5 3 0 o 1173.682 985.493 0.00 0.75878 0.56
3 18 1 o 657.759 624.286 0.00 0.73584 0.60
3 8 3 o 216.653 215.467 0.00 0.73564 0.20
1 22 1 o 0.474 0.902 180.00 0.73438 0.00
5 5 0 o 17.319 61.702 0.00 0.74697 0.01
4 10 2 o 181.130 110.879 0.00 0.72788 0.16
3 19 0 o 698.704 835.716 0.00 0.73279 0.32
0 2 4 o 413.048 255.532 180.00 0.74251 0.19
0 4 4 o 0.231 0.572 180.00 0.73416 0.00
5 2 1 o 256.218 213.729 0.00 0.73880 0.24
5 0 1 o 0.001 0.001 180.00 0.74160 0.00
0 0 4 o 413.227 513.870 0.00 0.74536 0.10
1 23 0 o 594.669 642.493 0.00 0.72599 0.27
5 4 1 o 30.686 31.756 0.00 0.73057 0.03
5 7 0 o 226.651 258.534 0.00 0.73026 0.10
1 1 4 o 78.127 69.381 180.00 0.73095 0.07
