#------------------------------------------------------------------------------
#$Date: 2016-02-16 03:10:39 +0200 (Tue, 16 Feb 2016) $
#$Revision: 176453 $
#$URL: svn://www.crystallography.net/cod/cif/7/20/27/7202742.cif $
#------------------------------------------------------------------------------
#
# This file is available in the Crystallography Open Database (COD),
# http://www.crystallography.net/
#
# All data on this site have been placed in the public domain by the
# contributors.
#
data_7202742
loop_
_publ_author_name
'Joke Hadermann'
'Olivier P\'erez'
'Nicolas Cr\'eon'
'Claude Michel'
'Maryvonne Hervieu'
_publ_section_title
;
 The (3 + 2)D structure of oxygen deficient LaSrCuO3.52
;
_journal_issue                   22
_journal_name_full               'Journal of Materials Chemistry'
_journal_page_first              2344
_journal_paper_doi               10.1039/b701449j
_journal_volume                  17
_journal_year                    2007
_chemical_formula_sum            'Cu La1.111 O3.506 Sr0.889'
_chemical_formula_weight         351.9
_chemical_name_systematic        ' ?'
_symmetry_cell_setting           orthorhombic
_symmetry_space_group_name_H-M   'I 4/m m m'
_cell_angle_alpha                90
_cell_angle_beta                 90.00(5)
_cell_angle_gamma                90
_cell_formula_units_Z            2
_cell_length_a                   3.7587(14)
_cell_length_b                   3.759(2)
_cell_length_c                   13.007(4)
_cell_modulation_dimension       2
_cell_volume                     183.78(13)
_computing_publication_material  '(Jana2000; Petricek and Dusek, 2000)'
_computing_structure_refinement  '(Jana2000; Petricek and Dusek, 2000)'
_diffrn_ambient_temperature      293
_diffrn_radiation_probe          neutron
_diffrn_radiation_type           neutron
_diffrn_radiation_wavelength     1.225
_exptl_absorpt_coefficient_mu    0.011
_exptl_absorpt_process_details
'(Jana2000; Petricek, Dusek & Palatinus, 2000)'
_exptl_crystal_density_diffrn    6.357
_exptl_crystal_F_000             310
_pd_instr_location               ' ?'
_pd_meas_2theta_range_inc        0.05
_pd_meas_2theta_range_max        125.700
_pd_meas_2theta_range_min        6.000
_pd_meas_number_of_points        2395
_pd_proc_2theta_range_inc        0.05
_pd_proc_2theta_range_max        125.7
_pd_proc_2theta_range_min        6
_pd_proc_ls_background_function  '8 Legendre polynoms'
_pd_proc_ls_pref_orient_corr     none
_pd_proc_ls_profile_function     Pseudo-Voigt
_pd_proc_ls_prof_R_factor        0.0447
_pd_proc_ls_prof_wR_expected     0.0883
_pd_proc_ls_prof_wR_factor       0.0575
_refine_ls_extinction_method     none
_refine_ls_number_parameters     40
_refine_ls_R_factor_all          0.0368
_refine_ls_R_factor_gt           0.0329
_refine_ls_shift/su_max          0.0388
_refine_ls_shift/su_mean         0.0091
_refine_ls_weighting_scheme      sigma
_refine_ls_wR_factor_gt          0.0355
_refine_ls_wR_factor_ref         0.0362
_cod_data_source_file            b701449j.txt
_cod_data_source_block           (I)
_cod_original_cell_volume        183.75(13)
_cod_original_formula_sum        'Cu1 La1.111 O3.506 Sr0.889'
_cod_database_code               7202742
loop_
_space_group_symop_ssg_id
_space_group_symop_ssg_operation_algebraic
1 x1,x2,x3,x4,x5
2 -x2,x1,x3,1/2+x5,1/2-x4
3 -x1,x2,x3,-x5,-x4
4 -x1,-x2,x3,-x4,-x5
5 -x2,-x1,x3,1/2-x4,1/2+x5
6 x2,-x1,x3,1/2-x5,1/2+x4
7 x1,-x2,x3,x5,x4
8 x2,x1,x3,1/2+x4,1/2-x5
9 -x1,-x2,-x3,-x4,-x5
10 x2,-x1,-x3,1/2-x5,1/2+x4
11 x1,-x2,-x3,x5,x4
12 x1,x2,-x3,x4,x5
13 x2,x1,-x3,1/2+x4,1/2-x5
14 -x2,x1,-x3,1/2+x5,1/2-x4
15 -x1,x2,-x3,-x5,-x4
16 -x2,-x1,-x3,1/2-x4,1/2+x5
17 1/2+x1,1/2+x2,1/2+x3,x4,x5
18 1/2-x2,1/2+x1,1/2+x3,1/2+x5,1/2-x4
19 1/2-x1,1/2+x2,1/2+x3,-x5,-x4
20 1/2-x1,1/2-x2,1/2+x3,-x4,-x5
21 1/2-x2,1/2-x1,1/2+x3,1/2-x4,1/2+x5
22 1/2+x2,1/2-x1,1/2+x3,1/2-x5,1/2+x4
23 1/2+x1,1/2-x2,1/2+x3,x5,x4
24 1/2+x2,1/2+x1,1/2+x3,1/2+x4,1/2-x5
25 1/2-x1,1/2-x2,1/2-x3,-x4,-x5
26 1/2+x2,1/2-x1,1/2-x3,1/2-x5,1/2+x4
27 1/2+x1,1/2-x2,1/2-x3,x5,x4
28 1/2+x1,1/2+x2,1/2-x3,x4,x5
29 1/2+x2,1/2+x1,1/2-x3,1/2+x4,1/2-x5
30 1/2-x2,1/2+x1,1/2-x3,1/2+x5,1/2-x4
31 1/2-x1,1/2+x2,1/2-x3,-x5,-x4
32 1/2-x2,1/2-x1,1/2-x3,1/2-x4,1/2+x5
loop_
_atom_site_label
_atom_site_type_symbol
_atom_site_fract_x
_atom_site_fract_y
_atom_site_fract_z
_atom_site_adp_type
_atom_site_U_iso_or_equiv
_atom_site_symmetry_multiplicity
_atom_site_occupancy
_atom_site_calc_flag
_atom_site_refinement_flags
_atom_site_disorder_assembly
_atom_site_disorder_group
La La 0 0 0.35747(9) Uani 0.0204(4) 4 0.5788 d . . .
Sr Sr 0 0 0.357474 Uani 0.0204(4) 4 0.4211 d . . .
Cu Cu 0 0 0 Uani 0.0208(5) 2 1 d . . .
O1 O 0 0 0.16894(19) Uani 0.0312(6) 4 1 d . . .
O2 O 0 0.5 0 Uani 0.0171(10) 4 0.7388 d . . .
loop_
_atom_site_aniso_label
_atom_site_aniso_type_symbol
_atom_site_aniso_U_11
_atom_site_aniso_U_22
_atom_site_aniso_U_33
_atom_site_aniso_U_12
_atom_site_aniso_U_13
_atom_site_aniso_U_23
La La 0.0202(6) 0.0202(6) 0.0208(6) 0 0 0
Sr Sr 0.0202(6) 0.0202(6) 0.0208(6) 0 0 0
Cu Cu 0.0192(8) 0.0192(8) 0.0241(12) 0 0 0
O1 O 0.0284(7) 0.0284(7) 0.0367(13) 0 0 0
O2 O 0.025(3) 0.0089(10) 0.0178(13) 0 0 0
loop_
_atom_site_displace_Fourier_atom_site_label
_atom_site_displace_Fourier_axis
_atom_site_displace_Fourier_wave_vector_seq_id
_atom_site_displace_Fourier_param_cos
_atom_site_displace_Fourier_param_sin
La x 1 0 0.0255(5)
La y 1 0 -0.0255(5)
La z 1 0 0
La x 2 0 0.0255(5)
La y 2 0 0.0255(5)
La z 2 0 0
Sr x 1 0 0.0255(5)
Sr y 1 0 -0.0255(5)
Sr z 1 0 0
Sr x 2 0 0.0255(5)
Sr y 2 0 0.0255(5)
Sr z 2 0 0
Cu x 1 0 0.0184(6)
Cu y 1 0 -0.0184(6)
Cu z 1 0 0
Cu x 2 0 0.0184(6)
Cu y 2 0 0.0184(6)
Cu z 2 0 0
O1 x 1 0 0.0252(6)
O1 y 1 0 -0.0252(6)
O1 z 1 0 0
O1 x 2 0 0.0252(6)
O1 y 2 0 0.0252(6)
O1 z 2 0 0
O2 x 1 0 0.0609(13)
O2 y 1 0 0.0053(11)
O2 z 1 0 0
O2 x 2 0 0.0609(13)
O2 y 2 0 -0.0053(11)
O2 z 2 0 0
loop_
_atom_site_Fourier_wave_vector_seq_id
_atom_site_Fourier_wave_vector_x
_atom_site_Fourier_wave_vector_y
_atom_site_Fourier_wave_vector_z
1 0.22222 0.22222 0.00000
2 0.22222 -0.22222 0.00000
loop_
_atom_site_occ_Fourier_atom_site_label
_atom_site_occ_Fourier_wave_vector_seq_id
_atom_site_occ_Fourier_param_cos
_atom_site_occ_Fourier_param_sin
La 1 0 0
La 2 0 0
Sr 1 0 0
Sr 2 0 0
O2 1 -0.213(9) 0
O2 2 -0.213(9) 0
loop_
_atom_type_symbol
_atom_type_scat_length_neutron
_atom_type_scat_source
La 8.240 International_Tables_Vol_C
Sr 7.020 International_Tables_Vol_C
Cu 7.718 International_Tables_Vol_C
O 5.803 International_Tables_Vol_C
loop_
_cell_wave_vector_seq_id
_cell_wave_vector_x
_cell_wave_vector_y
_cell_wave_vector_z
1 0.22222 0.22222 0.00000
2 0.22222 -0.22222 0.00000
loop_
_geom_angle_atom_site_label_1
_geom_angle_atom_site_label_2
_geom_angle_atom_site_label_3
_geom_angle_site_symmetry_1
_geom_angle_site_symmetry_2
_geom_angle_site_symmetry_3
_geom_angle_av
_geom_angle_min
_geom_angle_max
_geom_angle_publ_flag
La La La 1_455 . 1_545 90.00(7) 87.55(7) 92.43(8) yes
La La La 1_455 . 1_565 90.00(7) 87.55(7) 92.43(9) yes
La La La 1_455 . 1_655 178.05(7) 175.28(12) 180 yes
La La La 1_455 . 5_556 90 90 90 yes
La La La 1_455 . 21_445 60.84(6) 58.76(5) 62.82(6) yes
La La La 1_455 . 21_455 60.84(6) 58.76(5) 62.82(6) yes
La La La 1_455 . 21_545 119.14(7) 115.92(7) 122.22(7) yes
La La La 1_455 . 21_555 119.14(7) 115.92(7) 122.22(7) yes
La La Sr 1_455 . 1_455 0 0 0 yes
La La Sr 1_455 . 1_545 90.00(7) 87.55(7) 92.43(8) yes
La La Sr 1_455 . . 0 0 0 yes
La La Sr 1_455 . 1_565 90.00(7) 87.55(7) 92.43(9) yes
La La Sr 1_455 . 1_655 178.05(7) 175.28(12) 180 yes
La La Sr 1_455 . 5_556 90 90 90 yes
La La Sr 1_455 . 21_445 60.84(6) 58.76(5) 62.82(6) yes
La La Sr 1_455 . 21_455 60.84(6) 58.76(5) 62.82(6) yes
La La Sr 1_455 . 21_545 119.14(7) 115.92(7) 122.22(7) yes
La La Sr 1_455 . 21_555 119.14(7) 115.92(7) 122.22(7) yes
La La Cu 1_455 . 17_445 54.55(8) 52.11(8) 57.06(9) yes
La La Cu 1_455 . 17_455 54.55(8) 52.11(8) 57.06(9) yes
La La Cu 1_455 . 17_545 125.43(9) 121.61(9) 129.26(9) yes
La La Cu 1_455 . 17_555 125.43(9) 121.61(9) 129.26(9) yes
La La O1 1_455 . . 90.00(10) 89.94(14) 90.06(14) yes
La La O1 1_455 . 21_445 45.47(11) 41.81(10) 48.93(11) yes
La La O1 1_455 . 21_455 45.47(11) 41.81(10) 48.93(11) yes
La La O1 1_455 . 21_545 134.53(12) 128.95(12) 140.08(13) yes
La La O1 1_455 . 21_555 134.53(12) 128.95(12) 140.08(13) yes
La La O2 1_455 . 17_445 44.74(15) 40.04(13) 50.12(18) yes
La La O2 1_455 . 17_545 135.11(16) 129.88(18) 139.96(13) yes
La La Sr1 1_455 . 1_455 0 0 0 yes
La La Sr1 1_455 . 1_545 90.00(7) 87.55(7) 92.43(8) yes
La La Sr1 1_455 . . 0 0 0 yes
La La Sr1 1_455 . 1_565 90.00(7) 87.55(7) 92.43(9) yes
La La Sr1 1_455 . 1_655 178.05(7) 175.28(12) 180 yes
La La Sr1 1_455 . 5_556 90 90 90 yes
La La Sr1 1_455 . 21_445 60.84(6) 58.76(5) 62.82(6) yes
La La Sr1 1_455 . 21_455 60.84(6) 58.76(5) 62.82(6) yes
La La Sr1 1_455 . 21_545 119.14(7) 115.92(7) 122.22(7) yes
La La Sr1 1_455 . 21_555 119.14(7) 115.92(7) 122.22(7) yes
La La O21 1_455 . 17_545 90.02(19) 84.63(19) 95.53(19) yes
La La O21 1_455 . 17_555 90.02(19) 84.63(19) 95.53(19) yes
La La La 1_545 . 1_455 90.00(7) 87.55(7) 92.43(8) yes
La La La 1_545 . 1_565 178.05(7) 175.20(12) 180 yes
La La La 1_545 . 1_655 90.00(7) 87.55(7) 92.43(8) yes
La La La 1_545 . 5_556 90 90 90 yes
La La La 1_545 . 21_445 60.84(6) 58.89(6) 62.95(6) yes
La La La 1_545 . 21_455 119.14(7) 115.87(7) 122.19(7) yes
La La La 1_545 . 21_545 60.84(6) 58.89(6) 62.95(6) yes
La La La 1_545 . 21_555 119.14(7) 115.87(7) 122.19(6) yes
La La Sr 1_545 . 1_455 90.00(7) 87.55(7) 92.43(8) yes
La La Sr 1_545 . 1_545 0 0 0 yes
La La Sr 1_545 . . 0 0 0 yes
La La Sr 1_545 . 1_565 178.05(7) 175.20(12) 180 yes
La La Sr 1_545 . 1_655 90.00(7) 87.55(7) 92.43(8) yes
La La Sr 1_545 . 5_556 90 90 90 yes
La La Sr 1_545 . 21_445 60.84(6) 58.89(5) 62.95(6) yes
La La Sr 1_545 . 21_455 119.14(7) 115.87(7) 122.19(7) yes
La La Sr 1_545 . 21_545 60.84(6) 58.89(5) 62.95(6) yes
La La Sr 1_545 . 21_555 119.14(7) 115.87(7) 122.19(6) yes
La La Cu 1_545 . 17_445 54.55(8) 52.10(8) 57.08(9) yes
La La Cu 1_545 . 17_455 125.43(9) 121.40(10) 129.10(9) yes
La La Cu 1_545 . 17_545 54.55(8) 52.10(8) 57.08(9) yes
La La Cu 1_545 . 17_555 125.43(9) 121.40(10) 129.10(9) yes
La La O1 1_545 . . 90.00(10) 89.94(14) 90.06(14) yes
La La O1 1_545 . 21_445 45.47(11) 42.02(10) 49.14(10) yes
La La O1 1_545 . 21_455 134.53(12) 128.87(13) 139.99(13) yes
La La O1 1_545 . 21_545 45.47(11) 42.02(10) 49.14(10) yes
La La O1 1_545 . 21_555 134.53(12) 128.87(13) 139.99(13) yes
La La O2 1_545 . 17_445 90.02(19) 84.58(19) 95.5(2) yes
La La O2 1_545 . 17_545 90.02(19) 84.58(19) 95.5(2) yes
La La Sr1 1_545 . 1_455 90.00(7) 87.55(7) 92.43(8) yes
La La Sr1 1_545 . 1_545 0 0 0 yes
La La Sr1 1_545 . . 0 0 0 yes
La La Sr1 1_545 . 1_565 178.05(7) 175.20(12) 180 yes
La La Sr1 1_545 . 1_655 90.00(7) 87.55(7) 92.43(8) yes
La La Sr1 1_545 . 5_556 90 90 90 yes
La La Sr1 1_545 . 21_445 60.84(6) 58.89(5) 62.95(6) yes
La La Sr1 1_545 . 21_455 119.14(7) 115.87(7) 122.19(7) yes
La La Sr1 1_545 . 21_545 60.84(6) 58.89(5) 62.95(6) yes
La La Sr1 1_545 . 21_555 119.14(7) 115.87(7) 122.19(6) yes
La La O21 1_545 . 17_545 44.74(15) 39.99(13) 50.06(18) yes
La La O21 1_545 . 17_555 135.11(16) 129.94(18) 140.01(13) yes
La La La 1_565 . 1_455 90.00(7) 87.55(7) 92.43(9) yes
La La La 1_565 . 1_545 178.05(7) 175.20(12) 180 yes
La La La 1_565 . 1_655 90.00(7) 87.55(7) 92.43(9) yes
La La La 1_565 . 5_556 90 90 90 yes
La La La 1_565 . 21_445 119.14(7) 115.87(7) 122.19(7) yes
La La La 1_565 . 21_455 60.84(6) 58.89(6) 62.95(6) yes
La La La 1_565 . 21_545 119.14(7) 115.87(7) 122.19(6) yes
La La La 1_565 . 21_555 60.84(6) 58.89(6) 62.95(6) yes
La La Sr 1_565 . 1_455 90.00(7) 87.55(7) 92.43(9) yes
La La Sr 1_565 . 1_545 178.05(7) 175.20(12) 180 yes
La La Sr 1_565 . . 0 0 0 yes
La La Sr 1_565 . 1_565 0 0 0 yes
La La Sr 1_565 . 1_655 90.00(7) 87.55(7) 92.43(9) yes
La La Sr 1_565 . 5_556 90 90 90 yes
La La Sr 1_565 . 21_445 119.14(7) 115.87(7) 122.19(7) yes
La La Sr 1_565 . 21_455 60.84(6) 58.89(5) 62.95(6) yes
La La Sr 1_565 . 21_545 119.14(7) 115.87(7) 122.19(6) yes
La La Sr 1_565 . 21_555 60.84(6) 58.89(5) 62.95(6) yes
La La Cu 1_565 . 17_445 125.43(9) 121.40(10) 129.10(9) yes
La La Cu 1_565 . 17_455 54.55(8) 52.10(8) 57.08(9) yes
La La Cu 1_565 . 17_545 125.43(9) 121.40(10) 129.10(9) yes
La La Cu 1_565 . 17_555 54.55(8) 52.10(8) 57.08(9) yes
La La O1 1_565 . . 90.00(10) 89.94(14) 90.06(14) yes
La La O1 1_565 . 21_445 134.53(12) 128.87(13) 139.99(13) yes
La La O1 1_565 . 21_455 45.47(11) 42.02(10) 49.14(10) yes
La La O1 1_565 . 21_545 134.53(12) 128.87(13) 139.99(13) yes
La La O1 1_565 . 21_555 45.47(11) 42.02(10) 49.14(10) yes
La La O2 1_565 . 17_445 90.02(19) 84.58(19) 95.5(2) yes
La La O2 1_565 . 17_545 90.02(19) 84.58(19) 95.5(2) yes
La La Sr1 1_565 . 1_455 90.00(7) 87.55(7) 92.43(9) yes
La La Sr1 1_565 . 1_545 178.05(7) 175.20(12) 180 yes
La La Sr1 1_565 . . 0 0 0 yes
La La Sr1 1_565 . 1_565 0 0 0 yes
La La Sr1 1_565 . 1_655 90.00(7) 87.55(7) 92.43(9) yes
La La Sr1 1_565 . 5_556 90 90 90 yes
La La Sr1 1_565 . 21_445 119.14(7) 115.87(7) 122.19(7) yes
La La Sr1 1_565 . 21_455 60.84(6) 58.89(5) 62.95(6) yes
La La Sr1 1_565 . 21_545 119.14(7) 115.87(7) 122.19(6) yes
La La Sr1 1_565 . 21_555 60.84(6) 58.89(5) 62.95(6) yes
La La O21 1_565 . 17_545 135.11(16) 129.94(18) 140.01(13) yes
La La O21 1_565 . 17_555 44.74(15) 39.99(13) 50.06(18) yes
La La La 1_655 . 1_455 178.05(7) 175.28(12) 180 yes
La La La 1_655 . 1_545 90.00(7) 87.55(7) 92.43(8) yes
La La La 1_655 . 1_565 90.00(7) 87.55(7) 92.43(9) yes
La La La 1_655 . 5_556 90 90 90 yes
La La La 1_655 . 21_445 119.14(7) 115.92(7) 122.22(7) yes
La La La 1_655 . 21_455 119.14(7) 115.92(7) 122.22(7) yes
La La La 1_655 . 21_545 60.84(6) 58.76(5) 62.82(6) yes
La La La 1_655 . 21_555 60.84(6) 58.76(5) 62.82(6) yes
La La Sr 1_655 . 1_455 178.05(7) 175.28(12) 180 yes
La La Sr 1_655 . 1_545 90.00(7) 87.55(7) 92.43(8) yes
La La Sr 1_655 . . 0 0 0 yes
La La Sr 1_655 . 1_565 90.00(7) 87.55(7) 92.43(9) yes
La La Sr 1_655 . 1_655 0 0 0 yes
La La Sr 1_655 . 5_556 90 90 90 yes
La La Sr 1_655 . 21_445 119.14(7) 115.92(7) 122.22(7) yes
La La Sr 1_655 . 21_455 119.14(7) 115.92(7) 122.22(7) yes
La La Sr 1_655 . 21_545 60.84(6) 58.76(5) 62.82(6) yes
La La Sr 1_655 . 21_555 60.84(6) 58.76(5) 62.82(6) yes
La La Cu 1_655 . 17_445 125.43(9) 121.61(9) 129.26(9) yes
La La Cu 1_655 . 17_455 125.43(9) 121.61(9) 129.26(9) yes
La La Cu 1_655 . 17_545 54.55(8) 52.11(8) 57.06(9) yes
La La Cu 1_655 . 17_555 54.55(8) 52.11(8) 57.06(9) yes
La La O1 1_655 . . 90.00(10) 89.94(14) 90.06(14) yes
La La O1 1_655 . 21_445 134.53(12) 128.95(12) 140.08(13) yes
La La O1 1_655 . 21_455 134.53(12) 128.95(12) 140.08(13) yes
La La O1 1_655 . 21_545 45.47(11) 41.81(10) 48.93(11) yes
La La O1 1_655 . 21_555 45.47(11) 41.81(10) 48.93(11) yes
La La O2 1_655 . 17_445 135.11(16) 129.88(18) 139.96(13) yes
La La O2 1_655 . 17_545 44.74(15) 40.04(13) 50.12(18) yes
La La Sr1 1_655 . 1_455 178.05(7) 175.28(12) 180 yes
La La Sr1 1_655 . 1_545 90.00(7) 87.55(7) 92.43(8) yes
La La Sr1 1_655 . . 0 0 0 yes
La La Sr1 1_655 . 1_565 90.00(7) 87.55(7) 92.43(9) yes
La La Sr1 1_655 . 1_655 0 0 0 yes
La La Sr1 1_655 . 5_556 90 90 90 yes
La La Sr1 1_655 . 21_445 119.14(7) 115.92(7) 122.22(7) yes
La La Sr1 1_655 . 21_455 119.14(7) 115.92(7) 122.22(7) yes
La La Sr1 1_655 . 21_545 60.84(6) 58.76(5) 62.82(6) yes
La La Sr1 1_655 . 21_555 60.84(6) 58.76(5) 62.82(6) yes
La La O21 1_655 . 17_545 90.02(19) 84.63(19) 95.53(19) yes
La La O21 1_655 . 17_555 90.02(19) 84.63(19) 95.53(19) yes
La La La 5_556 . 1_455 90 90 90 yes
La La La 5_556 . 1_545 90 90 90 yes
La La La 5_556 . 1_565 90 90 90 yes
La La La 5_556 . 1_655 90 90 90 yes
La La La 5_556 . 21_445 136.42(7) 136.39(5) 136.45(6) yes
La La La 5_556 . 21_455 136.42(7) 136.39(5) 136.45(6) yes
La La La 5_556 . 21_545 136.42(7) 136.39(5) 136.45(5) yes
La La La 5_556 . 21_555 136.42(7) 136.39(5) 136.45(5) yes
La La Sr 5_556 . 1_455 90 90 90 yes
La La Sr 5_556 . 1_545 90 90 90 yes
La La Sr 5_556 . . 0 0 0 yes
La La Sr 5_556 . 1_565 90 90 90 yes
La La Sr 5_556 . 1_655 90 90 90 yes
La La Sr 5_556 . 5_556 0 0 0 yes
La La Sr 5_556 . 21_445 136.42(7) 136.39(5) 136.45(6) yes
La La Sr 5_556 . 21_455 136.42(7) 136.39(5) 136.45(6) yes
La La Sr 5_556 . 21_545 136.42(7) 136.39(5) 136.45(5) yes
La La Sr 5_556 . 21_555 136.42(7) 136.39(5) 136.45(5) yes
La La Cu 5_556 . 17_445 55.12(6) 54.72(6) 55.52(7) yes
La La Cu 5_556 . 17_455 55.12(6) 54.72(6) 55.52(7) yes
La La Cu 5_556 . 17_545 55.12(6) 54.72(6) 55.52(7) yes
La La Cu 5_556 . 17_555 55.12(6) 54.72(6) 55.52(7) yes
La La O1 5_556 . . 180 180 180 yes
La La O1 5_556 . 21_445 97.36(7) 97.35(8) 97.37(8) yes
La La O1 5_556 . 21_455 97.36(7) 97.35(8) 97.37(8) yes
La La O1 5_556 . 21_545 97.36(7) 97.35(8) 97.37(8) yes
La La O1 5_556 . 21_555 97.36(7) 97.35(8) 97.37(8) yes
La La O2 5_556 . 17_445 45.33(15) 39.88(18) 49.96(13) yes
La La O2 5_556 . 17_545 45.33(15) 39.88(18) 49.96(13) yes
La La Sr1 5_556 . 1_455 90 90 90 yes
La La Sr1 5_556 . 1_545 90 90 90 yes
La La Sr1 5_556 . . 0 0 0 yes
La La Sr1 5_556 . 1_565 90 90 90 yes
La La Sr1 5_556 . 1_655 90 90 90 yes
La La Sr1 5_556 . 5_556 0 0 0 yes
La La Sr1 5_556 . 21_445 136.42(7) 136.39(5) 136.45(6) yes
La La Sr1 5_556 . 21_455 136.42(7) 136.39(5) 136.45(6) yes
La La Sr1 5_556 . 21_545 136.42(7) 136.39(5) 136.45(5) yes
La La Sr1 5_556 . 21_555 136.42(7) 136.39(5) 136.45(5) yes
La La O21 5_556 . 17_545 45.33(15) 39.94(18) 50.01(13) yes
La La O21 5_556 . 17_555 45.33(15) 39.94(18) 50.01(13) yes
La La La 21_445 . 1_455 60.84(5) 58.76(4) 62.82(6) yes
La La La 21_445 . 1_545 60.84(5) 58.89(4) 62.95(5) yes
La La La 21_445 . 1_565 119.14(6) 115.87(6) 122.19(6) yes
La La La 21_445 . 1_655 119.14(6) 115.92(5) 122.22(6) yes
La La La 21_445 . 5_556 136.42(8) 136.39(6) 136.45(7) yes
La La La 21_445 . 21_455 58.32(6) 54.10(6) 62.23(6) yes
La La La 21_445 . 21_545 58.32(6) 54.35(5) 62.48(6) yes
La La La 21_445 . 21_555 87.11(5) 87.06(5) 87.17(5) yes
La La Sr 21_445 . 1_455 60.84(5) 58.76(4) 62.82(6) yes
La La Sr 21_445 . 1_545 60.84(5) 58.89(4) 62.95(5) yes
La La Sr 21_445 . . 0 0 0 yes
La La Sr 21_445 . 1_565 119.14(6) 115.87(6) 122.19(6) yes
La La Sr 21_445 . 1_655 119.14(6) 115.92(5) 122.22(6) yes
La La Sr 21_445 . 5_556 136.42(8) 136.39(6) 136.45(7) yes
La La Sr 21_445 . 21_445 0 0 0 yes
La La Sr 21_445 . 21_455 58.32(6) 54.10(6) 62.23(6) yes
La La Sr 21_445 . 21_545 58.32(6) 54.35(5) 62.48(5) yes
La La Sr 21_445 . 21_555 87.11(5) 87.06(5) 87.17(5) yes
La La Cu 21_445 . 17_445 81.30(7) 80.87(7) 81.73(8) yes
La La Cu 21_445 . 17_455 114.49(9) 110.03(8) 118.96(10) yes
La La Cu 21_445 . 17_545 114.49(9) 110.10(10) 119.03(8) yes
La La Cu 21_445 . 17_555 168.15(7) 167.50(10) 168.83(8) yes
La La O1 21_445 . . 43.58(12) 43.51(12) 43.65(12) yes
La La O1 21_445 . 21_445 39.06(6) 39.03(6) 39.09(7) yes
La La O1 21_445 . 21_455 84.67(9) 79.53(9) 89.50(9) yes
La La O1 21_445 . 21_545 84.67(9) 79.83(9) 89.80(9) yes
La La O1 21_445 . 21_555 126.13(7) 126.03(7) 126.23(8) yes
La La O2 21_445 . 17_445 99.39(17) 94.63(14) 104.80(18) yes
La La O2 21_445 . 17_545 148.82(19) 142.2(2) 155.4(2) yes
La La Sr1 21_445 . 1_455 60.84(5) 58.76(4) 62.82(6) yes
La La Sr1 21_445 . 1_545 60.84(5) 58.89(4) 62.95(5) yes
La La Sr1 21_445 . . 0 0 0 yes
La La Sr1 21_445 . 1_565 119.14(6) 115.87(6) 122.19(6) yes
La La Sr1 21_445 . 1_655 119.14(6) 115.92(5) 122.22(6) yes
La La Sr1 21_445 . 5_556 136.42(8) 136.39(6) 136.45(7) yes
La La Sr1 21_445 . 21_445 0 0 0 yes
La La Sr1 21_445 . 21_455 58.32(6) 54.10(6) 62.23(6) yes
La La Sr1 21_445 . 21_545 58.32(6) 54.35(5) 62.48(5) yes
La La Sr1 21_445 . 21_555 87.11(5) 87.06(5) 87.17(5) yes
La La O21 21_445 . 17_545 99.39(17) 94.50(14) 104.83(19) yes
La La O21 21_445 . 17_555 148.82(19) 142.4(2) 155.3(2) yes
La La La 21_455 . 1_455 60.84(5) 58.76(4) 62.82(6) yes
La La La 21_455 . 1_545 119.14(6) 115.87(6) 122.19(6) yes
La La La 21_455 . 1_565 60.84(5) 58.89(4) 62.95(5) yes
La La La 21_455 . 1_655 119.14(6) 115.92(5) 122.22(6) yes
La La La 21_455 . 5_556 136.42(8) 136.39(6) 136.45(7) yes
La La La 21_455 . 21_445 58.32(6) 54.10(6) 62.23(6) yes
La La La 21_455 . 21_545 87.11(5) 87.06(5) 87.17(5) yes
La La La 21_455 . 21_555 58.32(6) 54.35(5) 62.48(6) yes
La La Sr 21_455 . 1_455 60.84(5) 58.76(4) 62.82(6) yes
La La Sr 21_455 . 1_545 119.14(6) 115.87(6) 122.19(6) yes
La La Sr 21_455 . . 0 0 0 yes
La La Sr 21_455 . 1_565 60.84(5) 58.89(4) 62.95(5) yes
La La Sr 21_455 . 1_655 119.14(6) 115.92(5) 122.22(6) yes
La La Sr 21_455 . 5_556 136.42(8) 136.39(6) 136.45(7) yes
La La Sr 21_455 . 21_445 58.32(6) 54.10(6) 62.23(6) yes
La La Sr 21_455 . 21_455 0 0 0 yes
La La Sr 21_455 . 21_545 87.11(5) 87.06(5) 87.17(5) yes
La La Sr 21_455 . 21_555 58.32(6) 54.35(5) 62.48(5) yes
La La Cu 21_455 . 17_445 114.49(9) 110.03(8) 118.96(10) yes
La La Cu 21_455 . 17_455 81.30(7) 80.87(7) 81.73(8) yes
La La Cu 21_455 . 17_545 168.15(7) 167.50(10) 168.83(8) yes
La La Cu 21_455 . 17_555 114.49(9) 110.10(10) 119.03(8) yes
La La O1 21_455 . . 43.58(12) 43.51(12) 43.65(12) yes
La La O1 21_455 . 21_445 84.67(9) 79.53(9) 89.50(9) yes
La La O1 21_455 . 21_455 39.06(6) 39.03(6) 39.09(7) yes
La La O1 21_455 . 21_545 126.13(7) 126.03(7) 126.23(8) yes
La La O1 21_455 . 21_555 84.67(9) 79.83(9) 89.80(9) yes
La La O2 21_455 . 17_445 99.39(17) 94.63(14) 104.80(18) yes
La La O2 21_455 . 17_545 148.82(19) 142.2(2) 155.4(2) yes
La La Sr1 21_455 . 1_455 60.84(5) 58.76(4) 62.82(6) yes
La La Sr1 21_455 . 1_545 119.14(6) 115.87(6) 122.19(6) yes
La La Sr1 21_455 . . 0 0 0 yes
La La Sr1 21_455 . 1_565 60.84(5) 58.89(4) 62.95(5) yes
La La Sr1 21_455 . 1_655 119.14(6) 115.92(5) 122.22(6) yes
La La Sr1 21_455 . 5_556 136.42(8) 136.39(6) 136.45(7) yes
La La Sr1 21_455 . 21_445 58.32(6) 54.10(6) 62.23(6) yes
La La Sr1 21_455 . 21_455 0 0 0 yes
La La Sr1 21_455 . 21_545 87.11(5) 87.06(5) 87.17(5) yes
La La Sr1 21_455 . 21_555 58.32(6) 54.35(5) 62.48(5) yes
La La O21 21_455 . 17_545 148.82(19) 142.4(2) 155.3(2) yes
La La O21 21_455 . 17_555 99.39(17) 94.50(14) 104.83(19) yes
La La La 21_545 . 1_455 119.14(6) 115.92(7) 122.22(6) yes
La La La 21_545 . 1_545 60.84(5) 58.89(5) 62.95(5) yes
La La La 21_545 . 1_565 119.14(6) 115.87(6) 122.19(5) yes
La La La 21_545 . 1_655 60.84(5) 58.76(4) 62.82(4) yes
La La La 21_545 . 5_556 136.42(8) 136.39(6) 136.45(6) yes
La La La 21_545 . 21_445 58.32(6) 54.35(6) 62.48(6) yes
La La La 21_545 . 21_455 87.11(5) 87.06(5) 87.17(5) yes
La La La 21_545 . 21_555 58.32(6) 54.10(6) 62.23(5) yes
La La Sr 21_545 . 1_455 119.14(6) 115.92(7) 122.22(6) yes
La La Sr 21_545 . 1_545 60.84(5) 58.89(5) 62.95(5) yes
La La Sr 21_545 . . 0 0 0 yes
La La Sr 21_545 . 1_565 119.14(6) 115.87(6) 122.19(5) yes
La La Sr 21_545 . 1_655 60.84(5) 58.76(4) 62.82(4) yes
La La Sr 21_545 . 5_556 136.42(8) 136.39(6) 136.45(6) yes
La La Sr 21_545 . 21_445 58.32(6) 54.35(6) 62.48(5) yes
La La Sr 21_545 . 21_455 87.11(5) 87.06(5) 87.17(5) yes
La La Sr 21_545 . 21_545 0 0 0 yes
La La Sr 21_545 . 21_555 58.32(6) 54.10(6) 62.23(5) yes
La La Cu 21_545 . 17_445 114.49(9) 110.10(10) 119.03(8) yes
La La Cu 21_545 . 17_455 168.15(7) 167.50(10) 168.83(8) yes
La La Cu 21_545 . 17_545 81.30(7) 80.87(7) 81.73(8) yes
La La Cu 21_545 . 17_555 114.49(9) 110.03(8) 118.96(10) yes
La La O1 21_545 . . 43.58(12) 43.51(12) 43.65(12) yes
La La O1 21_545 . 21_445 84.67(9) 79.83(9) 89.80(9) yes
La La O1 21_545 . 21_455 126.13(7) 126.03(7) 126.23(8) yes
La La O1 21_545 . 21_545 39.06(6) 39.03(6) 39.09(7) yes
La La O1 21_545 . 21_555 84.67(9) 79.53(9) 89.50(9) yes
La La O2 21_545 . 17_445 148.82(19) 142.2(2) 155.4(2) yes
La La O2 21_545 . 17_545 99.39(17) 94.63(14) 104.80(18) yes
La La Sr1 21_545 . 1_455 119.14(6) 115.92(7) 122.22(6) yes
La La Sr1 21_545 . 1_545 60.84(5) 58.89(5) 62.95(5) yes
La La Sr1 21_545 . . 0 0 0 yes
La La Sr1 21_545 . 1_565 119.14(6) 115.87(6) 122.19(5) yes
La La Sr1 21_545 . 1_655 60.84(5) 58.76(4) 62.82(4) yes
La La Sr1 21_545 . 5_556 136.42(8) 136.39(6) 136.45(6) yes
La La Sr1 21_545 . 21_445 58.32(6) 54.35(6) 62.48(5) yes
La La Sr1 21_545 . 21_455 87.11(5) 87.06(5) 87.17(5) yes
La La Sr1 21_545 . 21_545 0 0 0 yes
La La Sr1 21_545 . 21_555 58.32(6) 54.10(6) 62.23(5) yes
La La O21 21_545 . 17_545 99.39(17) 94.50(14) 104.83(19) yes
La La O21 21_545 . 17_555 148.82(19) 142.4(2) 155.3(2) yes
La La La 21_555 . 1_455 119.14(6) 115.92(7) 122.22(6) yes
La La La 21_555 . 1_545 119.14(6) 115.87(6) 122.19(5) yes
La La La 21_555 . 1_565 60.84(5) 58.89(5) 62.95(5) yes
La La La 21_555 . 1_655 60.84(5) 58.76(4) 62.82(4) yes
La La La 21_555 . 5_556 136.42(8) 136.39(6) 136.45(6) yes
La La La 21_555 . 21_445 87.11(5) 87.06(5) 87.17(5) yes
La La La 21_555 . 21_455 58.32(6) 54.35(6) 62.48(6) yes
La La La 21_555 . 21_545 58.32(6) 54.10(6) 62.23(5) yes
La La Sr 21_555 . 1_455 119.14(6) 115.92(7) 122.22(6) yes
La La Sr 21_555 . 1_545 119.14(6) 115.87(6) 122.19(5) yes
La La Sr 21_555 . . 0 0 0 yes
La La Sr 21_555 . 1_565 60.84(5) 58.89(5) 62.95(5) yes
La La Sr 21_555 . 1_655 60.84(5) 58.76(4) 62.82(4) yes
La La Sr 21_555 . 5_556 136.42(8) 136.39(6) 136.45(6) yes
La La Sr 21_555 . 21_445 87.11(5) 87.06(5) 87.17(5) yes
La La Sr 21_555 . 21_455 58.32(6) 54.35(6) 62.48(5) yes
La La Sr 21_555 . 21_545 58.32(6) 54.10(6) 62.23(5) yes
La La Sr 21_555 . 21_555 0 0 0 yes
La La Cu 21_555 . 17_445 168.15(7) 167.50(10) 168.83(8) yes
La La Cu 21_555 . 17_455 114.49(9) 110.10(10) 119.03(8) yes
La La Cu 21_555 . 17_545 114.49(9) 110.03(8) 118.96(10) yes
La La Cu 21_555 . 17_555 81.30(7) 80.87(7) 81.73(8) yes
La La O1 21_555 . . 43.58(12) 43.51(12) 43.65(12) yes
La La O1 21_555 . 21_445 126.13(7) 126.03(7) 126.23(8) yes
La La O1 21_555 . 21_455 84.67(9) 79.83(9) 89.80(9) yes
La La O1 21_555 . 21_545 84.67(9) 79.53(9) 89.50(9) yes
La La O1 21_555 . 21_555 39.06(6) 39.03(6) 39.09(7) yes
La La O2 21_555 . 17_445 148.82(19) 142.2(2) 155.4(2) yes
La La O2 21_555 . 17_545 99.39(17) 94.63(14) 104.80(18) yes
La La Sr1 21_555 . 1_455 119.14(6) 115.92(7) 122.22(6) yes
La La Sr1 21_555 . 1_545 119.14(6) 115.87(6) 122.19(5) yes
La La Sr1 21_555 . . 0 0 0 yes
La La Sr1 21_555 . 1_565 60.84(5) 58.89(5) 62.95(5) yes
La La Sr1 21_555 . 1_655 60.84(5) 58.76(4) 62.82(4) yes
La La Sr1 21_555 . 5_556 136.42(8) 136.39(6) 136.45(6) yes
La La Sr1 21_555 . 21_445 87.11(5) 87.06(5) 87.17(5) yes
La La Sr1 21_555 . 21_455 58.32(6) 54.35(6) 62.48(5) yes
La La Sr1 21_555 . 21_545 58.32(6) 54.10(6) 62.23(5) yes
La La Sr1 21_555 . 21_555 0 0 0 yes
La La O21 21_555 . 17_545 148.82(19) 142.4(2) 155.3(2) yes
La La O21 21_555 . 17_555 99.39(17) 94.50(14) 104.83(19) yes
Sr La Sr 1_455 . 1_545 90.00(7) 87.55(7) 92.43(8) yes
Sr La Sr 1_455 . . 0 0 0 yes
Sr La Sr 1_455 . 1_565 90.00(7) 87.55(7) 92.43(9) yes
Sr La Sr 1_455 . 1_655 178.05(7) 175.28(12) 180 yes
Sr La Sr 1_455 . 5_556 90 90 90 yes
Sr La Sr 1_455 . 21_445 60.84(6) 58.76(5) 62.82(6) yes
Sr La Sr 1_455 . 21_455 60.84(6) 58.76(5) 62.82(6) yes
Sr La Sr 1_455 . 21_545 119.14(7) 115.92(7) 122.22(7) yes
Sr La Sr 1_455 . 21_555 119.14(7) 115.92(7) 122.22(7) yes
Sr La Cu 1_455 . 17_445 54.55(8) 52.11(8) 57.06(9) yes
Sr La Cu 1_455 . 17_455 54.55(8) 52.11(8) 57.06(9) yes
Sr La Cu 1_455 . 17_545 125.43(9) 121.61(9) 129.26(9) yes
Sr La Cu 1_455 . 17_555 125.43(9) 121.61(9) 129.26(9) yes
Sr La O1 1_455 . . 90.00(10) 89.94(14) 90.06(14) yes
Sr La O1 1_455 . 21_445 45.47(11) 41.81(10) 48.93(11) yes
Sr La O1 1_455 . 21_455 45.47(11) 41.81(10) 48.93(11) yes
Sr La O1 1_455 . 21_545 134.53(12) 128.95(12) 140.08(13) yes
Sr La O1 1_455 . 21_555 134.53(12) 128.95(12) 140.08(13) yes
Sr La O2 1_455 . 17_445 44.74(15) 40.04(13) 50.12(18) yes
Sr La O2 1_455 . 17_545 135.11(16) 129.88(18) 139.96(13) yes
Sr La Sr1 1_455 . 1_455 0 0 0 yes
Sr La Sr1 1_455 . 1_545 90.00(7) 87.55(7) 92.43(8) yes
Sr La Sr1 1_455 . . 0 0 0 yes
Sr La Sr1 1_455 . 1_565 90.00(7) 87.55(7) 92.43(9) yes
Sr La Sr1 1_455 . 1_655 178.05(7) 175.28(12) 180 yes
Sr La Sr1 1_455 . 5_556 90 90 90 yes
Sr La Sr1 1_455 . 21_445 60.84(6) 58.76(5) 62.82(6) yes
Sr La Sr1 1_455 . 21_455 60.84(6) 58.76(5) 62.82(6) yes
Sr La Sr1 1_455 . 21_545 119.14(7) 115.92(7) 122.22(7) yes
Sr La Sr1 1_455 . 21_555 119.14(7) 115.92(7) 122.22(7) yes
Sr La O21 1_455 . 17_545 90.02(19) 84.63(19) 95.53(19) yes
Sr La O21 1_455 . 17_555 90.02(19) 84.63(19) 95.53(19) yes
Sr La Sr 1_545 . 1_455 90.00(7) 87.55(7) 92.43(8) yes
Sr La Sr 1_545 . . 0 0 0 yes
Sr La Sr 1_545 . 1_565 178.05(7) 175.20(12) 180 yes
Sr La Sr 1_545 . 1_655 90.00(7) 87.55(7) 92.43(8) yes
Sr La Sr 1_545 . 5_556 90 90 90 yes
Sr La Sr 1_545 . 21_445 60.84(6) 58.89(5) 62.95(6) yes
Sr La Sr 1_545 . 21_455 119.14(7) 115.87(7) 122.19(7) yes
Sr La Sr 1_545 . 21_545 60.84(6) 58.89(5) 62.95(6) yes
Sr La Sr 1_545 . 21_555 119.14(7) 115.87(7) 122.19(6) yes
Sr La Cu 1_545 . 17_445 54.55(8) 52.10(8) 57.08(8) yes
Sr La Cu 1_545 . 17_455 125.43(9) 121.40(10) 129.10(9) yes
Sr La Cu 1_545 . 17_545 54.55(8) 52.10(8) 57.08(8) yes
Sr La Cu 1_545 . 17_555 125.43(9) 121.40(10) 129.10(9) yes
Sr La O1 1_545 . . 90.00(10) 89.94(14) 90.06(14) yes
Sr La O1 1_545 . 21_445 45.47(11) 42.02(10) 49.14(10) yes
Sr La O1 1_545 . 21_455 134.53(12) 128.87(13) 139.99(13) yes
Sr La O1 1_545 . 21_545 45.47(11) 42.02(10) 49.14(10) yes
Sr La O1 1_545 . 21_555 134.53(12) 128.87(13) 139.99(13) yes
Sr La O2 1_545 . 17_445 90.02(19) 84.58(19) 95.5(2) yes
Sr La O2 1_545 . 17_545 90.02(19) 84.58(19) 95.5(2) yes
Sr La Sr1 1_545 . 1_455 90.00(7) 87.55(7) 92.43(8) yes
Sr La Sr1 1_545 . 1_545 0 0 0 yes
Sr La Sr1 1_545 . . 0 0 0 yes
Sr La Sr1 1_545 . 1_565 178.05(7) 175.20(12) 180 yes
Sr La Sr1 1_545 . 1_655 90.00(7) 87.55(7) 92.43(8) yes
Sr La Sr1 1_545 . 5_556 90 90 90 yes
Sr La Sr1 1_545 . 21_445 60.84(6) 58.89(5) 62.95(6) yes
Sr La Sr1 1_545 . 21_455 119.14(7) 115.87(7) 122.19(7) yes
Sr La Sr1 1_545 . 21_545 60.84(6) 58.89(5) 62.95(6) yes
Sr La Sr1 1_545 . 21_555 119.14(7) 115.87(7) 122.19(6) yes
Sr La O21 1_545 . 17_545 44.74(15) 39.99(12) 50.06(18) yes
Sr La O21 1_545 . 17_555 135.11(16) 129.94(18) 140.01(13) yes
Sr La Sr . . 1_455 0 0 0 yes
Sr La Sr . . 1_545 0 0 0 yes
Sr La Sr . . 1_565 0 0 0 yes
Sr La Sr . . 1_655 0 0 0 yes
Sr La Sr . . 5_556 0 0 0 yes
Sr La Sr . . 21_445 0 0 0 yes
Sr La Sr . . 21_455 0 0 0 yes
Sr La Sr . . 21_545 0 0 0 yes
Sr La Sr . . 21_555 0 0 0 yes
Sr La Cu . . 17_445 0 0 0 yes
Sr La Cu . . 17_455 0 0 0 yes
Sr La Cu . . 17_545 0 0 0 yes
Sr La Cu . . 17_555 0 0 0 yes
Sr La O1 . . . 0 0 0 yes
Sr La O1 . . 21_445 0 0 0 yes
Sr La O1 . . 21_455 0 0 0 yes
Sr La O1 . . 21_545 0 0 0 yes
Sr La O1 . . 21_555 0 0 0 yes
Sr La O2 . . 17_445 0 0 0 yes
Sr La O2 . . 17_545 0 0 0 yes
Sr La Sr1 . . 1_455 0 0 0 yes
Sr La Sr1 . . 1_545 0 0 0 yes
Sr La Sr1 . . . 0 0 0 yes
Sr La Sr1 . . 1_565 0 0 0 yes
Sr La Sr1 . . 1_655 0 0 0 yes
Sr La Sr1 . . 5_556 0 0 0 yes
Sr La Sr1 . . 21_445 0 0 0 yes
Sr La Sr1 . . 21_455 0 0 0 yes
Sr La Sr1 . . 21_545 0 0 0 yes
Sr La Sr1 . . 21_555 0 0 0 yes
Sr La O21 . . 17_545 0 0 0 yes
Sr La O21 . . 17_555 0 0 0 yes
Sr La Sr 1_565 . 1_455 90.00(7) 87.55(7) 92.43(9) yes
Sr La Sr 1_565 . 1_545 178.05(7) 175.20(12) 180 yes
Sr La Sr 1_565 . . 0 0 0 yes
Sr La Sr 1_565 . 1_655 90.00(7) 87.55(7) 92.43(9) yes
Sr La Sr 1_565 . 5_556 90 90 90 yes
Sr La Sr 1_565 . 21_445 119.14(7) 115.87(7) 122.19(7) yes
Sr La Sr 1_565 . 21_455 60.84(6) 58.89(5) 62.95(6) yes
Sr La Sr 1_565 . 21_545 119.14(7) 115.87(7) 122.19(6) yes
Sr La Sr 1_565 . 21_555 60.84(6) 58.89(5) 62.95(6) yes
Sr La Cu 1_565 . 17_445 125.43(9) 121.40(10) 129.10(9) yes
Sr La Cu 1_565 . 17_455 54.55(8) 52.10(8) 57.08(8) yes
Sr La Cu 1_565 . 17_545 125.43(9) 121.40(10) 129.10(9) yes
Sr La Cu 1_565 . 17_555 54.55(8) 52.10(8) 57.08(8) yes
Sr La O1 1_565 . . 90.00(10) 89.94(14) 90.06(14) yes
Sr La O1 1_565 . 21_445 134.53(12) 128.87(13) 139.99(13) yes
Sr La O1 1_565 . 21_455 45.47(11) 42.02(10) 49.14(10) yes
Sr La O1 1_565 . 21_545 134.53(12) 128.87(13) 139.99(13) yes
Sr La O1 1_565 . 21_555 45.47(11) 42.02(10) 49.14(10) yes
Sr La O2 1_565 . 17_445 90.02(19) 84.58(19) 95.5(2) yes
Sr La O2 1_565 . 17_545 90.02(19) 84.58(19) 95.5(2) yes
Sr La Sr1 1_565 . 1_455 90.00(7) 87.55(7) 92.43(9) yes
Sr La Sr1 1_565 . 1_545 178.05(7) 175.20(12) 180 yes
Sr La Sr1 1_565 . . 0 0 0 yes
Sr La Sr1 1_565 . 1_565 0 0 0 yes
Sr La Sr1 1_565 . 1_655 90.00(7) 87.55(7) 92.43(9) yes
Sr La Sr1 1_565 . 5_556 90 90 90 yes
Sr La Sr1 1_565 . 21_445 119.14(7) 115.87(7) 122.19(7) yes
Sr La Sr1 1_565 . 21_455 60.84(6) 58.89(5) 62.95(6) yes
Sr La Sr1 1_565 . 21_545 119.14(7) 115.87(7) 122.19(6) yes
Sr La Sr1 1_565 . 21_555 60.84(6) 58.89(5) 62.95(6) yes
Sr La O21 1_565 . 17_545 135.11(16) 129.94(18) 140.01(13) yes
Sr La O21 1_565 . 17_555 44.74(15) 39.99(12) 50.06(18) yes
Sr La Sr 1_655 . 1_455 178.05(7) 175.28(12) 180 yes
Sr La Sr 1_655 . 1_545 90.00(7) 87.55(7) 92.43(8) yes
Sr La Sr 1_655 . . 0 0 0 yes
Sr La Sr 1_655 . 1_565 90.00(7) 87.55(7) 92.43(9) yes
Sr La Sr 1_655 . 5_556 90 90 90 yes
Sr La Sr 1_655 . 21_445 119.14(7) 115.92(6) 122.22(7) yes
Sr La Sr 1_655 . 21_455 119.14(7) 115.92(6) 122.22(7) yes
Sr La Sr 1_655 . 21_545 60.84(6) 58.76(5) 62.82(6) yes
Sr La Sr 1_655 . 21_555 60.84(6) 58.76(5) 62.82(6) yes
Sr La Cu 1_655 . 17_445 125.43(9) 121.61(9) 129.26(9) yes
Sr La Cu 1_655 . 17_455 125.43(9) 121.61(9) 129.26(9) yes
Sr La Cu 1_655 . 17_545 54.55(8) 52.11(8) 57.06(9) yes
Sr La Cu 1_655 . 17_555 54.55(8) 52.11(8) 57.06(9) yes
Sr La O1 1_655 . . 90.00(10) 89.94(14) 90.06(14) yes
Sr La O1 1_655 . 21_445 134.53(12) 128.95(12) 140.08(13) yes
Sr La O1 1_655 . 21_455 134.53(12) 128.95(12) 140.08(13) yes
Sr La O1 1_655 . 21_545 45.47(11) 41.81(10) 48.93(11) yes
Sr La O1 1_655 . 21_555 45.47(11) 41.81(10) 48.93(11) yes
Sr La O2 1_655 . 17_445 135.11(16) 129.88(18) 139.96(13) yes
Sr La O2 1_655 . 17_545 44.74(15) 40.04(13) 50.12(18) yes
Sr La Sr1 1_655 . 1_455 178.05(7) 175.28(12) 180 yes
Sr La Sr1 1_655 . 1_545 90.00(7) 87.55(7) 92.43(8) yes
Sr La Sr1 1_655 . . 0 0 0 yes
Sr La Sr1 1_655 . 1_565 90.00(7) 87.55(7) 92.43(9) yes
Sr La Sr1 1_655 . 1_655 0 0 0 yes
Sr La Sr1 1_655 . 5_556 90 90 90 yes
Sr La Sr1 1_655 . 21_445 119.14(7) 115.92(6) 122.22(7) yes
Sr La Sr1 1_655 . 21_455 119.14(7) 115.92(6) 122.22(7) yes
Sr La Sr1 1_655 . 21_545 60.84(6) 58.76(5) 62.82(6) yes
Sr La Sr1 1_655 . 21_555 60.84(6) 58.76(5) 62.82(6) yes
Sr La O21 1_655 . 17_545 90.02(19) 84.63(19) 95.53(19) yes
Sr La O21 1_655 . 17_555 90.02(19) 84.63(19) 95.53(19) yes
Sr La Sr 5_556 . 1_455 90 90 90 yes
Sr La Sr 5_556 . 1_545 90 90 90 yes
Sr La Sr 5_556 . . 0 0 0 yes
Sr La Sr 5_556 . 1_565 90 90 90 yes
Sr La Sr 5_556 . 1_655 90 90 90 yes
Sr La Sr 5_556 . 21_445 136.42(7) 136.39(5) 136.45(6) yes
Sr La Sr 5_556 . 21_455 136.42(7) 136.39(5) 136.45(6) yes
Sr La Sr 5_556 . 21_545 136.42(7) 136.39(5) 136.45(5) yes
Sr La Sr 5_556 . 21_555 136.42(7) 136.39(5) 136.45(5) yes
Sr La Cu 5_556 . 17_445 55.12(6) 54.72(6) 55.52(7) yes
Sr La Cu 5_556 . 17_455 55.12(6) 54.72(6) 55.52(7) yes
Sr La Cu 5_556 . 17_545 55.12(6) 54.72(6) 55.52(7) yes
Sr La Cu 5_556 . 17_555 55.12(6) 54.72(6) 55.52(7) yes
Sr La O1 5_556 . . 180 180 180 yes
Sr La O1 5_556 . 21_445 97.36(7) 97.35(8) 97.37(8) yes
Sr La O1 5_556 . 21_455 97.36(7) 97.35(8) 97.37(8) yes
Sr La O1 5_556 . 21_545 97.36(7) 97.35(8) 97.37(8) yes
Sr La O1 5_556 . 21_555 97.36(7) 97.35(8) 97.37(8) yes
Sr La O2 5_556 . 17_445 45.33(15) 39.88(18) 49.96(13) yes
Sr La O2 5_556 . 17_545 45.33(15) 39.88(18) 49.96(13) yes
Sr La Sr1 5_556 . 1_455 90 90 90 yes
Sr La Sr1 5_556 . 1_545 90 90 90 yes
Sr La Sr1 5_556 . . 0 0 0 yes
Sr La Sr1 5_556 . 1_565 90 90 90 yes
Sr La Sr1 5_556 . 1_655 90 90 90 yes
Sr La Sr1 5_556 . 5_556 0 0 0 yes
Sr La Sr1 5_556 . 21_445 136.42(7) 136.39(5) 136.45(6) yes
Sr La Sr1 5_556 . 21_455 136.42(7) 136.39(5) 136.45(6) yes
Sr La Sr1 5_556 . 21_545 136.42(7) 136.39(5) 136.45(5) yes
Sr La Sr1 5_556 . 21_555 136.42(7) 136.39(5) 136.45(5) yes
Sr La O21 5_556 . 17_545 45.33(15) 39.94(18) 50.01(13) yes
Sr La O21 5_556 . 17_555 45.33(15) 39.94(18) 50.01(13) yes
Sr La Sr 21_445 . 1_455 60.84(5) 58.76(4) 62.82(6) yes
Sr La Sr 21_445 . 1_545 60.84(5) 58.89(3) 62.95(5) yes
Sr La Sr 21_445 . . 0 0 0 yes
Sr La Sr 21_445 . 1_565 119.14(6) 115.87(6) 122.19(6) yes
Sr La Sr 21_445 . 1_655 119.14(6) 115.92(5) 122.22(6) yes
Sr La Sr 21_445 . 5_556 136.42(8) 136.39(6) 136.45(7) yes
Sr La Sr 21_445 . 21_455 58.32(6) 54.10(6) 62.23(6) yes
Sr La Sr 21_445 . 21_545 58.32(6) 54.35(5) 62.48(5) yes
Sr La Sr 21_445 . 21_555 87.11(5) 87.06(5) 87.17(5) yes
Sr La Cu 21_445 . 17_445 81.30(6) 80.87(7) 81.73(8) yes
Sr La Cu 21_445 . 17_455 114.49(9) 110.03(8) 118.96(10) yes
Sr La Cu 21_445 . 17_545 114.49(9) 110.10(10) 119.03(8) yes
Sr La Cu 21_445 . 17_555 168.15(7) 167.50(10) 168.83(8) yes
Sr La O1 21_445 . . 43.58(11) 43.51(12) 43.65(12) yes
Sr La O1 21_445 . 21_445 39.06(6) 39.03(6) 39.09(6) yes
Sr La O1 21_445 . 21_455 84.67(9) 79.53(9) 89.50(9) yes
Sr La O1 21_445 . 21_545 84.67(9) 79.83(9) 89.80(9) yes
Sr La O1 21_445 . 21_555 126.13(7) 126.03(7) 126.23(8) yes
Sr La O2 21_445 . 17_445 99.39(17) 94.63(14) 104.80(18) yes
Sr La O2 21_445 . 17_545 148.82(19) 142.2(2) 155.4(2) yes
Sr La Sr1 21_445 . 1_455 60.84(5) 58.76(4) 62.82(6) yes
Sr La Sr1 21_445 . 1_545 60.84(5) 58.89(3) 62.95(5) yes
Sr La Sr1 21_445 . . 0 0 0 yes
Sr La Sr1 21_445 . 1_565 119.14(6) 115.87(6) 122.19(6) yes
Sr La Sr1 21_445 . 1_655 119.14(6) 115.92(5) 122.22(6) yes
Sr La Sr1 21_445 . 5_556 136.42(8) 136.39(6) 136.45(7) yes
Sr La Sr1 21_445 . 21_445 0 0 0 yes
Sr La Sr1 21_445 . 21_455 58.32(6) 54.10(6) 62.23(6) yes
Sr La Sr1 21_445 . 21_545 58.32(6) 54.35(5) 62.48(5) yes
Sr La Sr1 21_445 . 21_555 87.11(5) 87.06(5) 87.17(5) yes
Sr La O21 21_445 . 17_545 99.39(17) 94.50(14) 104.83(19) yes
Sr La O21 21_445 . 17_555 148.82(19) 142.4(2) 155.3(2) yes
Sr La Sr 21_455 . 1_455 60.84(5) 58.76(4) 62.82(6) yes
Sr La Sr 21_455 . 1_545 119.14(6) 115.87(6) 122.19(6) yes
Sr La Sr 21_455 . . 0 0 0 yes
Sr La Sr 21_455 . 1_565 60.84(5) 58.89(3) 62.95(5) yes
Sr La Sr 21_455 . 1_655 119.14(6) 115.92(5) 122.22(6) yes
Sr La Sr 21_455 . 5_556 136.42(8) 136.39(6) 136.45(7) yes
Sr La Sr 21_455 . 21_445 58.32(6) 54.10(6) 62.23(6) yes
Sr La Sr 21_455 . 21_545 87.11(5) 87.06(5) 87.17(5) yes
Sr La Sr 21_455 . 21_555 58.32(6) 54.35(5) 62.48(5) yes
Sr La Cu 21_455 . 17_445 114.49(9) 110.03(8) 118.96(10) yes
Sr La Cu 21_455 . 17_455 81.30(6) 80.87(7) 81.73(8) yes
Sr La Cu 21_455 . 17_545 168.15(7) 167.50(10) 168.83(8) yes
Sr La Cu 21_455 . 17_555 114.49(9) 110.10(10) 119.03(8) yes
Sr La O1 21_455 . . 43.58(11) 43.51(12) 43.65(12) yes
Sr La O1 21_455 . 21_445 84.67(9) 79.53(9) 89.50(9) yes
Sr La O1 21_455 . 21_455 39.06(6) 39.03(6) 39.09(6) yes
Sr La O1 21_455 . 21_545 126.13(7) 126.03(7) 126.23(8) yes
Sr La O1 21_455 . 21_555 84.67(9) 79.83(9) 89.80(9) yes
Sr La O2 21_455 . 17_445 99.39(17) 94.63(14) 104.80(18) yes
Sr La O2 21_455 . 17_545 148.82(19) 142.2(2) 155.4(2) yes
Sr La Sr1 21_455 . 1_455 60.84(5) 58.76(4) 62.82(6) yes
Sr La Sr1 21_455 . 1_545 119.14(6) 115.87(6) 122.19(6) yes
Sr La Sr1 21_455 . . 0 0 0 yes
Sr La Sr1 21_455 . 1_565 60.84(5) 58.89(3) 62.95(5) yes
Sr La Sr1 21_455 . 1_655 119.14(6) 115.92(5) 122.22(6) yes
Sr La Sr1 21_455 . 5_556 136.42(8) 136.39(6) 136.45(7) yes
Sr La Sr1 21_455 . 21_445 58.32(6) 54.10(6) 62.23(6) yes
Sr La Sr1 21_455 . 21_455 0 0 0 yes
Sr La Sr1 21_455 . 21_545 87.11(5) 87.06(5) 87.17(5) yes
Sr La Sr1 21_455 . 21_555 58.32(6) 54.35(5) 62.48(5) yes
Sr La O21 21_455 . 17_545 148.82(19) 142.4(2) 155.3(2) yes
Sr La O21 21_455 . 17_555 99.39(17) 94.50(14) 104.83(19) yes
Sr La Sr 21_545 . 1_455 119.14(6) 115.92(7) 122.22(6) yes
Sr La Sr 21_545 . 1_545 60.84(5) 58.89(5) 62.95(5) yes
Sr La Sr 21_545 . . 0 0 0 yes
Sr La Sr 21_545 . 1_565 119.14(6) 115.87(6) 122.19(4) yes
Sr La Sr 21_545 . 1_655 60.84(5) 58.76(4) 62.82(4) yes
Sr La Sr 21_545 . 5_556 136.42(8) 136.39(6) 136.45(6) yes
Sr La Sr 21_545 . 21_445 58.32(6) 54.35(6) 62.48(5) yes
Sr La Sr 21_545 . 21_455 87.11(5) 87.06(5) 87.17(5) yes
Sr La Sr 21_545 . 21_555 58.32(6) 54.10(6) 62.23(5) yes
Sr La Cu 21_545 . 17_445 114.49(9) 110.10(10) 119.03(8) yes
Sr La Cu 21_545 . 17_455 168.15(7) 167.50(10) 168.83(8) yes
Sr La Cu 21_545 . 17_545 81.30(6) 80.87(7) 81.73(8) yes
Sr La Cu 21_545 . 17_555 114.49(9) 110.03(8) 118.96(10) yes
Sr La O1 21_545 . . 43.58(11) 43.51(12) 43.65(12) yes
Sr La O1 21_545 . 21_445 84.67(9) 79.83(9) 89.80(9) yes
Sr La O1 21_545 . 21_455 126.13(7) 126.03(7) 126.23(8) yes
Sr La O1 21_545 . 21_545 39.06(6) 39.03(6) 39.09(6) yes
Sr La O1 21_545 . 21_555 84.67(9) 79.53(9) 89.50(9) yes
Sr La O2 21_545 . 17_445 148.82(19) 142.2(2) 155.4(2) yes
Sr La O2 21_545 . 17_545 99.39(17) 94.63(14) 104.80(18) yes
Sr La Sr1 21_545 . 1_455 119.14(6) 115.92(7) 122.22(6) yes
Sr La Sr1 21_545 . 1_545 60.84(5) 58.89(5) 62.95(5) yes
Sr La Sr1 21_545 . . 0 0 0 yes
Sr La Sr1 21_545 . 1_565 119.14(6) 115.87(6) 122.19(4) yes
Sr La Sr1 21_545 . 1_655 60.84(5) 58.76(4) 62.82(4) yes
Sr La Sr1 21_545 . 5_556 136.42(8) 136.39(6) 136.45(6) yes
Sr La Sr1 21_545 . 21_445 58.32(6) 54.35(6) 62.48(5) yes
Sr La Sr1 21_545 . 21_455 87.11(5) 87.06(5) 87.17(5) yes
Sr La Sr1 21_545 . 21_545 0 0 0 yes
Sr La Sr1 21_545 . 21_555 58.32(6) 54.10(6) 62.23(5) yes
Sr La O21 21_545 . 17_545 99.39(17) 94.50(14) 104.83(19) yes
Sr La O21 21_545 . 17_555 148.82(19) 142.4(2) 155.3(2) yes
Sr La Sr 21_555 . 1_455 119.14(6) 115.92(7) 122.22(6) yes
Sr La Sr 21_555 . 1_545 119.14(6) 115.87(6) 122.19(4) yes
Sr La Sr 21_555 . . 0 0 0 yes
Sr La Sr 21_555 . 1_565 60.84(5) 58.89(5) 62.95(5) yes
Sr La Sr 21_555 . 1_655 60.84(5) 58.76(4) 62.82(4) yes
Sr La Sr 21_555 . 5_556 136.42(8) 136.39(6) 136.45(6) yes
Sr La Sr 21_555 . 21_445 87.11(5) 87.06(5) 87.17(5) yes
Sr La Sr 21_555 . 21_455 58.32(6) 54.35(6) 62.48(5) yes
Sr La Sr 21_555 . 21_545 58.32(6) 54.10(6) 62.23(5) yes
Sr La Cu 21_555 . 17_445 168.15(7) 167.50(10) 168.83(8) yes
Sr La Cu 21_555 . 17_455 114.49(9) 110.10(10) 119.03(8) yes
Sr La Cu 21_555 . 17_545 114.49(9) 110.03(8) 118.96(10) yes
Sr La Cu 21_555 . 17_555 81.30(6) 80.87(7) 81.73(8) yes
Sr La O1 21_555 . . 43.58(11) 43.51(12) 43.65(12) yes
Sr La O1 21_555 . 21_445 126.13(7) 126.03(7) 126.23(8) yes
Sr La O1 21_555 . 21_455 84.67(9) 79.83(9) 89.80(9) yes
Sr La O1 21_555 . 21_545 84.67(9) 79.53(9) 89.50(9) yes
Sr La O1 21_555 . 21_555 39.06(6) 39.03(6) 39.09(6) yes
Sr La O2 21_555 . 17_445 148.82(19) 142.2(2) 155.4(2) yes
Sr La O2 21_555 . 17_545 99.39(17) 94.63(14) 104.80(18) yes
Sr La Sr1 21_555 . 1_455 119.14(6) 115.92(7) 122.22(6) yes
Sr La Sr1 21_555 . 1_545 119.14(6) 115.87(6) 122.19(4) yes
Sr La Sr1 21_555 . . 0 0 0 yes
Sr La Sr1 21_555 . 1_565 60.84(5) 58.89(5) 62.95(5) yes
Sr La Sr1 21_555 . 1_655 60.84(5) 58.76(4) 62.82(4) yes
Sr La Sr1 21_555 . 5_556 136.42(8) 136.39(6) 136.45(6) yes
Sr La Sr1 21_555 . 21_445 87.11(5) 87.06(5) 87.17(5) yes
Sr La Sr1 21_555 . 21_455 58.32(6) 54.35(6) 62.48(5) yes
Sr La Sr1 21_555 . 21_545 58.32(6) 54.10(6) 62.23(5) yes
Sr La Sr1 21_555 . 21_555 0 0 0 yes
Sr La O21 21_555 . 17_545 148.82(19) 142.4(2) 155.3(2) yes
Sr La O21 21_555 . 17_555 99.39(17) 94.50(14) 104.83(19) yes
Cu La Cu 17_445 . 17_455 70.89(9) 66.54(8) 75.19(9) yes
Cu La Cu 17_445 . 17_545 70.89(9) 66.60(9) 75.24(8) yes
Cu La Cu 17_445 . 17_555 110.17(6) 110.09(6) 110.24(6) yes
Cu La O1 17_445 . . 124.88(13) 124.44(15) 125.32(14) yes
Cu La O1 17_445 . 21_445 42.24(6) 41.83(7) 42.66(7) yes
Cu La O1 17_445 . 21_455 94.20(11) 88.52(10) 99.78(12) yes
Cu La O1 17_445 . 21_545 94.20(11) 88.67(12) 99.92(10) yes
Cu La O1 17_445 . 21_555 152.29(8) 151.71(9) 152.86(8) yes
Cu La O2 17_445 . 17_445 35.53(19) 31.63(19) 39.6(2) yes
Cu La O2 17_445 . 17_545 90.53(17) 84.31(19) 96.37(14) yes
Cu La Sr1 17_445 . 1_455 54.55(6) 52.11(5) 57.06(7) yes
Cu La Sr1 17_445 . 1_545 54.55(6) 52.10(6) 57.08(6) yes
Cu La Sr1 17_445 . . 0 0 0 yes
Cu La Sr1 17_445 . 1_565 125.43(7) 121.40(7) 129.10(6) yes
Cu La Sr1 17_445 . 1_655 125.43(7) 121.61(6) 129.26(7) yes
Cu La Sr1 17_445 . 5_556 55.12(6) 54.72(7) 55.52(6) yes
Cu La Sr1 17_445 . 21_445 81.30(6) 80.87(7) 81.73(8) yes
Cu La Sr1 17_445 . 21_455 114.49(8) 110.03(7) 118.96(9) yes
Cu La Sr1 17_445 . 21_545 114.49(8) 110.10(9) 119.03(7) yes
Cu La Sr1 17_445 . 21_555 168.15(7) 167.50(9) 168.83(8) yes
Cu La O21 17_445 . 17_545 35.53(19) 31.42(19) 39.4(2) yes
Cu La O21 17_445 . 17_555 90.53(17) 84.24(19) 96.31(14) yes
Cu La Cu 17_455 . 17_445 70.89(9) 66.54(8) 75.19(9) yes
Cu La Cu 17_455 . 17_545 110.17(6) 110.09(6) 110.24(6) yes
Cu La Cu 17_455 . 17_555 70.89(9) 66.60(9) 75.24(8) yes
Cu La O1 17_455 . . 124.88(13) 124.44(15) 125.32(14) yes
Cu La O1 17_455 . 21_445 94.20(11) 88.52(10) 99.78(12) yes
Cu La O1 17_455 . 21_455 42.24(6) 41.83(7) 42.66(7) yes
Cu La O1 17_455 . 21_545 152.29(8) 151.71(9) 152.86(8) yes
Cu La O1 17_455 . 21_555 94.20(11) 88.67(12) 99.92(10) yes
Cu La O2 17_455 . 17_445 35.53(19) 31.63(19) 39.6(2) yes
Cu La O2 17_455 . 17_545 90.53(17) 84.31(19) 96.37(14) yes
Cu La Sr1 17_455 . 1_455 54.55(6) 52.11(5) 57.06(7) yes
Cu La Sr1 17_455 . 1_545 125.43(7) 121.40(7) 129.10(6) yes
Cu La Sr1 17_455 . . 0 0 0 yes
Cu La Sr1 17_455 . 1_565 54.55(6) 52.10(6) 57.08(6) yes
Cu La Sr1 17_455 . 1_655 125.43(7) 121.61(6) 129.26(7) yes
Cu La Sr1 17_455 . 5_556 55.12(6) 54.72(7) 55.52(6) yes
Cu La Sr1 17_455 . 21_445 114.49(8) 110.03(7) 118.96(9) yes
Cu La Sr1 17_455 . 21_455 81.30(6) 80.87(7) 81.73(8) yes
Cu La Sr1 17_455 . 21_545 168.15(7) 167.50(9) 168.83(8) yes
Cu La Sr1 17_455 . 21_555 114.49(8) 110.10(9) 119.03(7) yes
Cu La O21 17_455 . 17_545 90.53(17) 84.24(19) 96.31(14) yes
Cu La O21 17_455 . 17_555 35.53(19) 31.42(19) 39.4(2) yes
Cu La Cu 17_545 . 17_445 70.89(9) 66.60(9) 75.24(8) yes
Cu La Cu 17_545 . 17_455 110.17(6) 110.09(6) 110.24(6) yes
Cu La Cu 17_545 . 17_555 70.89(9) 66.54(8) 75.19(9) yes
Cu La O1 17_545 . . 124.88(13) 124.44(15) 125.32(14) yes
Cu La O1 17_545 . 21_445 94.20(11) 88.67(12) 99.92(10) yes
Cu La O1 17_545 . 21_455 152.29(8) 151.71(9) 152.86(8) yes
Cu La O1 17_545 . 21_545 42.24(6) 41.83(7) 42.66(7) yes
Cu La O1 17_545 . 21_555 94.20(11) 88.52(10) 99.78(12) yes
Cu La O2 17_545 . 17_445 90.53(17) 84.31(19) 96.37(14) yes
Cu La O2 17_545 . 17_545 35.53(19) 31.63(19) 39.6(2) yes
Cu La Sr1 17_545 . 1_455 125.43(7) 121.61(6) 129.26(7) yes
Cu La Sr1 17_545 . 1_545 54.55(6) 52.10(6) 57.08(6) yes
Cu La Sr1 17_545 . . 0 0 0 yes
Cu La Sr1 17_545 . 1_565 125.43(7) 121.40(7) 129.10(6) yes
Cu La Sr1 17_545 . 1_655 54.55(6) 52.11(5) 57.06(7) yes
Cu La Sr1 17_545 . 5_556 55.12(6) 54.72(7) 55.52(6) yes
Cu La Sr1 17_545 . 21_445 114.49(8) 110.10(9) 119.03(7) yes
Cu La Sr1 17_545 . 21_455 168.15(7) 167.50(9) 168.83(8) yes
Cu La Sr1 17_545 . 21_545 81.30(6) 80.87(7) 81.73(8) yes
Cu La Sr1 17_545 . 21_555 114.49(8) 110.03(7) 118.96(9) yes
Cu La O21 17_545 . 17_545 35.53(19) 31.42(19) 39.4(2) yes
Cu La O21 17_545 . 17_555 90.53(17) 84.24(19) 96.31(14) yes
Cu La Cu 17_555 . 17_445 110.17(6) 110.09(6) 110.24(6) yes
Cu La Cu 17_555 . 17_455 70.89(9) 66.60(9) 75.24(8) yes
Cu La Cu 17_555 . 17_545 70.89(9) 66.54(8) 75.19(9) yes
Cu La O1 17_555 . . 124.88(13) 124.44(15) 125.32(14) yes
Cu La O1 17_555 . 21_445 152.29(8) 151.71(9) 152.86(8) yes
Cu La O1 17_555 . 21_455 94.20(11) 88.67(12) 99.92(10) yes
Cu La O1 17_555 . 21_545 94.20(11) 88.52(10) 99.78(12) yes
Cu La O1 17_555 . 21_555 42.24(6) 41.83(7) 42.66(7) yes
Cu La O2 17_555 . 17_445 90.53(17) 84.31(19) 96.37(14) yes
Cu La O2 17_555 . 17_545 35.53(19) 31.63(19) 39.6(2) yes
Cu La Sr1 17_555 . 1_455 125.43(7) 121.61(6) 129.26(7) yes
Cu La Sr1 17_555 . 1_545 125.43(7) 121.40(7) 129.10(6) yes
Cu La Sr1 17_555 . . 0 0 0 yes
Cu La Sr1 17_555 . 1_565 54.55(6) 52.10(6) 57.08(6) yes
Cu La Sr1 17_555 . 1_655 54.55(6) 52.11(5) 57.06(7) yes
Cu La Sr1 17_555 . 5_556 55.12(6) 54.72(7) 55.52(6) yes
Cu La Sr1 17_555 . 21_445 168.15(7) 167.50(9) 168.83(8) yes
Cu La Sr1 17_555 . 21_455 114.49(8) 110.10(9) 119.03(7) yes
Cu La Sr1 17_555 . 21_545 114.49(8) 110.03(7) 118.96(9) yes
Cu La Sr1 17_555 . 21_555 81.30(6) 80.87(7) 81.73(8) yes
Cu La O21 17_555 . 17_545 90.53(17) 84.24(19) 96.31(14) yes
Cu La O21 17_555 . 17_555 35.53(19) 31.42(19) 39.4(2) yes
O1 La O1 . . 21_445 82.64(9) 82.60(13) 82.68(11) yes
O1 La O1 . . 21_455 82.64(9) 82.60(13) 82.68(11) yes
O1 La O1 . . 21_545 82.64(9) 82.60(13) 82.68(11) yes
O1 La O1 . . 21_555 82.64(9) 82.60(13) 82.68(11) yes
O1 La O2 . . 17_445 134.67(18) 130.07(14) 140.10(18) yes
O1 La O2 . . 17_545 134.67(18) 130.07(14) 140.10(18) yes
O1 La Sr1 . . 1_455 90.00(6) 89.94(13) 90.06(13) yes
O1 La Sr1 . . 1_545 90.00(6) 89.94(13) 90.06(13) yes
O1 La Sr1 . . . 0 0 0 yes
O1 La Sr1 . . 1_565 90.00(6) 89.94(13) 90.06(13) yes
O1 La Sr1 . . 1_655 90.00(6) 89.94(13) 90.06(13) yes
O1 La Sr1 . . 5_556 180 180 180 yes
O1 La Sr1 . . 21_445 43.58(7) 43.51(11) 43.65(9) yes
O1 La Sr1 . . 21_455 43.58(7) 43.51(11) 43.65(9) yes
O1 La Sr1 . . 21_545 43.58(7) 43.51(11) 43.65(9) yes
O1 La Sr1 . . 21_555 43.58(7) 43.51(11) 43.65(9) yes
O1 La O21 . . 17_545 134.67(18) 130.01(13) 140.02(19) yes
O1 La O21 . . 17_555 134.67(18) 130.01(13) 140.02(19) yes
O1 La O1 21_445 . . 82.64(13) 82.60(14) 82.68(13) yes
O1 La O1 21_445 . 21_455 89.06(13) 81.72(11) 95.97(14) yes
O1 La O1 21_445 . 21_545 89.06(13) 82.14(13) 96.39(12) yes
O1 La O1 21_445 . 21_555 164.89(9) 164.53(10) 165.29(9) yes
O1 La O2 21_445 . 17_445 65.92(18) 61.16(16) 71.1(2) yes
O1 La O2 21_445 . 17_545 126.02(19) 119.0(2) 132.57(19) yes
O1 La Sr1 21_445 . 1_455 45.47(8) 41.81(7) 48.93(8) yes
O1 La Sr1 21_445 . 1_545 45.47(8) 42.02(6) 49.14(7) yes
O1 La Sr1 21_445 . . 0 0 0 yes
O1 La Sr1 21_445 . 1_565 134.53(10) 128.87(10) 139.99(11) yes
O1 La Sr1 21_445 . 1_655 134.53(10) 128.95(8) 140.08(10) yes
O1 La Sr1 21_445 . 5_556 97.36(9) 97.35(9) 97.37(9) yes
O1 La Sr1 21_445 . 21_445 39.06(7) 39.03(7) 39.09(7) yes
O1 La Sr1 21_445 . 21_455 84.67(8) 79.53(8) 89.50(7) yes
O1 La Sr1 21_445 . 21_545 84.67(8) 79.83(7) 89.80(8) yes
O1 La Sr1 21_445 . 21_555 126.13(8) 126.03(8) 126.23(8) yes
O1 La O21 21_445 . 17_545 65.92(18) 61.03(17) 71.0(2) yes
O1 La O21 21_445 . 17_555 126.02(19) 119.2(2) 132.77(18) yes
O1 La O1 21_455 . . 82.64(13) 82.60(14) 82.68(13) yes
O1 La O1 21_455 . 21_445 89.06(13) 81.72(11) 95.97(14) yes
O1 La O1 21_455 . 21_545 164.89(9) 164.53(10) 165.29(9) yes
O1 La O1 21_455 . 21_555 89.06(13) 82.14(13) 96.39(12) yes
O1 La O2 21_455 . 17_445 65.92(18) 61.16(16) 71.1(2) yes
O1 La O2 21_455 . 17_545 126.02(19) 119.0(2) 132.57(19) yes
O1 La Sr1 21_455 . 1_455 45.47(8) 41.81(7) 48.93(8) yes
O1 La Sr1 21_455 . 1_545 134.53(10) 128.87(10) 139.99(11) yes
O1 La Sr1 21_455 . . 0 0 0 yes
O1 La Sr1 21_455 . 1_565 45.47(8) 42.02(6) 49.14(7) yes
O1 La Sr1 21_455 . 1_655 134.53(10) 128.95(8) 140.08(10) yes
O1 La Sr1 21_455 . 5_556 97.36(9) 97.35(9) 97.37(9) yes
O1 La Sr1 21_455 . 21_445 84.67(8) 79.53(8) 89.50(7) yes
O1 La Sr1 21_455 . 21_455 39.06(7) 39.03(7) 39.09(7) yes
O1 La Sr1 21_455 . 21_545 126.13(8) 126.03(8) 126.23(8) yes
O1 La Sr1 21_455 . 21_555 84.67(8) 79.83(7) 89.80(8) yes
O1 La O21 21_455 . 17_545 126.02(19) 119.2(2) 132.77(18) yes
O1 La O21 21_455 . 17_555 65.92(18) 61.03(17) 71.0(2) yes
O1 La O1 21_545 . . 82.64(13) 82.60(14) 82.68(13) yes
O1 La O1 21_545 . 21_445 89.06(13) 82.14(13) 96.39(12) yes
O1 La O1 21_545 . 21_455 164.89(9) 164.53(10) 165.29(9) yes
O1 La O1 21_545 . 21_555 89.06(13) 81.72(11) 95.97(14) yes
O1 La O2 21_545 . 17_445 126.02(19) 119.0(2) 132.57(19) yes
O1 La O2 21_545 . 17_545 65.92(18) 61.16(16) 71.1(2) yes
O1 La Sr1 21_545 . 1_455 134.53(10) 128.95(8) 140.08(10) yes
O1 La Sr1 21_545 . 1_545 45.47(8) 42.02(6) 49.14(7) yes
O1 La Sr1 21_545 . . 0 0 0 yes
O1 La Sr1 21_545 . 1_565 134.53(10) 128.87(10) 139.99(11) yes
O1 La Sr1 21_545 . 1_655 45.47(8) 41.81(7) 48.93(8) yes
O1 La Sr1 21_545 . 5_556 97.36(9) 97.35(9) 97.37(9) yes
O1 La Sr1 21_545 . 21_445 84.67(8) 79.83(7) 89.80(8) yes
O1 La Sr1 21_545 . 21_455 126.13(8) 126.03(8) 126.23(8) yes
O1 La Sr1 21_545 . 21_545 39.06(7) 39.03(7) 39.09(7) yes
O1 La Sr1 21_545 . 21_555 84.67(8) 79.53(8) 89.50(7) yes
O1 La O21 21_545 . 17_545 65.92(18) 61.03(17) 71.0(2) yes
O1 La O21 21_545 . 17_555 126.02(19) 119.2(2) 132.77(18) yes
O1 La O1 21_555 . . 82.64(13) 82.60(14) 82.68(13) yes
O1 La O1 21_555 . 21_445 164.89(9) 164.53(10) 165.29(9) yes
O1 La O1 21_555 . 21_455 89.06(13) 82.14(13) 96.39(12) yes
O1 La O1 21_555 . 21_545 89.06(13) 81.72(11) 95.97(14) yes
O1 La O2 21_555 . 17_445 126.02(19) 119.0(2) 132.57(19) yes
O1 La O2 21_555 . 17_545 65.92(18) 61.16(16) 71.1(2) yes
O1 La Sr1 21_555 . 1_455 134.53(10) 128.95(8) 140.08(10) yes
O1 La Sr1 21_555 . 1_545 134.53(10) 128.87(10) 139.99(11) yes
O1 La Sr1 21_555 . . 0 0 0 yes
O1 La Sr1 21_555 . 1_565 45.47(8) 42.02(6) 49.14(7) yes
O1 La Sr1 21_555 . 1_655 45.47(8) 41.81(7) 48.93(8) yes
O1 La Sr1 21_555 . 5_556 97.36(9) 97.35(9) 97.37(9) yes
O1 La Sr1 21_555 . 21_445 126.13(8) 126.03(8) 126.23(8) yes
O1 La Sr1 21_555 . 21_455 84.67(8) 79.83(7) 89.80(8) yes
O1 La Sr1 21_555 . 21_545 84.67(8) 79.53(8) 89.50(7) yes
O1 La Sr1 21_555 . 21_555 39.06(7) 39.03(7) 39.09(7) yes
O1 La O21 21_555 . 17_545 126.02(19) 119.2(2) 132.77(18) yes
O1 La O21 21_555 . 17_555 65.92(18) 61.03(17) 71.0(2) yes
O2 La O2 17_445 . 17_545 90.45(17) 81.65(19) 99.07(14) yes
O2 La Sr1 17_445 . 1_455 44.74(8) 40.04(12) 50.12(13) yes
O2 La Sr1 17_445 . 1_545 90.02(11) 84.58(18) 95.50(18) yes
O2 La Sr1 17_445 . . 0 0 0 yes
O2 La Sr1 17_445 . 1_565 90.02(11) 84.58(18) 95.50(18) yes
O2 La Sr1 17_445 . 1_655 135.11(9) 129.88(14) 139.96(13) yes
O2 La Sr1 17_445 . 5_556 45.33(10) 39.88(15) 49.96(13) yes
O2 La Sr1 17_445 . 21_445 99.39(11) 94.63(10) 104.80(9) yes
O2 La Sr1 17_445 . 21_455 99.39(11) 94.63(10) 104.80(9) yes
O2 La Sr1 17_445 . 21_545 148.82(13) 142.24(19) 155.4(2) yes
O2 La Sr1 17_445 . 21_555 148.82(13) 142.24(19) 155.4(2) yes
O2 La O21 17_445 . 17_545 60.5(2) 54.99(19) 65.9(2) yes
O2 La O21 17_445 . 17_555 60.5(2) 54.99(19) 65.9(2) yes
O2 La O2 17_545 . 17_445 90.45(17) 81.65(19) 99.07(14) yes
O2 La Sr1 17_545 . 1_455 135.11(9) 129.88(14) 139.96(13) yes
O2 La Sr1 17_545 . 1_545 90.02(11) 84.58(18) 95.50(18) yes
O2 La Sr1 17_545 . . 0 0 0 yes
O2 La Sr1 17_545 . 1_565 90.02(11) 84.58(18) 95.50(18) yes
O2 La Sr1 17_545 . 1_655 44.74(8) 40.04(12) 50.12(13) yes
O2 La Sr1 17_545 . 5_556 45.33(10) 39.88(15) 49.96(13) yes
O2 La Sr1 17_545 . 21_445 148.82(13) 142.24(19) 155.4(2) yes
O2 La Sr1 17_545 . 21_455 148.82(13) 142.24(19) 155.4(2) yes
O2 La Sr1 17_545 . 21_545 99.39(11) 94.63(10) 104.80(9) yes
O2 La Sr1 17_545 . 21_555 99.39(11) 94.63(10) 104.80(9) yes
O2 La O21 17_545 . 17_545 60.5(2) 54.99(19) 65.9(2) yes
O2 La O21 17_545 . 17_555 60.5(2) 54.99(19) 65.9(2) yes
Sr1 La Sr1 1_455 . 1_545 90.00(7) 87.55(7) 92.43(8) yes
Sr1 La Sr1 1_455 . . 0 0 0 yes
Sr1 La Sr1 1_455 . 1_565 90.00(7) 87.55(7) 92.43(9) yes
Sr1 La Sr1 1_455 . 1_655 178.05(7) 175.28(12) 180 yes
Sr1 La Sr1 1_455 . 5_556 90 90 90 yes
Sr1 La Sr1 1_455 . 21_445 60.84(6) 58.76(5) 62.82(6) yes
Sr1 La Sr1 1_455 . 21_455 60.84(6) 58.76(5) 62.82(6) yes
Sr1 La Sr1 1_455 . 21_545 119.14(7) 115.92(7) 122.22(7) yes
Sr1 La Sr1 1_455 . 21_555 119.14(7) 115.92(7) 122.22(7) yes
Sr1 La O21 1_455 . 17_545 90.02(19) 84.63(19) 95.53(19) yes
Sr1 La O21 1_455 . 17_555 90.02(19) 84.63(19) 95.53(19) yes
Sr1 La Sr1 1_545 . 1_455 90.00(7) 87.55(7) 92.43(8) yes
Sr1 La Sr1 1_545 . . 0 0 0 yes
Sr1 La Sr1 1_545 . 1_565 178.05(7) 175.20(12) 180 yes
Sr1 La Sr1 1_545 . 1_655 90.00(7) 87.55(7) 92.43(8) yes
Sr1 La Sr1 1_545 . 5_556 90 90 90 yes
Sr1 La Sr1 1_545 . 21_445 60.84(6) 58.89(5) 62.95(6) yes
Sr1 La Sr1 1_545 . 21_455 119.14(7) 115.87(7) 122.19(7) yes
Sr1 La Sr1 1_545 . 21_545 60.84(6) 58.89(5) 62.95(6) yes
Sr1 La Sr1 1_545 . 21_555 119.14(7) 115.87(7) 122.19(6) yes
Sr1 La O21 1_545 . 17_545 44.74(15) 39.99(12) 50.06(18) yes
Sr1 La O21 1_545 . 17_555 135.11(16) 129.94(18) 140.01(13) yes
Sr1 La Sr1 . . 1_455 0 0 0 yes
Sr1 La Sr1 . . 1_545 0 0 0 yes
Sr1 La Sr1 . . 1_565 0 0 0 yes
Sr1 La Sr1 . . 1_655 0 0 0 yes
Sr1 La Sr1 . . 5_556 0 0 0 yes
Sr1 La Sr1 . . 21_445 0 0 0 yes
Sr1 La Sr1 . . 21_455 0 0 0 yes
Sr1 La Sr1 . . 21_545 0 0 0 yes
Sr1 La Sr1 . . 21_555 0 0 0 yes
Sr1 La O21 . . 17_545 0 0 0 yes
Sr1 La O21 . . 17_555 0 0 0 yes
Sr1 La Sr1 1_565 . 1_455 90.00(7) 87.55(7) 92.43(9) yes
Sr1 La Sr1 1_565 . 1_545 178.05(7) 175.20(12) 180 yes
Sr1 La Sr1 1_565 . . 0 0 0 yes
Sr1 La Sr1 1_565 . 1_655 90.00(7) 87.55(7) 92.43(9) yes
Sr1 La Sr1 1_565 . 5_556 90 90 90 yes
Sr1 La Sr1 1_565 . 21_445 119.14(7) 115.87(7) 122.19(7) yes
Sr1 La Sr1 1_565 . 21_455 60.84(6) 58.89(5) 62.95(6) yes
Sr1 La Sr1 1_565 . 21_545 119.14(7) 115.87(7) 122.19(6) yes
Sr1 La Sr1 1_565 . 21_555 60.84(6) 58.89(5) 62.95(6) yes
Sr1 La O21 1_565 . 17_545 135.11(16) 129.94(18) 140.01(13) yes
Sr1 La O21 1_565 . 17_555 44.74(15) 39.99(12) 50.06(18) yes
Sr1 La Sr1 1_655 . 1_455 178.05(7) 175.28(12) 180 yes
Sr1 La Sr1 1_655 . 1_545 90.00(7) 87.55(7) 92.43(8) yes
Sr1 La Sr1 1_655 . . 0 0 0 yes
Sr1 La Sr1 1_655 . 1_565 90.00(7) 87.55(7) 92.43(9) yes
Sr1 La Sr1 1_655 . 5_556 90 90 90 yes
Sr1 La Sr1 1_655 . 21_445 119.14(7) 115.92(6) 122.22(7) yes
Sr1 La Sr1 1_655 . 21_455 119.14(7) 115.92(6) 122.22(7) yes
Sr1 La Sr1 1_655 . 21_545 60.84(6) 58.76(5) 62.82(6) yes
Sr1 La Sr1 1_655 . 21_555 60.84(6) 58.76(5) 62.82(6) yes
Sr1 La O21 1_655 . 17_545 90.02(19) 84.63(19) 95.53(19) yes
Sr1 La O21 1_655 . 17_555 90.02(19) 84.63(19) 95.53(19) yes
Sr1 La Sr1 5_556 . 1_455 90 90 90 yes
Sr1 La Sr1 5_556 . 1_545 90 90 90 yes
Sr1 La Sr1 5_556 . . 0 0 0 yes
Sr1 La Sr1 5_556 . 1_565 90 90 90 yes
Sr1 La Sr1 5_556 . 1_655 90 90 90 yes
Sr1 La Sr1 5_556 . 21_445 136.42(7) 136.39(5) 136.45(6) yes
Sr1 La Sr1 5_556 . 21_455 136.42(7) 136.39(5) 136.45(6) yes
Sr1 La Sr1 5_556 . 21_545 136.42(7) 136.39(5) 136.45(5) yes
Sr1 La Sr1 5_556 . 21_555 136.42(7) 136.39(5) 136.45(5) yes
Sr1 La O21 5_556 . 17_545 45.33(15) 39.94(18) 50.01(13) yes
Sr1 La O21 5_556 . 17_555 45.33(15) 39.94(18) 50.01(13) yes
Sr1 La Sr1 21_445 . 1_455 60.84(5) 58.76(4) 62.82(6) yes
Sr1 La Sr1 21_445 . 1_545 60.84(5) 58.89(3) 62.95(5) yes
Sr1 La Sr1 21_445 . . 0 0 0 yes
Sr1 La Sr1 21_445 . 1_565 119.14(6) 115.87(6) 122.19(6) yes
Sr1 La Sr1 21_445 . 1_655 119.14(6) 115.92(5) 122.22(6) yes
Sr1 La Sr1 21_445 . 5_556 136.42(8) 136.39(6) 136.45(7) yes
Sr1 La Sr1 21_445 . 21_455 58.32(6) 54.10(6) 62.23(6) yes
Sr1 La Sr1 21_445 . 21_545 58.32(6) 54.35(5) 62.48(5) yes
Sr1 La Sr1 21_445 . 21_555 87.11(5) 87.06(5) 87.17(5) yes
Sr1 La O21 21_445 . 17_545 99.39(17) 94.50(14) 104.83(19) yes
Sr1 La O21 21_445 . 17_555 148.82(19) 142.4(2) 155.3(2) yes
Sr1 La Sr1 21_455 . 1_455 60.84(5) 58.76(4) 62.82(6) yes
Sr1 La Sr1 21_455 . 1_545 119.14(6) 115.87(6) 122.19(6) yes
Sr1 La Sr1 21_455 . . 0 0 0 yes
Sr1 La Sr1 21_455 . 1_565 60.84(5) 58.89(3) 62.95(5) yes
Sr1 La Sr1 21_455 . 1_655 119.14(6) 115.92(5) 122.22(6) yes
Sr1 La Sr1 21_455 . 5_556 136.42(8) 136.39(6) 136.45(7) yes
Sr1 La Sr1 21_455 . 21_445 58.32(6) 54.10(6) 62.23(6) yes
Sr1 La Sr1 21_455 . 21_545 87.11(5) 87.06(5) 87.17(5) yes
Sr1 La Sr1 21_455 . 21_555 58.32(6) 54.35(5) 62.48(5) yes
Sr1 La O21 21_455 . 17_545 148.82(19) 142.4(2) 155.3(2) yes
Sr1 La O21 21_455 . 17_555 99.39(17) 94.50(14) 104.83(19) yes
Sr1 La Sr1 21_545 . 1_455 119.14(6) 115.92(7) 122.22(6) yes
Sr1 La Sr1 21_545 . 1_545 60.84(5) 58.89(5) 62.95(5) yes
Sr1 La Sr1 21_545 . . 0 0 0 yes
Sr1 La Sr1 21_545 . 1_565 119.14(6) 115.87(6) 122.19(4) yes
Sr1 La Sr1 21_545 . 1_655 60.84(5) 58.76(4) 62.82(4) yes
Sr1 La Sr1 21_545 . 5_556 136.42(8) 136.39(6) 136.45(6) yes
Sr1 La Sr1 21_545 . 21_445 58.32(6) 54.35(6) 62.48(5) yes
Sr1 La Sr1 21_545 . 21_455 87.11(5) 87.06(5) 87.17(5) yes
Sr1 La Sr1 21_545 . 21_555 58.32(6) 54.10(6) 62.23(5) yes
Sr1 La O21 21_545 . 17_545 99.39(17) 94.50(14) 104.83(19) yes
Sr1 La O21 21_545 . 17_555 148.82(19) 142.4(2) 155.3(2) yes
Sr1 La Sr1 21_555 . 1_455 119.14(6) 115.92(7) 122.22(6) yes
Sr1 La Sr1 21_555 . 1_545 119.14(6) 115.87(6) 122.19(4) yes
Sr1 La Sr1 21_555 . . 0 0 0 yes
Sr1 La Sr1 21_555 . 1_565 60.84(5) 58.89(5) 62.95(5) yes
Sr1 La Sr1 21_555 . 1_655 60.84(5) 58.76(4) 62.82(4) yes
Sr1 La Sr1 21_555 . 5_556 136.42(8) 136.39(6) 136.45(6) yes
Sr1 La Sr1 21_555 . 21_445 87.11(5) 87.06(5) 87.17(5) yes
Sr1 La Sr1 21_555 . 21_455 58.32(6) 54.35(6) 62.48(5) yes
Sr1 La Sr1 21_555 . 21_545 58.32(6) 54.10(6) 62.23(5) yes
Sr1 La O21 21_555 . 17_545 148.82(19) 142.4(2) 155.3(2) yes
Sr1 La O21 21_555 . 17_555 99.39(17) 94.50(14) 104.83(19) yes
O21 La O21 17_545 . 17_555 90.45(17) 81.07(19) 98.59(13) yes
O21 La O21 17_555 . 17_545 90.45(17) 81.07(19) 98.59(17) yes
O1 Cu O1 . . 5_555 178.19(19) 177.4(3) 180 yes
O1 Cu O2 . . 1_545 89.96(9) 88.68(16) 91.32(16) yes
O1 Cu O2 . . . 89.96(9) 88.68(16) 91.32(16) yes
O1 Cu O21 . . . 89.96(9) 88.68(16) 91.32(16) yes
O1 Cu O21 . . 1_655 89.96(9) 88.68(16) 91.32(16) yes
O1 Cu O1 5_555 . . 178.19(19) 177.4(3) 180 yes
O1 Cu O2 5_555 . 1_545 89.96(9) 88.68(16) 91.32(16) yes
O1 Cu O2 5_555 . . 89.96(9) 88.68(16) 91.32(16) yes
O1 Cu O21 5_555 . . 89.96(9) 88.68(16) 91.32(16) yes
O1 Cu O21 5_555 . 1_655 89.96(9) 88.68(16) 91.32(16) yes
O2 Cu O2 1_545 . . 174.8(3) 167.3(4) 180 yes
O2 Cu O21 1_545 . . 90.0(4) 83.3(3) 96.5(4) yes
O2 Cu O21 1_545 . 1_655 90.0(4) 83.3(3) 96.5(4) yes
O2 Cu O2 . . 1_545 174.8(3) 167.3(4) 180 yes
O2 Cu O21 . . . 90.0(4) 83.3(3) 96.5(4) yes
O2 Cu O21 . . 1_655 90.0(4) 83.3(3) 96.5(4) yes
O21 Cu O21 . . 1_655 174.8(3) 167.3(4) 180 yes
O21 Cu O21 1_655 . . 174.8(3) 167.3(4) 180 yes
La O1 La . . 21_445 97.36(10) 97.31(12) 97.41(14) yes
La O1 La . . 21_455 97.36(10) 97.31(12) 97.41(14) yes
La O1 La . . 21_545 97.36(10) 97.31(12) 97.41(14) yes
La O1 La . . 21_555 97.36(10) 97.31(12) 97.41(14) yes
La O1 Sr . . . 0 0 0 yes
La O1 Sr . . 21_445 97.36(9) 97.31(11) 97.41(14) yes
La O1 Sr . . 21_455 97.36(9) 97.31(11) 97.41(14) yes
La O1 Sr . . 21_545 97.36(9) 97.31(11) 97.41(14) yes
La O1 Sr . . 21_555 97.36(9) 97.31(11) 97.41(14) yes
La O1 Cu . . . 179.14(17) 178.7(3) 180 yes
La O1 O2 . . 1_545 139.39(17) 136.4(2) 142.8(2) yes
La O1 O2 . . . 139.39(17) 136.4(2) 142.8(2) yes
La O1 Sr1 . . . 0 0 0 yes
La O1 Sr1 . . 21_445 97.36(9) 97.31(11) 97.41(14) yes
La O1 Sr1 . . 21_455 97.36(9) 97.31(11) 97.41(14) yes
La O1 Sr1 . . 21_545 97.36(9) 97.31(11) 97.41(14) yes
La O1 Sr1 . . 21_555 97.36(9) 97.31(11) 97.41(14) yes
La O1 O21 . . . 139.39(17) 136.5(2) 142.9(2) yes
La O1 O21 . . 1_655 139.39(17) 136.5(2) 142.9(2) yes
La O1 La 21_445 . . 97.36(12) 97.31(13) 97.41(15) yes
La O1 La 21_445 . 21_455 89.06(11) 81.71(10) 95.97(8) yes
La O1 La 21_445 . 21_545 89.06(11) 82.14(8) 96.39(10) yes
La O1 La 21_445 . 21_555 164.91(11) 164.56(12) 165.29(11) yes
La O1 Sr 21_445 . . 97.36(12) 97.31(13) 97.41(15) yes
La O1 Sr 21_445 . 21_445 0 0 0 yes
La O1 Sr 21_445 . 21_455 89.06(11) 81.71(10) 95.97(8) yes
La O1 Sr 21_445 . 21_545 89.06(11) 82.14(8) 96.39(10) yes
La O1 Sr 21_445 . 21_555 164.91(11) 164.56(12) 165.29(11) yes
La O1 Cu 21_445 . . 82.62(14) 81.66(17) 83.58(14) yes
La O1 O2 21_445 . 1_545 56.45(19) 50.60(17) 62.45(19) yes
La O1 O2 21_445 . . 110.97(19) 107.52(19) 114.49(18) yes
La O1 Sr1 21_445 . . 97.36(12) 97.31(13) 97.41(15) yes
La O1 Sr1 21_445 . 21_445 0 0 0 yes
La O1 Sr1 21_445 . 21_455 89.06(11) 81.71(10) 95.97(8) yes
La O1 Sr1 21_445 . 21_545 89.06(11) 82.14(8) 96.39(10) yes
La O1 Sr1 21_445 . 21_555 164.91(11) 164.56(12) 165.29(11) yes
La O1 O21 21_445 . . 56.44(19) 50.68(17) 62.58(19) yes
La O1 O21 21_445 . 1_655 110.97(19) 107.66(19) 114.47(18) yes
La O1 La 21_455 . . 97.36(12) 97.31(13) 97.41(15) yes
La O1 La 21_455 . 21_445 89.06(11) 81.71(10) 95.97(8) yes
La O1 La 21_455 . 21_545 164.91(11) 164.56(12) 165.29(11) yes
La O1 La 21_455 . 21_555 89.06(11) 82.14(8) 96.39(10) yes
La O1 Sr 21_455 . . 97.36(12) 97.31(13) 97.41(15) yes
La O1 Sr 21_455 . 21_445 89.06(11) 81.71(10) 95.97(8) yes
La O1 Sr 21_455 . 21_455 0 0 0 yes
La O1 Sr 21_455 . 21_545 164.91(11) 164.56(12) 165.29(11) yes
La O1 Sr 21_455 . 21_555 89.06(11) 82.14(8) 96.39(10) yes
La O1 Cu 21_455 . . 82.62(14) 81.66(17) 83.58(14) yes
La O1 O2 21_455 . 1_545 110.97(19) 107.52(19) 114.49(18) yes
La O1 O2 21_455 . . 56.44(19) 50.60(17) 62.45(19) yes
La O1 Sr1 21_455 . . 97.36(12) 97.31(13) 97.41(15) yes
La O1 Sr1 21_455 . 21_445 89.06(11) 81.71(10) 95.97(8) yes
La O1 Sr1 21_455 . 21_455 0 0 0 yes
La O1 Sr1 21_455 . 21_545 164.91(11) 164.56(12) 165.29(11) yes
La O1 Sr1 21_455 . 21_555 89.06(11) 82.14(8) 96.39(10) yes
La O1 O21 21_455 . . 56.45(19) 50.68(17) 62.58(19) yes
La O1 O21 21_455 . 1_655 110.97(19) 107.66(19) 114.47(18) yes
La O1 La 21_545 . . 97.36(12) 97.31(13) 97.41(15) yes
La O1 La 21_545 . 21_445 89.06(11) 82.14(8) 96.39(10) yes
La O1 La 21_545 . 21_455 164.91(11) 164.56(12) 165.29(11) yes
La O1 La 21_545 . 21_555 89.06(11) 81.71(10) 95.97(8) yes
La O1 Sr 21_545 . . 97.36(12) 97.31(13) 97.41(15) yes
La O1 Sr 21_545 . 21_445 89.06(11) 82.14(8) 96.39(10) yes
La O1 Sr 21_545 . 21_455 164.91(11) 164.56(12) 165.29(11) yes
La O1 Sr 21_545 . 21_545 0 0 0 yes
La O1 Sr 21_545 . 21_555 89.06(11) 81.71(10) 95.97(8) yes
La O1 Cu 21_545 . . 82.62(14) 81.66(17) 83.58(14) yes
La O1 O2 21_545 . 1_545 56.44(19) 50.60(17) 62.45(19) yes
La O1 O2 21_545 . . 110.97(19) 107.52(19) 114.49(18) yes
La O1 Sr1 21_545 . . 97.36(12) 97.31(13) 97.41(15) yes
La O1 Sr1 21_545 . 21_445 89.06(11) 82.14(8) 96.39(10) yes
La O1 Sr1 21_545 . 21_455 164.91(11) 164.56(12) 165.29(11) yes
La O1 Sr1 21_545 . 21_545 0 0 0 yes
La O1 Sr1 21_545 . 21_555 89.06(11) 81.71(10) 95.97(8) yes
La O1 O21 21_545 . . 110.97(19) 107.66(19) 114.47(18) yes
La O1 O21 21_545 . 1_655 56.45(19) 50.68(17) 62.58(19) yes
La O1 La 21_555 . . 97.36(12) 97.31(13) 97.41(15) yes
La O1 La 21_555 . 21_445 164.91(11) 164.56(12) 165.29(11) yes
La O1 La 21_555 . 21_455 89.06(11) 82.14(8) 96.39(10) yes
La O1 La 21_555 . 21_545 89.06(11) 81.71(10) 95.97(8) yes
La O1 Sr 21_555 . . 97.36(12) 97.31(13) 97.41(15) yes
La O1 Sr 21_555 . 21_445 164.91(11) 164.56(12) 165.29(11) yes
La O1 Sr 21_555 . 21_455 89.06(11) 82.14(8) 96.39(10) yes
La O1 Sr 21_555 . 21_545 89.06(11) 81.71(10) 95.97(8) yes
La O1 Sr 21_555 . 21_555 0 0 0 yes
La O1 Cu 21_555 . . 82.62(14) 81.66(17) 83.58(14) yes
La O1 O2 21_555 . 1_545 110.97(19) 107.52(19) 114.49(18) yes
La O1 O2 21_555 . . 56.44(19) 50.60(17) 62.45(19) yes
La O1 Sr1 21_555 . . 97.36(12) 97.31(13) 97.41(15) yes
La O1 Sr1 21_555 . 21_445 164.91(11) 164.56(12) 165.29(11) yes
La O1 Sr1 21_555 . 21_455 89.06(11) 82.14(8) 96.39(10) yes
La O1 Sr1 21_555 . 21_545 89.06(11) 81.71(10) 95.97(8) yes
La O1 Sr1 21_555 . 21_555 0 0 0 yes
La O1 O21 21_555 . . 110.97(19) 107.66(19) 114.47(18) yes
La O1 O21 21_555 . 1_655 56.45(19) 50.68(17) 62.58(19) yes
Sr O1 Sr . . 21_445 97.36(9) 97.31(11) 97.41(14) yes
Sr O1 Sr . . 21_455 97.36(9) 97.31(11) 97.41(14) yes
Sr O1 Sr . . 21_545 97.36(9) 97.31(11) 97.41(14) yes
Sr O1 Sr . . 21_555 97.36(9) 97.31(11) 97.41(14) yes
Sr O1 Cu . . . 179.14(17) 178.7(3) 180 yes
Sr O1 O2 . . 1_545 139.39(17) 136.4(2) 142.8(2) yes
Sr O1 O2 . . . 139.39(17) 136.4(2) 142.8(2) yes
Sr O1 Sr1 . . . 0 0 0 yes
Sr O1 Sr1 . . 21_445 97.36(9) 97.31(11) 97.41(14) yes
Sr O1 Sr1 . . 21_455 97.36(9) 97.31(11) 97.41(14) yes
Sr O1 Sr1 . . 21_545 97.36(9) 97.31(11) 97.41(14) yes
Sr O1 Sr1 . . 21_555 97.36(9) 97.31(11) 97.41(14) yes
Sr O1 O21 . . . 139.39(17) 136.5(2) 142.9(2) yes
Sr O1 O21 . . 1_655 139.39(17) 136.5(2) 142.9(2) yes
Sr O1 Sr 21_445 . . 97.36(12) 97.31(13) 97.41(14) yes
Sr O1 Sr 21_445 . 21_455 89.06(11) 81.71(10) 95.97(8) yes
Sr O1 Sr 21_445 . 21_545 89.06(11) 82.14(8) 96.39(10) yes
Sr O1 Sr 21_445 . 21_555 164.91(11) 164.56(12) 165.29(10) yes
Sr O1 Cu 21_445 . . 82.62(14) 81.66(17) 83.58(14) yes
Sr O1 O2 21_445 . 1_545 56.45(18) 50.60(17) 62.45(19) yes
Sr O1 O2 21_445 . . 110.97(19) 107.52(19) 114.49(18) yes
Sr O1 Sr1 21_445 . . 97.36(12) 97.31(13) 97.41(14) yes
Sr O1 Sr1 21_445 . 21_445 0 0 0 yes
Sr O1 Sr1 21_445 . 21_455 89.06(11) 81.71(10) 95.97(8) yes
Sr O1 Sr1 21_445 . 21_545 89.06(11) 82.14(8) 96.39(10) yes
Sr O1 Sr1 21_445 . 21_555 164.91(11) 164.56(12) 165.29(10) yes
Sr O1 O21 21_445 . . 56.44(18) 50.68(17) 62.58(19) yes
Sr O1 O21 21_445 . 1_655 110.97(19) 107.66(19) 114.47(18) yes
Sr O1 Sr 21_455 . . 97.36(12) 97.31(13) 97.41(14) yes
Sr O1 Sr 21_455 . 21_445 89.06(11) 81.71(10) 95.97(8) yes
Sr O1 Sr 21_455 . 21_545 164.91(11) 164.56(12) 165.29(10) yes
Sr O1 Sr 21_455 . 21_555 89.06(11) 82.14(8) 96.39(10) yes
Sr O1 Cu 21_455 . . 82.62(14) 81.66(17) 83.58(14) yes
Sr O1 O2 21_455 . 1_545 110.97(19) 107.52(19) 114.49(18) yes
Sr O1 O2 21_455 . . 56.44(18) 50.60(17) 62.45(19) yes
Sr O1 Sr1 21_455 . . 97.36(12) 97.31(13) 97.41(14) yes
Sr O1 Sr1 21_455 . 21_445 89.06(11) 81.71(10) 95.97(8) yes
Sr O1 Sr1 21_455 . 21_455 0 0 0 yes
Sr O1 Sr1 21_455 . 21_545 164.91(11) 164.56(12) 165.29(10) yes
Sr O1 Sr1 21_455 . 21_555 89.06(11) 82.14(8) 96.39(10) yes
Sr O1 O21 21_455 . . 56.45(18) 50.68(17) 62.58(19) yes
Sr O1 O21 21_455 . 1_655 110.97(19) 107.66(19) 114.47(18) yes
Sr O1 Sr 21_545 . . 97.36(12) 97.31(13) 97.41(14) yes
Sr O1 Sr 21_545 . 21_445 89.06(11) 82.14(8) 96.39(10) yes
Sr O1 Sr 21_545 . 21_455 164.91(11) 164.56(12) 165.29(10) yes
Sr O1 Sr 21_545 . 21_555 89.06(11) 81.71(10) 95.97(8) yes
Sr O1 Cu 21_545 . . 82.62(14) 81.66(17) 83.58(14) yes
Sr O1 O2 21_545 . 1_545 56.44(18) 50.60(17) 62.45(19) yes
Sr O1 O2 21_545 . . 110.97(19) 107.52(19) 114.49(18) yes
Sr O1 Sr1 21_545 . . 97.36(12) 97.31(13) 97.41(14) yes
Sr O1 Sr1 21_545 . 21_445 89.06(11) 82.14(8) 96.39(10) yes
Sr O1 Sr1 21_545 . 21_455 164.91(11) 164.56(12) 165.29(10) yes
Sr O1 Sr1 21_545 . 21_545 0 0 0 yes
Sr O1 Sr1 21_545 . 21_555 89.06(11) 81.71(10) 95.97(8) yes
Sr O1 O21 21_545 . . 110.97(19) 107.66(19) 114.47(18) yes
Sr O1 O21 21_545 . 1_655 56.45(18) 50.68(17) 62.58(19) yes
Sr O1 Sr 21_555 . . 97.36(12) 97.31(13) 97.41(14) yes
Sr O1 Sr 21_555 . 21_445 164.91(11) 164.56(12) 165.29(10) yes
Sr O1 Sr 21_555 . 21_455 89.06(11) 82.14(8) 96.39(10) yes
Sr O1 Sr 21_555 . 21_545 89.06(11) 81.71(10) 95.97(8) yes
Sr O1 Cu 21_555 . . 82.62(14) 81.66(17) 83.58(14) yes
Sr O1 O2 21_555 . 1_545 110.97(19) 107.52(19) 114.49(18) yes
Sr O1 O2 21_555 . . 56.44(18) 50.60(17) 62.45(19) yes
Sr O1 Sr1 21_555 . . 97.36(12) 97.31(13) 97.41(14) yes
Sr O1 Sr1 21_555 . 21_445 164.91(11) 164.56(12) 165.29(10) yes
Sr O1 Sr1 21_555 . 21_455 89.06(11) 82.14(8) 96.39(10) yes
Sr O1 Sr1 21_555 . 21_545 89.06(11) 81.71(10) 95.97(8) yes
Sr O1 Sr1 21_555 . 21_555 0 0 0 yes
Sr O1 O21 21_555 . . 110.97(19) 107.66(19) 114.47(18) yes
Sr O1 O21 21_555 . 1_655 56.45(18) 50.68(17) 62.58(19) yes
Cu O1 O2 . . 1_545 40.64(15) 38.49(17) 42.39(17) yes
Cu O1 O2 . . . 40.64(15) 38.49(17) 42.39(17) yes
Cu O1 Sr1 . . . 179.14(16) 178.7(3) 180 yes
Cu O1 Sr1 . . 21_445 82.62(10) 81.66(16) 83.58(10) yes
Cu O1 Sr1 . . 21_455 82.62(10) 81.66(16) 83.58(10) yes
Cu O1 Sr1 . . 21_545 82.62(10) 81.66(16) 83.58(10) yes
Cu O1 Sr1 . . 21_555 82.62(10) 81.66(16) 83.58(10) yes
Cu O1 O21 . . . 40.64(15) 38.36(19) 42.31(16) yes
Cu O1 O21 . . 1_655 40.64(15) 38.36(19) 42.31(16) yes
O2 O1 O2 1_545 . . 81.13(16) 80.31(15) 81.84(15) yes
O2 O1 Sr1 1_545 . . 139.39(15) 136.4(2) 142.8(2) yes
O2 O1 Sr1 1_545 . 21_445 56.45(11) 50.60(14) 62.45(14) yes
O2 O1 Sr1 1_545 . 21_455 110.97(13) 107.52(14) 114.49(16) yes
O2 O1 Sr1 1_545 . 21_545 56.44(11) 50.60(14) 62.45(14) yes
O2 O1 Sr1 1_545 . 21_555 110.97(13) 107.52(14) 114.49(16) yes
O2 O1 O21 1_545 . . 54.9(2) 50.1(2) 59.5(2) yes
O2 O1 O21 1_545 . 1_655 54.9(2) 50.1(2) 59.5(2) yes
O2 O1 O2 . . 1_545 81.13(16) 80.31(17) 81.84(15) yes
O2 O1 Sr1 . . . 139.39(15) 136.4(2) 142.8(2) yes
O2 O1 Sr1 . . 21_445 110.97(13) 107.52(14) 114.49(16) yes
O2 O1 Sr1 . . 21_455 56.44(11) 50.60(14) 62.45(14) yes
O2 O1 Sr1 . . 21_545 110.97(13) 107.52(14) 114.49(16) yes
O2 O1 Sr1 . . 21_555 56.44(11) 50.60(14) 62.45(14) yes
O2 O1 O21 . . . 54.9(2) 50.1(2) 59.5(2) yes
O2 O1 O21 . . 1_655 54.9(2) 50.1(2) 59.5(2) yes
Sr1 O1 Sr1 . . 21_445 97.36(9) 97.31(11) 97.41(14) yes
Sr1 O1 Sr1 . . 21_455 97.36(9) 97.31(11) 97.41(14) yes
Sr1 O1 Sr1 . . 21_545 97.36(9) 97.31(11) 97.41(14) yes
Sr1 O1 Sr1 . . 21_555 97.36(9) 97.31(11) 97.41(14) yes
Sr1 O1 O21 . . . 139.39(17) 136.5(2) 142.9(2) yes
Sr1 O1 O21 . . 1_655 139.39(17) 136.5(2) 142.9(2) yes
Sr1 O1 Sr1 21_445 . . 97.36(12) 97.31(13) 97.41(14) yes
Sr1 O1 Sr1 21_445 . 21_455 89.06(11) 81.71(10) 95.97(8) yes
Sr1 O1 Sr1 21_445 . 21_545 89.06(11) 82.14(8) 96.39(10) yes
Sr1 O1 Sr1 21_445 . 21_555 164.91(11) 164.56(12) 165.29(10) yes
Sr1 O1 O21 21_445 . . 56.44(18) 50.68(17) 62.58(19) yes
Sr1 O1 O21 21_445 . 1_655 110.97(19) 107.66(19) 114.47(18) yes
Sr1 O1 Sr1 21_455 . . 97.36(12) 97.31(13) 97.41(14) yes
Sr1 O1 Sr1 21_455 . 21_445 89.06(11) 81.71(10) 95.97(8) yes
Sr1 O1 Sr1 21_455 . 21_545 164.91(11) 164.56(12) 165.29(10) yes
Sr1 O1 Sr1 21_455 . 21_555 89.06(11) 82.14(8) 96.39(10) yes
Sr1 O1 O21 21_455 . . 56.45(18) 50.68(17) 62.58(19) yes
Sr1 O1 O21 21_455 . 1_655 110.97(19) 107.66(19) 114.47(18) yes
Sr1 O1 Sr1 21_545 . . 97.36(12) 97.31(13) 97.41(14) yes
Sr1 O1 Sr1 21_545 . 21_445 89.06(11) 82.14(8) 96.39(10) yes
Sr1 O1 Sr1 21_545 . 21_455 164.91(11) 164.56(12) 165.29(10) yes
Sr1 O1 Sr1 21_545 . 21_555 89.06(11) 81.71(10) 95.97(8) yes
Sr1 O1 O21 21_545 . . 110.97(19) 107.66(19) 114.47(18) yes
Sr1 O1 O21 21_545 . 1_655 56.45(18) 50.68(17) 62.58(19) yes
Sr1 O1 Sr1 21_555 . . 97.36(12) 97.31(13) 97.41(14) yes
Sr1 O1 Sr1 21_555 . 21_445 164.91(11) 164.56(12) 165.29(10) yes
Sr1 O1 Sr1 21_555 . 21_455 89.06(11) 82.14(8) 96.39(10) yes
Sr1 O1 Sr1 21_555 . 21_545 89.06(11) 81.71(10) 95.97(8) yes
Sr1 O1 O21 21_555 . . 110.97(19) 107.66(19) 114.47(18) yes
Sr1 O1 O21 21_555 . 1_655 56.45(18) 50.68(17) 62.58(19) yes
O21 O1 O21 . . 1_655 81.13(16) 80.30(15) 81.78(15) yes
O21 O1 O21 1_655 . . 81.13(16) 80.30(15) 81.78(15) yes
La O2 La 17_454 . 17_554 90.51(7) 87.04(6) 94.42(6) yes
La O2 La 17_454 . 21_455 89.35(17) 80.1(2) 100.2(3) yes
La O2 La 17_454 . 21_555 174.04(19) 170.7(3) 180 yes
La O2 Sr 17_454 . 17_454 0 0 0 yes
La O2 Sr 17_454 . 17_554 90.51(7) 87.04(6) 94.42(6) yes
La O2 Sr 17_454 . 21_455 89.35(17) 80.1(2) 100.2(3) yes
La O2 Sr 17_454 . 21_555 174.04(19) 170.7(3) 180 yes
La O2 Cu 17_454 . . 89.84(18) 82.0(3) 97.0(3) yes
La O2 Cu 17_454 . 1_565 89.84(18) 82.0(3) 97.0(3) yes
La O2 O1 17_454 . . 122.2(2) 114.0(3) 130.2(3) yes
La O2 O1 17_454 . 1_565 122.2(2) 114.0(3) 130.2(3) yes
La O2 O1 17_454 . 5_555 57.64(11) 55.26(14) 59.78(11) yes
La O2 O1 17_454 . 5_565 57.64(11) 55.26(14) 59.78(11) yes
La O2 Sr1 17_454 . 17_454 0 0 0 yes
La O2 Sr1 17_454 . 17_554 90.51(7) 87.04(6) 94.42(6) yes
La O2 Sr1 17_454 . 21_455 89.35(17) 80.1(2) 100.2(3) yes
La O2 Sr1 17_454 . 21_555 174.04(19) 170.7(3) 180 yes
La O2 O21 17_454 . . 59.75(16) 51.24(19) 69.0(2) yes
La O2 O21 17_454 . 1_565 59.75(16) 51.24(19) 69.0(2) yes
La O2 O21 17_454 . 1_655 119.83(17) 113.5(2) 127.00(18) yes
La O2 O21 17_454 . 1_665 119.83(17) 113.5(2) 127.00(18) yes
La O2 La 17_554 . 17_454 90.51(7) 87.04(8) 94.42(6) yes
La O2 La 17_554 . 21_455 174.04(19) 170.7(3) 180 yes
La O2 La 17_554 . 21_555 89.35(17) 80.1(2) 100.2(3) yes
La O2 Sr 17_554 . 17_454 90.51(7) 87.04(7) 94.42(6) yes
La O2 Sr 17_554 . 17_554 0 0 0 yes
La O2 Sr 17_554 . 21_455 174.04(19) 170.7(3) 180 yes
La O2 Sr 17_554 . 21_555 89.35(17) 80.1(2) 100.2(3) yes
La O2 Cu 17_554 . . 89.84(18) 82.0(3) 97.0(3) yes
La O2 Cu 17_554 . 1_565 89.84(18) 82.0(3) 97.0(3) yes
La O2 O1 17_554 . . 122.2(2) 114.0(3) 130.2(3) yes
La O2 O1 17_554 . 1_565 122.2(2) 114.0(3) 130.2(3) yes
La O2 O1 17_554 . 5_555 57.64(11) 55.26(14) 59.78(11) yes
La O2 O1 17_554 . 5_565 57.64(11) 55.26(14) 59.78(11) yes
La O2 Sr1 17_554 . 17_454 90.51(7) 87.04(7) 94.42(6) yes
La O2 Sr1 17_554 . 17_554 0 0 0 yes
La O2 Sr1 17_554 . 21_455 174.04(19) 170.7(3) 180 yes
La O2 Sr1 17_554 . 21_555 89.35(17) 80.1(2) 100.2(3) yes
La O2 O21 17_554 . . 119.83(17) 113.5(2) 127.00(18) yes
La O2 O21 17_554 . 1_565 119.83(17) 113.5(2) 127.00(18) yes
La O2 O21 17_554 . 1_655 59.75(16) 51.24(19) 69.0(2) yes
La O2 O21 17_554 . 1_665 59.75(16) 51.24(19) 69.0(2) yes
La O2 La 21_455 . 17_454 89.35(17) 80.1(2) 100.2(3) yes
La O2 La 21_455 . 17_554 174.04(19) 170.7(3) 180 yes
La O2 La 21_455 . 21_555 90.51(7) 87.04(6) 94.42(6) yes
La O2 Sr 21_455 . 17_454 89.35(17) 80.1(2) 100.2(3) yes
La O2 Sr 21_455 . 17_554 174.04(19) 170.7(3) 180 yes
La O2 Sr 21_455 . 21_455 0 0 0 yes
La O2 Sr 21_455 . 21_555 90.51(7) 87.04(6) 94.42(6) yes
La O2 Cu 21_455 . . 89.84(18) 82.0(3) 97.0(3) yes
La O2 Cu 21_455 . 1_565 89.84(18) 82.0(3) 97.0(3) yes
La O2 O1 21_455 . . 57.64(11) 55.26(14) 59.78(11) yes
La O2 O1 21_455 . 1_565 57.64(11) 55.26(14) 59.78(11) yes
La O2 O1 21_455 . 5_555 122.2(2) 114.0(3) 130.2(3) yes
La O2 O1 21_455 . 5_565 122.2(2) 114.0(3) 130.2(3) yes
La O2 Sr1 21_455 . 17_454 89.35(17) 80.1(2) 100.2(3) yes
La O2 Sr1 21_455 . 17_554 174.04(19) 170.7(3) 180 yes
La O2 Sr1 21_455 . 21_455 0 0 0 yes
La O2 Sr1 21_455 . 21_555 90.51(7) 87.04(6) 94.42(6) yes
La O2 O21 21_455 . . 59.75(16) 51.24(19) 69.0(2) yes
La O2 O21 21_455 . 1_565 59.75(16) 51.24(19) 69.0(2) yes
La O2 O21 21_455 . 1_655 119.83(17) 113.5(2) 127.00(18) yes
La O2 O21 21_455 . 1_665 119.83(17) 113.5(2) 127.00(18) yes
La O2 La 21_555 . 17_454 174.04(19) 170.7(3) 180 yes
La O2 La 21_555 . 17_554 89.35(17) 80.1(2) 100.2(3) yes
La O2 La 21_555 . 21_455 90.51(7) 87.04(8) 94.42(6) yes
La O2 Sr 21_555 . 17_454 174.04(19) 170.7(3) 180 yes
La O2 Sr 21_555 . 17_554 89.35(17) 80.1(2) 100.2(3) yes
La O2 Sr 21_555 . 21_455 90.51(7) 87.04(7) 94.42(6) yes
La O2 Sr 21_555 . 21_555 0 0 0 yes
La O2 Cu 21_555 . . 89.84(18) 82.0(3) 97.0(3) yes
La O2 Cu 21_555 . 1_565 89.84(18) 82.0(3) 97.0(3) yes
La O2 O1 21_555 . . 57.64(11) 55.26(14) 59.78(11) yes
La O2 O1 21_555 . 1_565 57.64(11) 55.26(14) 59.78(11) yes
La O2 O1 21_555 . 5_555 122.2(2) 114.0(3) 130.2(3) yes
La O2 O1 21_555 . 5_565 122.2(2) 114.0(3) 130.2(3) yes
La O2 Sr1 21_555 . 17_454 174.04(19) 170.7(3) 180 yes
La O2 Sr1 21_555 . 17_554 89.35(17) 80.1(2) 100.2(3) yes
La O2 Sr1 21_555 . 21_455 90.51(7) 87.04(7) 94.42(6) yes
La O2 Sr1 21_555 . 21_555 0 0 0 yes
La O2 O21 21_555 . . 119.83(17) 113.5(2) 127.00(18) yes
La O2 O21 21_555 . 1_565 119.83(17) 113.5(2) 127.00(18) yes
La O2 O21 21_555 . 1_655 59.75(16) 51.24(19) 69.0(2) yes
La O2 O21 21_555 . 1_665 59.75(16) 51.24(19) 69.0(2) yes
Sr O2 Sr 17_454 . 17_554 90.51(6) 87.04(5) 94.42(5) yes
Sr O2 Sr 17_454 . 21_455 89.35(17) 80.1(2) 100.2(3) yes
Sr O2 Sr 17_454 . 21_555 174.04(18) 170.7(3) 180 yes
Sr O2 Cu 17_454 . . 89.84(18) 82.0(3) 97.0(3) yes
Sr O2 Cu 17_454 . 1_565 89.84(18) 82.0(3) 97.0(3) yes
Sr O2 O1 17_454 . . 122.2(2) 114.0(3) 130.2(3) yes
Sr O2 O1 17_454 . 1_565 122.2(2) 114.0(3) 130.2(3) yes
Sr O2 O1 17_454 . 5_555 57.64(11) 55.26(14) 59.78(11) yes
Sr O2 O1 17_454 . 5_565 57.64(11) 55.26(14) 59.78(11) yes
Sr O2 Sr1 17_454 . 17_454 0 0 0 yes
Sr O2 Sr1 17_454 . 17_554 90.51(6) 87.04(5) 94.42(5) yes
Sr O2 Sr1 17_454 . 21_455 89.35(17) 80.1(2) 100.2(3) yes
Sr O2 Sr1 17_454 . 21_555 174.04(18) 170.7(3) 180 yes
Sr O2 O21 17_454 . . 59.75(16) 51.24(18) 69.0(2) yes
Sr O2 O21 17_454 . 1_565 59.75(16) 51.24(18) 69.0(2) yes
Sr O2 O21 17_454 . 1_655 119.83(17) 113.5(2) 127.00(18) yes
Sr O2 O21 17_454 . 1_665 119.83(17) 113.5(2) 127.00(18) yes
Sr O2 Sr 17_554 . 17_454 90.51(6) 87.04(7) 94.42(5) yes
Sr O2 Sr 17_554 . 21_455 174.04(18) 170.7(3) 180 yes
Sr O2 Sr 17_554 . 21_555 89.35(17) 80.1(2) 100.2(3) yes
Sr O2 Cu 17_554 . . 89.84(18) 82.0(3) 97.0(3) yes
Sr O2 Cu 17_554 . 1_565 89.84(18) 82.0(3) 97.0(3) yes
Sr O2 O1 17_554 . . 122.2(2) 114.0(3) 130.2(3) yes
Sr O2 O1 17_554 . 1_565 122.2(2) 114.0(3) 130.2(3) yes
Sr O2 O1 17_554 . 5_555 57.64(11) 55.26(14) 59.78(11) yes
Sr O2 O1 17_554 . 5_565 57.64(11) 55.26(14) 59.78(11) yes
Sr O2 Sr1 17_554 . 17_454 90.51(6) 87.04(7) 94.42(5) yes
Sr O2 Sr1 17_554 . 17_554 0 0 0 yes
Sr O2 Sr1 17_554 . 21_455 174.04(18) 170.7(3) 180 yes
Sr O2 Sr1 17_554 . 21_555 89.35(17) 80.1(2) 100.2(3) yes
Sr O2 O21 17_554 . . 119.83(17) 113.5(2) 127.00(18) yes
Sr O2 O21 17_554 . 1_565 119.83(17) 113.5(2) 127.00(18) yes
Sr O2 O21 17_554 . 1_655 59.75(16) 51.24(18) 69.0(2) yes
Sr O2 O21 17_554 . 1_665 59.75(16) 51.24(18) 69.0(2) yes
Sr O2 Sr 21_455 . 17_454 89.35(17) 80.1(2) 100.2(3) yes
Sr O2 Sr 21_455 . 17_554 174.04(18) 170.7(3) 180 yes
Sr O2 Sr 21_455 . 21_555 90.51(6) 87.04(5) 94.42(5) yes
Sr O2 Cu 21_455 . . 89.84(18) 82.0(3) 97.0(3) yes
Sr O2 Cu 21_455 . 1_565 89.84(18) 82.0(3) 97.0(3) yes
Sr O2 O1 21_455 . . 57.64(11) 55.26(14) 59.78(11) yes
Sr O2 O1 21_455 . 1_565 57.64(11) 55.26(14) 59.78(11) yes
Sr O2 O1 21_455 . 5_555 122.2(2) 114.0(3) 130.2(3) yes
Sr O2 O1 21_455 . 5_565 122.2(2) 114.0(3) 130.2(3) yes
Sr O2 Sr1 21_455 . 17_454 89.35(17) 80.1(2) 100.2(3) yes
Sr O2 Sr1 21_455 . 17_554 174.04(18) 170.7(3) 180 yes
Sr O2 Sr1 21_455 . 21_455 0 0 0 yes
Sr O2 Sr1 21_455 . 21_555 90.51(6) 87.04(5) 94.42(5) yes
Sr O2 O21 21_455 . . 59.75(16) 51.24(18) 69.0(2) yes
Sr O2 O21 21_455 . 1_565 59.75(16) 51.24(18) 69.0(2) yes
Sr O2 O21 21_455 . 1_655 119.83(17) 113.5(2) 127.00(18) yes
Sr O2 O21 21_455 . 1_665 119.83(17) 113.5(2) 127.00(18) yes
Sr O2 Sr 21_555 . 17_454 174.04(18) 170.7(3) 180 yes
Sr O2 Sr 21_555 . 17_554 89.35(17) 80.1(2) 100.2(3) yes
Sr O2 Sr 21_555 . 21_455 90.51(6) 87.04(7) 94.42(5) yes
Sr O2 Cu 21_555 . . 89.84(18) 82.0(3) 97.0(3) yes
Sr O2 Cu 21_555 . 1_565 89.84(18) 82.0(3) 97.0(3) yes
Sr O2 O1 21_555 . . 57.64(11) 55.26(14) 59.78(11) yes
Sr O2 O1 21_555 . 1_565 57.64(11) 55.26(14) 59.78(11) yes
Sr O2 O1 21_555 . 5_555 122.2(2) 114.0(3) 130.2(3) yes
Sr O2 O1 21_555 . 5_565 122.2(2) 114.0(3) 130.2(3) yes
Sr O2 Sr1 21_555 . 17_454 174.04(18) 170.7(3) 180 yes
Sr O2 Sr1 21_555 . 17_554 89.35(17) 80.1(2) 100.2(3) yes
Sr O2 Sr1 21_555 . 21_455 90.51(6) 87.04(7) 94.42(5) yes
Sr O2 Sr1 21_555 . 21_555 0 0 0 yes
Sr O2 O21 21_555 . . 119.83(17) 113.5(2) 127.00(18) yes
Sr O2 O21 21_555 . 1_565 119.83(17) 113.5(2) 127.00(18) yes
Sr O2 O21 21_555 . 1_655 59.75(16) 51.24(18) 69.0(2) yes
Sr O2 O21 21_555 . 1_665 59.75(16) 51.24(18) 69.0(2) yes
Cu O2 Cu . . 1_565 171.4(3) 158.9(6) 180 yes
Cu O2 O1 . . . 49.40(10) 46.30(11) 52.81(10) yes
Cu O2 O1 . . 1_565 129.86(11) 127.19(10) 133.70(11) yes
Cu O2 O1 . . 5_555 49.40(10) 46.30(11) 52.81(10) yes
Cu O2 O1 . . 5_565 129.86(11) 127.19(10) 133.70(11) yes
Cu O2 Sr1 . . 17_454 89.84(17) 82.0(3) 97.0(3) yes
Cu O2 Sr1 . . 17_554 89.84(17) 82.0(3) 97.0(3) yes
Cu O2 Sr1 . . 21_455 89.84(17) 82.0(3) 97.0(3) yes
Cu O2 Sr1 . . 21_555 89.84(17) 82.0(3) 97.0(3) yes
Cu O2 O21 . . . 45.0(2) 39.7(2) 51.2(3) yes
Cu O2 O21 . . 1_565 135.0(3) 114.6(4) 155.8(5) yes
Cu O2 O21 . . 1_655 45.0(2) 39.7(2) 51.2(3) yes
Cu O2 O21 . . 1_665 135.0(3) 114.6(4) 155.8(5) yes
Cu O2 Cu 1_565 . . 171.4(3) 158.9(6) 180 yes
Cu O2 O1 1_565 . . 129.86(11) 127.19(10) 133.70(11) yes
Cu O2 O1 1_565 . 1_565 49.40(10) 46.30(11) 52.81(10) yes
Cu O2 O1 1_565 . 5_555 129.86(11) 127.19(10) 133.70(11) yes
Cu O2 O1 1_565 . 5_565 49.40(10) 46.30(11) 52.81(10) yes
Cu O2 Sr1 1_565 . 17_454 89.84(17) 82.0(3) 97.0(3) yes
Cu O2 Sr1 1_565 . 17_554 89.84(17) 82.0(3) 97.0(3) yes
Cu O2 Sr1 1_565 . 21_455 89.84(17) 82.0(3) 97.0(3) yes
Cu O2 Sr1 1_565 . 21_555 89.84(17) 82.0(3) 97.0(3) yes
Cu O2 O21 1_565 . . 135.0(3) 114.6(4) 155.8(5) yes
Cu O2 O21 1_565 . 1_565 45.0(2) 39.7(2) 51.2(3) yes
Cu O2 O21 1_565 . 1_655 135.0(3) 114.6(4) 155.8(5) yes
Cu O2 O21 1_565 . 1_665 45.0(2) 39.7(2) 51.2(3) yes
O1 O2 O1 . . 1_565 80.88(9) 77.31(9) 84.41(8) yes
O1 O2 O1 . . 5_555 98.78(16) 92.6(2) 105.62(16) yes
O1 O2 O1 . . 5_565 173.8(2) 167.8(4) 180 yes
O1 O2 Sr1 . . 17_454 122.17(19) 114.0(3) 130.2(3) yes
O1 O2 Sr1 . . 17_554 122.17(19) 114.0(3) 130.2(3) yes
O1 O2 Sr1 . . 21_455 57.64(10) 55.26(13) 59.78(10) yes
O1 O2 Sr1 . . 21_555 57.64(10) 55.26(13) 59.78(10) yes
O1 O2 O21 . . . 62.57(14) 57.88(16) 67.73(16) yes
O1 O2 O21 . . 1_565 117.01(16) 106.4(3) 126.59(17) yes
O1 O2 O21 . . 1_655 62.57(14) 57.88(16) 67.73(16) yes
O1 O2 O21 . . 1_665 117.01(16) 106.4(3) 126.59(17) yes
O1 O2 O1 1_565 . . 80.88(9) 77.31(9) 84.41(10) yes
O1 O2 O1 1_565 . 5_555 173.8(2) 167.8(4) 180 yes
O1 O2 O1 1_565 . 5_565 98.78(16) 92.6(2) 105.62(16) yes
O1 O2 Sr1 1_565 . 17_454 122.17(19) 114.0(3) 130.2(3) yes
O1 O2 Sr1 1_565 . 17_554 122.17(19) 114.0(3) 130.2(3) yes
O1 O2 Sr1 1_565 . 21_455 57.64(10) 55.26(13) 59.78(10) yes
O1 O2 Sr1 1_565 . 21_555 57.64(10) 55.26(13) 59.78(10) yes
O1 O2 O21 1_565 . . 117.01(16) 106.4(3) 126.59(17) yes
O1 O2 O21 1_565 . 1_565 62.57(14) 57.88(16) 67.73(16) yes
O1 O2 O21 1_565 . 1_655 117.01(16) 106.4(3) 126.59(17) yes
O1 O2 O21 1_565 . 1_665 62.57(14) 57.88(16) 67.73(16) yes
O1 O2 O1 5_555 . . 98.78(16) 92.6(2) 105.62(16) yes
O1 O2 O1 5_555 . 1_565 173.8(2) 167.8(4) 180 yes
O1 O2 O1 5_555 . 5_565 80.88(9) 77.31(9) 84.41(8) yes
O1 O2 Sr1 5_555 . 17_454 57.64(10) 55.26(13) 59.78(10) yes
O1 O2 Sr1 5_555 . 17_554 57.64(10) 55.26(13) 59.78(10) yes
O1 O2 Sr1 5_555 . 21_455 122.17(19) 114.0(3) 130.2(3) yes
O1 O2 Sr1 5_555 . 21_555 122.17(19) 114.0(3) 130.2(3) yes
O1 O2 O21 5_555 . . 62.57(14) 57.88(16) 67.73(16) yes
O1 O2 O21 5_555 . 1_565 117.01(16) 106.4(3) 126.59(17) yes
O1 O2 O21 5_555 . 1_655 62.57(14) 57.88(16) 67.73(16) yes
O1 O2 O21 5_555 . 1_665 117.01(16) 106.4(3) 126.59(17) yes
O1 O2 O1 5_565 . . 173.8(2) 167.8(4) 180 yes
O1 O2 O1 5_565 . 1_565 98.78(16) 92.6(2) 105.62(16) yes
O1 O2 O1 5_565 . 5_555 80.88(9) 77.31(9) 84.41(10) yes
O1 O2 Sr1 5_565 . 17_454 57.64(10) 55.26(13) 59.78(10) yes
O1 O2 Sr1 5_565 . 17_554 57.64(10) 55.26(13) 59.78(10) yes
O1 O2 Sr1 5_565 . 21_455 122.17(19) 114.0(3) 130.2(3) yes
O1 O2 Sr1 5_565 . 21_555 122.17(19) 114.0(3) 130.2(3) yes
O1 O2 O21 5_565 . . 117.01(16) 106.4(3) 126.59(17) yes
O1 O2 O21 5_565 . 1_565 62.57(14) 57.88(16) 67.73(16) yes
O1 O2 O21 5_565 . 1_655 117.01(16) 106.4(3) 126.59(17) yes
O1 O2 O21 5_565 . 1_665 62.57(14) 57.88(16) 67.73(16) yes
Sr1 O2 Sr1 17_454 . 17_554 90.51(6) 87.04(5) 94.42(5) yes
Sr1 O2 Sr1 17_454 . 21_455 89.35(17) 80.1(2) 100.2(3) yes
Sr1 O2 Sr1 17_454 . 21_555 174.04(18) 170.7(3) 180 yes
Sr1 O2 O21 17_454 . . 59.75(16) 51.24(18) 69.0(2) yes
Sr1 O2 O21 17_454 . 1_565 59.75(16) 51.24(18) 69.0(2) yes
Sr1 O2 O21 17_454 . 1_655 119.83(17) 113.5(2) 127.00(18) yes
Sr1 O2 O21 17_454 . 1_665 119.83(17) 113.5(2) 127.00(18) yes
Sr1 O2 Sr1 17_554 . 17_454 90.51(6) 87.04(7) 94.42(5) yes
Sr1 O2 Sr1 17_554 . 21_455 174.04(18) 170.7(3) 180 yes
Sr1 O2 Sr1 17_554 . 21_555 89.35(17) 80.1(2) 100.2(3) yes
Sr1 O2 O21 17_554 . . 119.83(17) 113.5(2) 127.00(18) yes
Sr1 O2 O21 17_554 . 1_565 119.83(17) 113.5(2) 127.00(18) yes
Sr1 O2 O21 17_554 . 1_655 59.75(16) 51.24(18) 69.0(2) yes
Sr1 O2 O21 17_554 . 1_665 59.75(16) 51.24(18) 69.0(2) yes
Sr1 O2 Sr1 21_455 . 17_454 89.35(17) 80.1(2) 100.2(3) yes
Sr1 O2 Sr1 21_455 . 17_554 174.04(18) 170.7(3) 180 yes
Sr1 O2 Sr1 21_455 . 21_555 90.51(6) 87.04(5) 94.42(5) yes
Sr1 O2 O21 21_455 . . 59.75(16) 51.24(18) 69.0(2) yes
Sr1 O2 O21 21_455 . 1_565 59.75(16) 51.24(18) 69.0(2) yes
Sr1 O2 O21 21_455 . 1_655 119.83(17) 113.5(2) 127.00(18) yes
Sr1 O2 O21 21_455 . 1_665 119.83(17) 113.5(2) 127.00(18) yes
Sr1 O2 Sr1 21_555 . 17_454 174.04(18) 170.7(3) 180 yes
Sr1 O2 Sr1 21_555 . 17_554 89.35(17) 80.1(2) 100.2(3) yes
Sr1 O2 Sr1 21_555 . 21_455 90.51(6) 87.04(7) 94.42(5) yes
Sr1 O2 O21 21_555 . . 119.83(17) 113.5(2) 127.00(18) yes
Sr1 O2 O21 21_555 . 1_565 119.83(17) 113.5(2) 127.00(18) yes
Sr1 O2 O21 21_555 . 1_655 59.75(16) 51.24(18) 69.0(2) yes
Sr1 O2 O21 21_555 . 1_665 59.75(16) 51.24(18) 69.0(2) yes
O21 O2 O21 . . 1_565 90.0(3) 70.3(3) 111.3(3) yes
O21 O2 O21 . . 1_655 90.0(3) 79.4(3) 102.4(3) yes
O21 O2 O21 . . 1_665 170.1(3) 159.8(4) 180 yes
O21 O2 O21 1_565 . . 90.0(3) 70.3(3) 111.3(3) yes
O21 O2 O21 1_565 . 1_655 170.1(3) 159.8(4) 180 yes
O21 O2 O21 1_565 . 1_665 90.0(3) 79.4(3) 102.4(3) yes
O21 O2 O21 1_655 . . 90.0(3) 79.4(3) 102.4(3) yes
O21 O2 O21 1_655 . 1_565 170.1(3) 159.8(4) 180 yes
O21 O2 O21 1_655 . 1_665 90.0(3) 70.3(3) 111.3(3) yes
O21 O2 O21 1_665 . . 170.1(3) 159.8(4) 180 yes
O21 O2 O21 1_665 . 1_565 90.0(3) 79.4(3) 102.4(3) yes
O21 O2 O21 1_665 . 1_655 90.0(3) 70.3(3) 111.3(3) yes
La O21 La 17_444 . 17_454 90.51(7) 86.89(7) 94.17(6) yes
La O21 La 17_444 . 21_445 89.35(17) 79.99(19) 100.1(4) yes
La O21 La 17_444 . 21_455 174.04(19) 170.5(3) 180 yes
La O21 Sr 17_444 . 17_444 0 0 0 yes
La O21 Sr 17_444 . 17_454 90.51(7) 86.89(6) 94.17(6) yes
La O21 Sr 17_444 . 21_445 89.35(17) 79.99(19) 100.1(4) yes
La O21 Sr 17_444 . 21_455 174.04(19) 170.5(3) 180 yes
La O21 Cu 17_444 . 1_455 89.84(18) 82.1(3) 96.6(2) yes
La O21 Cu 17_444 . . 89.84(18) 82.1(3) 96.6(2) yes
La O21 O1 17_444 . 1_455 122.2(2) 114.2(3) 130.1(4) yes
La O21 O1 17_444 . . 122.2(2) 114.2(3) 130.1(4) yes
La O21 O1 17_444 . 5_455 57.64(11) 55.29(14) 59.74(11) yes
La O21 O1 17_444 . 5_555 57.64(11) 55.29(14) 59.74(11) yes
La O21 O2 17_444 . 1_445 59.75(16) 51.15(16) 69.1(2) yes
La O21 O2 17_444 . 1_455 119.83(17) 113.50(19) 127.0(2) yes
La O21 O2 17_444 . 1_545 59.75(16) 51.15(16) 69.1(2) yes
La O21 O2 17_444 . . 119.83(17) 113.50(19) 127.0(2) yes
La O21 Sr1 17_444 . 17_444 0 0 0 yes
La O21 Sr1 17_444 . 17_454 90.51(7) 86.89(6) 94.17(6) yes
La O21 Sr1 17_444 . 21_445 89.35(17) 79.99(19) 100.1(4) yes
La O21 Sr1 17_444 . 21_455 174.04(19) 170.5(3) 180 yes
La O21 La 17_454 . 17_444 90.51(7) 86.89(7) 94.17(6) yes
La O21 La 17_454 . 21_445 174.04(19) 170.5(3) 180 yes
La O21 La 17_454 . 21_455 89.35(17) 79.99(19) 100.1(4) yes
La O21 Sr 17_454 . 17_444 90.51(7) 86.89(6) 94.17(6) yes
La O21 Sr 17_454 . 17_454 0 0 0 yes
La O21 Sr 17_454 . 21_445 174.04(19) 170.5(3) 180 yes
La O21 Sr 17_454 . 21_455 89.35(17) 79.99(19) 100.1(4) yes
La O21 Cu 17_454 . 1_455 89.84(18) 82.1(3) 96.6(2) yes
La O21 Cu 17_454 . . 89.84(18) 82.1(3) 96.6(2) yes
La O21 O1 17_454 . 1_455 122.2(2) 114.2(3) 130.1(4) yes
La O21 O1 17_454 . . 122.2(2) 114.2(3) 130.1(4) yes
La O21 O1 17_454 . 5_455 57.64(11) 55.29(14) 59.74(11) yes
La O21 O1 17_454 . 5_555 57.64(11) 55.29(14) 59.74(11) yes
La O21 O2 17_454 . 1_445 119.83(17) 113.50(19) 127.0(2) yes
La O21 O2 17_454 . 1_455 59.75(16) 51.15(16) 69.1(2) yes
La O21 O2 17_454 . 1_545 119.83(17) 113.50(19) 127.0(2) yes
La O21 O2 17_454 . . 59.75(16) 51.15(16) 69.1(2) yes
La O21 Sr1 17_454 . 17_444 90.51(7) 86.89(6) 94.17(6) yes
La O21 Sr1 17_454 . 17_454 0 0 0 yes
La O21 Sr1 17_454 . 21_445 174.04(19) 170.5(3) 180 yes
La O21 Sr1 17_454 . 21_455 89.35(17) 79.99(19) 100.1(4) yes
La O21 La 21_445 . 17_444 89.35(17) 79.99(19) 100.1(4) yes
La O21 La 21_445 . 17_454 174.04(19) 170.5(3) 180 yes
La O21 La 21_445 . 21_455 90.51(7) 86.89(7) 94.17(6) yes
La O21 Sr 21_445 . 17_444 89.35(17) 79.99(19) 100.1(4) yes
La O21 Sr 21_445 . 17_454 174.04(19) 170.5(3) 180 yes
La O21 Sr 21_445 . 21_445 0 0 0 yes
La O21 Sr 21_445 . 21_455 90.51(7) 86.89(6) 94.17(6) yes
La O21 Cu 21_445 . 1_455 89.84(18) 82.1(3) 96.6(2) yes
La O21 Cu 21_445 . . 89.84(18) 82.1(3) 96.6(2) yes
La O21 O1 21_445 . 1_455 57.64(11) 55.29(14) 59.74(11) yes
La O21 O1 21_445 . . 57.64(11) 55.29(14) 59.74(11) yes
La O21 O1 21_445 . 5_455 122.2(2) 114.2(3) 130.1(4) yes
La O21 O1 21_445 . 5_555 122.2(2) 114.2(3) 130.1(4) yes
La O21 O2 21_445 . 1_445 59.75(16) 51.15(16) 69.1(2) yes
La O21 O2 21_445 . 1_455 119.83(17) 113.50(19) 127.0(2) yes
La O21 O2 21_445 . 1_545 59.75(16) 51.15(16) 69.1(2) yes
La O21 O2 21_445 . . 119.83(17) 113.50(19) 127.0(2) yes
La O21 Sr1 21_445 . 17_444 89.35(17) 79.99(19) 100.1(4) yes
La O21 Sr1 21_445 . 17_454 174.04(19) 170.5(3) 180 yes
La O21 Sr1 21_445 . 21_445 0 0 0 yes
La O21 Sr1 21_445 . 21_455 90.51(7) 86.89(6) 94.17(6) yes
La O21 La 21_455 . 17_444 174.04(19) 170.5(3) 180 yes
La O21 La 21_455 . 17_454 89.35(17) 79.99(19) 100.1(4) yes
La O21 La 21_455 . 21_445 90.51(7) 86.89(7) 94.17(6) yes
La O21 Sr 21_455 . 17_444 174.04(19) 170.5(3) 180 yes
La O21 Sr 21_455 . 17_454 89.35(17) 79.99(19) 100.1(4) yes
La O21 Sr 21_455 . 21_445 90.51(7) 86.89(6) 94.17(6) yes
La O21 Sr 21_455 . 21_455 0 0 0 yes
La O21 Cu 21_455 . 1_455 89.84(18) 82.1(3) 96.6(2) yes
La O21 Cu 21_455 . . 89.84(18) 82.1(3) 96.6(2) yes
La O21 O1 21_455 . 1_455 57.64(11) 55.29(14) 59.74(11) yes
La O21 O1 21_455 . . 57.64(11) 55.29(14) 59.74(11) yes
La O21 O1 21_455 . 5_455 122.2(2) 114.2(3) 130.1(4) yes
La O21 O1 21_455 . 5_555 122.2(2) 114.2(3) 130.1(4) yes
La O21 O2 21_455 . 1_445 119.83(17) 113.50(19) 127.0(2) yes
La O21 O2 21_455 . 1_455 59.75(16) 51.15(16) 69.1(2) yes
La O21 O2 21_455 . 1_545 119.83(17) 113.50(19) 127.0(2) yes
La O21 O2 21_455 . . 59.75(16) 51.15(16) 69.1(2) yes
La O21 Sr1 21_455 . 17_444 174.04(19) 170.5(3) 180 yes
La O21 Sr1 21_455 . 17_454 89.35(17) 79.99(19) 100.1(4) yes
La O21 Sr1 21_455 . 21_445 90.51(7) 86.89(6) 94.17(6) yes
La O21 Sr1 21_455 . 21_455 0 0 0 yes
Sr O21 Sr 17_444 . 17_454 90.51(6) 86.89(6) 94.17(5) yes
Sr O21 Sr 17_444 . 21_445 89.35(17) 79.99(19) 100.1(4) yes
Sr O21 Sr 17_444 . 21_455 174.04(18) 170.5(3) 180 yes
Sr O21 Cu 17_444 . 1_455 89.84(18) 82.1(3) 96.6(2) yes
Sr O21 Cu 17_444 . . 89.84(18) 82.1(3) 96.6(2) yes
Sr O21 O1 17_444 . 1_455 122.2(2) 114.2(3) 130.1(4) yes
Sr O21 O1 17_444 . . 122.2(2) 114.2(3) 130.1(4) yes
Sr O21 O1 17_444 . 5_455 57.64(11) 55.29(14) 59.74(11) yes
Sr O21 O1 17_444 . 5_555 57.64(11) 55.29(14) 59.74(11) yes
Sr O21 O2 17_444 . 1_445 59.75(16) 51.15(16) 69.1(2) yes
Sr O21 O2 17_444 . 1_455 119.83(17) 113.50(19) 127.0(2) yes
Sr O21 O2 17_444 . 1_545 59.75(16) 51.15(16) 69.1(2) yes
Sr O21 O2 17_444 . . 119.83(17) 113.50(19) 127.0(2) yes
Sr O21 Sr1 17_444 . 17_444 0 0 0 yes
Sr O21 Sr1 17_444 . 17_454 90.51(6) 86.89(6) 94.17(5) yes
Sr O21 Sr1 17_444 . 21_445 89.35(17) 79.99(19) 100.1(4) yes
Sr O21 Sr1 17_444 . 21_455 174.04(18) 170.5(3) 180 yes
Sr O21 Sr 17_454 . 17_444 90.51(6) 86.89(6) 94.17(5) yes
Sr O21 Sr 17_454 . 21_445 174.04(18) 170.5(3) 180 yes
Sr O21 Sr 17_454 . 21_455 89.35(17) 79.99(19) 100.1(4) yes
Sr O21 Cu 17_454 . 1_455 89.84(18) 82.1(3) 96.6(2) yes
Sr O21 Cu 17_454 . . 89.84(18) 82.1(3) 96.6(2) yes
Sr O21 O1 17_454 . 1_455 122.2(2) 114.2(3) 130.1(4) yes
Sr O21 O1 17_454 . . 122.2(2) 114.2(3) 130.1(4) yes
Sr O21 O1 17_454 . 5_455 57.64(11) 55.29(14) 59.74(11) yes
Sr O21 O1 17_454 . 5_555 57.64(11) 55.29(14) 59.74(11) yes
Sr O21 O2 17_454 . 1_445 119.83(17) 113.50(19) 127.0(2) yes
Sr O21 O2 17_454 . 1_455 59.75(16) 51.15(16) 69.1(2) yes
Sr O21 O2 17_454 . 1_545 119.83(17) 113.50(19) 127.0(2) yes
Sr O21 O2 17_454 . . 59.75(16) 51.15(16) 69.1(2) yes
Sr O21 Sr1 17_454 . 17_444 90.51(6) 86.89(6) 94.17(5) yes
Sr O21 Sr1 17_454 . 17_454 0 0 0 yes
Sr O21 Sr1 17_454 . 21_445 174.04(18) 170.5(3) 180 yes
Sr O21 Sr1 17_454 . 21_455 89.35(17) 79.99(19) 100.1(4) yes
Sr O21 Sr 21_445 . 17_444 89.35(17) 79.99(19) 100.1(4) yes
Sr O21 Sr 21_445 . 17_454 174.04(18) 170.5(3) 180 yes
Sr O21 Sr 21_445 . 21_455 90.51(6) 86.89(6) 94.17(5) yes
Sr O21 Cu 21_445 . 1_455 89.84(18) 82.1(3) 96.6(2) yes
Sr O21 Cu 21_445 . . 89.84(18) 82.1(3) 96.6(2) yes
Sr O21 O1 21_445 . 1_455 57.64(11) 55.29(14) 59.74(11) yes
Sr O21 O1 21_445 . . 57.64(11) 55.29(14) 59.74(11) yes
Sr O21 O1 21_445 . 5_455 122.2(2) 114.2(3) 130.1(4) yes
Sr O21 O1 21_445 . 5_555 122.2(2) 114.2(3) 130.1(4) yes
Sr O21 O2 21_445 . 1_445 59.75(16) 51.15(16) 69.1(2) yes
Sr O21 O2 21_445 . 1_455 119.83(17) 113.50(19) 127.0(2) yes
Sr O21 O2 21_445 . 1_545 59.75(16) 51.15(16) 69.1(2) yes
Sr O21 O2 21_445 . . 119.83(17) 113.50(19) 127.0(2) yes
Sr O21 Sr1 21_445 . 17_444 89.35(17) 79.99(19) 100.1(4) yes
Sr O21 Sr1 21_445 . 17_454 174.04(18) 170.5(3) 180 yes
Sr O21 Sr1 21_445 . 21_445 0 0 0 yes
Sr O21 Sr1 21_445 . 21_455 90.51(6) 86.89(6) 94.17(5) yes
Sr O21 Sr 21_455 . 17_444 174.04(18) 170.5(3) 180 yes
Sr O21 Sr 21_455 . 17_454 89.35(17) 79.99(19) 100.1(4) yes
Sr O21 Sr 21_455 . 21_445 90.51(6) 86.89(6) 94.17(5) yes
Sr O21 Cu 21_455 . 1_455 89.84(18) 82.1(3) 96.6(2) yes
Sr O21 Cu 21_455 . . 89.84(18) 82.1(3) 96.6(2) yes
Sr O21 O1 21_455 . 1_455 57.64(11) 55.29(14) 59.74(11) yes
Sr O21 O1 21_455 . . 57.64(11) 55.29(14) 59.74(11) yes
Sr O21 O1 21_455 . 5_455 122.2(2) 114.2(3) 130.1(4) yes
Sr O21 O1 21_455 . 5_555 122.2(2) 114.2(3) 130.1(4) yes
Sr O21 O2 21_455 . 1_445 119.83(17) 113.50(19) 127.0(2) yes
Sr O21 O2 21_455 . 1_455 59.75(16) 51.15(16) 69.1(2) yes
Sr O21 O2 21_455 . 1_545 119.83(17) 113.50(19) 127.0(2) yes
Sr O21 O2 21_455 . . 59.75(16) 51.15(16) 69.1(2) yes
Sr O21 Sr1 21_455 . 17_444 174.04(18) 170.5(3) 180 yes
Sr O21 Sr1 21_455 . 17_454 89.35(17) 79.99(19) 100.1(4) yes
Sr O21 Sr1 21_455 . 21_445 90.51(6) 86.89(6) 94.17(5) yes
Sr O21 Sr1 21_455 . 21_455 0 0 0 yes
Cu O21 Cu 1_455 . . 171.4(3) 159.3(6) 180 yes
Cu O21 O1 1_455 . 1_455 49.40(10) 46.42(9) 52.96(13) yes
Cu O21 O1 1_455 . . 129.86(11) 127.04(13) 133.58(9) yes
Cu O21 O1 1_455 . 5_455 49.40(10) 46.42(9) 52.96(13) yes
Cu O21 O1 1_455 . 5_555 129.86(11) 127.04(13) 133.58(9) yes
Cu O21 O2 1_455 . 1_445 45.0(2) 39.9(2) 51.5(3) yes
Cu O21 O2 1_455 . 1_455 45.0(2) 39.9(2) 51.5(3) yes
Cu O21 O2 1_455 . 1_545 135.0(3) 115.2(4) 156.6(5) yes
Cu O21 O2 1_455 . . 135.0(3) 115.2(4) 156.6(5) yes
Cu O21 Sr1 1_455 . 17_444 89.84(17) 82.1(3) 96.6(2) yes
Cu O21 Sr1 1_455 . 17_454 89.84(17) 82.1(3) 96.6(2) yes
Cu O21 Sr1 1_455 . 21_445 89.84(17) 82.1(3) 96.6(2) yes
Cu O21 Sr1 1_455 . 21_455 89.84(17) 82.1(3) 96.6(2) yes
Cu O21 Cu . . 1_455 171.4(3) 159.3(6) 180 yes
Cu O21 O1 . . 1_455 129.86(11) 127.04(13) 133.58(9) yes
Cu O21 O1 . . . 49.40(10) 46.42(9) 52.96(13) yes
Cu O21 O1 . . 5_455 129.86(11) 127.04(13) 133.58(9) yes
Cu O21 O1 . . 5_555 49.40(10) 46.42(9) 52.96(13) yes
Cu O21 O2 . . 1_445 135.0(3) 115.2(4) 156.6(5) yes
Cu O21 O2 . . 1_455 135.0(3) 115.2(4) 156.6(5) yes
Cu O21 O2 . . 1_545 45.0(2) 39.9(2) 51.5(3) yes
Cu O21 O2 . . . 45.0(2) 39.9(2) 51.5(3) yes
Cu O21 Sr1 . . 17_444 89.84(17) 82.1(3) 96.6(2) yes
Cu O21 Sr1 . . 17_454 89.84(17) 82.1(3) 96.6(2) yes
Cu O21 Sr1 . . 21_445 89.84(17) 82.1(3) 96.6(2) yes
Cu O21 Sr1 . . 21_455 89.84(17) 82.1(3) 96.6(2) yes
O1 O21 O1 1_455 . . 80.88(9) 77.48(9) 84.64(8) yes
O1 O21 O1 1_455 . 5_455 98.78(16) 92.83(14) 105.9(2) yes
O1 O21 O1 1_455 . 5_555 173.8(2) 167.9(4) 180 yes
O1 O21 O2 1_455 . 1_445 62.57(14) 58.09(13) 68.0(2) yes
O1 O21 O2 1_455 . 1_455 62.57(14) 58.09(13) 68.0(2) yes
O1 O21 O2 1_455 . 1_545 117.01(16) 106.7(2) 126.8(2) yes
O1 O21 O2 1_455 . . 117.01(16) 106.7(2) 126.8(2) yes
O1 O21 Sr1 1_455 . 17_444 122.17(19) 114.2(3) 130.1(4) yes
O1 O21 Sr1 1_455 . 17_454 122.17(19) 114.2(3) 130.1(4) yes
O1 O21 Sr1 1_455 . 21_445 57.64(10) 55.29(13) 59.74(9) yes
O1 O21 Sr1 1_455 . 21_455 57.64(10) 55.29(13) 59.74(9) yes
O1 O21 O1 . . 1_455 80.88(9) 77.48(9) 84.64(8) yes
O1 O21 O1 . . 5_455 173.8(2) 167.9(4) 180 yes
O1 O21 O1 . . 5_555 98.78(16) 92.83(14) 105.9(2) yes
O1 O21 O2 . . 1_445 117.01(16) 106.7(2) 126.8(2) yes
O1 O21 O2 . . 1_455 117.01(16) 106.7(2) 126.8(2) yes
O1 O21 O2 . . 1_545 62.57(14) 58.09(13) 68.0(2) yes
O1 O21 O2 . . . 62.57(14) 58.09(13) 68.0(2) yes
O1 O21 Sr1 . . 17_444 122.17(19) 114.2(3) 130.1(4) yes
O1 O21 Sr1 . . 17_454 122.17(19) 114.2(3) 130.1(4) yes
O1 O21 Sr1 . . 21_445 57.64(10) 55.29(13) 59.74(9) yes
O1 O21 Sr1 . . 21_455 57.64(10) 55.29(13) 59.74(9) yes
O1 O21 O1 5_455 . 1_455 98.78(16) 92.83(14) 105.9(2) yes
O1 O21 O1 5_455 . . 173.8(2) 167.9(4) 180 yes
O1 O21 O1 5_455 . 5_555 80.88(9) 77.48(9) 84.64(8) yes
O1 O21 O2 5_455 . 1_445 62.57(14) 58.09(13) 68.0(2) yes
O1 O21 O2 5_455 . 1_455 62.57(14) 58.09(13) 68.0(2) yes
O1 O21 O2 5_455 . 1_545 117.01(16) 106.7(2) 126.8(2) yes
O1 O21 O2 5_455 . . 117.01(16) 106.7(2) 126.8(2) yes
O1 O21 Sr1 5_455 . 17_444 57.64(10) 55.29(13) 59.74(9) yes
O1 O21 Sr1 5_455 . 17_454 57.64(10) 55.29(13) 59.74(9) yes
O1 O21 Sr1 5_455 . 21_445 122.17(19) 114.2(3) 130.1(4) yes
O1 O21 Sr1 5_455 . 21_455 122.17(19) 114.2(3) 130.1(4) yes
O1 O21 O1 5_555 . 1_455 173.8(2) 167.9(4) 180 yes
O1 O21 O1 5_555 . . 98.78(16) 92.83(14) 105.9(2) yes
O1 O21 O1 5_555 . 5_455 80.88(9) 77.48(9) 84.64(8) yes
O1 O21 O2 5_555 . 1_445 117.01(16) 106.7(2) 126.8(2) yes
O1 O21 O2 5_555 . 1_455 117.01(16) 106.7(2) 126.8(2) yes
O1 O21 O2 5_555 . 1_545 62.57(14) 58.09(13) 68.0(2) yes
O1 O21 O2 5_555 . . 62.57(14) 58.09(13) 68.0(2) yes
O1 O21 Sr1 5_555 . 17_444 57.64(10) 55.29(13) 59.74(9) yes
O1 O21 Sr1 5_555 . 17_454 57.64(10) 55.29(13) 59.74(9) yes
O1 O21 Sr1 5_555 . 21_445 122.17(19) 114.2(3) 130.1(4) yes
O1 O21 Sr1 5_555 . 21_455 122.17(19) 114.2(3) 130.1(4) yes
O2 O21 O2 1_445 . 1_455 90.0(3) 79.9(2) 103.0(3) yes
O2 O21 O2 1_445 . 1_545 90.0(3) 70.1(3) 112.4(4) yes
O2 O21 O2 1_445 . . 170.1(3) 160.1(4) 180 yes
O2 O21 Sr1 1_445 . 17_444 59.75(14) 51.15(14) 69.1(2) yes
O2 O21 Sr1 1_445 . 17_454 119.83(15) 113.5(2) 127.03(18) yes
O2 O21 Sr1 1_445 . 21_445 59.75(14) 51.15(14) 69.1(2) yes
O2 O21 Sr1 1_445 . 21_455 119.83(15) 113.5(2) 127.03(18) yes
O2 O21 O2 1_455 . 1_445 90.0(3) 79.9(2) 103.0(3) yes
O2 O21 O2 1_455 . 1_545 170.1(3) 160.1(4) 180 yes
O2 O21 O2 1_455 . . 90.0(3) 70.1(3) 112.4(4) yes
O2 O21 Sr1 1_455 . 17_444 119.83(15) 113.5(2) 127.03(18) yes
O2 O21 Sr1 1_455 . 17_454 59.75(14) 51.15(14) 69.1(2) yes
O2 O21 Sr1 1_455 . 21_445 119.83(15) 113.5(2) 127.03(18) yes
O2 O21 Sr1 1_455 . 21_455 59.75(14) 51.15(14) 69.1(2) yes
O2 O21 O2 1_545 . 1_445 90.0(3) 70.1(3) 112.4(4) yes
O2 O21 O2 1_545 . 1_455 170.1(3) 160.1(4) 180 yes
O2 O21 O2 1_545 . . 90.0(3) 79.9(2) 103.0(3) yes
O2 O21 Sr1 1_545 . 17_444 59.75(14) 51.15(14) 69.1(2) yes
O2 O21 Sr1 1_545 . 17_454 119.83(15) 113.5(2) 127.03(18) yes
O2 O21 Sr1 1_545 . 21_445 59.75(14) 51.15(14) 69.1(2) yes
O2 O21 Sr1 1_545 . 21_455 119.83(15) 113.5(2) 127.03(18) yes
O2 O21 O2 . . 1_445 170.1(3) 160.1(4) 180 yes
O2 O21 O2 . . 1_455 90.0(3) 70.1(3) 112.4(4) yes
O2 O21 O2 . . 1_545 90.0(3) 79.9(2) 103.0(3) yes
O2 O21 Sr1 . . 17_444 119.83(15) 113.5(2) 127.03(18) yes
O2 O21 Sr1 . . 17_454 59.75(14) 51.15(14) 69.1(2) yes
O2 O21 Sr1 . . 21_445 119.83(15) 113.5(2) 127.03(18) yes
O2 O21 Sr1 . . 21_455 59.75(14) 51.15(14) 69.1(2) yes
Sr1 O21 Sr1 17_444 . 17_454 90.51(6) 86.89(6) 94.17(5) yes
Sr1 O21 Sr1 17_444 . 21_445 89.35(17) 79.99(19) 100.1(4) yes
Sr1 O21 Sr1 17_444 . 21_455 174.04(18) 170.5(3) 180 yes
Sr1 O21 Sr1 17_454 . 17_444 90.51(6) 86.89(6) 94.17(5) yes
Sr1 O21 Sr1 17_454 . 21_445 174.04(18) 170.5(3) 180 yes
Sr1 O21 Sr1 17_454 . 21_455 89.35(17) 79.99(19) 100.1(4) yes
Sr1 O21 Sr1 21_445 . 17_444 89.35(17) 79.99(19) 100.1(4) yes
Sr1 O21 Sr1 21_445 . 17_454 174.04(18) 170.5(3) 180 yes
Sr1 O21 Sr1 21_445 . 21_455 90.51(6) 86.89(6) 94.17(5) yes
Sr1 O21 Sr1 21_455 . 17_444 174.04(18) 170.5(3) 180 yes
Sr1 O21 Sr1 21_455 . 17_454 89.35(17) 79.99(19) 100.1(4) yes
Sr1 O21 Sr1 21_455 . 21_445 90.51(6) 86.89(6) 94.17(5) yes
loop_
_geom_bond_atom_site_label_1
_geom_bond_atom_site_label_2
_geom_bond_site_symmetry_1
_geom_bond_site_symmetry_2
_geom_bond_distance_av
_geom_bond_distance_min
_geom_bond_distance_max
_geom_bond_publ_flag
La La . 1_455 3.761(3) 3.527(3) 4.005(2) yes
La La . 1_545 3.761(3) 3.512(2) 3.990(2) yes
La La . 1_565 3.761(3) 3.512(2) 3.990(2) yes
La La . 1_655 3.761(3) 3.527(3) 4.005(2) yes
La La . 5_556 3.7076(17) 3.7076(17) 3.7076(17) yes
La La . 21_445 3.859(2) 3.8576(16) 3.8614(14) yes
La La . 21_455 3.859(2) 3.8576(16) 3.8614(14) yes
La La . 21_545 3.859(2) 3.8576(16) 3.8614(14) yes
La La . 21_555 3.859(2) 3.8576(16) 3.8614(14) yes
La Sr . 1_455 3.761(3) 3.527(3) 4.005(2) yes
La Sr . 1_545 3.761(3) 3.512(2) 3.990(2) yes
La Sr . . 0 0 0 yes
La Sr . 1_565 3.761(3) 3.512(2) 3.990(2) yes
La Sr . 1_655 3.761(3) 3.527(3) 4.005(2) yes
La Sr . 5_556 3.7076(12) 3.7076(12) 3.7076(12) yes
La Sr . 21_445 3.859(2) 3.8576(14) 3.8614(11) yes
La Sr . 21_455 3.859(2) 3.8576(14) 3.8614(11) yes
La Sr . 21_545 3.859(2) 3.8576(14) 3.8614(11) yes
La Sr . 21_555 3.859(2) 3.8576(14) 3.8614(11) yes
La Cu . 17_445 3.242(3) 3.210(4) 3.275(3) yes
La Cu . 17_455 3.242(3) 3.210(4) 3.275(3) yes
La Cu . 17_545 3.242(3) 3.210(4) 3.275(3) yes
La Cu . 17_555 3.242(3) 3.210(4) 3.275(3) yes
La O1 . . 2.452(3) 2.452(3) 2.452(3) yes
La O1 . 21_445 2.683(3) 2.678(5) 2.687(4) yes
La O1 . 21_455 2.683(3) 2.678(5) 2.687(4) yes
La O1 . 21_545 2.683(3) 2.678(5) 2.687(4) yes
La O1 . 21_555 2.683(3) 2.678(5) 2.687(4) yes
La O2 . 17_445 2.645(4) 2.416(5) 2.882(7) yes
La O2 . 17_545 2.645(4) 2.416(5) 2.882(7) yes
La Sr1 . 1_455 3.761(3) 3.527(3) 4.005(2) yes
La Sr1 . 1_545 3.761(3) 3.512(2) 3.990(2) yes
La Sr1 . . 0.000(3) 0.000(5) 0.0000(6) yes
La Sr1 . 1_565 3.761(3) 3.512(2) 3.990(2) yes
La Sr1 . 1_655 3.761(3) 3.527(3) 4.005(2) yes
La Sr1 . 5_556 3.7076(12) 3.7076(12) 3.7076(12) yes
La Sr1 . 21_445 3.859(2) 3.8576(14) 3.8614(11) yes
La Sr1 . 21_455 3.859(2) 3.8576(14) 3.8614(11) yes
La Sr1 . 21_545 3.859(2) 3.8576(14) 3.8614(11) yes
La Sr1 . 21_555 3.859(2) 3.8576(14) 3.8614(11) yes
La O21 . 17_545 2.645(4) 2.418(6) 2.885(6) yes
La O21 . 17_555 2.645(4) 2.418(6) 2.885(6) yes
Cu O1 . . 2.198(2) 2.197(2) 2.198(2) yes
Cu O1 . 5_555 2.198(2) 2.197(2) 2.198(2) yes
Cu O2 . 1_545 1.888(5) 1.718(6) 2.050(8) yes
Cu O2 . . 1.888(5) 1.718(6) 2.050(8) yes
Cu O21 . . 1.888(5) 1.709(8) 2.041(7) yes
Cu O21 . 1_655 1.888(5) 1.709(8) 2.041(7) yes
O1 Sr . . 2.452(2) 2.452(2) 2.452(2) yes
O1 Sr . 21_445 2.683(3) 2.678(5) 2.687(4) yes
O1 Sr . 21_455 2.683(3) 2.678(5) 2.687(4) yes
O1 Sr . 21_545 2.683(3) 2.678(5) 2.687(4) yes
O1 Sr . 21_555 2.683(3) 2.678(5) 2.687(4) yes
O1 O2 . 1_545 2.898(4) 2.758(4) 3.040(6) yes
O1 O2 . . 2.898(4) 2.758(4) 3.040(6) yes
O1 Sr1 . . 2.452(2) 2.452(2) 2.452(2) yes
O1 Sr1 . 21_445 2.683(3) 2.678(5) 2.687(4) yes
O1 Sr1 . 21_455 2.683(3) 2.678(5) 2.687(4) yes
O1 Sr1 . 21_545 2.683(3) 2.678(5) 2.687(4) yes
O1 Sr1 . 21_555 2.683(3) 2.678(5) 2.687(4) yes
O1 O21 . . 2.898(4) 2.753(5) 3.033(4) yes
O1 O21 . 1_655 2.898(4) 2.753(5) 3.033(4) yes
O2 Sr . 17_454 2.645(4) 2.416(5) 2.882(7) yes
O2 Sr . 17_554 2.645(4) 2.416(5) 2.882(7) yes
O2 Sr . 21_455 2.645(4) 2.416(5) 2.882(7) yes
O2 Sr . 21_555 2.645(4) 2.416(5) 2.882(7) yes
O2 Sr1 . 17_454 2.645(4) 2.416(5) 2.882(7) yes
O2 Sr1 . 17_554 2.645(4) 2.416(5) 2.882(7) yes
O2 Sr1 . 21_455 2.645(4) 2.416(5) 2.882(7) yes
O2 Sr1 . 21_555 2.645(4) 2.416(5) 2.882(7) yes
O2 O21 . . 2.673(7) 2.393(4) 2.947(10) yes
O2 O21 . 1_565 2.673(7) 2.393(4) 2.947(10) yes
O2 O21 . 1_655 2.673(7) 2.393(4) 2.947(10) yes
O2 O21 . 1_665 2.673(7) 2.393(4) 2.947(10) yes
O21 Sr . 17_444 2.645(4) 2.418(6) 2.885(6) yes
O21 Sr . 17_454 2.645(4) 2.418(6) 2.885(6) yes
O21 Sr . 21_445 2.645(4) 2.418(6) 2.885(6) yes
O21 Sr . 21_455 2.645(4) 2.418(6) 2.885(6) yes
O21 Sr1 . 17_444 2.645(4) 2.418(6) 2.885(6) yes
O21 Sr1 . 17_454 2.645(4) 2.418(6) 2.885(6) yes
O21 Sr1 . 21_445 2.645(4) 2.418(6) 2.885(6) yes
O21 Sr1 . 21_455 2.645(4) 2.418(6) 2.885(6) yes
loop_
_pd_proc_point_id
_pd_proc_2theta_corrected
_pd_proc_intensity_net
_pd_calc_intensity_net
_pd_proc_ls_weight
1 6.0192 76.00 77.30 8.72
2 6.0692 82.00 77.08 9.06
3 6.1192 91.00 76.86 9.54
4 6.1692 75.00 76.65 8.66
5 6.2192 69.00 76.43 8.31
6 6.2692 72.00 76.22 8.49
7 6.3192 76.00 76.00 8.72
8 6.3692 85.00 75.79 9.22
9 6.4192 85.00 75.58 9.22
10 6.4692 88.00 75.37 9.38
11 6.5192 75.00 75.16 8.66
12 6.5692 74.00 74.95 8.60
13 6.6192 72.00 74.75 8.49
14 6.6692 75.00 74.54 8.66
15 6.7192 78.00 74.34 8.83
16 6.7692 77.00 74.14 8.77
17 6.8192 68.00 73.94 8.25
18 6.8692 70.00 73.74 8.37
19 6.9192 74.00 73.54 8.60
20 6.9692 73.00 73.34 8.54
21 7.0192 80.00 73.14 8.94
22 7.0692 75.00 72.95 8.66
23 7.1192 72.00 72.76 8.49
24 7.1692 65.00 72.56 8.06
25 7.2192 72.00 72.37 8.49
26 7.2692 71.00 72.25 8.43
27 7.3192 65.00 72.06 8.06
28 7.3692 84.00 71.88 9.17
29 7.4192 75.00 71.69 8.66
30 7.4692 75.00 71.51 8.66
31 7.5192 72.00 71.33 8.49
32 7.5692 74.00 71.15 8.60
33 7.6192 72.00 70.97 8.49
34 7.6692 78.00 70.79 8.83
35 7.7192 74.00 70.61 8.60
36 7.7692 71.00 70.44 8.43
37 7.8192 70.00 70.26 8.37
38 7.8692 69.00 70.09 8.31
39 7.9192 74.00 69.92 8.60
40 7.9692 76.00 69.75 8.72
41 8.0192 72.00 69.58 8.49
42 8.0692 68.00 69.41 8.25
43 8.1192 71.00 69.24 8.43
44 8.1692 79.00 69.08 8.89
45 8.2192 67.00 68.92 8.19
46 8.2692 70.00 68.75 8.37
47 8.3192 58.00 68.59 7.62
48 8.3692 75.00 68.43 8.66
49 8.4192 66.00 68.27 8.12
50 8.4692 68.00 68.12 8.25
51 8.5192 72.00 67.96 8.49
52 8.5692 69.00 67.81 8.31
53 8.6192 66.00 67.66 8.12
54 8.6692 72.00 67.51 8.49
55 8.7192 67.00 67.36 8.19
56 8.7692 65.00 67.21 8.06
57 8.8192 63.00 67.06 7.94
58 8.8692 70.00 66.92 8.37
59 8.9192 70.00 66.78 8.37
60 8.9692 72.00 66.64 8.49
61 9.0192 67.00 66.50 8.19
62 9.0692 67.00 66.36 8.19
63 9.1192 65.00 66.23 8.06
64 9.1692 68.00 66.10 8.25
65 9.2192 64.00 65.97 8.00
66 9.2692 62.00 65.84 7.87
67 9.3192 70.00 65.72 8.37
68 9.3692 63.00 65.60 7.94
69 9.4192 59.00 65.49 7.68
70 9.4692 66.00 65.38 8.12
71 9.5192 65.00 65.27 8.06
72 9.5692 63.00 65.18 7.94
73 9.6192 63.00 65.09 7.94
74 9.6692 62.00 65.02 7.87
75 9.7192 63.00 64.97 7.94
76 9.7692 66.00 64.94 8.12
77 9.8192 66.00 64.95 8.12
78 9.8692 62.00 65.01 7.87
79 9.9192 68.00 65.13 8.25
80 9.9692 68.00 65.34 8.25
81 10.0192 62.00 65.65 7.87
82 10.0692 74.00 66.12 8.60
83 10.1192 65.00 66.81 8.06
84 10.1692 80.00 67.92 8.94
85 10.2192 85.00 69.79 9.22
86 10.2692 84.00 73.08 9.17
87 10.3192 90.00 78.78 9.49
88 10.3692 107.00 88.07 10.34
89 10.4192 102.00 101.88 10.10
90 10.4692 121.00 120.18 11.00
91 10.5192 140.00 141.50 11.83
92 10.5692 159.00 163.20 12.61
93 10.6192 169.00 182.67 13.00
94 10.6692 200.00 198.63 14.14
95 10.7192 205.00 211.40 14.32
96 10.7692 206.00 221.26 14.35
97 10.8192 212.00 226.31 14.56
98 10.8692 198.00 222.31 14.07
99 10.9192 176.00 205.57 13.27
100 10.9692 162.00 176.55 12.73
101 11.0192 127.00 140.67 11.27
102 11.0692 107.00 105.86 10.34
103 11.1192 92.00 78.72 9.59
104 11.1692 74.00 61.98 8.60
105 11.2192 64.00 54.48 8.00
106 11.2692 65.00 52.94 8.06
107 11.3192 62.00 54.13 7.87
108 11.3692 55.00 55.91 7.42
109 11.4192 57.00 57.36 7.55
110 11.4692 59.00 58.33 7.68
111 11.5192 56.00 58.93 7.48
112 11.5692 56.00 59.31 7.48
113 11.6192 54.00 59.55 7.35
114 11.6692 59.00 59.71 7.68
115 11.7192 63.00 59.79 7.94
116 11.7692 55.00 59.82 7.42
117 11.8192 54.00 59.80 7.35
118 11.8692 55.00 59.74 7.42
119 11.9192 62.00 59.65 7.87
120 11.9692 54.00 59.55 7.35
121 12.0192 59.00 59.43 7.68
122 12.0692 55.00 59.31 7.42
123 12.1192 53.00 59.18 7.28
124 12.1692 60.00 59.06 7.75
125 12.2192 64.00 58.93 8.00
126 12.2692 59.00 58.81 7.68
127 12.3192 55.00 58.69 7.42
128 12.3692 57.00 58.57 7.55
129 12.4192 54.00 58.46 7.35
130 12.4692 53.00 58.35 7.28
131 12.5192 63.00 58.24 7.94
132 12.5692 59.00 58.13 7.68
133 12.6192 52.00 58.03 7.21
134 12.6692 56.00 57.93 7.48
135 12.7192 56.00 57.83 7.48
136 12.7692 54.00 57.73 7.35
137 12.8192 56.00 57.63 7.48
138 12.8692 53.00 57.54 7.28
139 12.9192 53.00 57.44 7.28
140 12.9692 57.00 57.35 7.55
141 13.0192 57.00 57.26 7.55
142 13.0692 53.00 57.17 7.28
143 13.1192 55.00 57.08 7.42
144 13.1692 54.00 56.99 7.35
145 13.2192 56.00 56.91 7.48
146 13.2692 55.00 56.82 7.42
147 13.3192 52.00 56.74 7.21
148 13.3692 58.00 56.65 7.62
149 13.4192 55.00 56.57 7.42
150 13.4692 57.00 56.49 7.55
151 13.5192 55.00 56.41 7.42
152 13.5692 54.00 56.33 7.35
153 13.6192 57.00 56.25 7.55
154 13.6692 61.00 56.17 7.81
155 13.7192 55.00 56.10 7.42
156 13.7692 57.00 56.02 7.55
157 13.8192 57.00 55.94 7.55
158 13.8692 59.00 55.87 7.68
159 13.9192 55.00 55.80 7.42
160 13.9692 55.00 55.72 7.42
161 14.0192 50.00 55.65 7.07
162 14.0692 55.00 55.58 7.42
163 14.1192 58.00 55.51 7.62
164 14.1692 51.00 55.44 7.14
165 14.2192 57.00 55.37 7.55
166 14.2692 54.00 55.30 7.35
167 14.3192 53.00 55.24 7.28
168 14.3692 49.00 55.17 7.00
169 14.4192 52.00 55.10 7.21
170 14.4692 60.00 54.97 7.75
171 14.5192 51.00 54.91 7.14
172 14.5692 52.00 54.85 7.21
173 14.6192 51.00 54.79 7.14
174 14.6692 56.00 54.73 7.48
175 14.7192 58.00 54.67 7.62
176 14.7692 58.00 54.61 7.62
177 14.8192 58.00 54.55 7.62
178 14.8692 53.00 54.49 7.28
179 14.9192 58.00 54.43 7.62
180 14.9692 53.00 54.38 7.28
181 15.0192 57.00 54.32 7.55
182 15.0692 47.00 54.27 6.86
183 15.1192 49.00 54.22 7.00
184 15.1692 52.00 54.17 7.21
185 15.2192 56.00 54.12 7.48
186 15.2692 54.00 54.07 7.35
187 15.3192 55.00 54.03 7.42
188 15.3692 52.00 53.99 7.21
189 15.4192 52.00 53.95 7.21
190 15.4692 49.00 53.93 7.00
191 15.5192 53.00 53.92 7.28
192 15.5692 55.00 53.94 7.42
193 15.6192 53.00 54.02 7.28
194 15.6692 56.00 54.20 7.48
195 15.7192 56.00 54.51 7.48
196 15.7692 53.00 54.96 7.28
197 15.8192 57.00 55.54 7.55
198 15.8692 54.00 56.19 7.35
199 15.9192 57.00 56.85 7.55
200 15.9692 57.00 57.45 7.55
201 16.0192 53.00 57.95 7.28
202 16.0692 55.00 58.30 7.42
203 16.1192 60.00 58.39 7.75
204 16.1692 58.00 58.11 7.62
205 16.2192 58.00 57.41 7.62
206 16.2692 54.00 56.42 7.35
207 16.3192 55.00 55.31 7.42
208 16.3692 51.00 54.32 7.14
209 16.4192 52.00 53.60 7.21
210 16.4692 50.00 53.15 7.07
211 16.5192 56.00 52.92 7.48
212 16.5692 53.00 52.82 7.28
213 16.6192 54.00 52.77 7.35
214 16.6692 57.00 52.74 7.55
215 16.7192 54.00 52.71 7.35
216 16.7692 52.00 52.68 7.21
217 16.8192 50.00 52.64 7.07
218 16.8692 55.00 52.61 7.42
219 16.9192 55.00 52.58 7.42
220 16.9692 53.00 52.55 7.28
221 17.0192 52.00 52.51 7.21
222 17.0692 50.00 52.48 7.07
223 17.1192 53.00 52.44 7.28
224 17.1692 52.00 52.41 7.21
225 17.2192 52.00 52.38 7.21
226 17.2692 46.00 52.34 6.78
227 17.3192 51.00 52.31 7.14
228 17.3692 50.00 52.28 7.07
229 17.4192 50.00 52.25 7.07
230 17.4692 48.00 52.22 6.93
231 17.5192 50.00 52.19 7.07
232 17.5692 48.00 52.16 6.93
233 17.6192 52.00 52.13 7.21
234 17.6692 49.00 52.10 7.00
235 17.7192 53.00 52.07 7.28
236 17.7692 49.00 52.05 7.00
237 17.8192 52.00 52.02 7.21
238 17.8692 51.00 52.00 7.14
239 17.9192 51.00 51.97 7.14
240 17.9692 48.00 51.95 6.93
241 18.0192 53.00 51.93 7.28
242 18.0692 48.00 51.91 6.93
243 18.1192 56.00 51.89 7.48
244 18.1692 49.00 51.87 7.00
245 18.2192 53.00 51.85 7.28
246 18.2692 51.00 51.83 7.14
247 18.3192 45.00 51.82 6.71
248 18.3692 51.00 51.81 7.14
249 18.4192 50.00 51.80 7.07
250 18.4692 47.00 51.79 6.86
251 18.5192 49.00 51.80 7.00
252 18.5692 54.00 51.80 7.35
253 18.6192 47.00 51.81 6.86
254 18.6692 50.00 51.84 7.07
255 18.7192 49.00 51.88 7.00
256 18.7692 58.00 51.93 7.62
257 18.8192 52.00 52.02 7.21
258 18.8692 53.00 52.14 7.28
259 18.9192 48.00 52.33 6.93
260 18.9692 53.00 52.65 7.28
261 19.0192 52.00 53.21 7.21
262 19.0692 51.00 54.25 7.14
263 19.1192 53.00 56.09 7.28
264 19.1692 66.00 59.08 8.12
265 19.2192 68.00 63.49 8.25
266 19.2692 74.00 69.24 8.60
267 19.3192 77.00 75.91 8.77
268 19.3692 86.00 82.84 9.27
269 19.4192 92.00 89.39 9.59
270 19.4692 99.00 94.94 9.95
271 19.5192 101.00 98.66 10.05
272 19.5692 105.00 99.39 10.25
273 19.6192 90.00 96.18 9.49
274 19.6692 90.00 89.15 9.49
275 19.7192 75.00 79.79 8.66
276 19.7692 68.00 70.20 8.25
277 19.8192 64.00 62.24 8.00
278 19.8692 51.00 56.76 7.14
279 19.9192 55.00 53.60 7.42
280 19.9692 47.00 52.09 6.86
281 20.0192 54.00 51.47 7.35
282 20.0692 50.00 51.26 7.07
283 20.1192 47.00 51.20 6.86
284 20.1692 52.00 51.18 7.21
285 20.2192 49.00 51.19 7.00
286 20.2692 50.00 51.20 7.07
287 20.3192 50.00 51.21 7.07
288 20.3692 52.00 51.21 7.21
289 20.4192 49.00 51.20 7.00
290 20.4692 52.00 51.19 7.21
291 20.5192 50.00 51.18 7.07
292 20.5692 48.00 51.16 6.93
293 20.6192 57.00 51.14 7.55
294 20.6692 50.00 51.12 7.07
295 20.7192 52.00 51.11 7.21
296 20.7692 50.00 51.09 7.07
297 20.8192 50.00 51.08 7.07
298 20.8692 51.00 51.09 7.14
299 20.9192 51.00 51.08 7.14
300 20.9692 52.00 51.08 7.21
301 21.0192 53.00 51.08 7.28
302 21.0692 50.00 51.09 7.07
303 21.1192 56.00 51.11 7.48
304 21.1692 52.00 51.14 7.21
305 21.2192 57.00 51.22 7.55
306 21.2692 54.00 51.38 7.35
307 21.3192 54.00 51.66 7.35
308 21.3692 52.00 52.11 7.21
309 21.4192 52.00 52.79 7.21
310 21.4692 55.00 53.66 7.42
311 21.5192 53.00 54.68 7.28
312 21.5692 62.00 55.73 7.87
313 21.6192 61.00 56.70 7.81
314 21.6692 57.00 57.49 7.55
315 21.7192 58.00 57.92 7.62
316 21.7692 54.00 57.83 7.35
317 21.8192 56.00 57.26 7.48
318 21.8692 56.00 56.06 7.48
319 21.9192 53.00 54.66 7.28
320 21.9692 54.00 53.35 7.35
321 22.0192 53.00 52.36 7.28
322 22.0692 53.00 51.72 7.28
323 22.1192 51.00 51.39 7.14
324 22.1692 47.00 51.24 6.86
325 22.2192 51.00 51.18 7.14
326 22.2692 50.00 51.17 7.07
327 22.3192 52.00 51.17 7.21
328 22.3692 52.00 51.18 7.21
329 22.4192 52.00 51.18 7.21
330 22.4692 50.00 51.19 7.07
331 22.5192 53.00 51.19 7.28
332 22.5692 49.00 51.20 7.00
333 22.6192 54.00 51.21 7.35
334 22.6692 49.00 51.22 7.00
335 22.7192 52.00 51.24 7.21
336 22.7692 48.00 51.26 6.93
337 22.8192 51.00 51.28 7.14
338 22.8692 53.00 51.31 7.28
339 22.9192 53.00 51.32 7.28
340 22.9692 54.00 51.35 7.35
341 23.0192 53.00 51.39 7.28
342 23.0692 56.00 51.43 7.48
343 23.1192 57.00 51.48 7.55
344 23.1692 59.00 51.55 7.68
345 23.2192 52.00 51.62 7.21
346 23.2692 57.00 51.72 7.55
347 23.3192 54.00 51.83 7.35
348 23.3692 55.00 51.99 7.42
349 23.4192 56.00 52.20 7.48
350 23.4692 57.00 52.55 7.55
351 23.5192 61.00 53.14 7.81
352 23.5692 55.00 54.19 7.42
353 23.6192 56.00 56.43 7.48
354 23.6692 62.00 59.37 7.87
355 23.7192 65.00 63.58 8.06
356 23.7692 73.00 68.95 8.54
357 23.8192 83.00 75.04 9.11
358 23.8692 81.00 81.24 9.00
359 23.9192 84.00 86.80 9.17
360 23.9692 87.00 90.87 9.33
361 24.0192 87.00 92.39 9.33
362 24.0692 90.00 90.54 9.49
363 24.1192 84.00 85.44 9.17
364 24.1692 82.00 78.38 9.06
365 24.2192 75.00 71.17 8.66
366 24.2692 72.00 65.41 8.49
367 24.3192 70.00 61.91 8.37
368 24.3692 66.00 60.87 8.12
369 24.4192 66.00 62.41 8.12
370 24.4692 72.00 67.23 8.49
371 24.5192 76.00 76.88 8.72
372 24.5692 93.00 93.54 9.64
373 24.6192 113.00 119.07 10.63
374 24.6692 153.00 153.65 12.37
375 24.7192 191.00 195.17 13.82
376 24.7692 239.00 239.47 15.46
377 24.8192 287.00 281.34 16.94
378 24.8692 304.00 314.61 17.44
379 24.9192 315.00 331.74 17.75
380 24.9692 308.00 325.53 17.55
381 25.0192 272.00 294.18 16.49
382 25.0692 233.00 244.43 15.26
383 25.1192 179.00 188.54 13.38
384 25.1692 132.00 138.57 11.49
385 25.2192 96.00 101.56 9.80
386 25.2692 73.00 78.38 8.54
387 25.3192 64.00 65.87 8.00
388 25.3692 63.00 59.93 7.94
389 25.4192 55.00 57.37 7.42
390 25.4692 57.00 56.39 7.55
391 25.5192 56.00 56.14 7.48
392 25.5692 53.00 56.21 7.28
393 25.6192 56.00 56.48 7.48
394 25.6692 60.00 56.82 7.75
395 25.7192 56.00 57.24 7.48
396 25.7692 56.00 57.74 7.48
397 25.8192 53.00 58.38 7.28
398 25.8692 55.00 59.31 7.42
399 25.9192 55.00 60.40 7.42
400 25.9692 58.00 61.88 7.62
401 26.0192 63.00 63.92 7.94
402 26.0692 71.00 66.92 8.43
403 26.1192 76.00 71.82 8.72
404 26.1692 89.00 80.68 9.43
405 26.2192 109.00 97.42 10.44
406 26.2692 143.00 128.24 11.96
407 26.3192 200.00 180.72 14.14
408 26.3692 266.00 260.95 16.31
409 26.4192 363.00 369.66 19.05
410 26.4692 506.00 499.93 22.49
411 26.5192 652.00 638.03 25.53
412 26.5692 776.00 766.00 27.86
413 26.6192 845.00 862.07 29.07
414 26.6692 880.00 901.01 29.66
415 26.7192 846.00 863.03 29.09
416 26.7692 727.00 750.08 26.96
417 26.8192 574.00 589.99 23.96
418 26.8692 413.00 422.60 20.32
419 26.9192 274.00 281.57 16.55
420 26.9692 182.00 182.94 13.49
421 27.0192 119.00 125.11 10.91
422 27.0692 100.00 97.01 10.00
423 27.1192 88.00 86.60 9.38
424 27.1692 87.00 85.16 9.33
425 27.2192 84.00 87.44 9.17
426 27.2692 89.00 90.47 9.43
427 27.3192 98.00 92.21 9.90
428 27.3692 95.00 91.24 9.75
429 27.4192 92.00 87.19 9.59
430 27.4692 87.00 80.87 9.33
431 27.5192 87.00 73.85 9.33
432 27.5692 68.00 67.59 8.25
433 27.6192 70.00 62.92 8.37
434 27.6692 65.00 59.92 8.06
435 27.7192 61.00 58.21 7.81
436 27.7692 63.00 57.30 7.94
437 27.8192 62.00 56.83 7.87
438 27.8692 65.00 56.61 8.06
439 27.9192 67.00 56.53 8.19
440 27.9692 63.00 56.57 7.94
441 28.0192 63.00 56.73 7.94
442 28.0692 59.00 57.05 7.68
443 28.1192 63.00 57.54 7.94
444 28.1692 64.00 58.69 8.00
445 28.2192 67.00 60.74 8.19
446 28.2692 69.00 64.20 8.31
447 28.3192 73.00 69.61 8.54
448 28.3692 84.00 77.51 9.17
449 28.4192 98.00 88.49 9.90
450 28.4692 109.00 103.32 10.44
451 28.5192 130.00 122.85 11.40
452 28.5692 153.00 147.26 12.37
453 28.6192 179.00 175.26 13.38
454 28.6692 208.00 204.20 14.42
455 28.7192 237.00 230.94 15.39
456 28.7692 268.00 252.25 16.37
457 28.8192 272.00 264.02 16.49
458 28.8692 278.00 261.37 16.67
459 28.9192 249.00 241.46 15.78
460 28.9692 207.00 207.23 14.39
461 29.0192 173.00 166.63 13.15
462 29.0692 137.00 128.64 11.70
463 29.1192 110.00 99.49 10.49
464 29.1692 90.00 80.99 9.49
465 29.2192 76.00 71.53 8.72
466 29.2692 71.00 68.12 8.43
467 29.3192 74.00 68.02 8.60
468 29.3692 79.00 69.30 8.89
469 29.4192 75.00 70.67 8.66
470 29.4692 73.00 71.20 8.54
471 29.5192 71.00 70.32 8.43
472 29.5692 67.00 68.03 8.19
473 29.6192 68.00 64.86 8.25
474 29.6692 67.00 61.60 8.19
475 29.7192 63.00 58.87 7.94
476 29.7692 58.00 56.93 7.62
477 29.8192 59.00 55.34 7.68
478 29.8692 62.00 54.68 7.87
479 29.9192 57.00 54.33 7.55
480 29.9692 58.00 54.45 7.62
481 30.0192 60.00 54.35 7.75
482 30.0692 62.00 54.30 7.87
483 30.1192 61.00 54.27 7.81
484 30.1692 63.00 54.25 7.94
485 30.2192 63.00 54.24 7.94
486 30.2692 60.00 54.24 7.75
487 30.3192 63.00 54.24 7.94
488 30.3692 61.00 54.24 7.81
489 30.4192 57.00 54.49 7.55
490 30.4692 54.00 54.50 7.35
491 30.5192 55.00 54.52 7.42
492 30.5692 59.00 54.55 7.68
493 30.6192 57.00 54.58 7.55
494 30.6692 60.00 54.62 7.75
495 30.7192 56.00 54.67 7.48
496 30.7692 59.00 54.71 7.68
497 30.8192 57.00 54.77 7.55
498 30.8692 56.00 54.83 7.48
499 30.9192 53.00 54.91 7.28
500 30.9692 54.00 55.01 7.35
501 31.0192 61.00 55.14 7.81
502 31.0692 58.00 55.30 7.62
503 31.1192 60.00 55.54 7.75
504 31.1692 55.00 55.76 7.42
505 31.2192 52.00 55.99 7.21
506 31.2692 56.00 56.20 7.48
507 31.3192 57.00 56.37 7.55
508 31.3692 55.00 56.46 7.42
509 31.4192 54.00 56.49 7.35
510 31.4692 53.00 56.48 7.28
511 31.5192 63.00 56.47 7.94
512 31.5692 57.00 56.49 7.55
513 31.6192 57.00 56.58 7.55
514 31.6692 57.00 56.72 7.55
515 31.7192 58.00 56.89 7.62
516 31.7692 56.00 57.13 7.48
517 31.8192 57.00 57.71 7.55
518 31.8692 54.00 58.04 7.35
519 31.9192 60.00 58.34 7.75
520 31.9692 63.00 58.81 7.94
521 32.0192 61.00 59.38 7.81
522 32.0692 64.00 60.07 8.00
523 32.1192 65.00 60.94 8.06
524 32.1692 67.00 62.06 8.19
525 32.2192 66.00 63.52 8.12
526 32.2692 68.00 65.57 8.25
527 32.3192 70.00 68.80 8.37
528 32.3692 76.00 74.56 8.72
529 32.4192 89.00 85.54 9.43
530 32.4692 107.00 106.40 10.34
531 32.5192 146.00 143.29 12.08
532 32.5692 205.00 201.83 14.32
533 32.6192 280.00 283.70 16.73
534 32.6692 376.00 383.81 19.39
535 32.7192 459.00 489.79 21.42
536 32.7692 552.00 583.61 23.49
537 32.8192 594.00 644.22 24.37
538 32.8692 606.00 653.68 24.62
539 32.9192 583.00 610.13 24.15
540 32.9692 518.00 535.06 22.76
541 33.0192 466.00 462.63 21.59
542 33.0692 420.00 421.71 20.49
543 33.1192 427.00 423.67 20.66
544 33.1692 473.00 460.28 21.75
545 33.2192 502.00 509.94 22.41
546 33.2692 538.00 546.04 23.19
547 33.3192 531.00 545.02 23.04
548 33.3692 496.00 497.11 22.27
549 33.4192 415.00 412.76 20.37
550 33.4692 313.00 315.10 17.69
551 33.5192 225.00 226.71 15.00
552 33.5692 164.00 160.94 12.81
553 33.6192 127.00 120.40 11.27
554 33.6692 97.00 100.79 9.85
555 33.7192 96.00 95.87 9.80
556 33.7692 95.00 100.21 9.75
557 33.8192 105.00 109.58 10.25
558 33.8692 112.00 120.43 10.58
559 33.9192 122.00 129.46 11.05
560 33.9692 122.00 133.62 11.05
561 34.0192 116.00 131.06 10.77
562 34.0692 115.00 122.54 10.72
563 34.1192 111.00 111.37 10.54
564 34.1692 109.00 102.03 10.44
565 34.2192 102.00 99.20 10.10
566 34.2692 115.00 107.79 10.72
567 34.3192 137.00 133.31 11.70
568 34.3692 187.00 181.14 13.67
569 34.4192 249.00 253.93 15.78
570 34.4692 348.00 348.17 18.65
571 34.5192 461.00 452.48 21.47
572 34.5692 556.00 548.39 23.58
573 34.6192 610.00 612.96 24.70
574 34.6692 638.00 624.43 25.26
575 34.7192 589.00 574.55 24.27
576 34.7692 477.00 477.94 21.84
577 34.8192 364.00 363.88 19.08
578 34.8692 265.00 260.37 16.28
579 34.9192 185.00 183.82 13.60
580 34.9692 132.00 137.03 11.49
581 35.0192 109.00 113.75 10.44
582 35.0692 100.00 104.99 10.00
583 35.1192 100.00 102.94 10.00
584 35.1692 104.00 102.07 10.20
585 35.2192 99.00 99.11 9.95
586 35.2692 93.00 93.22 9.64
587 35.3192 88.00 86.09 9.38
588 35.3692 83.00 78.34 9.11
589 35.4192 73.00 71.96 8.54
590 35.4692 68.00 67.55 8.25
591 35.5192 70.00 64.97 8.37
592 35.5692 64.00 63.71 8.00
593 35.6192 64.00 63.25 8.00
594 35.6692 64.00 63.22 8.00
595 35.7192 63.00 63.39 7.94
596 35.7692 70.00 63.72 8.37
597 35.8192 66.00 64.10 8.12
598 35.8692 68.00 65.56 8.25
599 35.9192 69.00 68.36 8.31
600 35.9692 78.00 72.87 8.83
601 36.0192 77.00 78.98 8.77
602 36.0692 83.00 85.95 9.11
603 36.1192 89.00 92.43 9.43
604 36.1692 96.00 96.73 9.80
605 36.2192 97.00 97.32 9.85
606 36.2692 97.00 93.46 9.85
607 36.3192 93.00 86.75 9.64
608 36.3692 84.00 78.99 9.17
609 36.4192 81.00 72.02 9.00
610 36.4692 74.00 66.83 8.60
611 36.5192 75.00 63.54 8.66
612 36.5692 73.00 61.72 8.54
613 36.6192 75.00 60.85 8.66
614 36.6692 72.00 60.51 8.49
615 36.7192 70.00 60.45 8.37
616 36.7692 68.00 60.53 8.25
617 36.8192 70.00 60.69 8.37
618 36.8692 67.00 60.91 8.19
619 36.9192 64.00 61.15 8.00
620 36.9692 64.00 61.54 8.00
621 37.0192 70.00 62.00 8.37
622 37.0692 64.00 62.59 8.00
623 37.1192 67.00 63.33 8.19
624 37.1692 68.00 64.20 8.25
625 37.2192 62.00 65.19 7.87
626 37.2692 66.00 66.24 8.12
627 37.3192 62.00 67.35 7.87
628 37.3692 58.00 68.56 7.62
629 37.4192 66.00 70.02 8.12
630 37.4692 61.00 72.05 7.81
631 37.5192 67.00 75.24 8.19
632 37.5692 73.00 80.58 8.54
633 37.6192 76.00 91.63 8.72
634 37.6692 96.00 114.17 9.80
635 37.7192 144.00 158.57 12.00
636 37.7692 223.00 238.41 14.93
637 37.8192 338.00 365.33 18.38
638 37.8692 526.00 540.56 22.93
639 37.9192 735.00 747.60 27.11
640 37.9692 969.00 950.78 31.13
641 38.0192 1139.00 1101.08 33.75
642 38.0692 1191.00 1149.10 34.51
643 38.1192 1113.00 1070.97 33.36
644 38.1692 923.00 891.41 30.38
645 38.2192 694.00 668.82 26.34
646 38.2692 458.00 460.02 21.40
647 38.3192 283.00 298.68 16.82
648 38.3692 173.00 192.06 13.15
649 38.4192 110.00 130.04 10.49
650 38.4692 81.00 97.39 9.00
651 38.5192 70.00 81.40 8.37
652 38.5692 70.00 73.90 8.37
653 38.6192 66.00 70.36 8.12
654 38.6692 67.00 68.54 8.19
655 38.7192 64.00 67.41 8.00
656 38.7692 66.00 66.55 8.12
657 38.8192 65.00 65.82 8.06
658 38.8692 64.00 65.17 8.00
659 38.9192 61.00 64.60 7.81
660 38.9692 66.00 64.10 8.12
661 39.0192 58.00 63.68 7.62
662 39.0692 62.00 63.32 7.87
663 39.1192 61.00 63.08 7.81
664 39.1692 58.00 62.95 7.62
665 39.2192 58.00 63.04 7.62
666 39.2692 60.00 63.53 7.75
667 39.3192 60.00 64.83 7.75
668 39.3692 64.00 67.53 8.00
669 39.4192 69.00 72.33 8.31
670 39.4692 78.00 79.62 8.83
671 39.5192 91.00 89.05 9.54
672 39.5692 95.00 99.25 9.75
673 39.6192 115.00 107.95 10.72
674 39.6692 118.00 112.54 10.86
675 39.7192 113.00 111.09 10.63
676 39.7692 107.00 103.92 10.34
677 39.8192 102.00 93.53 10.10
678 39.8692 77.00 82.92 8.77
679 39.9192 71.00 74.18 8.43
680 39.9692 63.00 68.08 7.94
681 40.0192 58.00 64.38 7.62
682 40.0692 57.00 62.34 7.55
683 40.1192 54.00 61.53 7.35
684 40.1692 54.00 61.05 7.35
685 40.2192 58.00 60.82 7.62
686 40.2692 57.00 60.73 7.55
687 40.3192 53.00 60.70 7.28
688 40.3692 50.00 60.73 7.07
689 40.4192 52.00 60.82 7.21
690 40.4692 58.00 60.98 7.62
691 40.5192 58.00 61.18 7.62
692 40.5692 57.00 61.38 7.55
693 40.6192 57.00 61.54 7.55
694 40.6692 57.00 61.62 7.55
695 40.7192 56.00 61.57 7.48
696 40.7692 57.00 61.42 7.55
697 40.8192 57.00 61.21 7.55
698 40.8692 57.00 61.02 7.55
699 40.9192 56.00 60.29 7.48
700 40.9692 55.00 60.23 7.42
701 41.0192 53.00 60.22 7.28
702 41.0692 54.00 60.26 7.35
703 41.1192 57.00 60.33 7.55
704 41.1692 56.00 60.46 7.48
705 41.2192 52.00 60.66 7.21
706 41.2692 55.00 61.02 7.42
707 41.3192 56.00 61.61 7.48
708 41.3692 55.00 62.48 7.42
709 41.4192 60.00 63.64 7.75
710 41.4692 62.00 64.93 7.87
711 41.5192 68.00 66.12 8.25
712 41.5692 67.00 66.88 8.19
713 41.6192 63.00 66.97 7.94
714 41.6692 65.00 66.45 8.06
715 41.7192 65.00 65.46 8.06
716 41.7692 63.00 64.43 7.94
717 41.8192 61.00 63.60 7.81
718 41.8692 62.00 63.09 7.87
719 41.9192 58.00 62.91 7.62
720 41.9692 60.00 62.97 7.75
721 42.0192 58.00 63.22 7.62
722 42.0692 60.00 63.63 7.75
723 42.1192 59.00 64.19 7.68
724 42.1692 59.00 64.94 7.68
725 42.2192 57.00 65.99 7.55
726 42.2692 63.00 67.62 7.94
727 42.3192 65.00 70.51 8.06
728 42.3692 70.00 76.21 8.37
729 42.4192 83.00 87.75 9.11
730 42.4692 106.00 109.89 10.30
731 42.5192 143.00 148.32 11.96
732 42.5692 201.00 206.92 14.18
733 42.6192 274.00 283.57 16.55
734 42.6692 356.00 367.19 18.87
735 42.7192 427.00 438.60 20.66
736 42.7692 463.00 476.19 21.52
737 42.8192 457.00 465.96 21.38
738 42.8692 405.00 412.69 20.12
739 42.9192 348.00 338.63 18.65
740 42.9692 279.00 267.94 16.70
741 43.0192 227.00 215.07 15.07
742 43.0692 183.00 182.43 13.53
743 43.1192 168.00 163.92 12.96
744 43.1692 150.00 150.85 12.25
745 43.2192 134.00 137.22 11.58
746 43.2692 119.00 121.62 10.91
747 43.3192 105.00 105.70 10.25
748 43.3692 90.00 91.74 9.49
749 43.4192 79.00 81.26 8.89
750 43.4692 73.00 74.11 8.54
751 43.5192 65.00 69.79 8.06
752 43.5692 62.00 67.41 7.87
753 43.6192 62.00 66.19 7.87
754 43.6692 62.00 65.62 7.87
755 43.7192 62.00 65.42 7.87
756 43.7692 63.00 65.50 7.94
757 43.8192 67.00 65.93 8.19
758 43.8692 66.00 67.05 8.12
759 43.9192 68.00 69.62 8.25
760 43.9692 79.00 74.90 8.89
761 44.0192 94.00 84.50 9.70
762 44.0692 107.00 99.63 10.34
763 44.1192 121.00 119.88 11.00
764 44.1692 143.00 142.34 11.96
765 44.2192 167.00 161.74 12.92
766 44.2692 172.00 172.10 13.11
767 44.3192 169.00 169.74 13.00
768 44.3692 149.00 156.35 12.21
769 44.4192 141.00 137.85 11.87
770 44.4692 119.00 119.82 10.91
771 44.5192 108.00 105.09 10.39
772 44.5692 94.00 93.85 9.70
773 44.6192 90.00 85.18 9.49
774 44.6692 79.00 78.40 8.89
775 44.7192 72.00 73.23 8.49
776 44.7692 69.00 69.54 8.31
777 44.8192 64.00 67.11 8.00
778 44.8692 62.00 65.64 7.87
779 44.9192 65.00 64.85 8.06
780 44.9692 59.00 64.46 7.68
781 45.0192 58.00 64.32 7.62
782 45.0692 62.00 64.33 7.87
783 45.1192 63.00 64.50 7.94
784 45.1692 65.00 64.89 8.06
785 45.2192 59.00 65.65 7.68
786 45.2692 64.00 66.98 8.00
787 45.3192 66.00 69.01 8.12
788 45.3692 69.00 71.70 8.31
789 45.4192 72.00 74.62 8.49
790 45.4692 75.00 77.16 8.66
791 45.5192 74.00 78.52 8.60
792 45.5692 78.00 79.09 8.83
793 45.6192 79.00 79.69 8.89
794 45.6692 84.00 82.69 9.17
795 45.7192 91.00 91.66 9.54
796 45.7692 112.00 110.83 10.58
797 45.8192 144.00 143.50 12.00
798 45.8692 194.00 189.13 13.93
799 45.9192 243.00 240.91 15.59
800 45.9692 290.00 285.74 17.03
801 46.0192 316.00 308.32 17.78
802 46.0692 319.00 298.90 17.86
803 46.1192 267.00 261.44 16.34
804 46.1692 215.00 210.90 14.66
805 46.2192 157.00 162.06 12.53
806 46.2692 114.00 123.46 10.68
807 46.3192 90.00 97.25 9.49
808 46.3692 76.00 81.57 8.72
809 46.4192 66.00 73.17 8.12
810 46.4692 63.00 69.02 7.94
811 46.5192 64.00 67.07 8.00
812 46.5692 58.00 66.11 7.62
813 46.6192 60.00 65.59 7.75
814 46.6692 60.00 65.24 7.75
815 46.7192 58.00 64.97 7.62
816 46.7692 61.00 64.76 7.81
817 46.8192 61.00 64.59 7.81
818 46.8692 62.00 64.45 7.87
819 46.9192 64.00 64.34 8.00
820 46.9692 60.00 64.25 7.75
821 47.0192 62.00 64.13 7.87
822 47.0692 61.00 64.08 7.81
823 47.1192 62.00 64.05 7.87
824 47.1692 62.00 64.04 7.87
825 47.2192 65.00 64.04 8.06
826 47.2692 64.00 64.06 8.00
827 47.3192 65.00 64.10 8.06
828 47.3692 71.00 64.16 8.43
829 47.4192 65.00 64.26 8.06
830 47.4692 71.00 64.42 8.43
831 47.5192 73.00 64.74 8.54
832 47.5692 73.00 65.36 8.54
833 47.6192 79.00 66.69 8.89
834 47.6692 88.00 69.39 9.38
835 47.7192 94.00 74.29 9.70
836 47.7692 95.00 81.94 9.75
837 47.8192 101.00 91.96 10.05
838 47.8692 107.00 102.52 10.34
839 47.9192 109.00 110.61 10.44
840 47.9692 116.00 113.17 10.77
841 48.0192 108.00 109.08 10.39
842 48.0692 108.00 100.27 10.39
843 48.1192 102.00 90.13 10.10
844 48.1692 97.00 81.28 9.85
845 48.2192 90.00 74.89 9.49
846 48.2692 83.00 71.02 9.11
847 48.3192 81.00 69.02 9.00
848 48.3692 77.00 68.09 8.77
849 48.4192 77.00 67.54 8.77
850 48.4692 76.00 67.00 8.72
851 48.5192 73.00 66.41 8.54
852 48.5692 75.00 66.38 8.66
853 48.6192 72.00 65.95 8.49
854 48.6692 73.00 65.69 8.54
855 48.7192 74.00 65.45 8.60
856 48.7692 74.00 65.56 8.60
857 48.8192 74.00 65.95 8.60
858 48.8692 76.00 66.85 8.72
859 48.9192 76.00 68.87 8.72
860 48.9692 81.00 71.77 9.00
861 49.0192 82.00 75.86 9.06
862 49.0692 82.00 80.55 9.06
863 49.1192 82.00 84.65 9.06
864 49.1692 87.00 86.73 9.33
865 49.2192 84.00 85.94 9.17
866 49.2692 86.00 82.70 9.27
867 49.3192 80.00 78.42 8.94
868 49.3692 79.00 74.38 8.89
869 49.4192 77.00 71.26 8.77
870 49.4692 75.00 69.21 8.66
871 49.5192 75.00 68.07 8.66
872 49.5692 71.00 67.57 8.43
873 49.6192 73.00 67.50 8.54
874 49.6692 72.00 67.74 8.49
875 49.7192 69.00 68.37 8.31
876 49.7692 72.00 69.64 8.49
877 49.8192 75.00 72.04 8.66
878 49.8692 78.00 76.04 8.83
879 49.9192 86.00 81.74 9.27
880 49.9692 89.00 88.45 9.43
881 50.0192 94.00 94.53 9.70
882 50.0692 102.00 97.95 10.10
883 50.1192 102.00 97.40 10.10
884 50.1692 100.00 93.35 10.00
885 50.2192 96.00 87.77 9.80
886 50.2692 91.00 82.51 9.54
887 50.3192 83.00 78.57 9.11
888 50.3692 81.00 76.21 9.00
889 50.4192 75.00 75.26 8.66
890 50.4692 76.00 75.39 8.72
891 50.5192 75.00 76.32 8.66
892 50.5692 73.00 77.97 8.54
893 50.6192 75.00 80.52 8.66
894 50.6692 77.00 84.92 8.77
895 50.7192 85.00 93.56 9.22
896 50.7692 107.00 111.98 10.34
897 50.8192 141.00 150.62 11.87
898 50.8692 216.00 224.70 14.70
899 50.9192 350.00 348.51 18.71
900 50.9692 529.00 522.67 23.00
901 51.0192 721.00 721.45 26.85
902 51.0692 891.00 893.09 29.85
903 51.1192 985.00 980.60 31.38
904 51.1692 979.00 959.10 31.29
905 51.2192 893.00 863.63 29.88
906 51.2692 792.00 760.04 28.14
907 51.3192 722.00 690.88 26.87
908 51.3692 683.00 656.65 26.13
909 51.4192 640.00 628.37 25.30
910 51.4692 594.00 573.80 24.37
911 51.5192 516.00 484.70 22.72
912 51.5692 396.00 380.14 19.90
913 51.6192 285.00 283.66 16.88
914 51.6692 206.00 208.56 14.35
915 51.7192 145.00 157.43 12.04
916 51.7692 107.00 126.21 10.34
917 51.8192 94.00 108.19 9.70
918 51.8692 85.00 97.33 9.22
919 51.9192 79.00 89.94 8.89
920 51.9692 76.00 84.47 8.72
921 52.0192 79.00 80.34 8.89
922 52.0692 73.00 77.37 8.54
923 52.1192 75.00 75.41 8.66
924 52.1692 72.00 74.36 8.49
925 52.2192 73.00 74.12 8.54
926 52.2692 75.00 74.55 8.66
927 52.3192 76.00 75.40 8.72
928 52.3692 74.00 76.25 8.60
929 52.4192 77.00 76.89 8.77
930 52.4692 76.00 76.46 8.72
931 52.5192 72.00 75.36 8.49
932 52.5692 71.00 74.03 8.43
933 52.6192 73.00 72.82 8.54
934 52.6692 70.00 71.85 8.37
935 52.7192 66.00 71.08 8.12
936 52.7692 70.00 70.52 8.37
937 52.8192 69.00 70.01 8.31
938 52.8692 69.00 69.59 8.31
939 52.9192 68.00 69.27 8.25
940 52.9692 66.00 69.04 8.12
941 53.0192 67.00 68.89 8.19
942 53.0692 64.00 68.80 8.00
943 53.1192 69.00 68.76 8.31
944 53.1692 65.00 68.78 8.06
945 53.2192 70.00 68.89 8.37
946 53.2692 68.00 69.15 8.25
947 53.3192 71.00 69.60 8.43
948 53.3692 71.00 70.26 8.43
949 53.4192 70.00 71.04 8.37
950 53.4692 72.00 71.72 8.49
951 53.5192 71.00 72.08 8.43
952 53.5692 73.00 71.95 8.54
953 53.6192 71.00 71.49 8.43
954 53.6692 73.00 70.88 8.54
955 53.7192 71.00 70.35 8.43
956 53.7692 71.00 69.48 8.43
957 53.8192 74.00 69.33 8.60
958 53.8692 70.00 69.34 8.37
959 53.9192 73.00 69.48 8.54
960 53.9692 73.00 69.72 8.54
961 54.0192 72.00 70.02 8.49
962 54.0692 76.00 70.16 8.72
963 54.1192 76.00 70.72 8.72
964 54.1692 76.00 71.51 8.72
965 54.2192 77.00 72.55 8.77
966 54.2692 80.00 73.79 8.94
967 54.3192 76.00 75.09 8.72
968 54.3692 82.00 76.30 9.06
969 54.4192 81.00 77.56 9.00
970 54.4692 81.00 79.60 9.00
971 54.5192 85.00 84.20 9.22
972 54.5692 92.00 95.04 9.59
973 54.6192 116.00 118.73 10.77
974 54.6692 159.00 164.53 12.61
975 54.7192 243.00 240.18 15.59
976 54.7692 331.00 343.42 18.19
977 54.8192 452.00 454.42 21.26
978 54.8692 533.00 538.37 23.09
979 54.9192 568.00 561.73 23.83
980 54.9692 536.00 516.62 23.15
981 55.0192 435.00 430.36 20.86
982 55.0692 333.00 340.85 18.25
983 55.1192 264.00 271.78 16.25
984 55.1692 218.00 229.02 14.76
985 55.2192 196.00 206.06 14.00
986 55.2692 188.00 190.93 13.71
987 55.3192 176.00 173.71 13.27
988 55.3692 159.00 152.10 12.61
989 55.4192 139.00 129.71 11.79
990 55.4692 118.00 110.28 10.86
991 55.5192 102.00 95.50 10.10
992 55.5692 89.00 85.44 9.43
993 55.6192 81.00 79.32 9.00
994 55.6692 76.00 76.02 8.72
995 55.7192 71.00 74.60 8.43
996 55.7692 74.00 74.54 8.60
997 55.8192 75.00 75.87 8.66
998 55.8692 78.00 78.99 8.83
999 55.9192 82.00 84.28 9.06
1000 55.9692 85.00 91.49 9.22
1001 56.0192 92.00 99.27 9.59
1002 56.0692 99.00 105.31 9.95
1003 56.1192 103.00 107.37 10.15
1004 56.1692 98.00 104.61 9.90
1005 56.2192 96.00 98.32 9.80
1006 56.2692 91.00 90.93 9.54
1007 56.3192 85.00 84.45 9.22
1008 56.3692 79.00 79.75 8.89
1009 56.4192 78.00 76.85 8.83
1010 56.4692 75.00 75.38 8.66
1011 56.5192 73.00 74.95 8.54
1012 56.5692 74.00 75.47 8.60
1013 56.6192 74.00 77.17 8.60
1014 56.6692 72.00 80.22 8.49
1015 56.7192 78.00 84.32 8.83
1016 56.7692 81.00 88.52 9.00
1017 56.8192 83.00 91.55 9.11
1018 56.8692 82.00 92.38 9.06
1019 56.9192 84.00 90.94 9.17
1020 56.9692 80.00 87.75 8.94
1021 57.0192 80.00 83.63 8.94
1022 57.0692 80.00 79.60 8.94
1023 57.1192 77.00 76.41 8.77
1024 57.1692 77.00 74.29 8.77
1025 57.2192 72.00 73.08 8.49
1026 57.2692 71.00 72.57 8.43
1027 57.3192 67.00 72.15 8.19
1028 57.3692 67.00 71.73 8.19
1029 57.4192 65.00 71.28 8.06
1030 57.4692 65.00 70.87 8.06
1031 57.5192 64.00 70.29 8.00
1032 57.5692 67.00 70.11 8.19
1033 57.6192 65.00 70.00 8.06
1034 57.6692 67.00 69.90 8.19
1035 57.7192 66.00 69.81 8.12
1036 57.7692 70.00 69.74 8.37
1037 57.8192 68.00 69.68 8.25
1038 57.8692 67.00 69.58 8.19
1039 57.9192 71.00 69.57 8.43
1040 57.9692 69.00 69.59 8.31
1041 58.0192 68.00 69.61 8.25
1042 58.0692 67.00 69.65 8.19
1043 58.1192 65.00 69.69 8.06
1044 58.1692 71.00 69.74 8.43
1045 58.2192 65.00 69.79 8.06
1046 58.2692 69.00 69.86 8.31
1047 58.3192 70.00 69.92 8.37
1048 58.3692 70.00 70.00 8.37
1049 58.4192 67.00 70.09 8.19
1050 58.4692 70.00 70.20 8.37
1051 58.5192 72.00 70.37 8.49
1052 58.5692 70.00 70.64 8.37
1053 58.6192 71.00 71.12 8.43
1054 58.6692 71.00 71.94 8.43
1055 58.7192 72.00 73.08 8.49
1056 58.7692 74.00 74.45 8.60
1057 58.8192 73.00 75.71 8.54
1058 58.8692 72.00 76.49 8.49
1059 58.9192 71.00 76.66 8.43
1060 58.9692 71.00 76.65 8.43
1061 59.0192 71.00 77.29 8.43
1062 59.0692 73.00 79.44 8.54
1063 59.1192 83.00 83.64 9.11
1064 59.1692 84.00 89.61 9.17
1065 59.2192 88.00 95.90 9.38
1066 59.2692 93.00 100.31 9.64
1067 59.3192 95.00 101.19 9.75
1068 59.3692 92.00 99.10 9.59
1069 59.4192 99.00 97.10 9.95
1070 59.4692 104.00 99.44 10.20
1071 59.5192 119.00 110.90 10.91
1072 59.5692 139.00 135.55 11.79
1073 59.6192 186.00 173.94 13.64
1074 59.6692 223.00 219.40 14.93
1075 59.7192 260.00 257.54 16.12
1076 59.7692 272.00 272.54 16.49
1077 59.8192 266.00 257.81 16.31
1078 59.8692 230.00 222.27 15.17
1079 59.9192 189.00 181.40 13.75
1080 59.9692 153.00 145.52 12.37
1081 60.0192 121.00 118.32 11.00
1082 60.0692 105.00 99.85 10.25
1083 60.1192 88.00 88.56 9.38
1084 60.1692 83.00 82.48 9.11
1085 60.2192 75.00 79.85 8.66
1086 60.2692 74.00 79.52 8.60
1087 60.3192 74.00 80.75 8.60
1088 60.3692 77.00 82.81 8.77
1089 60.4192 78.00 84.77 8.83
1090 60.4692 76.00 85.78 8.72
1091 60.5192 77.00 85.59 8.77
1092 60.5692 79.00 85.00 8.89
1093 60.6192 84.00 85.19 9.17
1094 60.6692 85.00 86.73 9.22
1095 60.7192 81.00 89.26 9.00
1096 60.7692 85.00 91.50 9.22
1097 60.8192 86.00 92.39 9.27
1098 60.8692 84.00 91.67 9.17
1099 60.9192 86.00 90.28 9.27
1100 60.9692 89.00 89.87 9.43
1101 61.0192 90.00 91.72 9.49
1102 61.0692 97.00 95.90 9.85
1103 61.1192 105.00 100.89 10.25
1104 61.1692 104.00 104.26 10.20
1105 61.2192 105.00 104.11 10.25
1106 61.2692 102.00 100.68 10.10
1107 61.3192 93.00 96.23 9.64
1108 61.3692 85.00 92.91 9.22
1109 61.4192 81.00 91.53 9.00
1110 61.4692 82.00 91.55 9.06
1111 61.5192 78.00 91.82 8.83
1112 61.5692 81.00 91.32 9.00
1113 61.6192 76.00 90.15 8.72
1114 61.6692 79.00 89.89 8.89
1115 61.7192 87.00 93.32 9.33
1116 61.7692 96.00 104.66 9.80
1117 61.8192 117.00 129.56 10.82
1118 61.8692 168.00 172.74 12.96
1119 61.9192 227.00 232.59 15.07
1120 61.9692 305.00 296.16 17.46
1121 62.0192 364.00 341.53 19.08
1122 62.0692 365.00 349.27 19.10
1123 62.1192 338.00 317.37 18.38
1124 62.1692 274.00 263.57 16.55
1125 62.2192 203.00 208.12 14.25
1126 62.2692 157.00 161.70 12.53
1127 62.3192 116.00 127.31 10.77
1128 62.3692 100.00 104.29 10.00
1129 62.4192 91.00 90.75 9.54
1130 62.4692 86.00 83.65 9.27
1131 62.5192 83.00 80.25 9.11
1132 62.5692 83.00 78.67 9.11
1133 62.6192 82.00 77.91 9.06
1134 62.6692 86.00 77.54 9.27
1135 62.7192 87.00 77.47 9.33
1136 62.7692 85.00 77.78 9.22
1137 62.8192 88.00 78.81 9.38
1138 62.8692 90.00 81.48 9.49
1139 62.9192 99.00 87.86 9.95
1140 62.9692 110.00 100.58 10.49
1141 63.0192 138.00 123.78 11.75
1142 63.0692 172.00 159.53 13.11
1143 63.1192 213.00 204.32 14.59
1144 63.1692 241.00 246.98 15.52
1145 63.2192 261.00 272.31 16.16
1146 63.2692 254.00 270.29 15.94
1147 63.3192 234.00 243.32 15.30
1148 63.3692 193.00 205.24 13.89
1149 63.4192 176.00 168.92 13.27
1150 63.4692 158.00 140.46 12.57
1151 63.5192 136.00 121.02 11.66
1152 63.5692 125.00 109.73 11.18
1153 63.6192 117.00 105.39 10.82
1154 63.6692 117.00 107.11 10.82
1155 63.7192 116.00 113.99 10.77
1156 63.7692 125.00 123.95 11.18
1157 63.8192 126.00 133.30 11.22
1158 63.8692 132.00 137.91 11.49
1159 63.9192 124.00 135.45 11.14
1160 63.9692 126.00 126.70 11.22
1161 64.0192 118.00 115.01 10.86
1162 64.0692 113.00 103.49 10.63
1163 64.1192 105.00 94.09 10.25
1164 64.1692 98.00 87.22 9.90
1165 64.2192 94.00 82.70 9.70
1166 64.2692 91.00 80.05 9.54
1167 64.3192 87.00 78.71 9.33
1168 64.3692 89.00 78.18 9.43
1169 64.4192 84.00 78.13 9.17
1170 64.4692 86.00 78.37 9.27
1171 64.5192 84.00 78.79 9.17
1172 64.5692 87.00 79.28 9.33
1173 64.6192 85.00 79.71 9.22
1174 64.6692 89.00 79.84 9.43
1175 64.7192 90.00 80.07 9.49
1176 64.7692 91.00 80.32 9.54
1177 64.8192 93.00 80.68 9.64
1178 64.8692 95.00 81.24 9.75
1179 64.9192 97.00 82.09 9.85
1180 64.9692 94.00 83.46 9.70
1181 65.0192 95.00 85.95 9.75
1182 65.0692 102.00 90.94 10.10
1183 65.1192 111.00 101.53 10.54
1184 65.1692 128.00 123.48 11.31
1185 65.2192 172.00 165.40 13.11
1186 65.2692 241.00 235.46 15.52
1187 65.3192 345.00 333.46 18.57
1188 65.3692 455.00 442.61 21.33
1189 65.4192 563.00 531.51 23.73
1190 65.4692 603.00 571.33 24.56
1191 65.5192 606.00 560.34 24.62
1192 65.5692 573.00 531.46 23.94
1193 65.6192 558.00 523.34 23.62
1194 65.6692 569.00 547.14 23.85
1195 65.7192 578.00 582.23 24.04
1196 65.7692 561.00 593.66 23.69
1197 65.8192 512.00 557.48 22.63
1198 65.8692 462.00 479.35 21.49
1199 65.9192 391.00 387.05 19.77
1200 65.9692 327.00 303.43 18.08
1201 66.0192 275.00 236.45 16.58
1202 66.0692 232.00 185.86 15.23
1203 66.1192 198.00 149.82 14.07
1204 66.1692 166.00 126.84 12.88
1205 66.2192 145.00 115.58 12.04
1206 66.2692 139.00 115.54 11.79
1207 66.3192 142.00 128.32 11.92
1208 66.3692 172.00 156.43 13.11
1209 66.4192 210.00 199.08 14.49
1210 66.4692 256.00 247.54 16.00
1211 66.5192 296.00 285.46 17.20
1212 66.5692 307.00 296.81 17.52
1213 66.6192 292.00 277.16 17.09
1214 66.6692 246.00 237.90 15.68
1215 66.7192 194.00 195.05 13.93
1216 66.7692 158.00 157.83 12.57
1217 66.8192 127.00 128.97 11.27
1218 66.8692 110.00 108.46 10.49
1219 66.9192 100.00 95.28 10.00
1220 66.9692 92.00 87.71 9.59
1221 67.0192 90.00 83.74 9.49
1222 67.0692 89.00 81.71 9.43
1223 67.1192 86.00 80.64 9.27
1224 67.1692 83.00 80.10 9.11
1225 67.2192 86.00 80.00 9.27
1226 67.2692 84.00 80.51 9.17
1227 67.3192 90.00 81.99 9.49
1228 67.3692 87.00 84.78 9.33
1229 67.4192 90.00 88.95 9.49
1230 67.4692 93.00 93.81 9.64
1231 67.5192 93.00 97.93 9.64
1232 67.5692 92.00 99.73 9.59
1233 67.6192 96.00 98.54 9.80
1234 67.6692 98.00 95.13 9.90
1235 67.7192 95.00 91.12 9.75
1236 67.7692 94.00 87.76 9.70
1237 67.8192 95.00 85.57 9.75
1238 67.8692 95.00 84.43 9.75
1239 67.9192 90.00 83.95 9.49
1240 67.9692 91.00 83.60 9.54
1241 68.0192 87.00 83.06 9.33
1242 68.0692 85.00 82.52 9.22
1243 68.1192 85.00 82.15 9.22
1244 68.1692 84.00 82.82 9.17
1245 68.2192 87.00 84.13 9.33
1246 68.2692 86.00 85.58 9.27
1247 68.3192 89.00 86.45 9.43
1248 68.3692 90.00 86.23 9.49
1249 68.4192 88.00 84.93 9.38
1250 68.4692 89.00 83.83 9.43
1251 68.5192 91.00 83.66 9.54
1252 68.5692 92.00 85.42 9.59
1253 68.6192 97.00 90.00 9.85
1254 68.6692 104.00 97.71 10.20
1255 68.7192 109.00 107.33 10.44
1256 68.7692 117.00 115.95 10.82
1257 68.8192 114.00 120.09 10.68
1258 68.8692 113.00 118.00 10.63
1259 68.9192 108.00 111.15 10.39
1260 68.9692 98.00 102.75 9.90
1261 69.0192 103.00 95.13 10.15
1262 69.0692 98.00 89.14 9.90
1263 69.1192 96.00 85.03 9.80
1264 69.1692 96.00 82.95 9.80
1265 69.2192 91.00 82.92 9.54
1266 69.2692 91.00 85.10 9.54
1267 69.3192 93.00 89.00 9.64
1268 69.3692 97.00 93.22 9.85
1269 69.4192 97.00 96.37 9.85
1270 69.4692 98.00 97.39 9.90
1271 69.5192 104.00 96.57 10.20
1272 69.5692 102.00 95.55 10.10
1273 69.6192 104.00 95.89 10.20
1274 69.6692 108.00 97.86 10.39
1275 69.7192 112.00 100.42 10.58
1276 69.7692 113.00 101.87 10.63
1277 69.8192 111.00 100.92 10.54
1278 69.8692 104.00 97.60 10.20
1279 69.9192 100.00 93.18 10.00
1280 69.9692 94.00 88.93 9.70
1281 70.0192 92.00 85.50 9.59
1282 70.0692 88.00 83.14 9.38
1283 70.1192 86.00 82.10 9.27
1284 70.1692 84.00 82.71 9.17
1285 70.2192 87.00 85.37 9.33
1286 70.2692 89.00 90.12 9.43
1287 70.3192 93.00 96.25 9.64
1288 70.3692 100.00 102.02 10.00
1289 70.4192 101.00 105.14 10.05
1290 70.4692 101.00 104.39 10.05
1291 70.5192 99.00 100.42 9.95
1292 70.5692 99.00 95.20 9.95
1293 70.6192 93.00 90.28 9.64
1294 70.6692 89.00 86.27 9.43
1295 70.7192 86.00 83.23 9.27
1296 70.7692 87.00 81.13 9.33
1297 70.8192 82.00 79.84 9.06
1298 70.8692 81.00 79.17 9.00
1299 70.9192 81.00 78.88 9.00
1300 70.9692 78.00 78.80 8.83
1301 71.0192 76.00 78.83 8.72
1302 71.0692 76.00 78.91 8.72
1303 71.1192 76.00 79.02 8.72
1304 71.1692 79.00 79.13 8.89
1305 71.2192 79.00 79.25 8.89
1306 71.2692 76.00 79.40 8.72
1307 71.3192 77.00 79.57 8.77
1308 71.3692 78.00 79.79 8.83
1309 71.4192 75.00 80.07 8.66
1310 71.4692 81.00 80.52 9.00
1311 71.5192 83.00 81.29 9.11
1312 71.5692 85.00 82.90 9.22
1313 71.6192 84.00 86.34 9.17
1314 71.6692 86.00 93.44 9.27
1315 71.7192 101.00 107.34 10.05
1316 71.7692 123.00 131.82 11.09
1317 71.8192 157.00 169.10 12.53
1318 71.8692 212.00 215.96 14.56
1319 71.9192 267.00 261.61 16.34
1320 71.9692 307.00 290.90 17.52
1321 72.0192 312.00 292.82 17.66
1322 72.0692 287.00 269.12 16.94
1323 72.1192 248.00 233.14 15.75
1324 72.1692 201.00 197.54 14.18
1325 72.2192 167.00 167.47 12.92
1326 72.2692 138.00 143.11 11.75
1327 72.3192 117.00 124.05 10.82
1328 72.3692 102.00 110.50 10.10
1329 72.4192 95.00 102.34 9.75
1330 72.4692 90.00 98.47 9.49
1331 72.5192 95.00 97.12 9.75
1332 72.5692 94.00 96.61 9.70
1333 72.6192 94.00 95.83 9.70
1334 72.6692 93.00 94.66 9.64
1335 72.7192 91.00 94.10 9.54
1336 72.7692 96.00 95.92 9.80
1337 72.8192 101.00 102.25 10.05
1338 72.8692 123.00 115.06 11.09
1339 72.9192 140.00 134.66 11.83
1340 72.9692 164.00 157.92 12.81
1341 73.0192 187.00 178.19 13.67
1342 73.0692 196.00 188.22 14.00
1343 73.1192 197.00 184.99 14.04
1344 73.1692 171.00 172.33 13.08
1345 73.2192 155.00 157.32 12.45
1346 73.2692 144.00 144.17 12.00
1347 73.3192 132.00 133.27 11.49
1348 73.3692 121.00 123.56 11.00
1349 73.4192 118.00 114.31 10.86
1350 73.4692 111.00 105.76 10.54
1351 73.5192 104.00 98.58 10.20
1352 73.5692 99.00 93.09 9.95
1353 73.6192 93.00 89.09 9.64
1354 73.6692 91.00 86.23 9.54
1355 73.7192 81.00 84.31 9.00
1356 73.7692 84.00 83.17 9.17
1357 73.8192 80.00 82.67 8.94
1358 73.8692 80.00 82.63 8.94
1359 73.9192 82.00 82.88 9.06
1360 73.9692 82.00 83.40 9.06
1361 74.0192 84.00 84.47 9.17
1362 74.0692 80.00 86.75 8.94
1363 74.1192 86.00 91.26 9.27
1364 74.1692 95.00 98.88 9.75
1365 74.2192 109.00 109.45 10.44
1366 74.2692 123.00 121.01 11.09
1367 74.3192 133.00 130.00 11.53
1368 74.3692 136.00 133.02 11.66
1369 74.4192 132.00 129.13 11.49
1370 74.4692 120.00 120.68 10.95
1371 74.5192 110.00 111.17 10.49
1372 74.5692 97.00 102.74 9.85
1373 74.6192 88.00 95.98 9.38
1374 74.6692 83.00 90.86 9.11
1375 74.7192 83.00 87.31 9.11
1376 74.7692 83.00 85.14 9.11
1377 74.8192 77.00 84.55 8.77
1378 74.8692 78.00 85.45 8.83
1379 74.9192 84.00 87.95 9.17
1380 74.9692 87.00 92.02 9.33
1381 75.0192 90.00 97.01 9.49
1382 75.0692 97.00 101.61 9.85
1383 75.1192 100.00 104.27 10.00
1384 75.1692 103.00 104.04 10.15
1385 75.2192 102.00 101.31 10.10
1386 75.2692 100.00 97.35 10.00
1387 75.3192 89.00 93.30 9.43
1388 75.3692 89.00 89.75 9.43
1389 75.4192 86.00 86.89 9.27
1390 75.4692 82.00 84.74 9.06
1391 75.5192 85.00 83.27 9.22
1392 75.5692 82.00 82.37 9.06
1393 75.6192 80.00 81.93 8.94
1394 75.6692 79.00 81.92 8.89
1395 75.7192 78.00 82.47 8.83
1396 75.7692 83.00 83.43 9.11
1397 75.8192 85.00 85.45 9.22
1398 75.8692 86.00 89.12 9.27
1399 75.9192 94.00 95.11 9.70
1400 75.9692 100.00 103.31 10.00
1401 76.0192 103.00 112.53 10.15
1402 76.0692 114.00 120.49 10.68
1403 76.1192 113.00 124.68 10.63
1404 76.1692 112.00 123.78 10.58
1405 76.2192 107.00 118.49 10.34
1406 76.2692 107.00 111.07 10.34
1407 76.3192 102.00 103.66 10.10
1408 76.3692 101.00 97.35 10.05
1409 76.4192 93.00 92.36 9.64
1410 76.4692 94.00 88.66 9.70
1411 76.5192 89.00 86.16 9.43
1412 76.5692 82.00 84.73 9.06
1413 76.6192 85.00 84.13 9.22
1414 76.6692 86.00 84.05 9.27
1415 76.7192 81.00 84.20 9.00
1416 76.7692 83.00 84.35 9.11
1417 76.8192 83.00 84.35 9.11
1418 76.8692 80.00 84.19 8.94
1419 76.9192 85.00 83.98 9.22
1420 76.9692 84.00 83.83 9.17
1421 77.0192 84.00 83.81 9.17
1422 77.0692 87.00 84.01 9.33
1423 77.1192 87.00 84.58 9.33
1424 77.1692 90.00 85.80 9.49
1425 77.2192 94.00 88.10 9.70
1426 77.2692 95.00 92.16 9.75
1427 77.3192 98.00 98.24 9.90
1428 77.3692 106.00 105.87 10.30
1429 77.4192 110.00 113.47 10.49
1430 77.4692 115.00 118.81 10.72
1431 77.5192 116.00 120.14 10.77
1432 77.5692 116.00 117.41 10.77
1433 77.6192 118.00 112.33 10.86
1434 77.6692 118.00 107.09 10.86
1435 77.7192 113.00 102.99 10.63
1436 77.7692 112.00 100.28 10.58
1437 77.8192 111.00 98.65 10.54
1438 77.8692 105.00 97.59 10.25
1439 77.9192 101.00 96.68 10.05
1440 77.9692 100.00 95.76 10.00
1441 78.0192 96.00 95.07 9.80
1442 78.0692 98.00 95.07 9.90
1443 78.1192 95.00 96.38 9.75
1444 78.1692 106.00 100.25 10.30
1445 78.2192 109.00 109.46 10.44
1446 78.2692 135.00 129.16 11.62
1447 78.3192 175.00 166.68 13.23
1448 78.3692 238.00 228.88 15.43
1449 78.4192 335.00 316.05 18.30
1450 78.4692 456.00 415.97 21.35
1451 78.5192 528.00 503.65 22.98
1452 78.5692 549.00 550.82 23.43
1453 78.6192 515.00 542.02 22.69
1454 78.6692 447.00 485.61 21.14
1455 78.7192 372.00 407.22 19.29
1456 78.7692 313.00 330.03 17.69
1457 78.8192 271.00 264.35 16.46
1458 78.8692 229.00 211.52 15.13
1459 78.9192 194.00 170.62 13.93
1460 78.9692 157.00 140.89 12.53
1461 79.0192 133.00 121.17 11.53
1462 79.0692 112.00 109.39 10.58
1463 79.1192 105.00 103.24 10.25
1464 79.1692 107.00 100.74 10.34
1465 79.2192 106.00 100.40 10.30
1466 79.2692 105.00 101.15 10.25
1467 79.3192 108.00 102.17 10.39
1468 79.3692 106.00 102.92 10.30
1469 79.4192 104.00 103.18 10.20
1470 79.4692 100.00 102.78 10.00
1471 79.5192 96.00 101.59 9.80
1472 79.5692 91.00 99.53 9.54
1473 79.6192 90.00 96.87 9.49
1474 79.6692 90.00 94.17 9.49
1475 79.7192 86.00 91.85 9.27
1476 79.7692 87.00 90.11 9.33
1477 79.8192 83.00 88.98 9.11
1478 79.8692 83.00 88.60 9.11
1479 79.9192 84.00 89.21 9.17
1480 79.9692 85.00 91.23 9.22
1481 80.0192 90.00 95.04 9.49
1482 80.0692 92.00 100.63 9.59
1483 80.1192 104.00 107.26 10.20
1484 80.1692 107.00 113.38 10.34
1485 80.2192 111.00 117.14 10.54
1486 80.2692 109.00 117.40 10.44
1487 80.3192 116.00 114.39 10.77
1488 80.3692 112.00 109.53 10.58
1489 80.4192 110.00 104.35 10.49
1490 80.4692 106.00 99.75 10.30
1491 80.5192 100.00 95.98 10.00
1492 80.5692 97.00 93.02 9.85
1493 80.6192 94.00 90.81 9.70
1494 80.6692 92.00 89.32 9.59
1495 80.7192 100.00 88.46 10.00
1496 80.7692 94.00 88.09 9.70
1497 80.8192 95.00 88.13 9.75
1498 80.8692 97.00 88.58 9.85
1499 80.9192 97.00 89.73 9.85
1500 80.9692 102.00 92.30 10.10
1501 81.0192 105.00 97.79 10.25
1502 81.0692 117.00 108.63 10.82
1503 81.1192 137.00 128.00 11.70
1504 81.1692 167.00 158.42 12.92
1505 81.2192 209.00 199.47 14.46
1506 81.2692 268.00 245.64 16.37
1507 81.3192 315.00 286.64 17.75
1508 81.3692 336.00 311.16 18.33
1509 81.4192 328.00 312.78 18.11
1510 81.4692 300.00 293.64 17.32
1511 81.5192 252.00 262.24 15.87
1512 81.5692 213.00 227.65 14.59
1513 81.6192 183.00 195.01 13.53
1514 81.6692 162.00 166.72 12.73
1515 81.7192 147.00 143.17 12.12
1516 81.7692 134.00 124.67 11.58
1517 81.8192 122.00 111.19 11.05
1518 81.8692 112.00 102.11 10.58
1519 81.9192 101.00 96.43 10.05
1520 81.9692 98.00 93.16 9.90
1521 82.0192 94.00 91.54 9.70
1522 82.0692 94.00 91.27 9.70
1523 82.1192 101.00 92.44 10.05
1524 82.1692 102.00 95.42 10.10
1525 82.2192 103.00 100.69 10.15
1526 82.2692 115.00 108.36 10.72
1527 82.3192 125.00 117.74 11.18
1528 82.3692 134.00 127.09 11.58
1529 82.4192 136.00 134.07 11.66
1530 82.4692 131.00 136.66 11.45
1531 82.5192 122.00 134.29 11.05
1532 82.5692 117.00 128.17 10.82
1533 82.6192 111.00 120.66 10.54
1534 82.6692 107.00 113.75 10.34
1535 82.7192 107.00 108.39 10.34
1536 82.7692 104.00 104.70 10.20
1537 82.8192 102.00 102.39 10.10
1538 82.8692 100.00 101.04 10.00
1539 82.9192 100.00 100.04 10.00
1540 82.9692 92.00 98.85 9.59
1541 83.0192 93.00 97.24 9.64
1542 83.0692 89.00 95.36 9.43
1543 83.1192 93.00 93.60 9.64
1544 83.1692 89.00 92.21 9.43
1545 83.2192 86.00 91.28 9.27
1546 83.2692 82.00 90.78 9.06
1547 83.3192 86.00 90.62 9.27
1548 83.3692 85.00 90.70 9.22
1549 83.4192 82.00 90.99 9.06
1550 83.4692 82.00 91.29 9.06
1551 83.5192 80.00 91.62 8.94
1552 83.5692 80.00 91.87 8.94
1553 83.6192 81.00 91.90 9.00
1554 83.6692 82.00 91.58 9.06
1555 83.7192 79.00 90.92 8.89
1556 83.7692 80.00 90.09 8.94
1557 83.8192 80.00 89.27 8.94
1558 83.8692 81.00 88.59 9.00
1559 83.9192 84.00 88.07 9.17
1560 83.9692 82.00 87.71 9.06
1561 84.0192 81.00 87.50 9.00
1562 84.0692 79.00 87.48 8.89
1563 84.1192 82.00 87.69 9.06
1564 84.1692 83.00 88.11 9.11
1565 84.2192 80.00 88.78 8.94
1566 84.2692 81.00 89.74 9.00
1567 84.3192 88.00 91.10 9.38
1568 84.3692 89.00 93.08 9.43
1569 84.4192 88.00 96.02 9.38
1570 84.4692 92.00 100.05 9.59
1571 84.5192 104.00 105.26 10.20
1572 84.5692 107.00 110.80 10.34
1573 84.6192 121.00 115.50 11.00
1574 84.6692 123.00 117.98 11.09
1575 84.7192 123.00 117.54 11.09
1576 84.7692 115.00 114.68 10.72
1577 84.8192 109.00 110.76 10.44
1578 84.8692 104.00 107.05 10.20
1579 84.9192 101.00 104.10 10.05
1580 84.9692 100.00 101.85 10.00
1581 85.0192 98.00 100.12 9.90
1582 85.0692 101.00 98.98 10.05
1583 85.1192 99.00 98.92 9.95
1584 85.1692 99.00 100.40 9.95
1585 85.2192 106.00 103.80 10.30
1586 85.2692 102.00 108.83 10.10
1587 85.3192 105.00 114.50 10.25
1588 85.3692 106.00 119.43 10.30
1589 85.4192 106.00 122.38 10.30
1590 85.4692 108.00 122.98 10.39
1591 85.5192 109.00 121.84 10.44
1592 85.5692 112.00 119.94 10.58
1593 85.6192 111.00 117.83 10.54
1594 85.6692 110.00 115.32 10.49
1595 85.7192 107.00 112.18 10.34
1596 85.7692 107.00 108.61 10.34
1597 85.8192 104.00 105.29 10.20
1598 85.8692 104.00 102.98 10.20
1599 85.9192 101.00 102.08 10.05
1600 85.9692 96.00 102.50 9.80
1601 86.0192 93.00 103.68 9.64
1602 86.0692 97.00 104.90 9.85
1603 86.1192 95.00 105.49 9.75
1604 86.1692 97.00 105.16 9.85
1605 86.2192 97.00 104.18 9.85
1606 86.2692 93.00 103.24 9.64
1607 86.3192 97.00 103.19 9.85
1608 86.3692 94.00 104.95 9.70
1609 86.4192 103.00 109.51 10.15
1610 86.4692 111.00 117.90 10.54
1611 86.5192 123.00 130.47 11.09
1612 86.5692 152.00 146.13 12.33
1613 86.6192 171.00 161.96 13.08
1614 86.6692 204.00 174.11 14.28
1615 86.7192 204.00 179.55 14.28
1616 86.7692 198.00 177.89 14.07
1617 86.8192 184.00 171.82 13.56
1618 86.8692 173.00 165.22 13.15
1619 86.9192 151.00 160.45 12.29
1620 86.9692 143.00 157.32 11.96
1621 87.0192 135.00 154.24 11.62
1622 87.0692 134.00 149.67 11.58
1623 87.1192 129.00 143.71 11.36
1624 87.1692 128.00 137.91 11.31
1625 87.2192 130.00 134.40 11.40
1626 87.2692 133.00 134.37 11.53
1627 87.3192 134.00 137.49 11.58
1628 87.3692 147.00 142.10 12.12
1629 87.4192 156.00 145.91 12.49
1630 87.4692 160.00 147.15 12.65
1631 87.5192 156.00 145.40 12.49
1632 87.5692 148.00 141.75 12.17
1633 87.6192 142.00 137.79 11.92
1634 87.6692 134.00 134.42 11.58
1635 87.7192 126.00 131.26 11.22
1636 87.7692 122.00 127.43 11.05
1637 87.8192 119.00 122.42 10.91
1638 87.8692 115.00 116.61 10.72
1639 87.9192 110.00 110.95 10.49
1640 87.9692 108.00 106.22 10.39
1641 88.0192 104.00 102.77 10.20
1642 88.0692 102.00 100.65 10.10
1643 88.1192 97.00 99.99 9.85
1644 88.1692 101.00 101.33 10.05
1645 88.2192 102.00 105.58 10.10
1646 88.2692 110.00 113.76 10.49
1647 88.3192 121.00 126.43 11.00
1648 88.3692 141.00 142.87 11.87
1649 88.4192 152.00 160.65 12.33
1650 88.4692 171.00 175.97 13.08
1651 88.5192 183.00 185.01 13.53
1652 88.5692 178.00 185.61 13.34
1653 88.6192 173.00 178.52 13.15
1654 88.6692 161.00 166.83 12.69
1655 88.7192 150.00 154.04 12.25
1656 88.7692 144.00 142.16 12.00
1657 88.8192 133.00 131.76 11.53
1658 88.8692 126.00 122.61 11.22
1659 88.9192 114.00 114.64 10.68
1660 88.9692 111.00 107.98 10.54
1661 89.0192 104.00 102.80 10.20
1662 89.0692 104.00 99.06 10.20
1663 89.1192 95.00 96.52 9.75
1664 89.1692 96.00 94.85 9.80
1665 89.2192 90.00 93.78 9.49
1666 89.2692 96.00 93.08 9.80
1667 89.3192 91.00 92.63 9.54
1668 89.3692 99.00 92.36 9.95
1669 89.4192 93.00 92.22 9.64
1670 89.4692 93.00 92.17 9.64
1671 89.5192 93.00 92.22 9.64
1672 89.5692 95.00 92.36 9.75
1673 89.6192 91.00 92.57 9.54
1674 89.6692 87.00 92.83 9.33
1675 89.7192 90.00 93.08 9.49
1676 89.7692 91.00 93.30 9.54
1677 89.8192 93.00 93.54 9.64
1678 89.8692 92.00 93.69 9.59
1679 89.9192 94.00 93.87 9.70
1680 89.9692 87.00 94.26 9.33
1681 90.0192 90.00 95.10 9.49
1682 90.0692 92.00 96.86 9.59
1683 90.1192 94.00 100.27 9.70
1684 90.1692 102.00 106.66 10.10
1685 90.2192 105.00 117.58 10.25
1686 90.2692 116.00 134.56 10.77
1687 90.3192 139.00 158.30 11.79
1688 90.3692 172.00 187.79 13.11
1689 90.4192 215.00 220.26 14.66
1690 90.4692 242.00 251.92 15.56
1691 90.5192 278.00 279.73 16.67
1692 90.5692 312.00 302.59 17.66
1693 90.6192 330.00 321.27 18.17
1694 90.6692 356.00 336.61 18.87
1695 90.7192 355.00 347.10 18.84
1696 90.7692 372.00 348.96 19.29
1697 90.8192 360.00 339.09 18.97
1698 90.8692 319.00 318.19 17.86
1699 90.9192 293.00 291.33 17.12
1700 90.9692 260.00 264.86 16.12
1701 91.0192 230.00 242.58 15.17
1702 91.0692 211.00 224.59 14.53
1703 91.1192 202.00 208.85 14.21
1704 91.1692 190.00 193.49 13.78
1705 91.2192 177.00 178.38 13.30
1706 91.2692 177.00 164.98 13.30
1707 91.3192 160.00 155.06 12.65
1708 91.3692 161.00 149.26 12.69
1709 91.4192 151.00 146.84 12.29
1710 91.4692 151.00 146.23 12.29
1711 91.5192 152.00 145.95 12.33
1712 91.5692 153.00 145.25 12.37
1713 91.6192 148.00 144.14 12.17
1714 91.6692 150.00 142.99 12.25
1715 91.7192 139.00 141.85 11.79
1716 91.7692 135.00 140.22 11.62
1717 91.8192 136.00 137.39 11.66
1718 91.8692 138.00 133.09 11.75
1719 91.9192 133.00 127.73 11.53
1720 91.9692 126.00 122.23 11.22
1721 92.0192 122.00 117.45 11.05
1722 92.0692 117.00 113.75 10.82
1723 92.1192 111.00 111.15 10.54
1724 92.1692 110.00 109.33 10.49
1725 92.2192 109.00 108.02 10.44
1726 92.2692 107.00 107.09 10.34
1727 92.3192 107.00 106.52 10.34
1728 92.3692 105.00 106.33 10.25
1729 92.4192 104.00 106.43 10.20
1730 92.4692 106.00 106.65 10.30
1731 92.5192 108.00 106.84 10.39
1732 92.5692 107.00 107.00 10.34
1733 92.6192 109.00 107.35 10.44
1734 92.6692 113.00 108.17 10.63
1735 92.7192 112.00 109.63 10.58
1736 92.7692 115.00 111.53 10.72
1737 92.8192 114.00 113.35 10.68
1738 92.8692 114.00 114.48 10.68
1739 92.9192 116.00 114.52 10.77
1740 92.9692 112.00 113.54 10.58
1741 93.0192 108.00 112.18 10.39
1742 93.0692 110.00 111.44 10.49
1743 93.1192 113.00 112.55 10.63
1744 93.1692 113.00 116.93 10.63
1745 93.2192 118.00 126.19 10.86
1746 93.2692 134.00 141.94 11.58
1747 93.3192 156.00 165.05 12.49
1748 93.3692 184.00 194.65 13.56
1749 93.4192 223.00 227.46 14.93
1750 93.4692 263.00 257.92 16.22
1751 93.5192 291.00 279.80 17.06
1752 93.5692 299.00 288.41 17.29
1753 93.6192 296.00 282.64 17.20
1754 93.6692 272.00 265.62 16.49
1755 93.7192 231.00 242.89 15.20
1756 93.7692 199.00 219.60 14.11
1757 93.8192 179.00 198.61 13.38
1758 93.8692 163.00 180.44 12.77
1759 93.9192 149.00 164.44 12.21
1760 93.9692 143.00 150.05 11.96
1761 94.0192 131.00 137.27 11.45
1762 94.0692 126.00 126.59 11.22
1763 94.1192 118.00 118.55 10.86
1764 94.1692 120.00 113.42 10.95
1765 94.2192 119.00 111.25 10.91
1766 94.2692 118.00 112.35 10.86
1767 94.3192 120.00 116.99 10.95
1768 94.3692 130.00 125.55 11.40
1769 94.4192 145.00 138.06 12.04
1770 94.4692 160.00 153.60 12.65
1771 94.5192 183.00 170.25 13.53
1772 94.5692 193.00 185.10 13.89
1773 94.6192 192.00 195.08 13.86
1774 94.6692 190.00 198.16 13.78
1775 94.7192 187.00 194.19 13.67
1776 94.7692 176.00 185.10 13.27
1777 94.8192 156.00 174.01 12.49
1778 94.8692 150.00 163.71 12.25
1779 94.9192 147.00 155.80 12.12
1780 94.9692 146.00 150.44 12.08
1781 95.0192 147.00 146.96 12.12
1782 95.0692 145.00 144.34 12.04
1783 95.1192 146.00 141.63 12.08
1784 95.1692 139.00 138.12 11.79
1785 95.2192 134.00 133.57 11.58
1786 95.2692 127.00 128.17 11.27
1787 95.3192 125.00 122.55 11.18
1788 95.3692 120.00 117.32 10.95
1789 95.4192 119.00 112.88 10.91
1790 95.4692 112.00 109.26 10.58
1791 95.5192 103.00 106.28 10.15
1792 95.5692 102.00 103.78 10.10
1793 95.6192 97.00 101.64 9.85
1794 95.6692 91.00 99.86 9.54
1795 95.7192 94.00 98.48 9.70
1796 95.7692 96.00 97.55 9.80
1797 95.8192 93.00 97.10 9.64
1798 95.8692 97.00 97.17 9.85
1799 95.9192 95.00 97.78 9.75
1800 95.9692 91.00 98.98 9.54
1801 96.0192 94.00 100.82 9.70
1802 96.0692 98.00 103.25 9.90
1803 96.1192 110.00 106.27 10.49
1804 96.1692 113.00 109.95 10.63
1805 96.2192 112.00 114.49 10.58
1806 96.2692 114.00 120.28 10.68
1807 96.3192 124.00 127.73 11.14
1808 96.3692 126.00 136.97 11.22
1809 96.4192 137.00 147.49 11.70
1810 96.4692 151.00 158.01 12.29
1811 96.5192 159.00 166.73 12.61
1812 96.5692 175.00 171.99 13.23
1813 96.6192 175.00 172.93 13.23
1814 96.6692 174.00 169.92 13.19
1815 96.7192 175.00 164.33 13.23
1816 96.7692 169.00 157.80 13.00
1817 96.8192 156.00 151.43 12.49
1818 96.8692 150.00 145.50 12.25
1819 96.9192 139.00 139.68 11.79
1820 96.9692 138.00 133.64 11.75
1821 97.0192 133.00 127.37 11.53
1822 97.0692 125.00 121.30 11.18
1823 97.1192 122.00 116.02 11.05
1824 97.1692 126.00 112.01 11.22
1825 97.2192 114.00 109.58 10.68
1826 97.2692 112.00 108.91 10.58
1827 97.3192 108.00 110.14 10.39
1828 97.3692 116.00 113.37 10.77
1829 97.4192 117.00 118.50 10.82
1830 97.4692 122.00 124.98 11.05
1831 97.5192 137.00 132.03 11.70
1832 97.5692 143.00 138.32 11.96
1833 97.6192 146.00 142.53 12.08
1834 97.6692 149.00 143.75 12.21
1835 97.7192 144.00 141.84 12.00
1836 97.7692 140.00 137.47 11.83
1837 97.8192 138.00 131.81 11.75
1838 97.8692 129.00 125.98 11.36
1839 97.9192 124.00 120.68 11.14
1840 97.9692 117.00 116.13 10.82
1841 98.0192 117.00 112.22 10.82
1842 98.0692 107.00 108.80 10.34
1843 98.1192 106.00 105.77 10.30
1844 98.1692 97.00 103.14 9.85
1845 98.2192 107.00 101.04 10.34
1846 98.2692 104.00 99.36 10.20
1847 98.3192 102.00 98.16 10.10
1848 98.3692 99.00 97.35 9.95
1849 98.4192 98.00 96.84 9.90
1850 98.4692 98.00 96.53 9.90
1851 98.5192 97.00 96.38 9.85
1852 98.5692 95.00 96.23 9.75
1853 98.6192 96.00 96.11 9.80
1854 98.6692 95.00 95.96 9.75
1855 98.7192 102.00 95.87 10.10
1856 98.7692 97.00 95.79 9.85
1857 98.8192 95.00 95.73 9.75
1858 98.8692 96.00 95.68 9.80
1859 98.9192 94.00 95.65 9.70
1860 98.9692 99.00 95.63 9.95
1861 99.0192 94.00 95.61 9.70
1862 99.0692 95.00 95.61 9.75
1863 99.1192 91.00 95.63 9.54
1864 99.1692 95.00 95.66 9.75
1865 99.2192 99.00 95.70 9.95
1866 99.2692 93.00 95.80 9.64
1867 99.3192 96.00 95.97 9.80
1868 99.3692 93.00 96.23 9.64
1869 99.4192 99.00 96.64 9.95
1870 99.4692 99.00 97.23 9.95
1871 99.5192 101.00 98.04 10.05
1872 99.5692 99.00 99.08 9.95
1873 99.6192 104.00 100.32 10.20
1874 99.6692 107.00 101.71 10.34
1875 99.7192 109.00 103.16 10.44
1876 99.7692 102.00 104.59 10.10
1877 99.8192 114.00 105.96 10.68
1878 99.8692 109.00 107.35 10.44
1879 99.9192 116.00 108.96 10.77
1880 99.9692 122.00 111.14 11.05
1881 100.0192 118.00 114.21 10.86
1882 100.0692 118.00 118.40 10.86
1883 100.1192 125.00 123.62 11.18
1884 100.1692 128.00 129.40 11.31
1885 100.2192 129.00 134.86 11.36
1886 100.2692 137.00 138.99 11.70
1887 100.3192 141.00 140.97 11.87
1888 100.3692 139.00 140.39 11.79
1889 100.4192 139.00 137.56 11.79
1890 100.4692 135.00 133.25 11.62
1891 100.5192 137.00 128.43 11.70
1892 100.5692 133.00 123.85 11.53
1893 100.6192 135.00 119.85 11.62
1894 100.6692 126.00 116.42 11.22
1895 100.7192 121.00 113.36 11.00
1896 100.7692 118.00 110.54 10.86
1897 100.8192 118.00 107.97 10.86
1898 100.8692 107.00 105.71 10.34
1899 100.9192 108.00 103.88 10.39
1900 100.9692 108.00 102.57 10.39
1901 101.0192 104.00 101.77 10.20
1902 101.0692 103.00 101.42 10.15
1903 101.1192 104.00 101.38 10.20
1904 101.1692 104.00 101.54 10.20
1905 101.2192 106.00 101.75 10.30
1906 101.2692 109.00 101.87 10.44
1907 101.3192 106.00 101.87 10.30
1908 101.3692 106.00 101.72 10.30
1909 101.4192 109.00 101.51 10.44
1910 101.4692 103.00 101.35 10.15
1911 101.5192 109.00 101.36 10.44
1912 101.5692 109.00 101.67 10.44
1913 101.6192 111.00 102.39 10.54
1914 101.6692 112.00 103.61 10.58
1915 101.7192 109.00 105.35 10.44
1916 101.7692 110.00 107.54 10.49
1917 101.8192 117.00 110.02 10.82
1918 101.8692 112.00 112.47 10.58
1919 101.9192 121.00 114.54 11.00
1920 101.9692 127.00 115.91 11.27
1921 102.0192 121.00 116.38 11.00
1922 102.0692 117.00 115.95 10.82
1923 102.1192 120.00 114.92 10.95
1924 102.1692 120.00 113.83 10.95
1925 102.2192 124.00 113.33 11.14
1926 102.2692 125.00 114.18 11.18
1927 102.3192 124.00 117.18 11.14
1928 102.3692 123.00 123.21 11.09
1929 102.4192 128.00 133.13 11.31
1930 102.4692 138.00 147.59 11.75
1931 102.5192 155.00 166.71 12.45
1932 102.5692 177.00 189.77 13.30
1933 102.6192 199.00 215.06 14.11
1934 102.6692 224.00 240.18 14.97
1935 102.7192 257.00 262.50 16.03
1936 102.7692 281.00 279.92 16.76
1937 102.8192 292.00 291.36 17.09
1938 102.8692 294.00 297.02 17.15
1939 102.9192 307.00 297.98 17.52
1940 102.9692 299.00 295.42 17.29
1941 103.0192 282.00 289.88 16.79
1942 103.0692 268.00 281.12 16.37
1943 103.1192 254.00 268.67 15.94
1944 103.1692 242.00 252.55 15.56
1945 103.2192 215.00 233.77 14.66
1946 103.2692 202.00 214.03 14.21
1947 103.3192 183.00 195.17 13.53
1948 103.3692 171.00 178.46 13.08
1949 103.4192 156.00 164.43 12.49
1950 103.4692 151.00 152.99 12.29
1951 103.5192 138.00 143.75 11.75
1952 103.5692 133.00 136.32 11.53
1953 103.6192 122.00 130.46 11.05
1954 103.6692 121.00 126.07 11.00
1955 103.7192 117.00 123.09 10.82
1956 103.7692 120.00 121.39 10.95
1957 103.8192 126.00 120.73 11.22
1958 103.8692 120.00 120.75 10.95
1959 103.9192 118.00 121.07 10.86
1960 103.9692 122.00 121.31 11.05
1961 104.0192 121.00 121.20 11.00
1962 104.0692 121.00 120.57 11.00
1963 104.1192 123.00 119.43 11.09
1964 104.1692 118.00 117.89 10.86
1965 104.2192 118.00 116.16 10.86
1966 104.2692 114.00 114.54 10.68
1967 104.3192 115.00 113.33 10.72
1968 104.3692 119.00 112.76 10.91
1969 104.4192 110.00 113.03 10.49
1970 104.4692 113.00 114.17 10.63
1971 104.5192 116.00 116.11 10.77
1972 104.5692 115.00 118.67 10.72
1973 104.6192 120.00 121.52 10.95
1974 104.6692 124.00 124.27 11.14
1975 104.7192 123.00 126.59 11.09
1976 104.7692 122.00 128.26 11.05
1977 104.8192 128.00 129.21 11.31
1978 104.8692 137.00 129.68 11.70
1979 104.9192 140.00 129.98 11.83
1980 104.9692 143.00 130.38 11.96
1981 105.0192 145.00 131.00 12.04
1982 105.0692 145.00 131.68 12.04
1983 105.1192 143.00 132.08 11.96
1984 105.1692 142.00 131.84 11.92
1985 105.2192 142.00 130.70 11.92
1986 105.2692 133.00 128.67 11.53
1987 105.3192 134.00 126.05 11.58
1988 105.3692 125.00 123.32 11.18
1989 105.4192 122.00 121.03 11.05
1990 105.4692 120.00 119.60 10.95
1991 105.5192 124.00 119.29 11.14
1992 105.5692 122.00 120.13 11.05
1993 105.6192 115.00 121.95 10.72
1994 105.6692 123.00 124.41 11.09
1995 105.7192 125.00 127.05 11.18
1996 105.7692 126.00 129.36 11.22
1997 105.8192 127.00 130.87 11.27
1998 105.8692 129.00 131.24 11.36
1999 105.9192 137.00 130.38 11.70
2000 105.9692 135.00 128.41 11.62
2001 106.0192 143.00 125.69 11.96
2002 106.0692 136.00 122.67 11.66
2003 106.1192 126.00 119.74 11.22
2004 106.1692 126.00 117.12 11.22
2005 106.2192 119.00 114.88 10.91
2006 106.2692 116.00 112.99 10.77
2007 106.3192 116.00 111.39 10.77
2008 106.3692 116.00 110.10 10.77
2009 106.4192 109.00 109.22 10.44
2010 106.4692 113.00 108.95 10.63
2011 106.5192 116.00 109.57 10.77
2012 106.5692 112.00 111.37 10.58
2013 106.6192 115.00 114.65 10.72
2014 106.6692 120.00 119.56 10.95
2015 106.7192 121.00 126.11 11.00
2016 106.7692 139.00 134.07 11.79
2017 106.8192 142.00 142.88 11.92
2018 106.8692 152.00 151.75 12.33
2019 106.9192 158.00 159.73 12.57
2020 106.9692 170.00 165.90 13.04
2021 107.0192 170.00 169.61 13.04
2022 107.0692 169.00 170.59 13.00
2023 107.1192 172.00 169.06 13.11
2024 107.1692 168.00 165.66 12.96
2025 107.2192 161.00 161.24 12.69
2026 107.2692 158.00 156.65 12.57
2027 107.3192 158.00 152.43 12.57
2028 107.3692 158.00 148.82 12.57
2029 107.4192 154.00 145.72 12.41
2030 107.4692 150.00 142.91 12.25
2031 107.5192 143.00 140.07 11.96
2032 107.5692 141.00 137.08 11.87
2033 107.6192 143.00 133.90 11.96
2034 107.6692 137.00 130.51 11.70
2035 107.7192 131.00 127.02 11.45
2036 107.7692 127.00 123.60 11.27
2037 107.8192 133.00 120.40 11.53
2038 107.8692 124.00 117.51 11.14
2039 107.9192 126.00 115.11 11.22
2040 107.9692 122.00 113.13 11.05
2041 108.0192 113.00 111.53 10.63
2042 108.0692 113.00 110.22 10.63
2043 108.1192 117.00 109.12 10.82
2044 108.1692 107.00 108.17 10.34
2045 108.2192 109.00 107.31 10.44
2046 108.2692 112.00 106.52 10.58
2047 108.3192 109.00 105.79 10.44
2048 108.3692 105.00 105.13 10.25
2049 108.4192 110.00 104.57 10.49
2050 108.4692 112.00 104.14 10.58
2051 108.5192 111.00 103.89 10.54
2052 108.5692 108.00 103.87 10.39
2053 108.6192 109.00 104.10 10.44
2054 108.6692 109.00 104.61 10.44
2055 108.7192 113.00 105.40 10.63
2056 108.7692 124.00 106.42 11.14
2057 108.8192 111.00 107.64 10.54
2058 108.8692 119.00 109.06 10.91
2059 108.9192 118.00 110.71 10.86
2060 108.9692 125.00 112.68 11.18
2061 109.0192 121.00 115.17 11.00
2062 109.0692 131.00 118.41 11.45
2063 109.1192 137.00 122.62 11.70
2064 109.1692 137.00 127.93 11.70
2065 109.2192 144.00 134.27 12.00
2066 109.2692 149.00 141.33 12.21
2067 109.3192 156.00 148.54 12.49
2068 109.3692 155.00 155.14 12.45
2069 109.4192 159.00 160.36 12.61
2070 109.4692 157.00 163.57 12.53
2071 109.5192 159.00 164.48 12.61
2072 109.5692 161.00 163.21 12.69
2073 109.6192 152.00 160.32 12.33
2074 109.6692 153.00 156.69 12.37
2075 109.7192 145.00 153.30 12.04
2076 109.7692 147.00 151.02 12.12
2077 109.8192 135.00 150.37 11.62
2078 109.8692 146.00 151.58 12.08
2079 109.9192 151.00 154.50 12.29
2080 109.9692 159.00 158.68 12.61
2081 110.0192 163.00 163.48 12.77
2082 110.0692 162.00 168.15 12.73
2083 110.1192 168.00 171.93 12.96
2084 110.1692 174.00 174.18 13.19
2085 110.2192 178.00 174.50 13.34
2086 110.2692 179.00 172.77 13.38
2087 110.3192 161.00 169.19 12.69
2088 110.3692 164.00 164.20 12.81
2089 110.4192 154.00 158.40 12.41
2090 110.4692 151.00 152.33 12.29
2091 110.5192 150.00 146.46 12.25
2092 110.5692 133.00 141.07 11.53
2093 110.6192 133.00 136.32 11.53
2094 110.6692 130.00 132.24 11.40
2095 110.7192 123.00 128.82 11.09
2096 110.7692 124.00 126.01 11.14
2097 110.8192 124.00 123.81 11.14
2098 110.8692 118.00 122.23 10.86
2099 110.9192 117.00 121.29 10.82
2100 110.9692 126.00 121.02 11.22
2101 111.0192 114.00 121.46 10.68
2102 111.0692 116.00 122.58 10.77
2103 111.1192 112.00 124.32 10.58
2104 111.1692 121.00 126.55 11.00
2105 111.2192 125.00 129.13 11.18
2106 111.2692 131.00 131.86 11.45
2107 111.3192 128.00 134.54 11.31
2108 111.3692 133.00 136.95 11.53
2109 111.4192 147.00 138.90 12.12
2110 111.4692 139.00 140.26 11.79
2111 111.5192 142.00 140.96 11.92
2112 111.5692 149.00 141.04 12.21
2113 111.6192 148.00 140.60 12.17
2114 111.6692 146.00 139.84 12.08
2115 111.7192 141.00 138.99 11.87
2116 111.7692 132.00 138.23 11.49
2117 111.8192 132.00 137.66 11.49
2118 111.8692 132.00 137.37 11.49
2119 111.9192 127.00 137.34 11.27
2120 111.9692 120.00 137.58 10.95
2121 112.0192 129.00 138.07 11.36
2122 112.0692 131.00 138.77 11.45
2123 112.1192 131.00 139.63 11.45
2124 112.1692 141.00 140.49 11.87
2125 112.2192 146.00 141.14 12.08
2126 112.2692 144.00 141.35 12.00
2127 112.3192 143.00 140.87 11.96
2128 112.3692 147.00 139.62 12.12
2129 112.4192 144.00 137.59 12.00
2130 112.4692 142.00 134.92 11.92
2131 112.5192 138.00 131.87 11.75
2132 112.5692 134.00 128.72 11.58
2133 112.6192 124.00 125.74 11.14
2134 112.6692 125.00 123.10 11.18
2135 112.7192 118.00 120.93 10.86
2136 112.7692 115.00 119.27 10.72
2137 112.8192 118.00 118.15 10.86
2138 112.8692 117.00 117.61 10.82
2139 112.9192 115.00 117.69 10.72
2140 112.9692 115.00 118.47 10.72
2141 113.0192 121.00 120.02 11.00
2142 113.0692 121.00 122.38 11.00
2143 113.1192 121.00 125.53 11.00
2144 113.1692 128.00 129.37 11.31
2145 113.2192 139.00 133.71 11.79
2146 113.2692 155.00 138.25 12.45
2147 113.3192 145.00 142.65 12.04
2148 113.3692 142.00 146.53 11.92
2149 113.4192 145.00 149.57 12.04
2150 113.4692 163.00 151.54 12.77
2151 113.5192 160.00 152.32 12.65
2152 113.5692 156.00 151.95 12.49
2153 113.6192 153.00 150.58 12.37
2154 113.6692 153.00 148.43 12.37
2155 113.7192 157.00 145.76 12.53
2156 113.7692 150.00 142.76 12.25
2157 113.8192 139.00 139.59 11.79
2158 113.8692 135.00 136.35 11.62
2159 113.9192 134.00 133.10 11.58
2160 113.9692 141.00 129.91 11.87
2161 114.0192 133.00 126.83 11.53
2162 114.0692 125.00 123.94 11.18
2163 114.1192 129.00 121.31 11.36
2164 114.1692 127.00 118.99 11.27
2165 114.2192 128.00 117.04 11.31
2166 114.2692 126.00 115.50 11.22
2167 114.3192 118.00 114.40 10.86
2168 114.3692 111.00 113.75 10.54
2169 114.4192 112.00 113.53 10.58
2170 114.4692 114.00 113.69 10.68
2171 114.5192 118.00 114.15 10.86
2172 114.5692 116.00 114.80 10.77
2173 114.6192 113.00 115.50 10.63
2174 114.6692 121.00 116.07 11.00
2175 114.7192 121.00 116.39 11.00
2176 114.7692 120.00 116.36 10.95
2177 114.8192 121.00 115.93 11.00
2178 114.8692 122.00 115.14 11.05
2179 114.9192 125.00 114.06 11.18
2180 114.9692 121.00 112.84 11.00
2181 115.0192 115.00 111.63 10.72
2182 115.0692 118.00 110.56 10.86
2183 115.1192 122.00 109.79 11.05
2184 115.1692 111.00 109.42 10.54
2185 115.2192 112.00 109.58 10.58
2186 115.2692 114.00 110.41 10.68
2187 115.3192 116.00 112.12 10.77
2188 115.3692 116.00 115.02 10.77
2189 115.4192 123.00 119.44 11.09
2190 115.4692 124.00 125.78 11.14
2191 115.5192 131.00 134.34 11.45
2192 115.5692 137.00 145.31 11.70
2193 115.6192 137.00 158.65 11.70
2194 115.6692 164.00 173.91 12.81
2195 115.7192 172.00 190.36 13.11
2196 115.7692 186.00 206.89 13.64
2197 115.8192 204.00 222.17 14.28
2198 115.8692 227.00 234.82 15.07
2199 115.9192 237.00 243.65 15.39
2200 115.9692 248.00 247.81 15.75
2201 116.0192 247.00 247.06 15.72
2202 116.0692 245.00 241.79 15.65
2203 116.1192 236.00 232.98 15.36
2204 116.1692 232.00 222.02 15.23
2205 116.2192 211.00 210.44 14.53
2206 116.2692 201.00 199.58 14.18
2207 116.3192 192.00 190.40 13.86
2208 116.3692 177.00 183.38 13.30
2209 116.4192 169.00 178.48 13.00
2210 116.4692 164.00 175.33 12.81
2211 116.5192 154.00 173.33 12.41
2212 116.5692 152.00 171.83 12.33
2213 116.6192 148.00 170.21 12.17
2214 116.6692 147.00 168.05 12.12
2215 116.7192 130.00 165.06 11.40
2216 116.7692 142.00 161.18 11.92
2217 116.8192 136.00 156.49 11.66
2218 116.8692 137.00 151.21 11.70
2219 116.9192 141.00 145.65 11.87
2220 116.9692 129.00 140.14 11.36
2221 117.0192 133.00 134.98 11.53
2222 117.0692 127.00 130.40 11.27
2223 117.1192 123.00 126.56 11.09
2224 117.1692 122.00 123.46 11.05
2225 117.2192 122.00 121.07 11.05
2226 117.2692 128.00 119.27 11.31
2227 117.3192 120.00 117.95 10.95
2228 117.3692 109.00 116.95 10.44
2229 117.4192 114.00 116.21 10.68
2230 117.4692 107.00 115.62 10.34
2231 117.5192 110.00 115.13 10.49
2232 117.5692 113.00 114.72 10.63
2233 117.6192 106.00 114.37 10.30
2234 117.6692 111.00 114.05 10.54
2235 117.7192 113.00 113.77 10.63
2236 117.7692 114.00 113.53 10.68
2237 117.8192 112.00 113.35 10.58
2238 117.8692 115.00 113.26 10.72
2239 117.9192 114.00 113.31 10.68
2240 117.9692 112.00 113.54 10.58
2241 118.0192 119.00 113.98 10.91
2242 118.0692 115.00 114.65 10.72
2243 118.1192 116.00 115.54 10.77
2244 118.1692 120.00 116.58 10.95
2245 118.2192 124.00 117.72 11.14
2246 118.2692 118.00 118.86 10.86
2247 118.3192 121.00 119.92 11.00
2248 118.3692 122.00 120.84 11.05
2249 118.4192 107.00 121.56 10.34
2250 118.4692 111.00 122.10 10.54
2251 118.5192 119.00 122.49 10.91
2252 118.5692 124.00 122.81 11.14
2253 118.6192 123.00 123.13 11.09
2254 118.6692 121.00 123.57 11.00
2255 118.7192 123.00 124.21 11.09
2256 118.7692 122.00 125.12 11.05
2257 118.8192 130.00 126.33 11.40
2258 118.8692 129.00 127.81 11.36
2259 118.9192 126.00 129.48 11.22
2260 118.9692 126.00 131.21 11.22
2261 119.0192 129.00 132.81 11.36
2262 119.0692 127.00 134.11 11.27
2263 119.1192 127.00 134.91 11.27
2264 119.1692 130.00 135.08 11.40
2265 119.2192 132.00 134.55 11.49
2266 119.2692 138.00 133.35 11.75
2267 119.3192 133.00 131.56 11.53
2268 119.3692 129.00 129.34 11.36
2269 119.4192 123.00 126.91 11.09
2270 119.4692 125.00 124.44 11.18
2271 119.5192 117.00 122.11 10.82
2272 119.5692 118.00 120.03 10.86
2273 119.6192 120.00 118.27 10.95
2274 119.6692 116.00 116.83 10.77
2275 119.7192 112.00 115.68 10.58
2276 119.7692 117.00 114.75 10.82
2277 119.8192 120.00 113.95 10.95
2278 119.8692 100.00 113.21 10.00
2279 119.9192 112.00 112.48 10.58
2280 119.9692 121.00 111.72 11.00
2281 120.0192 101.00 110.92 10.05
2282 120.0692 106.00 110.10 10.30
2283 120.1192 107.00 109.27 10.34
2284 120.1692 100.00 108.49 10.00
2285 120.2192 107.00 107.78 10.34
2286 120.2692 101.00 107.20 10.05
2287 120.3192 103.00 106.79 10.15
2288 120.3692 110.00 106.58 10.49
2289 120.4192 104.00 106.58 10.20
2290 120.4692 112.00 106.80 10.58
2291 120.5192 110.00 107.22 10.49
2292 120.5692 106.00 107.82 10.30
2293 120.6192 109.00 108.52 10.44
2294 120.6692 110.00 109.29 10.49
2295 120.7192 108.00 110.04 10.39
2296 120.7692 103.00 110.69 10.15
2297 120.8192 110.00 111.20 10.49
2298 120.8692 106.00 111.52 10.30
2299 120.9192 116.00 111.62 10.77
2300 120.9692 105.00 111.51 10.25
2301 121.0192 110.00 111.24 10.49
2302 121.0692 117.00 110.86 10.82
2303 121.1192 112.00 110.48 10.58
2304 121.1692 114.00 110.18 10.68
2305 121.2192 116.00 110.06 10.77
2306 121.2692 106.00 110.18 10.30
2307 121.3192 105.00 110.57 10.25
2308 121.3692 119.00 111.23 10.91
2309 121.4192 117.00 112.13 10.82
2310 121.4692 110.00 113.20 10.49
2311 121.5192 104.00 114.35 10.20
2312 121.5692 108.00 115.47 10.39
2313 121.6192 105.00 116.45 10.25
2314 121.6692 102.00 117.22 10.10
2315 121.7192 104.00 117.71 10.20
2316 121.7692 111.00 117.90 10.54
2317 121.8192 114.00 117.83 10.68
2318 121.8692 109.00 117.56 10.44
2319 121.9192 110.00 117.22 10.49
2320 121.9692 105.00 116.96 10.25
2321 122.0192 118.00 116.94 10.86
2322 122.0692 124.00 117.34 11.14
2323 122.1192 118.00 118.31 10.86
2324 122.1692 115.00 119.95 10.72
2325 122.2192 117.00 122.35 10.82
2326 122.2692 119.00 125.55 10.91
2327 122.3192 128.00 129.54 11.31
2328 122.3692 131.00 134.29 11.45
2329 122.4192 139.00 139.77 11.79
2330 122.4692 154.00 145.90 12.41
2331 122.5192 155.00 152.58 12.45
2332 122.5692 172.00 159.80 13.11
2333 122.6192 163.00 167.39 12.77
2334 122.6692 182.00 175.19 13.49
2335 122.7192 183.00 182.99 13.53
2336 122.7692 210.00 190.53 14.49
2337 122.8192 208.00 197.49 14.42
2338 122.8692 197.00 203.53 14.04
2339 122.9192 217.00 208.28 14.73
2340 122.9692 220.00 211.40 14.83
2341 123.0192 211.00 212.65 14.53
2342 123.0692 206.00 211.87 14.35
2343 123.1192 203.00 209.09 14.25
2344 123.1692 206.00 204.49 14.35
2345 123.2192 182.00 198.43 13.49
2346 123.2692 201.00 191.38 14.18
2347 123.3192 196.00 183.90 14.00
2348 123.3692 180.00 176.49 13.42
2349 123.4192 155.00 169.60 12.45
2350 123.4692 176.00 163.56 13.27
2351 123.5192 184.00 158.53 13.56
2352 123.5692 176.00 154.52 13.27
2353 123.6192 147.00 151.43 12.12
2354 123.6692 151.00 149.07 12.29
2355 123.7192 145.00 147.21 12.04
2356 123.7692 167.00 145.62 12.92
2357 123.8192 145.00 144.08 12.04
2358 123.8692 144.00 142.45 12.00
2359 123.9192 150.00 140.60 12.25
2360 123.9692 154.00 138.50 12.41
2361 124.0192 141.00 136.15 11.87
2362 124.0692 145.00 133.58 12.04
2363 124.1192 134.00 130.85 11.58
2364 124.1692 129.00 128.07 11.36
2365 124.2192 124.00 125.31 11.14
2366 124.2692 131.00 122.68 11.45
2367 124.3192 128.00 120.24 11.31
2368 124.3692 125.00 118.08 11.18
2369 124.4192 114.00 116.22 10.68
2370 124.4692 127.00 114.69 11.27
2371 124.5192 112.00 113.49 10.58
2372 124.5692 103.00 112.59 10.15
2373 124.6192 109.00 111.96 10.44
2374 124.6692 135.00 111.57 11.62
2375 124.7192 107.00 111.35 10.34
2376 124.7692 125.00 111.27 11.18
2377 124.8192 113.00 111.27 10.63
2378 124.8692 114.00 111.33 10.68
2379 124.9192 121.00 111.41 11.00
2380 124.9692 116.00 111.49 10.77
2381 125.0192 107.00 111.55 10.34
2382 125.0692 114.00 111.59 10.68
2383 125.1192 103.00 111.60 10.15
2384 125.1692 107.00 111.57 10.34
2385 125.2192 112.00 111.50 10.58
2386 125.2692 121.00 111.39 11.00
2387 125.3192 116.00 111.26 10.77
2388 125.3692 120.00 111.09 10.95
2389 125.4192 112.00 110.88 10.58
2390 125.4692 116.00 110.64 10.77
2391 125.5192 117.00 110.36 10.82
2392 125.5692 105.00 110.06 10.25
2393 125.6192 117.00 109.72 10.82
2394 125.6692 112.00 109.36 10.58
2395 125.7192 104.00 108.98 10.20
