#------------------------------------------------------------------------------
#$Date: 2016-02-14 06:40:26 +0200 (Sun, 14 Feb 2016) $
#$Revision: 176432 $
#$URL: svn://www.crystallography.net/cod/cif/7/20/38/7203836.cif $
#------------------------------------------------------------------------------
#
# This file is available in the Crystallography Open Database (COD),
# http://www.crystallography.net/
#
# All data on this site have been placed in the public domain by the
# contributors.
#
data_7203836
loop_
_publ_author_name
'Abakumov, Artem M.'
'Rossell, Marta D.'
'Seryakov, Sergey A.'
'Rozova, Marina G.'
'Markina, Maria M.'
'Van Tendeloo, Gustaaf'
'Antipov, Evgeny V.'
_publ_section_title
;
 Synthesis and crystal structure of novel CaRMnSnO6(R = La, Pr, Nd,
 Sm--Dy) double perovskites
;
_journal_issue                   46
_journal_name_full               'Journal of Materials Chemistry'
_journal_page_first              4899
_journal_paper_doi               10.1039/b510242a
_journal_volume                  15
_journal_year                    2005
_chemical_formula_sum            'Ca Dy Mn O6 Sn'
_chemical_formula_weight         472.2
_chemical_name_systematic        ' ?'
_space_group_IT_number           62
_symmetry_cell_setting           orthorhombic
_symmetry_space_group_name_Hall  '-P 2ac 2n'
_symmetry_space_group_name_H-M   'P n m a'
_audit_creation_method           'Jana2000 Version : 25/06/2004'
_cell_angle_alpha                90
_cell_angle_beta                 90
_cell_angle_gamma                90
_cell_formula_units_Z            2
_cell_length_a                   5.6928
_cell_length_b                   7.733
_cell_length_c                   5.4179
_cell_volume                     238.509
_computing_publication_material  '(Jana2000; Petricek and Dusek, 2000)'
_computing_structure_refinement  '(Jana2000; Petricek and Dusek, 2000)'
_diffrn_radiation_type           X-ray
_diffrn_radiation_wavelength     1.5406
_exptl_absorpt_coefficient_mu    18065.5
_exptl_absorpt_process_details   '(Jana2000; Petricek and Dusek, 2000)'
_exptl_crystal_density_diffrn    6.5732
_exptl_crystal_F_000             418
_pd_meas_2theta_range_inc        0.02
_pd_meas_2theta_range_max        99.987
_pd_meas_2theta_range_min        18.007
_pd_meas_number_of_points        4100
_pd_proc_2theta_range_inc        0.02
_pd_proc_2theta_range_max        99.987
_pd_proc_2theta_range_min        18.007
_pd_proc_ls_background_function  '12 Legendre polynoms'
_pd_proc_ls_pref_orient_corr     none
_pd_proc_ls_profile_function     Pseudo-Voigt
_pd_proc_ls_prof_R_factor        0.0095
_pd_proc_ls_prof_wR_expected     0.0137
_pd_proc_ls_prof_wR_factor       0.0120
_refine_ls_extinction_method     none
_refine_ls_number_parameters     33
_refine_ls_R_factor_all          0.0415
_refine_ls_R_factor_gt           0.0334
_refine_ls_shift/su_max          0.2466
_refine_ls_shift/su_mean         0.0405
_refine_ls_weighting_scheme      sigma
_refine_ls_wR_factor_gt          0.0171
_refine_ls_wR_factor_ref         0.0175
_cod_data_source_file            b510242a.txt
_cod_data_source_block           (I)a
_cod_original_cell_volume        238.5094
_cod_original_sg_symbol_Hall     '-P -2zac;-2xn'
_cod_original_formula_sum        'Ca1 Dy1 Mn1 O6 Sn1'
_cod_database_code               7203836
loop_
_symmetry_equiv_pos_site_id
_symmetry_equiv_pos_as_xyz
1 x,y,z
2 1/2+x,y,1/2-z
3 1/2-x,1/2+y,1/2+z
4 -x,1/2+y,-z
5 -x,-y,-z
6 1/2-x,-y,1/2+z
7 1/2+x,1/2-y,1/2-z
8 x,1/2-y,z
loop_
_atom_site_label
_atom_site_type_symbol
_atom_site_fract_x
_atom_site_fract_y
_atom_site_fract_z
_atom_site_adp_type
_atom_site_U_iso_or_equiv
_atom_site_symmetry_multiplicity
_atom_site_occupancy
_atom_site_calc_flag
_atom_site_refinement_flags
_atom_site_disorder_assembly
_atom_site_disorder_group
Dy Dy 0.0655(3) 0.25 -0.0140(9) Uiso 0.0152(10) 4 0.5 d . . .
Dy Ca 0.0655(3) 0.25 -0.0140(9) Uiso 0.0152(10) 4 0.5 d . . .
Sn Sn 0 0 0.5 Uiso 0.0047(10) 4 0.5 d . . .
Sn Mn 0 0 0.5 Uiso 0.0047(10) 4 0.5 d . . .
O1 O 0.4647(19) 0.25 0.1125(19) Uiso 0.012(3) 4 1 d . . .
O2 O 0.3043(14) 0.0529(13) 0.7068(18) Uiso 0.012(3) 8 1 d . . .
loop_
_atom_type_symbol
_atom_type_scat_dispersion_real
_atom_type_scat_dispersion_imag
_atom_type_scat_source
_atom_type_scat_versus_stol_list
Dy -9.805 9.848 'International Tables Vol C Tables 4.2.6.8 and 6.1.1.1'
;
stol 0.00 0.05 0.10 0.15 0.20 0.25 0.30 0.35 0.40
f 66.000 64.627 61.689 58.437 55.059 51.611 48.240 45.073 42.171
stol 0.45 0.50 0.55 0.60 0.65 0.70 0.75 0.80 0.85
f 39.536 37.143 34.958 32.953 31.103 29.394 27.817 26.366 25.034
stol 0.90 0.95 1.00 1.05 1.10 1.15 1.20 1.25 1.30
f 23.821 22.718 21.721 20.821 20.011 19.282 18.623 18.027 17.483
stol 1.35 1.40 1.45 1.50 1.55 1.60 1.65 1.70 1.75
f 16.985 16.522 16.090 15.680 15.290 14.913 14.548 14.190 13.839
;
Ca 0.364 1.286 'International Tables Vol C Tables 4.2.6.8 and 6.1.1.1'
;
stol 0.00 0.05 0.10 0.15 0.20 0.25 0.30 0.35 0.40
f 20.000 19.091 17.331 15.723 14.304 12.961 11.705 10.590 9.650
stol 0.45 0.50 0.55 0.60 0.65 0.70 0.75 0.80 0.85
f 8.885 8.275 7.788 7.392 7.057 6.762 6.491 6.228 5.972
stol 0.90 0.95 1.00 1.05 1.10 1.15 1.20 1.25 1.30
f 5.717 5.463 5.209 4.958 4.710 4.468 4.233 4.007 3.791
stol 1.35 1.40 1.45 1.50 1.55 1.60 1.65 1.70 1.75
f 3.585 3.391 3.209 3.039 2.881 2.733 2.595 2.470 2.356
;
Sn 0.026 5.459 'International Tables Vol C Tables 4.2.6.8 and 6.1.1.1'
;
stol 0.00 0.05 0.10 0.15 0.20 0.25 0.30 0.35 0.40
f 50.000 48.934 46.361 43.309 40.302 37.462 34.794 32.303 30.011
stol 0.45 0.50 0.55 0.60 0.65 0.70 0.75 0.80 0.85
f 27.938 26.096 24.482 23.081 21.868 20.815 19.895 19.073 18.333
stol 0.90 0.95 1.00 1.05 1.10 1.15 1.20 1.25 1.30
f 17.646 17.003 16.384 15.787 15.201 14.627 14.062 13.507 12.962
stol 1.35 1.40 1.45 1.50 1.55 1.60 1.65 1.70 1.75
f 12.430 11.913 11.414 10.933 10.472 10.034 9.618 9.227 8.860
;
Mn -0.530 2.805 'International Tables Vol C Tables 4.2.6.8 and 6.1.1.1'
;
stol 0.00 0.05 0.10 0.15 0.20 0.25 0.30 0.35 0.40
f 25.000 24.274 22.611 20.764 19.012 17.364 15.806 14.353 13.031
stol 0.45 0.50 0.55 0.60 0.65 0.70 0.75 0.80 0.85
f 11.858 10.840 9.973 9.245 8.639 8.137 7.720 7.368 7.070
stol 0.90 0.95 1.00 1.05 1.10 1.15 1.20 1.25 1.30
f 6.808 6.575 6.359 6.157 5.962 5.773 5.586 5.400 5.215
stol 1.35 1.40 1.45 1.50 1.55 1.60 1.65 1.70 1.75
f 5.031 4.849 4.668 4.490 4.315 4.144 3.976 3.814 3.657
;
O 0.049 0.032 'International Tables Vol C Tables 4.2.6.8 and 6.1.1.1'
;
stol 0.00 0.05 0.10 0.15 0.20 0.25 0.30 0.35 0.40
f 8.000 7.798 7.245 6.472 5.623 4.808 4.089 3.489 3.006
stol 0.45 0.50 0.55 0.60 0.65 0.70 0.75 0.80 0.85
f 2.629 2.338 2.115 1.946 1.816 1.714 1.635 1.568 1.512
stol 0.90 0.95 1.00 1.05 1.10 1.15 1.20 1.25 1.30
f 1.463 1.419 1.377 1.337 1.298 1.259 1.221 1.183 1.145
stol 1.35 1.40 1.45 1.50 1.55 1.60 1.65 1.70 1.75
f 1.107 1.070 1.033 0.997 0.961 0.926 0.891 0.857 0.824
;
loop_
_geom_bond_atom_site_label_1
_geom_bond_atom_site_label_2
_geom_bond_site_symmetry_1
_geom_bond_site_symmetry_2
_geom_bond_distance
_geom_bond_publ_flag
Dy O1 . 1_455 3.488(11) yes
Dy O1 . . 2.374(11) yes
Dy O1 . 2_454 3.293(12) yes
Dy O1 . 2_455 2.250(12) yes
Dy O2 . 1_554 2.541(10) yes
Dy O2 . 5_556 3.562(10) yes
Dy O2 . 2_455 2.371(10) yes
Dy O2 . 6_554 2.733(10) yes
Dy O2 . 3_554 2.733(10) yes
Dy O2 . 7_455 2.371(10) yes
Dy O2 . 4_556 3.562(10) yes
Dy O2 . 8_554 2.541(10) yes
Sn O1 . . 3.891(9) yes
Sn O1 . 5_556 3.891(9) yes
Sn O1 . 2_455 2.037(3) yes
Sn O1 . 6_555 2.037(3) yes
Sn O2 . . 2.103(9) yes
Sn O2 . 5_556 2.103(9) yes
Sn O2 . 2_456 1.983(10) yes
Sn O2 . 6_554 1.983(10) yes
Sn O2 . 3_544 3.965(10) yes
Sn O2 . 7_456 3.965(10) yes
loop_
_pd_proc_point_id
_pd_proc_2theta_corrected
_pd_proc_intensity_net
_pd_calc_intensity_net
_pd_proc_ls_weight
1 0.2991 5841.00 5797.15 76.43
2 0.2994 5769.00 5795.00 75.95
3 0.2998 5770.00 5792.87 75.96
4 0.3001 5757.00 5790.75 75.87
5 0.3005 5715.00 5788.66 75.60
6 0.3008 5751.00 5786.58 75.84
7 0.3012 5759.00 5784.52 75.89
8 0.3015 5825.00 5782.47 76.32
9 0.3019 5844.00 5780.44 76.45
10 0.3022 5729.00 5778.43 75.69
11 0.3026 5742.00 5776.44 75.78
12 0.3029 5746.00 5774.47 75.80
13 0.3033 5694.00 5772.51 75.46
14 0.3036 5697.00 5770.56 75.48
15 0.3040 5723.00 5768.64 75.65
16 0.3043 5765.00 5766.73 75.93
17 0.3047 5846.00 5764.83 76.46
18 0.3050 5764.00 5762.95 75.92
19 0.3054 5698.00 5761.09 75.49
20 0.3057 5676.00 5759.24 75.34
21 0.3061 5719.00 5757.41 75.62
22 0.3064 5836.00 5755.60 76.39
23 0.3068 5717.00 5753.79 75.61
24 0.3071 5761.00 5752.01 75.90
25 0.3074 5697.00 5750.23 75.48
26 0.3078 5725.00 5748.48 75.66
27 0.3081 5706.00 5746.74 75.54
28 0.3085 5698.00 5745.01 75.49
29 0.3088 5701.00 5743.29 75.50
30 0.3092 5778.00 5741.59 76.01
31 0.3095 5622.00 5739.91 74.98
32 0.3099 5762.00 5738.24 75.91
33 0.3102 5748.00 5736.58 75.82
34 0.3106 5700.00 5734.94 75.50
35 0.3109 5695.00 5733.31 75.47
36 0.3113 5725.00 5731.69 75.66
37 0.3116 5688.00 5730.09 75.42
38 0.3120 5793.00 5728.50 76.11
39 0.3123 5761.00 5726.92 75.90
40 0.3127 5694.00 5725.35 75.46
41 0.3130 5645.00 5723.80 75.13
42 0.3134 5602.00 5722.27 74.85
43 0.3137 5785.00 5720.74 76.06
44 0.3141 5691.00 5719.23 75.44
45 0.3144 5802.00 5717.73 76.17
46 0.3148 5797.00 5716.24 76.14
47 0.3151 5696.00 5714.77 75.47
48 0.3155 5839.00 5713.30 76.41
49 0.3158 5867.00 5711.85 76.60
50 0.3162 5753.00 5710.42 75.85
51 0.3165 5749.00 5708.99 75.82
52 0.3169 5855.00 5707.58 76.52
53 0.3172 5749.00 5706.18 75.82
54 0.3176 5704.00 5704.79 75.52
55 0.3179 5611.00 5703.41 74.91
56 0.3183 5557.00 5702.05 74.55
57 0.3186 5630.00 5700.70 75.03
58 0.3190 5748.00 5699.36 75.82
59 0.3193 5656.00 5698.03 75.21
60 0.3197 5833.00 5696.72 76.37
61 0.3200 5860.00 5695.42 76.55
62 0.3204 5837.00 5694.13 76.40
63 0.3207 5791.00 5692.86 76.10
64 0.3211 5714.00 5691.60 75.59
65 0.3214 5761.00 5690.36 75.90
66 0.3218 5661.00 5689.13 75.24
67 0.3221 5544.00 5687.91 74.46
68 0.3225 5719.00 5686.71 75.62
69 0.3228 5742.00 5685.53 75.78
70 0.3232 5698.00 5684.36 75.49
71 0.3235 5687.00 5683.22 75.41
72 0.3239 5658.00 5682.09 75.22
73 0.3242 5718.00 5680.98 75.62
74 0.3246 5716.00 5679.90 75.60
75 0.3249 5717.00 5678.85 75.61
76 0.3253 5574.00 5677.82 74.66
77 0.3256 5590.00 5676.83 74.77
78 0.3259 5620.00 5675.88 74.97
79 0.3263 5750.00 5674.98 75.83
80 0.3266 5603.00 5674.15 74.85
81 0.3270 5555.00 5673.40 74.53
82 0.3273 5683.00 5672.77 75.39
83 0.3277 5706.00 5672.30 75.54
84 0.3280 5699.00 5672.06 75.49
85 0.3284 5761.00 5672.10 75.90
86 0.3287 5606.00 5672.55 74.87
87 0.3291 5657.00 5673.70 75.21
88 0.3294 5679.00 5675.27 75.36
89 0.3298 5627.00 5677.56 75.01
90 0.3301 5735.00 5680.67 75.73
91 0.3305 5638.00 5684.62 75.09
92 0.3308 5769.00 5689.37 75.95
93 0.3312 5804.00 5694.76 76.18
94 0.3315 5701.00 5700.48 75.50
95 0.3319 5708.00 5706.07 75.55
96 0.3322 5793.00 5710.92 76.11
97 0.3326 5789.00 5714.33 76.09
98 0.3329 5645.00 5715.62 75.13
99 0.3333 5646.00 5714.32 75.14
100 0.3336 5816.00 5710.41 76.26
101 0.3340 5829.00 5704.37 76.35
102 0.3343 5779.00 5696.97 76.02
103 0.3347 5586.00 5689.01 74.74
104 0.3350 5628.00 5681.12 75.02
105 0.3354 5719.00 5673.73 75.62
106 0.3357 5762.00 5667.09 75.91
107 0.3361 5751.00 5661.30 75.84
108 0.3364 5639.00 5656.37 75.09
109 0.3368 5645.00 5652.26 75.13
110 0.3371 5641.00 5648.85 75.11
111 0.3375 5667.00 5646.02 75.28
112 0.3378 5560.00 5643.66 74.57
113 0.3382 5767.00 5641.65 75.94
114 0.3385 5698.00 5639.91 75.49
115 0.3389 5637.00 5638.36 75.08
116 0.3392 5579.00 5636.94 74.69
117 0.3396 5649.00 5635.63 75.16
118 0.3399 5599.00 5634.38 74.83
119 0.3403 5630.00 5633.19 75.03
120 0.3406 5583.00 5632.04 74.72
121 0.3410 5612.00 5630.93 74.91
122 0.3413 5673.00 5629.85 75.32
123 0.3417 5667.00 5628.79 75.28
124 0.3420 5593.00 5627.75 74.79
125 0.3424 5773.00 5626.73 75.98
126 0.3427 5758.00 5625.72 75.88
127 0.3431 5630.00 5624.73 75.03
128 0.3434 5538.00 5623.76 74.42
129 0.3438 5533.00 5622.79 74.38
130 0.3441 5648.00 5621.84 75.15
131 0.3445 5665.00 5620.90 75.27
132 0.3448 5675.00 5619.97 75.33
133 0.3451 5609.00 5619.05 74.89
134 0.3455 5619.00 5618.13 74.96
135 0.3458 5631.00 5617.23 75.04
136 0.3462 5562.00 5616.33 74.58
137 0.3465 5587.00 5615.44 74.75
138 0.3469 5651.00 5614.55 75.17
139 0.3472 5714.00 5613.68 75.59
140 0.3476 5684.00 5612.80 75.39
141 0.3479 5699.00 5611.94 75.49
142 0.3483 5686.00 5611.08 75.41
143 0.3486 5526.00 5610.22 74.34
144 0.3490 5681.00 5609.38 75.37
145 0.3493 5768.00 5608.53 75.95
146 0.3497 5577.00 5607.69 74.68
147 0.3500 5615.00 5606.86 74.93
148 0.3504 5644.00 5606.03 75.13
149 0.3507 5655.00 5605.20 75.20
150 0.3511 5619.00 5604.38 74.96
151 0.3514 5668.00 5603.57 75.29
152 0.3518 5608.00 5602.76 74.89
153 0.3521 5640.00 5601.95 75.10
154 0.3525 5634.00 5601.14 75.06
155 0.3528 5576.00 5600.34 74.67
156 0.3532 5513.00 5599.55 74.25
157 0.3535 5595.00 5598.76 74.80
158 0.3539 5679.00 5597.97 75.36
159 0.3542 5653.00 5597.19 75.19
160 0.3546 5673.00 5596.41 75.32
161 0.3549 5696.00 5595.63 75.47
162 0.3553 5620.00 5594.86 74.97
163 0.3556 5597.00 5594.09 74.81
164 0.3560 5501.00 5593.32 74.17
165 0.3563 5684.00 5592.56 75.39
166 0.3567 5639.00 5591.80 75.09
167 0.3570 5637.00 5591.05 75.08
168 0.3574 5501.00 5590.30 74.17
169 0.3577 5550.00 5589.56 74.50
170 0.3581 5502.00 5588.81 74.18
171 0.3584 5552.00 5588.07 74.51
172 0.3588 5704.00 5587.34 75.52
173 0.3591 5619.00 5586.61 74.96
174 0.3595 5545.00 5585.88 74.46
175 0.3598 5603.00 5585.16 74.85
176 0.3602 5639.00 5584.44 75.09
177 0.3605 5669.00 5583.73 75.29
178 0.3609 5540.00 5583.02 74.43
179 0.3612 5556.00 5582.32 74.54
180 0.3616 5612.00 5581.62 74.91
181 0.3619 5725.00 5580.93 75.66
182 0.3623 5521.00 5580.24 74.30
183 0.3626 5523.00 5579.56 74.32
184 0.3630 5506.00 5578.88 74.20
185 0.3633 5581.00 5578.21 74.71
186 0.3636 5625.00 5577.55 75.00
187 0.3640 5683.00 5576.90 75.39
188 0.3643 5584.00 5576.25 74.73
189 0.3647 5639.00 5575.61 75.09
190 0.3650 5576.00 5574.98 74.67
191 0.3654 5559.00 5574.36 74.56
192 0.3657 5512.00 5573.75 74.24
193 0.3661 5467.00 5573.15 73.94
194 0.3664 5445.00 5572.56 73.79
195 0.3668 5473.00 5572.90 73.98
196 0.3671 5526.00 5572.35 74.34
197 0.3675 5524.00 5571.82 74.32
198 0.3678 5516.00 5571.30 74.27
199 0.3682 5497.00 5570.81 74.14
200 0.3685 5484.00 5570.34 74.05
201 0.3689 5490.00 5569.90 74.09
202 0.3692 5537.00 5569.48 74.41
203 0.3696 5530.00 5569.10 74.36
204 0.3699 5523.00 5568.75 74.32
205 0.3703 5587.00 5568.45 74.75
206 0.3706 5593.00 5568.20 74.79
207 0.3710 5585.00 5568.00 74.73
208 0.3713 5550.00 5567.87 74.50
209 0.3717 5537.00 5567.82 74.41
210 0.3720 5463.00 5567.86 73.91
211 0.3724 5518.00 5568.01 74.28
212 0.3727 5527.00 5568.30 74.34
213 0.3731 5578.00 5568.75 74.69
214 0.3734 5612.00 5569.42 74.91
215 0.3738 5511.00 5570.38 74.24
216 0.3741 5482.00 5571.76 74.04
217 0.3745 5418.00 5573.75 73.61
218 0.3748 5576.00 5576.69 74.67
219 0.3752 5535.00 5581.07 74.40
220 0.3755 5710.00 5587.61 75.56
221 0.3759 5584.00 5597.29 74.73
222 0.3762 5640.00 5611.28 75.10
223 0.3766 5824.00 5630.84 76.32
224 0.3769 5723.00 5657.03 75.65
225 0.3773 5651.00 5690.33 75.17
226 0.3776 5793.00 5730.13 76.11
227 0.3780 5800.00 5774.16 76.16
228 0.3783 5776.00 5818.22 76.00
229 0.3787 5838.00 5856.29 76.41
230 0.3790 5753.00 5881.33 75.85
231 0.3794 5837.00 5886.90 76.40
232 0.3797 5881.00 5870.52 76.69
233 0.3801 5808.00 5836.13 76.21
234 0.3804 5820.00 5791.83 76.29
235 0.3808 5778.00 5745.60 76.01
236 0.3811 5736.00 5702.98 75.74
237 0.3815 5614.00 5666.99 74.93
238 0.3818 5542.00 5638.77 74.44
239 0.3821 5467.00 5618.15 73.94
240 0.3825 5741.00 5604.16 75.77
241 0.3828 5650.00 5595.48 75.17
242 0.3832 5551.00 5590.72 74.50
243 0.3835 5528.00 5588.62 74.35
244 0.3839 5633.00 5588.12 75.05
245 0.3842 5623.00 5588.36 74.99
246 0.3846 5499.00 5588.60 74.16
247 0.3849 5523.00 5588.24 74.32
248 0.3853 5615.00 5586.86 74.93
249 0.3856 5644.00 5584.24 75.13
250 0.3860 5548.00 5580.43 74.48
251 0.3863 5536.00 5575.71 74.40
252 0.3867 5555.00 5570.43 74.53
253 0.3870 5512.00 5564.96 74.24
254 0.3874 5516.00 5559.59 74.27
255 0.3877 5549.00 5554.52 74.49
256 0.3881 5530.00 5549.87 74.36
257 0.3884 5515.00 5545.71 74.26
258 0.3888 5466.00 5542.06 73.93
259 0.3891 5408.00 5538.90 73.54
260 0.3895 5496.00 5536.18 74.14
261 0.3898 5536.00 5533.85 74.40
262 0.3902 5427.00 5531.85 73.67
263 0.3905 5502.00 5530.13 74.18
264 0.3909 5504.00 5528.61 74.19
265 0.3912 5494.00 5527.26 74.12
266 0.3916 5545.00 5526.03 74.46
267 0.3919 5462.00 5524.90 73.91
268 0.3923 5633.00 5523.84 75.05
269 0.3926 5489.00 5522.83 74.09
270 0.3930 5437.00 5521.88 73.74
271 0.3933 5530.00 5520.95 74.36
272 0.3937 5529.00 5520.05 74.36
273 0.3940 5479.00 5519.18 74.02
274 0.3944 5446.00 5518.33 73.80
275 0.3947 5483.00 5517.50 74.05
276 0.3951 5478.00 5516.68 74.01
277 0.3954 5516.00 5515.88 74.27
278 0.3958 5455.00 5515.09 73.86
279 0.3961 5605.00 5514.32 74.87
280 0.3965 5624.00 5513.52 74.99
281 0.3968 5497.00 5512.76 74.14
282 0.3972 5484.00 5512.02 74.05
283 0.3975 5470.00 5511.29 73.96
284 0.3979 5653.00 5510.56 75.19
285 0.3982 5593.00 5509.84 74.79
286 0.3986 5610.00 5509.13 74.90
287 0.3989 5591.00 5508.43 74.77
288 0.3993 5480.00 5507.74 74.03
289 0.3996 5434.00 5507.05 73.72
290 0.4000 5440.00 5506.37 73.76
291 0.4003 5403.00 5505.70 73.51
292 0.4006 5539.00 5505.03 74.42
293 0.4010 5504.00 5504.38 74.19
294 0.4013 5380.00 5503.72 73.35
295 0.4017 5464.00 5503.08 73.92
296 0.4020 5370.00 5502.44 73.28
297 0.4024 5351.00 5501.81 73.15
298 0.4027 5454.00 5501.19 73.85
299 0.4031 5494.00 5500.57 74.12
300 0.4034 5439.00 5499.96 73.75
301 0.4038 5497.00 5499.36 74.14
302 0.4041 5507.00 5498.77 74.21
303 0.4045 5465.00 5498.19 73.93
304 0.4048 5530.00 5497.61 74.36
305 0.4052 5486.00 5497.05 74.07
306 0.4055 5571.00 5496.49 74.64
307 0.4059 5576.00 5495.95 74.67
308 0.4062 5550.00 5495.42 74.50
309 0.4066 5519.00 5494.89 74.29
310 0.4069 5403.00 5494.38 73.51
311 0.4073 5490.00 5493.88 74.09
312 0.4076 5600.00 5493.40 74.83
313 0.4080 5491.00 5492.93 74.10
314 0.4083 5418.00 5492.48 73.61
315 0.4087 5506.00 5492.04 74.20
316 0.4090 5490.00 5491.62 74.09
317 0.4094 5426.00 5491.21 73.66
318 0.4097 5456.00 5490.83 73.86
319 0.4101 5502.00 5490.47 74.18
320 0.4104 5386.00 5490.14 73.39
321 0.4108 5442.00 5489.82 73.77
322 0.4111 5543.00 5489.54 74.45
323 0.4115 5429.00 5489.28 73.68
324 0.4118 5395.00 5489.06 73.45
325 0.4122 5453.00 5488.87 73.84
326 0.4125 5486.00 5488.72 74.07
327 0.4129 5597.00 5488.61 74.81
328 0.4132 5513.00 5488.55 74.25
329 0.4136 5514.00 5488.53 74.26
330 0.4139 5429.00 5488.57 73.68
331 0.4143 5429.00 5488.67 73.68
332 0.4146 5494.00 5488.83 74.12
333 0.4150 5537.00 5489.06 74.41
334 0.4153 5436.00 5489.38 73.73
335 0.4157 5673.00 5489.78 75.32
336 0.4160 5541.00 5490.28 74.44
337 0.4164 5440.00 5490.90 73.76
338 0.4167 5569.00 5491.63 74.63
339 0.4171 5492.00 5492.51 74.11
340 0.4174 5458.00 5493.53 73.88
341 0.4178 5401.00 5494.74 73.49
342 0.4181 5542.00 5496.15 74.44
343 0.4185 5551.00 5497.78 74.50
344 0.4188 5502.00 5499.68 74.18
345 0.4192 5528.00 5501.87 74.35
346 0.4195 5451.00 5504.42 73.83
347 0.4198 5431.00 5507.37 73.70
348 0.4202 5552.00 5510.80 74.51
349 0.4205 5484.00 5514.81 74.05
350 0.4209 5525.00 5519.54 74.33
351 0.4212 5523.00 5525.17 74.32
352 0.4216 5456.00 5532.01 73.86
353 0.4219 5714.00 5540.46 75.59
354 0.4223 5573.00 5551.19 74.65
355 0.4226 5507.00 5565.13 74.21
356 0.4230 5633.00 5583.65 75.05
357 0.4233 5686.00 5608.63 75.41
358 0.4237 5681.00 5642.51 75.37
359 0.4240 5755.00 5688.29 75.86
360 0.4244 5788.00 5749.37 76.08
361 0.4247 5919.00 5829.21 76.93
362 0.4251 5955.00 5930.84 77.17
363 0.4254 6030.00 6056.14 77.65
364 0.4258 6120.00 6204.99 78.23
365 0.4261 6338.00 6374.26 79.61
366 0.4265 6526.00 6556.78 80.78
367 0.4268 6707.00 6740.41 81.90
368 0.4272 6973.00 6907.63 83.50
369 0.4275 7130.00 7036.96 84.44
370 0.4279 7070.00 7106.89 84.08
371 0.4282 7100.00 7102.86 84.26
372 0.4286 7100.00 7024.31 84.26
373 0.4289 7001.00 6885.98 83.67
374 0.4293 6601.00 6710.92 81.25
375 0.4296 6482.00 6522.37 80.51
376 0.4300 6341.00 6337.74 79.63
377 0.4303 6163.00 6168.48 78.50
378 0.4307 5876.00 6020.90 76.66
379 0.4310 5844.00 5897.46 76.45
380 0.4314 5729.00 5797.80 75.69
381 0.4317 5695.00 5719.75 75.47
382 0.4321 5593.00 5660.10 74.79
383 0.4324 5593.00 5615.28 74.79
384 0.4328 5553.00 5581.87 74.52
385 0.4331 5515.00 5556.91 74.26
386 0.4335 5522.00 5538.00 74.31
387 0.4338 5563.00 5523.36 74.59
388 0.4342 5476.00 5511.71 74.00
389 0.4345 5499.00 5502.15 74.16
390 0.4349 5590.00 5494.09 74.77
391 0.4352 5482.00 5487.15 74.04
392 0.4356 5389.00 5481.07 73.41
393 0.4359 5404.00 5475.66 73.51
394 0.4363 5431.00 5470.81 73.70
395 0.4366 5465.00 5466.43 73.93
396 0.4370 5401.00 5462.43 73.49
397 0.4373 5491.00 5458.78 74.10
398 0.4377 5474.00 5455.42 73.99
399 0.4380 5514.00 5452.31 74.26
400 0.4383 5436.00 5449.42 73.73
401 0.4387 5455.00 5446.73 73.86
402 0.4390 5516.00 5444.22 74.27
403 0.4394 5419.00 5441.85 73.61
404 0.4397 5438.00 5439.62 73.74
405 0.4401 5451.00 5437.52 73.83
406 0.4404 5480.00 5435.52 74.03
407 0.4408 5427.00 5433.61 73.67
408 0.4411 5426.00 5431.80 73.66
409 0.4415 5401.00 5430.06 73.49
410 0.4418 5508.00 5428.39 74.22
411 0.4422 5397.00 5426.79 73.46
412 0.4425 5362.00 5425.24 73.23
413 0.4429 5298.00 5423.75 72.79
414 0.4432 5386.00 5422.31 73.39
415 0.4436 5405.00 5420.91 73.52
416 0.4439 5386.00 5419.55 73.39
417 0.4443 5567.00 5418.23 74.61
418 0.4446 5511.00 5416.95 74.24
419 0.4450 5407.00 5415.69 73.53
420 0.4453 5407.00 5414.46 73.53
421 0.4457 5344.00 5413.26 73.10
422 0.4460 5354.00 5412.09 73.17
423 0.4464 5375.00 5410.94 73.31
424 0.4467 5442.00 5409.80 73.77
425 0.4471 5499.00 5408.69 74.16
426 0.4474 5475.00 5407.60 73.99
427 0.4478 5488.00 5406.53 74.08
428 0.4481 5369.00 5405.47 73.27
429 0.4485 5440.00 5404.42 73.76
430 0.4488 5506.00 5403.39 74.20
431 0.4492 5419.00 5402.37 73.61
432 0.4495 5322.00 5401.37 72.95
433 0.4499 5371.00 5400.37 73.29
434 0.4502 5389.00 5399.39 73.41
435 0.4506 5427.00 5398.42 73.67
436 0.4509 5427.00 5397.46 73.67
437 0.4513 5381.00 5396.50 73.36
438 0.4516 5432.00 5395.56 73.70
439 0.4520 5488.00 5394.62 74.08
440 0.4523 5482.00 5393.69 74.04
441 0.4527 5527.00 5392.77 74.34
442 0.4530 5448.00 5391.85 73.81
443 0.4534 5430.00 5390.94 73.69
444 0.4537 5380.00 5390.04 73.35
445 0.4541 5410.00 5389.14 73.55
446 0.4544 5380.00 5388.25 73.35
447 0.4548 5497.00 5387.36 74.14
448 0.4551 5299.00 5386.48 72.79
449 0.4555 5511.00 5385.61 74.24
450 0.4558 5379.00 5384.73 73.34
451 0.4562 5352.00 5383.84 73.16
452 0.4565 5341.00 5382.98 73.08
453 0.4568 5303.00 5382.12 72.82
454 0.4572 5266.00 5381.27 72.57
455 0.4575 5403.00 5380.41 73.51
456 0.4579 5352.00 5379.57 73.16
457 0.4582 5469.00 5378.72 73.95
458 0.4586 5507.00 5377.88 74.21
459 0.4589 5426.00 5377.04 73.66
460 0.4593 5422.00 5376.21 73.63
461 0.4596 5412.00 5375.38 73.57
462 0.4600 5370.00 5374.55 73.28
463 0.4603 5338.00 5373.72 73.06
464 0.4607 5282.00 5372.90 72.68
465 0.4610 5322.00 5372.07 72.95
466 0.4614 5255.00 5371.26 72.49
467 0.4617 5292.00 5370.44 72.75
468 0.4621 5431.00 5369.62 73.70
469 0.4624 5411.00 5368.81 73.56
470 0.4628 5434.00 5368.00 73.72
471 0.4631 5438.00 5367.19 73.74
472 0.4635 5344.00 5366.39 73.10
473 0.4638 5407.00 5365.59 73.53
474 0.4642 5387.00 5364.78 73.40
475 0.4645 5393.00 5363.98 73.44
476 0.4649 5426.00 5363.19 73.66
477 0.4652 5475.00 5362.39 73.99
478 0.4656 5377.00 5361.60 73.33
479 0.4659 5435.00 5360.80 73.72
480 0.4663 5413.00 5360.01 73.57
481 0.4666 5491.00 5359.22 74.10
482 0.4670 5475.00 5358.44 73.99
483 0.4673 5387.00 5357.65 73.40
484 0.4677 5306.00 5356.87 72.84
485 0.4680 5341.00 5356.08 73.08
486 0.4684 5374.00 5355.30 73.31
487 0.4687 5371.00 5354.52 73.29
488 0.4691 5313.00 5353.74 72.89
489 0.4694 5280.00 5352.97 72.66
490 0.4698 5253.00 5352.19 72.48
491 0.4701 5310.00 5351.42 72.87
492 0.4705 5345.00 5350.64 73.11
493 0.4708 5375.00 5349.87 73.31
494 0.4712 5336.00 5349.10 73.05
495 0.4715 5302.00 5348.33 72.81
496 0.4719 5347.00 5347.57 73.12
497 0.4722 5379.00 5346.80 73.34
498 0.4726 5408.00 5346.04 73.54
499 0.4729 5326.00 5345.27 72.98
500 0.4733 5463.00 5346.49 73.91
501 0.4736 5399.00 5345.75 73.48
502 0.4740 5381.00 5345.01 73.36
503 0.4743 5356.00 5344.28 73.18
504 0.4747 5325.00 5343.55 72.97
505 0.4750 5368.00 5342.82 73.27
506 0.4754 5256.00 5342.09 72.50
507 0.4757 5324.00 5341.36 72.97
508 0.4760 5382.00 5340.63 73.36
509 0.4764 5347.00 5339.91 73.12
510 0.4767 5392.00 5339.19 73.43
511 0.4771 5352.00 5338.47 73.16
512 0.4774 5303.00 5337.75 72.82
513 0.4778 5280.00 5337.03 72.66
514 0.4781 5270.00 5336.32 72.59
515 0.4785 5324.00 5335.60 72.97
516 0.4788 5407.00 5334.89 73.53
517 0.4792 5329.00 5334.18 73.00
518 0.4795 5252.00 5333.47 72.47
519 0.4799 5303.00 5340.30 72.82
520 0.4802 5351.00 5339.67 73.15
521 0.4806 5343.00 5339.04 73.10
522 0.4809 5349.00 5338.42 73.14
523 0.4813 5375.00 5337.79 73.31
524 0.4816 5333.00 5337.18 73.03
525 0.4820 5393.00 5336.56 73.44
526 0.4823 5346.00 5335.95 73.12
527 0.4827 5352.00 5335.34 73.16
528 0.4830 5358.00 5334.73 73.20
529 0.4834 5389.00 5334.13 73.41
530 0.4837 5356.00 5333.53 73.18
531 0.4841 5316.00 5332.93 72.91
532 0.4844 5278.00 5332.34 72.65
533 0.4848 5141.00 5331.75 71.70
534 0.4851 5376.00 5331.17 73.32
535 0.4855 5423.00 5330.59 73.64
536 0.4858 5334.00 5330.01 73.03
537 0.4862 5324.00 5331.03 72.97
538 0.4865 5323.00 5330.48 72.96
539 0.4869 5332.00 5329.93 73.02
540 0.4872 5345.00 5329.38 73.11
541 0.4876 5341.00 5328.84 73.08
542 0.4879 5270.00 5328.30 72.59
543 0.4883 5359.00 5327.76 73.21
544 0.4886 5319.00 5327.23 72.93
545 0.4890 5226.00 5326.71 72.29
546 0.4893 5364.00 5325.28 73.24
547 0.4897 5402.00 5324.77 73.50
548 0.4900 5380.00 5324.27 73.35
549 0.4904 5311.00 5323.78 72.88
550 0.4907 5329.00 5323.28 73.00
551 0.4911 5363.00 5322.80 73.23
552 0.4914 5294.00 5322.32 72.76
553 0.4918 5383.00 5321.84 73.37
554 0.4921 5423.00 5321.37 73.64
555 0.4925 5321.00 5320.91 72.95
556 0.4928 5406.00 5320.45 73.53
557 0.4932 5446.00 5320.00 73.80
558 0.4935 5363.00 5319.55 73.23
559 0.4939 5355.00 5319.11 73.18
560 0.4942 5296.00 5318.67 72.77
561 0.4945 5275.00 5318.24 72.63
562 0.4949 5317.00 5317.82 72.92
563 0.4952 5265.00 5317.41 72.56
564 0.4956 5295.00 5317.00 72.77
565 0.4959 5242.00 5316.60 72.40
566 0.4963 5386.00 5316.21 73.39
567 0.4966 5306.00 5315.82 72.84
568 0.4970 5453.00 5315.44 73.84
569 0.4973 5356.00 5315.07 73.18
570 0.4977 5294.00 5314.71 72.76
571 0.4980 5351.00 5314.35 73.15
572 0.4984 5246.00 5314.01 72.43
573 0.4987 5335.00 5313.67 73.04
574 0.4991 5365.00 5313.35 73.25
575 0.4994 5280.00 5313.03 72.66
576 0.4998 5373.00 5312.72 73.30
577 0.5001 5348.00 5312.42 73.13
578 0.5005 5311.00 5312.14 72.88
579 0.5008 5291.00 5311.86 72.74
580 0.5012 5360.00 5311.59 73.21
581 0.5015 5343.00 5311.34 73.10
582 0.5019 5318.00 5311.10 72.92
583 0.5022 5392.00 5310.87 73.43
584 0.5026 5420.00 5310.65 73.62
585 0.5029 5402.00 5310.45 73.50
586 0.5033 5463.00 5310.26 73.91
587 0.5036 5451.00 5310.08 73.83
588 0.5040 5503.00 5309.92 74.18
589 0.5043 5575.00 5309.77 74.67
590 0.5047 5274.00 5309.64 72.62
591 0.5050 5397.00 5309.53 73.46
592 0.5054 5484.00 5309.43 74.05
593 0.5057 5449.00 5309.35 73.82
594 0.5061 5339.00 5309.29 73.07
595 0.5064 5298.00 5309.25 72.79
596 0.5068 5312.00 5309.22 72.88
597 0.5071 5305.00 5309.22 72.84
598 0.5075 5490.00 5309.24 74.09
599 0.5078 5226.00 5309.29 72.29
600 0.5082 5263.00 5309.35 72.55
601 0.5085 5225.00 5309.44 72.28
602 0.5089 5285.00 5309.56 72.70
603 0.5092 5326.00 5310.14 72.98
604 0.5096 5211.00 5310.32 72.19
605 0.5099 5215.00 5310.53 72.21
606 0.5103 5213.00 5310.77 72.20
607 0.5106 5287.00 5311.04 72.71
608 0.5110 5257.00 5311.35 72.51
609 0.5113 5310.00 5311.69 72.87
610 0.5117 5331.00 5312.08 73.01
611 0.5120 5262.00 5312.50 72.54
612 0.5124 5309.00 5312.97 72.86
613 0.5127 5239.00 5313.48 72.38
614 0.5130 5305.00 5314.04 72.84
615 0.5134 5280.00 5314.65 72.66
616 0.5137 5350.00 5315.32 73.14
617 0.5141 5304.00 5316.04 72.83
618 0.5144 5381.00 5316.83 73.36
619 0.5148 5319.00 5317.68 72.93
620 0.5151 5350.00 5318.60 73.14
621 0.5155 5343.00 5319.60 73.10
622 0.5158 5366.00 5320.68 73.25
623 0.5162 5349.00 5321.84 73.14
624 0.5165 5294.00 5323.10 72.76
625 0.5169 5353.00 5324.46 73.16
626 0.5172 5380.00 5325.93 73.35
627 0.5176 5293.00 5327.51 72.75
628 0.5179 5273.00 5329.22 72.62
629 0.5183 5341.00 5331.06 73.08
630 0.5186 5198.00 5333.06 72.10
631 0.5190 5374.00 5335.22 73.31
632 0.5193 5386.00 5337.56 73.39
633 0.5197 5390.00 5340.09 73.42
634 0.5200 5329.00 5342.84 73.00
635 0.5204 5281.00 5345.83 72.67
636 0.5207 5354.00 5349.08 73.17
637 0.5211 5378.00 5352.62 73.33
638 0.5214 5387.00 5356.49 73.40
639 0.5218 5305.00 5360.72 72.84
640 0.5221 5309.00 5365.36 72.86
641 0.5225 5244.00 5370.46 72.42
642 0.5228 5306.00 5376.08 72.84
643 0.5232 5329.00 5382.29 73.00
644 0.5235 5367.00 5389.18 73.26
645 0.5239 5334.00 5396.84 73.03
646 0.5242 5388.00 5405.41 73.40
647 0.5246 5354.00 5415.03 73.17
648 0.5249 5375.00 5425.90 73.31
649 0.5253 5493.00 5438.30 74.11
650 0.5256 5517.00 5452.61 74.28
651 0.5260 5470.00 5469.38 73.96
652 0.5263 5546.00 5489.49 74.47
653 0.5267 5518.00 5514.24 74.28
654 0.5270 5538.00 5545.66 74.42
655 0.5274 5645.00 5586.73 75.13
656 0.5277 5773.00 5641.72 75.98
657 0.5281 5816.00 5716.36 76.26
658 0.5284 6007.00 5817.94 77.50
659 0.5288 6120.00 5955.00 78.23
660 0.5291 6304.00 6136.43 79.40
661 0.5295 6415.00 6370.37 80.09
662 0.5298 6736.00 6662.04 82.07
663 0.5302 7011.00 7011.79 83.73
664 0.5305 7216.00 7412.48 84.95
665 0.5309 7692.00 7846.44 87.70
666 0.5312 8235.00 8283.10 90.75
667 0.5315 8688.00 8677.36 93.21
668 0.5319 9046.00 8972.96 95.11
669 0.5322 9068.00 9115.55 95.23
670 0.5326 9050.00 9073.62 95.13
671 0.5329 8614.00 8855.94 92.81
672 0.5333 8564.00 8507.93 92.54
673 0.5336 8260.00 8089.49 90.88
674 0.5340 7624.00 7654.23 87.32
675 0.5343 7219.00 7240.39 84.96
676 0.5347 6889.00 6871.35 83.00
677 0.5350 6753.00 6558.90 82.18
678 0.5354 6323.00 6305.81 79.52
679 0.5357 6261.00 6108.91 79.13
680 0.5361 6083.00 5961.10 77.99
681 0.5364 5878.00 5853.59 76.67
682 0.5368 5742.00 5777.52 75.78
683 0.5371 5667.00 5724.91 75.28
684 0.5375 5691.00 5689.29 75.44
685 0.5378 5666.00 5665.77 75.27
686 0.5382 5651.00 5650.86 75.17
687 0.5385 5560.00 5642.23 74.57
688 0.5389 5582.00 5638.38 74.71
689 0.5392 5598.00 5638.39 74.82
690 0.5396 5561.00 5641.71 74.57
691 0.5399 5617.00 5648.04 74.95
692 0.5403 5480.00 5657.25 74.03
693 0.5406 5506.00 5669.30 74.20
694 0.5410 5572.00 5684.25 74.65
695 0.5413 5585.00 5702.25 74.73
696 0.5417 5545.00 5723.51 74.46
697 0.5420 5521.00 5748.33 74.30
698 0.5424 5653.00 5777.15 75.19
699 0.5427 5649.00 5810.56 75.16
700 0.5431 5661.00 5849.39 75.24
701 0.5434 5704.00 5894.83 75.52
702 0.5438 5793.00 5948.58 76.11
703 0.5441 6019.00 6013.13 77.58
704 0.5445 5980.00 6092.00 77.33
705 0.5448 6081.00 6190.26 77.98
706 0.5452 6153.00 6314.79 78.44
707 0.5455 6346.00 6475.04 79.66
708 0.5459 6632.00 6683.01 81.44
709 0.5462 7038.00 6953.67 83.89
710 0.5466 7308.00 7304.67 85.49
711 0.5469 7705.00 7755.24 87.78
712 0.5473 8352.00 8325.24 91.39
713 0.5476 9251.00 9032.32 96.18
714 0.5480 10030.00 9889.71 100.15
715 0.5483 10914.00 10902.60 104.47
716 0.5487 12059.00 12064.80 109.81
717 0.5490 13101.00 13353.70 114.46
718 0.5494 14756.00 14727.90 121.47
719 0.5497 16017.00 16120.20 126.56
720 0.5501 17209.00 17436.60 131.18
721 0.5504 18464.00 18556.40 135.88
722 0.5507 19666.00 19347.80 140.24
723 0.5511 20035.00 19697.30 141.54
724 0.5514 19594.00 19547.90 139.98
725 0.5518 18883.00 18922.90 137.41
726 0.5521 17996.00 17917.90 134.15
727 0.5525 16692.00 16665.20 129.20
728 0.5528 15343.00 15294.70 123.87
729 0.5532 13955.00 13913.70 118.13
730 0.5535 12437.00 12599.30 111.52
731 0.5539 11375.00 11402.70 106.65
732 0.5542 10265.00 10353.10 101.32
733 0.5546 9368.00 9463.42 96.79
734 0.5549 8707.00 8733.98 93.31
735 0.5553 8258.00 8155.99 90.87
736 0.5556 7916.00 7715.70 88.97
737 0.5560 7560.00 7396.66 86.95
738 0.5563 7281.00 7182.67 85.33
739 0.5567 7002.00 7058.86 83.68
740 0.5570 7002.00 7012.71 83.68
741 0.5574 7081.00 7033.91 84.15
742 0.5577 7110.00 7113.92 84.32
743 0.5581 7405.00 7245.06 86.05
744 0.5584 7509.00 7419.36 86.65
745 0.5588 7526.00 7627.61 86.75
746 0.5591 7858.00 7857.93 88.65
747 0.5595 8270.00 8094.86 90.94
748 0.5598 8425.00 8318.73 91.79
749 0.5602 8782.00 8505.66 93.71
750 0.5605 8703.00 8630.62 93.29
751 0.5609 8731.00 8672.46 93.44
752 0.5612 8730.00 8620.45 93.43
753 0.5616 8430.00 8478.22 91.82
754 0.5619 8055.00 8262.35 89.75
755 0.5623 7887.00 7996.67 88.81
756 0.5626 7713.00 7705.41 87.82
757 0.5630 7382.00 7409.21 85.92
758 0.5633 7146.00 7123.66 84.53
759 0.5637 6827.00 6859.74 82.63
760 0.5640 6768.00 6624.34 82.27
761 0.5644 6360.00 6421.50 79.75
762 0.5647 6206.00 6252.80 78.78
763 0.5651 5947.00 6118.36 77.12
764 0.5654 5845.00 6017.21 76.45
765 0.5658 5852.00 5947.80 76.50
766 0.5661 5781.00 5908.42 76.03
767 0.5665 5762.00 5897.08 75.91
768 0.5668 5934.00 5911.46 77.03
769 0.5672 5891.00 5948.58 76.75
770 0.5675 5830.00 6004.26 76.35
771 0.5679 6024.00 6072.64 77.61
772 0.5682 6104.00 6145.39 78.13
773 0.5686 6187.00 6211.54 78.66
774 0.5689 6143.00 6257.99 78.38
775 0.5692 6343.00 6272.43 79.64
776 0.5696 6297.00 6247.87 79.35
777 0.5699 6286.00 6186.10 79.28
778 0.5703 6144.00 6096.84 78.38
779 0.5706 5896.00 5992.81 76.79
780 0.5710 5784.00 5885.50 76.05
781 0.5713 5650.00 5783.16 75.17
782 0.5717 5556.00 5690.91 74.54
783 0.5720 5566.00 5611.39 74.61
784 0.5724 5444.00 5545.28 73.78
785 0.5727 5427.00 5491.98 73.67
786 0.5731 5311.00 5449.97 72.88
787 0.5734 5401.00 5417.35 73.49
788 0.5738 5361.00 5392.12 73.22
789 0.5741 5317.00 5372.49 72.92
790 0.5745 5305.00 5356.95 72.84
791 0.5748 5241.00 5344.35 72.39
792 0.5752 5303.00 5333.83 72.82
793 0.5755 5291.00 5324.81 72.74
794 0.5759 5226.00 5316.89 72.29
795 0.5762 5304.00 5309.81 72.83
796 0.5766 5216.00 5303.38 72.22
797 0.5769 5232.00 5297.50 72.33
798 0.5773 5259.00 5292.08 72.52
799 0.5776 5370.00 5287.04 73.28
800 0.5780 5287.00 5282.36 72.71
801 0.5783 5274.00 5277.98 72.62
802 0.5787 5297.00 5273.87 72.78
803 0.5790 5253.00 5270.00 72.48
804 0.5794 5342.00 5266.36 73.09
805 0.5797 5262.00 5262.95 72.54
806 0.5801 5249.00 5259.69 72.45
807 0.5804 5342.00 5256.60 73.09
808 0.5808 5282.00 5253.66 72.68
809 0.5811 5262.00 5250.86 72.54
810 0.5815 5278.00 5248.19 72.65
811 0.5818 5201.00 5245.63 72.12
812 0.5822 5185.00 5243.19 72.01
813 0.5825 5192.00 5240.85 72.06
814 0.5829 5291.00 5238.61 72.74
815 0.5832 5330.00 5236.46 73.01
816 0.5836 5273.00 5234.39 72.62
817 0.5839 5306.00 5232.39 72.84
818 0.5843 5242.00 5230.47 72.40
819 0.5846 5228.00 5228.62 72.30
820 0.5850 5195.00 5226.84 72.08
821 0.5853 5326.00 5225.11 72.98
822 0.5857 5249.00 5223.45 72.45
823 0.5860 5278.00 5221.83 72.65
824 0.5864 5299.00 5220.27 72.79
825 0.5867 5203.00 5218.76 72.13
826 0.5871 5265.00 5217.29 72.56
827 0.5874 5275.00 5215.87 72.63
828 0.5877 5207.00 5214.49 72.16
829 0.5881 5240.00 5213.15 72.39
830 0.5884 5132.00 5211.85 71.64
831 0.5888 5116.00 5210.58 71.53
832 0.5891 5306.00 5209.35 72.84
833 0.5895 5312.00 5208.15 72.88
834 0.5898 5266.00 5206.99 72.57
835 0.5902 5233.00 5205.85 72.34
836 0.5905 5253.00 5204.74 72.48
837 0.5909 5287.00 5203.66 72.71
838 0.5912 5161.00 5202.61 71.84
839 0.5916 5243.00 5199.61 72.41
840 0.5919 5163.00 5198.63 71.85
841 0.5923 5296.00 5197.68 72.77
842 0.5926 5307.00 5196.74 72.85
843 0.5930 5192.00 5195.83 72.06
844 0.5933 5212.00 5195.15 72.19
845 0.5937 5206.00 5194.28 72.15
846 0.5940 5218.00 5193.44 72.24
847 0.5944 5282.00 5192.61 72.68
848 0.5947 5181.00 5191.81 71.98
849 0.5951 5265.00 5191.11 72.56
850 0.5954 5148.00 5190.34 71.75
851 0.5958 5180.00 5189.59 71.97
852 0.5961 5186.00 5188.86 72.01
853 0.5965 5218.00 5188.15 72.24
854 0.5968 5196.00 5187.46 72.08
855 0.5972 5144.00 5186.78 71.72
856 0.5975 5161.00 5186.12 71.84
857 0.5979 5145.00 5185.49 71.73
858 0.5982 5277.00 5184.87 72.64
859 0.5986 5302.00 5184.28 72.81
860 0.5989 5101.00 5183.71 71.42
861 0.5993 5228.00 5183.16 72.30
862 0.5996 5206.00 5182.65 72.15
863 0.6000 5162.00 5182.18 71.85
864 0.6003 5110.00 5181.76 71.48
865 0.6007 5211.00 5181.41 72.19
866 0.6010 5251.00 5181.18 72.46
867 0.6014 5119.00 5181.08 71.55
868 0.6017 5200.00 5181.18 72.11
869 0.6021 5156.00 5181.55 71.81
870 0.6024 5178.00 5182.29 71.96
871 0.6028 5251.00 5183.47 72.46
872 0.6031 5224.00 5185.15 72.28
873 0.6035 5225.00 5187.37 72.28
874 0.6038 5305.00 5190.06 72.84
875 0.6042 5287.00 5193.11 72.71
876 0.6045 5336.00 5196.25 73.05
877 0.6049 5168.00 5199.09 71.89
878 0.6052 5094.00 5201.12 71.37
879 0.6056 5191.00 5201.84 72.05
880 0.6059 5151.00 5200.95 71.77
881 0.6062 5124.00 5198.55 71.58
882 0.6066 5222.00 5195.07 72.26
883 0.6069 5267.00 5191.04 72.57
884 0.6073 5158.00 5186.94 71.82
885 0.6076 5105.00 5183.08 71.45
886 0.6080 5152.00 5179.66 71.78
887 0.6083 5221.00 5176.76 72.26
888 0.6087 5226.00 5174.39 72.29
889 0.6090 5219.00 5172.49 72.24
890 0.6094 5202.00 5170.99 72.12
891 0.6097 5144.00 5169.80 71.72
892 0.6101 5219.00 5168.85 72.24
893 0.6104 5172.00 5168.07 71.92
894 0.6108 5201.00 5167.40 72.12
895 0.6111 5241.00 5166.81 72.39
896 0.6115 5146.00 5166.28 71.74
897 0.6118 5212.00 5165.78 72.19
898 0.6122 5189.00 5165.32 72.03
899 0.6125 5152.00 5164.88 71.78
900 0.6129 5160.00 5164.47 71.83
901 0.6132 5145.00 5164.07 71.73
902 0.6136 5174.00 5163.68 71.93
903 0.6139 5108.00 5163.32 71.47
904 0.6143 5144.00 5162.96 71.72
905 0.6146 5142.00 5162.63 71.71
906 0.6150 5125.00 5162.30 71.59
907 0.6153 5145.00 5161.99 71.73
908 0.6157 5084.00 5161.70 71.30
909 0.6160 5104.00 5161.42 71.44
910 0.6164 5134.00 5161.16 71.65
911 0.6167 5220.00 5160.91 72.25
912 0.6171 5146.00 5160.69 71.74
913 0.6174 5141.00 5160.49 71.70
914 0.6178 5109.00 5160.32 71.48
915 0.6181 5071.00 5160.18 71.21
916 0.6185 5231.00 5160.09 72.33
917 0.6188 5332.00 5160.06 73.02
918 0.6192 5149.00 5160.12 71.76
919 0.6195 5202.00 5160.29 72.12
920 0.6199 5096.00 5160.60 71.39
921 0.6202 5200.00 5161.11 72.11
922 0.6206 5223.00 5161.86 72.27
923 0.6209 5151.00 5162.90 71.77
924 0.6213 5191.00 5164.31 72.05
925 0.6216 5140.00 5166.12 71.69
926 0.6220 5245.00 5168.36 72.42
927 0.6223 5260.00 5171.05 72.53
928 0.6227 5169.00 5166.62 71.90
929 0.6230 5184.00 5170.12 72.00
930 0.6234 5120.00 5173.81 71.55
931 0.6237 5227.00 5177.48 72.30
932 0.6241 5206.00 5180.82 72.15
933 0.6244 5179.00 5183.47 71.97
934 0.6248 5189.00 5185.06 72.03
935 0.6251 5284.00 5185.32 72.69
936 0.6254 5244.00 5184.17 72.42
937 0.6258 5257.00 5181.78 72.51
938 0.6261 5231.00 5178.48 72.33
939 0.6265 5203.00 5174.64 72.13
940 0.6268 5354.00 5170.62 73.17
941 0.6272 5233.00 5166.68 72.34
942 0.6275 5194.00 5163.00 72.07
943 0.6279 5166.00 5159.70 71.87
944 0.6282 5166.00 5156.83 71.87
945 0.6286 5175.00 5154.41 71.94
946 0.6289 5174.00 5152.42 71.93
947 0.6293 5167.00 5150.83 71.88
948 0.6296 5155.00 5149.13 71.80
949 0.6300 5257.00 5148.17 72.51
950 0.6303 5123.00 5147.43 71.58
951 0.6307 5122.00 5146.88 71.57
952 0.6310 5114.00 5146.48 71.51
953 0.6314 5256.00 5146.19 72.50
954 0.6317 5211.00 5145.99 72.19
955 0.6321 5102.00 5145.88 71.43
956 0.6324 5144.00 5145.85 71.72
957 0.6328 5172.00 5145.89 71.92
958 0.6331 5167.00 5146.04 71.88
959 0.6335 5080.00 5146.31 71.27
960 0.6338 5183.00 5146.75 71.99
961 0.6342 5196.00 5147.44 72.08
962 0.6345 5247.00 5148.46 72.44
963 0.6349 5160.00 5149.95 71.83
964 0.6352 5133.00 5152.08 71.64
965 0.6356 5085.00 5155.01 71.31
966 0.6359 5058.00 5157.33 71.12
967 0.6363 5133.00 5162.39 71.64
968 0.6366 5209.00 5168.63 72.17
969 0.6370 5197.00 5175.98 72.09
970 0.6373 5132.00 5184.21 71.64
971 0.6377 5188.00 5192.83 72.03
972 0.6380 5226.00 5201.08 72.29
973 0.6384 5344.00 5207.95 73.10
974 0.6387 5303.00 5212.29 72.82
975 0.6391 5185.00 5213.17 72.01
976 0.6394 5128.00 5210.37 71.61
977 0.6398 5242.00 5204.50 72.40
978 0.6401 5102.00 5196.65 71.43
979 0.6405 5135.00 5187.97 71.66
980 0.6408 5117.00 5179.38 71.53
981 0.6412 5106.00 5171.46 71.46
982 0.6415 5079.00 5164.58 71.27
983 0.6419 5122.00 5158.88 71.57
984 0.6422 5211.00 5154.35 72.19
985 0.6426 5166.00 5150.89 71.87
986 0.6429 5151.00 5148.33 71.77
987 0.6433 5217.00 5146.50 72.23
988 0.6436 5109.00 5145.22 71.48
989 0.6439 5176.00 5144.35 71.94
990 0.6443 5112.00 5143.77 71.50
991 0.6446 5104.00 5143.40 71.44
992 0.6450 5111.00 5143.18 71.49
993 0.6453 5119.00 5143.09 71.55
994 0.6457 5112.00 5143.08 71.50
995 0.6460 5112.00 5143.16 71.50
996 0.6464 5066.00 5143.31 71.18
997 0.6467 5123.00 5143.54 71.58
998 0.6471 5124.00 5143.84 71.58
999 0.6474 5152.00 5144.22 71.78
1000 0.6478 5170.00 5144.68 71.90
1001 0.6481 5175.00 5145.23 71.94
1002 0.6485 5127.00 5145.88 71.60
1003 0.6488 5149.00 5146.64 71.76
1004 0.6492 5097.00 5147.52 71.39
1005 0.6495 5079.00 5148.54 71.27
1006 0.6499 5176.00 5149.73 71.94
1007 0.6502 5180.00 5151.43 71.97
1008 0.6506 5191.00 5153.08 72.05
1009 0.6509 5127.00 5155.06 71.60
1010 0.6513 5186.00 5157.49 72.01
1011 0.6516 5230.00 5160.52 72.32
1012 0.6520 5172.00 5164.39 71.92
1013 0.6523 5155.00 5169.46 71.80
1014 0.6527 5197.00 5176.19 72.09
1015 0.6530 5227.00 5185.20 72.30
1016 0.6534 5214.00 5197.24 72.21
1017 0.6537 5125.00 5213.21 71.59
1018 0.6541 5152.00 5234.04 71.78
1019 0.6544 5395.00 5260.64 73.45
1020 0.6548 5402.00 5293.73 73.50
1021 0.6551 5367.00 5333.67 73.26
1022 0.6555 5388.00 5380.25 73.40
1023 0.6558 5584.00 5432.47 74.73
1024 0.6562 5505.00 5488.26 74.20
1025 0.6565 5518.00 5544.23 74.28
1026 0.6569 5610.00 5595.66 74.90
1027 0.6572 5618.00 5636.97 74.95
1028 0.6576 5709.00 5663.04 75.56
1029 0.6579 5603.00 5670.88 74.85
1030 0.6583 5610.00 5660.37 74.90
1031 0.6586 5548.00 5633.69 74.48
1032 0.6590 5550.00 5594.17 74.50
1033 0.6593 5588.00 5545.64 74.75
1034 0.6597 5387.00 5492.26 73.40
1035 0.6600 5383.00 5438.08 73.37
1036 0.6604 5388.00 5386.50 73.40
1037 0.6607 5360.00 5339.80 73.21
1038 0.6611 5262.00 5299.25 72.54
1039 0.6614 5348.00 5265.23 73.13
1040 0.6618 5308.00 5237.51 72.86
1041 0.6621 5307.00 5215.61 72.85
1042 0.6624 5299.00 5198.48 72.79
1043 0.6628 5141.00 5185.36 71.70
1044 0.6631 5155.00 5175.40 71.80
1045 0.6635 5168.00 5167.86 71.89
1046 0.6638 5066.00 5162.13 71.18
1047 0.6642 5091.00 5157.70 71.35
1048 0.6645 5212.00 5154.24 72.19
1049 0.6649 5211.00 5151.46 72.19
1050 0.6652 5201.00 5149.20 72.12
1051 0.6656 5152.00 5147.33 71.78
1052 0.6659 5098.00 5145.77 71.40
1053 0.6663 5130.00 5144.48 71.62
1054 0.6666 5195.00 5143.40 72.08
1055 0.6670 5082.00 5142.51 71.29
1056 0.6673 5063.00 5141.79 71.15
1057 0.6677 5107.00 5141.21 71.46
1058 0.6680 5116.00 5140.75 71.53
1059 0.6684 5176.00 5140.38 71.94
1060 0.6687 5128.00 5140.04 71.61
1061 0.6691 5083.00 5139.69 71.30
1062 0.6694 5078.00 5139.28 71.26
1063 0.6698 5115.00 5138.76 71.52
1064 0.6701 5135.00 5138.13 71.66
1065 0.6705 5091.00 5137.40 71.35
1066 0.6708 5068.00 5136.59 71.19
1067 0.6712 5138.00 5135.74 71.68
1068 0.6715 5234.00 5134.91 72.35
1069 0.6719 5121.00 5134.10 71.56
1070 0.6722 5125.00 5133.35 71.59
1071 0.6726 5129.00 5132.66 71.62
1072 0.6729 5073.00 5132.04 71.22
1073 0.6733 5095.00 5131.49 71.38
1074 0.6736 5058.00 5131.01 71.12
1075 0.6740 5075.00 5130.58 71.24
1076 0.6743 5054.00 5130.21 71.09
1077 0.6747 5006.00 5129.87 70.75
1078 0.6750 5101.00 5129.58 71.42
1079 0.6754 5072.00 5129.31 71.22
1080 0.6757 5071.00 5129.07 71.21
1081 0.6761 5164.00 5128.85 71.86
1082 0.6764 5093.00 5128.65 71.37
1083 0.6768 5154.00 5128.46 71.79
1084 0.6771 5124.00 5128.29 71.58
1085 0.6775 5107.00 5128.12 71.46
1086 0.6778 5004.00 5127.97 70.74
1087 0.6782 5105.00 5127.83 71.45
1088 0.6785 5138.00 5127.70 71.68
1089 0.6789 5156.00 5127.58 71.81
1090 0.6792 5123.00 5127.47 71.58
1091 0.6796 5158.00 5127.36 71.82
1092 0.6799 5197.00 5127.27 72.09
1093 0.6803 5156.00 5127.19 71.81
1094 0.6806 5175.00 5127.11 71.94
1095 0.6809 5156.00 5127.05 71.81
1096 0.6813 5149.00 5127.00 71.76
1097 0.6816 5099.00 5126.96 71.41
1098 0.6820 5171.00 5126.93 71.91
1099 0.6823 5120.00 5126.91 71.55
1100 0.6827 5176.00 5126.91 71.94
1101 0.6830 5149.00 5126.92 71.76
1102 0.6834 5176.00 5126.96 71.94
1103 0.6837 5153.00 5127.02 71.78
1104 0.6841 5083.00 5127.10 71.30
1105 0.6844 5193.00 5127.23 72.06
1106 0.6848 5124.00 5127.39 71.58
1107 0.6851 5062.00 5127.61 71.15
1108 0.6855 5113.00 5127.90 71.51
1109 0.6858 5107.00 5128.26 71.46
1110 0.6862 5100.00 5128.72 71.41
1111 0.6865 5167.00 5129.30 71.88
1112 0.6869 5053.00 5130.02 71.08
1113 0.6872 5048.00 5130.91 71.05
1114 0.6876 5117.00 5131.98 71.53
1115 0.6879 5088.00 5133.28 71.33
1116 0.6883 5037.00 5134.80 70.97
1117 0.6886 5097.00 5136.59 71.39
1118 0.6890 5154.00 5138.64 71.79
1119 0.6893 5034.00 5140.97 70.95
1120 0.6897 5077.00 5143.57 71.25
1121 0.6900 5145.00 5146.42 71.73
1122 0.6904 5161.00 5149.49 71.84
1123 0.6907 5075.00 5152.72 71.24
1124 0.6911 5048.00 5156.06 71.05
1125 0.6914 5110.00 5159.40 71.48
1126 0.6918 5175.00 5162.63 71.94
1127 0.6921 5085.00 5165.59 71.31
1128 0.6925 5150.00 5168.15 71.76
1129 0.6928 5180.00 5170.11 71.97
1130 0.6932 5117.00 5171.34 71.53
1131 0.6935 5112.00 5171.73 71.50
1132 0.6939 5208.00 5171.26 72.17
1133 0.6942 5195.00 5169.95 72.08
1134 0.6946 5139.00 5167.91 71.69
1135 0.6949 5118.00 5165.31 71.54
1136 0.6953 5112.00 5162.30 71.50
1137 0.6956 5047.00 5159.02 71.04
1138 0.6960 5077.00 5155.67 71.25
1139 0.6963 5014.00 5152.33 70.81
1140 0.6967 5176.00 5149.10 71.94
1141 0.6970 5094.00 5146.05 71.37
1142 0.6974 5141.00 5143.22 71.70
1143 0.6977 5189.00 5140.66 72.03
1144 0.6981 5177.00 5138.37 71.95
1145 0.6984 5113.00 5136.33 71.51
1146 0.6988 5123.00 5134.60 71.58
1147 0.6991 5144.00 5133.13 71.72
1148 0.6995 5085.00 5131.92 71.31
1149 0.6998 5145.00 5130.92 71.73
1150 0.7001 5105.00 5130.12 71.45
1151 0.7005 5175.00 5129.50 71.94
1152 0.7008 5115.00 5129.04 71.52
1153 0.7012 5149.00 5128.70 71.76
1154 0.7015 5170.00 5128.48 71.90
1155 0.7019 5254.00 5128.36 72.48
1156 0.7022 5176.00 5128.33 71.94
1157 0.7026 5029.00 5128.37 70.92
1158 0.7029 5070.00 5128.49 71.20
1159 0.7033 5033.00 5128.67 70.94
1160 0.7036 5159.00 5128.91 71.83
1161 0.7040 5178.00 5129.21 71.96
1162 0.7043 5134.00 5129.58 71.65
1163 0.7047 5117.00 5130.01 71.53
1164 0.7050 5254.00 5130.52 72.48
1165 0.7054 5134.00 5131.10 71.65
1166 0.7057 5061.00 5131.76 71.14
1167 0.7061 5116.00 5132.52 71.53
1168 0.7064 5165.00 5133.38 71.87
1169 0.7068 5236.00 5134.37 72.36
1170 0.7071 5142.00 5135.49 71.71
1171 0.7075 5148.00 5136.77 71.75
1172 0.7078 5181.00 5138.25 71.98
1173 0.7082 5163.00 5139.97 71.85
1174 0.7085 5128.00 5142.00 71.61
1175 0.7089 5174.00 5144.43 71.93
1176 0.7092 5107.00 5147.42 71.46
1177 0.7096 5140.00 5151.17 71.69
1178 0.7099 5235.00 5156.02 72.35
1179 0.7103 5183.00 5162.41 71.99
1180 0.7106 5280.00 5170.95 72.66
1181 0.7110 5154.00 5182.45 71.79
1182 0.7113 5228.00 5197.85 72.30
1183 0.7117 5209.00 5218.26 72.17
1184 0.7120 5274.00 5244.78 72.62
1185 0.7124 5242.00 5278.43 72.40
1186 0.7127 5282.00 5319.87 72.68
1187 0.7131 5445.00 5369.28 73.79
1188 0.7134 5399.00 5426.00 73.48
1189 0.7138 5411.00 5488.36 73.56
1190 0.7141 5421.00 5553.37 73.63
1191 0.7145 5516.00 5616.50 74.27
1192 0.7148 5540.00 5671.55 74.43
1193 0.7152 5531.00 5711.30 74.37
1194 0.7155 5539.00 5729.21 74.42
1195 0.7159 5586.00 5721.85 74.74
1196 0.7162 5583.00 5690.60 74.72
1197 0.7166 5610.00 5640.98 74.90
1198 0.7169 5515.00 5580.24 74.26
1199 0.7173 5495.00 5515.22 74.13
1200 0.7176 5412.00 5451.17 73.57
1201 0.7180 5399.00 5391.74 73.48
1202 0.7183 5382.00 5339.09 73.36
1203 0.7186 5354.00 5294.26 73.17
1204 0.7190 5319.00 5257.39 72.93
1205 0.7193 5418.00 5228.00 73.61
1206 0.7197 5296.00 5205.19 72.77
1207 0.7200 5425.00 5187.86 73.65
1208 0.7204 5261.00 5174.90 72.53
1209 0.7207 5266.00 5165.29 72.57
1210 0.7211 5224.00 5158.16 72.28
1211 0.7214 5172.00 5152.82 71.92
1212 0.7218 5197.00 5148.76 72.09
1213 0.7221 5262.00 5145.42 72.54
1214 0.7225 5093.00 5142.94 71.37
1215 0.7228 5109.00 5140.87 71.48
1216 0.7232 5192.00 5139.28 72.06
1217 0.7235 5206.00 5138.01 72.15
1218 0.7239 5182.00 5137.02 71.99
1219 0.7242 5094.00 5136.30 71.37
1220 0.7246 5113.00 5138.70 71.51
1221 0.7249 5147.00 5138.59 71.74
1222 0.7253 5198.00 5138.84 72.10
1223 0.7256 5091.00 5139.54 71.35
1224 0.7260 5125.00 5141.01 71.59
1225 0.7263 5112.00 5143.00 71.50
1226 0.7267 5218.00 5145.93 72.24
1227 0.7270 5054.00 5150.04 71.09
1228 0.7274 5058.00 5155.57 71.12
1229 0.7277 5123.00 5162.79 71.58
1230 0.7281 5106.00 5171.89 71.46
1231 0.7284 5140.00 5183.01 71.69
1232 0.7288 5228.00 5196.13 72.30
1233 0.7291 5154.00 5211.04 71.79
1234 0.7295 5124.00 5227.31 71.58
1235 0.7298 5193.00 5244.20 72.06
1236 0.7302 5300.00 5260.61 72.80
1237 0.7305 5257.00 5275.08 72.51
1238 0.7309 5259.00 5285.88 72.52
1239 0.7312 5344.00 5291.42 73.10
1240 0.7316 5256.00 5290.70 72.50
1241 0.7319 5312.00 5283.81 72.88
1242 0.7323 5290.00 5271.83 72.73
1243 0.7326 5258.00 5256.44 72.51
1244 0.7330 5202.00 5239.34 72.12
1245 0.7333 5222.00 5221.94 72.26
1246 0.7337 5280.00 5205.28 72.66
1247 0.7340 5223.00 5190.07 72.27
1248 0.7344 5213.00 5176.67 72.20
1249 0.7347 5151.00 5165.27 71.77
1250 0.7351 5177.00 5155.85 71.95
1251 0.7354 5195.00 5148.26 72.08
1252 0.7358 5140.00 5142.28 71.69
1253 0.7361 5114.00 5137.65 71.51
1254 0.7365 5071.00 5134.11 71.21
1255 0.7368 5035.00 5131.43 70.96
1256 0.7371 5167.00 5129.38 71.88
1257 0.7375 5088.00 5127.82 71.33
1258 0.7378 5084.00 5126.60 71.30
1259 0.7382 5078.00 5125.65 71.26
1260 0.7385 5077.00 5124.89 71.25
1261 0.7389 5149.00 5124.29 71.76
1262 0.7392 5147.00 5123.82 71.74
1263 0.7396 5169.00 5123.46 71.90
1264 0.7399 5108.00 5123.20 71.47
1265 0.7403 5197.00 5123.06 72.09
1266 0.7406 5164.00 5123.03 71.86
1267 0.7410 5082.00 5123.12 71.29
1268 0.7413 5094.00 5123.34 71.37
1269 0.7417 5184.00 5123.72 72.00
1270 0.7420 5223.00 5124.27 72.27
1271 0.7424 5238.00 5125.00 72.37
1272 0.7427 5198.00 5125.93 72.10
1273 0.7431 5140.00 5127.08 71.69
1274 0.7434 5224.00 5128.46 72.28
1275 0.7438 5145.00 5130.07 71.73
1276 0.7441 5191.00 5131.92 72.05
1277 0.7445 5216.00 5133.98 72.22
1278 0.7448 5235.00 5136.25 72.35
1279 0.7452 5090.00 5138.67 71.34
1280 0.7455 5131.00 5141.20 71.63
1281 0.7459 5199.00 5143.76 72.10
1282 0.7462 5071.00 5146.68 71.21
1283 0.7466 5054.00 5149.03 71.09
1284 0.7469 5133.00 5151.09 71.64
1285 0.7473 5165.00 5152.72 71.87
1286 0.7476 5212.00 5153.79 72.19
1287 0.7480 5210.00 5154.20 72.18
1288 0.7483 5202.00 5153.92 72.12
1289 0.7487 5246.00 5152.95 72.43
1290 0.7490 5219.00 5151.38 72.24
1291 0.7494 5105.00 5149.31 71.45
1292 0.7497 5174.00 5146.89 71.93
1293 0.7501 5152.00 5144.24 71.78
1294 0.7504 5147.00 5141.49 71.74
1295 0.7508 5152.00 5138.73 71.78
1296 0.7511 5256.00 5136.05 72.50
1297 0.7515 5227.00 5133.50 72.30
1298 0.7518 5172.00 5131.13 71.92
1299 0.7522 5126.00 5128.96 71.60
1300 0.7525 5150.00 5127.01 71.76
1301 0.7529 5062.00 5125.29 71.15
1302 0.7532 5119.00 5123.78 71.55
1303 0.7536 5169.00 5122.49 71.90
1304 0.7539 5097.00 5121.39 71.39
1305 0.7543 5184.00 5120.47 72.00
1306 0.7546 5131.00 5119.70 71.63
1307 0.7550 5136.00 5119.07 71.67
1308 0.7553 5128.00 5118.56 71.61
1309 0.7556 5205.00 5118.14 72.15
1310 0.7560 5103.00 5117.81 71.44
1311 0.7563 5057.00 5117.54 71.11
1312 0.7567 5076.00 5117.33 71.25
1313 0.7570 5116.00 5117.17 71.53
1314 0.7574 5123.00 5117.04 71.58
1315 0.7577 5206.00 5116.94 72.15
1316 0.7581 5152.00 5116.87 71.78
1317 0.7584 5199.00 5116.82 72.10
1318 0.7588 5082.00 5116.79 71.29
1319 0.7591 5036.00 5116.78 70.96
1320 0.7595 5034.00 5116.78 70.95
1321 0.7598 5090.00 5116.80 71.34
1322 0.7602 5141.00 5116.83 71.70
1323 0.7605 5116.00 5116.87 71.53
1324 0.7609 5079.00 5116.93 71.27
1325 0.7612 5093.00 5117.00 71.37
1326 0.7616 5194.00 5117.08 72.07
1327 0.7619 5128.00 5117.17 71.61
1328 0.7623 5127.00 5117.28 71.60
1329 0.7626 5122.00 5117.40 71.57
1330 0.7630 5121.00 5117.53 71.56
1331 0.7633 5158.00 5117.67 71.82
1332 0.7637 5143.00 5117.82 71.71
1333 0.7640 5109.00 5117.99 71.48
1334 0.7644 5181.00 5118.17 71.98
1335 0.7647 5090.00 5118.37 71.34
1336 0.7651 5167.00 5118.58 71.88
1337 0.7654 5136.00 5118.81 71.67
1338 0.7658 5062.00 5119.05 71.15
1339 0.7661 5107.00 5119.31 71.46
1340 0.7665 5171.00 5119.58 71.91
1341 0.7668 5116.00 5119.87 71.53
1342 0.7672 5140.00 5120.18 71.69
1343 0.7675 5144.00 5120.51 71.72
1344 0.7679 5118.00 5120.86 71.54
1345 0.7682 5074.00 5121.23 71.23
1346 0.7686 5162.00 5121.63 71.85
1347 0.7689 5211.00 5122.04 72.19
1348 0.7693 5089.00 5122.49 71.34
1349 0.7696 5140.00 5122.95 71.69
1350 0.7700 5092.00 5123.45 71.36
1351 0.7703 5084.00 5123.97 71.30
1352 0.7707 5124.00 5124.53 71.58
1353 0.7710 5116.00 5125.12 71.53
1354 0.7714 5230.00 5125.74 72.32
1355 0.7717 5163.00 5126.41 71.85
1356 0.7721 5116.00 5127.11 71.53
1357 0.7724 5011.00 5127.85 70.79
1358 0.7728 5148.00 5128.64 71.75
1359 0.7731 5089.00 5129.48 71.34
1360 0.7735 5199.00 5130.37 72.10
1361 0.7738 5122.00 5131.32 71.57
1362 0.7742 5098.00 5132.33 71.40
1363 0.7745 5115.00 5133.40 71.52
1364 0.7748 5148.00 5134.55 71.75
1365 0.7752 5197.00 5135.77 72.09
1366 0.7755 5093.00 5137.07 71.37
1367 0.7759 5146.00 5138.46 71.74
1368 0.7762 5097.00 5139.95 71.39
1369 0.7766 5143.00 5141.54 71.71
1370 0.7769 5045.00 5143.25 71.03
1371 0.7773 5132.00 5145.09 71.64
1372 0.7776 5170.00 5147.06 71.90
1373 0.7780 5108.00 5149.18 71.47
1374 0.7783 5196.00 5151.48 72.08
1375 0.7787 5141.00 5153.95 71.70
1376 0.7790 5089.00 5156.63 71.34
1377 0.7794 5093.00 5159.53 71.37
1378 0.7797 5185.00 5162.69 72.01
1379 0.7801 5199.00 5166.13 72.10
1380 0.7804 5144.00 5169.88 71.72
1381 0.7808 5122.00 5173.98 71.57
1382 0.7811 5209.00 5178.18 72.17
1383 0.7815 5133.00 5183.14 71.64
1384 0.7818 5181.00 5188.60 71.98
1385 0.7822 5130.00 5194.66 71.62
1386 0.7825 5102.00 5201.40 71.43
1387 0.7829 5210.00 5208.95 72.18
1388 0.7832 5284.00 5217.46 72.69
1389 0.7836 5187.00 5227.16 72.02
1390 0.7839 5229.00 5238.37 72.31
1391 0.7843 5169.00 5251.57 71.90
1392 0.7846 5172.00 5267.47 71.92
1393 0.7850 5327.00 5287.13 72.99
1394 0.7853 5371.00 5312.09 73.29
1395 0.7857 5291.00 5344.52 72.74
1396 0.7860 5347.00 5387.40 73.12
1397 0.7864 5543.00 5444.57 74.45
1398 0.7867 5624.00 5520.79 74.99
1399 0.7871 5556.00 5621.54 74.54
1400 0.7874 5758.00 5752.53 75.88
1401 0.7878 5816.00 5919.21 76.26
1402 0.7881 6042.00 6125.63 77.73
1403 0.7885 6240.00 6373.64 78.99
1404 0.7888 6646.00 6661.38 81.52
1405 0.7892 6907.00 6982.50 83.11
1406 0.7895 7217.00 7324.42 84.95
1407 0.7899 7702.00 7667.79 87.76
1408 0.7902 8054.00 7984.84 89.74
1409 0.7906 8276.00 8241.11 90.97
1410 0.7909 8622.00 8400.51 92.85
1411 0.7913 8468.00 8436.30 92.02
1412 0.7916 8327.00 8342.20 91.25
1413 0.7920 8127.00 8135.52 90.15
1414 0.7923 7782.00 7849.49 88.22
1415 0.7927 7406.00 7520.62 86.06
1416 0.7930 7120.00 7180.60 84.38
1417 0.7933 6790.00 6853.28 82.40
1418 0.7937 6431.00 6554.52 80.19
1419 0.7940 6234.00 6293.92 78.96
1420 0.7944 6083.00 6075.53 77.99
1421 0.7947 5952.00 5899.51 77.15
1422 0.7951 5991.00 5762.97 77.40
1423 0.7954 5895.00 5661.32 76.78
1424 0.7958 5799.00 5589.18 76.15
1425 0.7961 5635.00 5541.23 75.07
1426 0.7965 5704.00 5512.66 75.52
1427 0.7968 5643.00 5499.52 75.12
1428 0.7972 5695.00 5498.74 75.47
1429 0.7975 5642.00 5508.10 75.11
1430 0.7979 5613.00 5526.05 74.92
1431 0.7982 5682.00 5551.53 75.38
1432 0.7986 5704.00 5583.85 75.52
1433 0.7989 5668.00 5622.47 75.29
1434 0.7993 5745.00 5666.93 75.80
1435 0.7996 5779.00 5716.76 76.02
1436 0.8000 5751.00 5771.35 75.84
1437 0.8003 5944.00 5830.30 77.10
1438 0.8007 6011.00 5892.07 77.53
1439 0.8010 5916.00 5956.02 76.92
1440 0.8014 6127.00 6020.69 78.28
1441 0.8017 6137.00 6084.48 78.34
1442 0.8021 6077.00 6145.46 77.96
1443 0.8024 6152.00 6201.51 78.43
1444 0.8028 6212.00 6250.31 78.82
1445 0.8031 6331.00 6289.55 79.57
1446 0.8035 6150.00 6317.10 78.42
1447 0.8038 6314.00 6331.33 79.46
1448 0.8042 6255.00 6331.31 79.09
1449 0.8045 6239.00 6316.99 78.99
1450 0.8049 6254.00 6289.19 79.08
1451 0.8052 6115.00 6249.47 78.20
1452 0.8056 6112.00 6199.93 78.18
1453 0.8059 6126.00 6142.91 78.27
1454 0.8063 6080.00 6080.90 77.97
1455 0.8066 5934.00 6015.87 77.03
1456 0.8070 5999.00 5949.99 77.45
1457 0.8073 5920.00 5885.01 76.94
1458 0.8077 5731.00 5822.43 75.70
1459 0.8080 5815.00 5763.58 76.26
1460 0.8084 5677.00 5709.53 75.35
1461 0.8087 5744.00 5661.20 75.79
1462 0.8091 5569.00 5619.31 74.63
1463 0.8094 5654.00 5584.44 75.19
1464 0.8098 5558.00 5557.00 74.55
1465 0.8101 5494.00 5537.20 74.12
1466 0.8105 5425.00 5525.12 73.65
1467 0.8108 5494.00 5520.65 74.12
1468 0.8112 5449.00 5523.48 73.82
1469 0.8115 5495.00 5533.14 74.13
1470 0.8118 5595.00 5549.00 74.80
1471 0.8122 5646.00 5570.23 75.14
1472 0.8125 5625.00 5595.82 75.00
1473 0.8129 5605.00 5624.62 74.87
1474 0.8132 5742.00 5655.31 75.78
1475 0.8136 5765.00 5686.60 75.93
1476 0.8139 5816.00 5717.41 76.26
1477 0.8143 5832.00 5747.22 76.37
1478 0.8146 6006.00 5776.34 77.50
1479 0.8150 5932.00 5805.91 77.02
1480 0.8153 5950.00 5837.54 77.14
1481 0.8157 5915.00 5872.81 76.91
1482 0.8160 5970.00 5912.55 77.27
1483 0.8164 6031.00 5956.38 77.66
1484 0.8167 5931.00 6002.32 77.01
1485 0.8171 5991.00 6046.55 77.40
1486 0.8174 6061.00 6083.42 77.85
1487 0.8178 6031.00 6106.02 77.66
1488 0.8181 6101.00 6107.64 78.11
1489 0.8185 6141.00 6084.01 78.36
1490 0.8188 5999.00 6035.02 77.45
1491 0.8192 6006.00 5964.89 77.50
1492 0.8195 5817.00 5880.40 76.27
1493 0.8199 5806.00 5788.82 76.20
1494 0.8202 5730.00 5696.34 75.70
1495 0.8206 5697.00 5607.68 75.48
1496 0.8209 5546.00 5526.02 74.47
1497 0.8213 5466.00 5453.30 73.93
1498 0.8216 5436.00 5390.39 73.73
1499 0.8220 5329.00 5337.39 73.00
1500 0.8223 5338.00 5293.74 73.06
1501 0.8227 5292.00 5258.51 72.75
1502 0.8230 5404.00 5230.50 73.51
1503 0.8234 5327.00 5208.48 72.99
1504 0.8237 5215.00 5191.24 72.21
1505 0.8241 5268.00 5177.72 72.58
1506 0.8244 5227.00 5167.02 72.30
1507 0.8248 5236.00 5158.43 72.36
1508 0.8251 5275.00 5151.38 72.63
1509 0.8255 5177.00 5145.48 71.95
1510 0.8258 5217.00 5140.43 72.23
1511 0.8262 5156.00 5136.02 71.81
1512 0.8265 5133.00 5132.11 71.64
1513 0.8269 5134.00 5128.60 71.65
1514 0.8272 5076.00 5125.41 71.25
1515 0.8276 5096.00 5122.49 71.39
1516 0.8279 5140.00 5120.35 71.69
1517 0.8283 5146.00 5117.87 71.74
1518 0.8286 5152.00 5115.57 71.78
1519 0.8290 5154.00 5113.42 71.79
1520 0.8293 5017.00 5111.42 70.83
1521 0.8297 5098.00 5109.54 71.40
1522 0.8300 5090.00 5107.78 71.34
1523 0.8304 5107.00 5106.13 71.46
1524 0.8307 5052.00 5104.56 71.08
1525 0.8310 5042.00 5103.08 71.01
1526 0.8314 5126.00 5101.69 71.60
1527 0.8317 5145.00 5100.36 71.73
1528 0.8321 5080.00 5099.10 71.27
1529 0.8324 5256.00 5097.89 72.50
1530 0.8328 5031.00 5096.75 70.93
1531 0.8331 5034.00 5095.65 70.95
1532 0.8335 5077.00 5094.60 71.25
1533 0.8338 5014.00 5093.60 70.81
1534 0.8342 5060.00 5092.63 71.13
1535 0.8345 5051.00 5091.71 71.07
1536 0.8349 4985.00 5090.82 70.60
1537 0.8352 5070.00 5089.96 71.20
1538 0.8356 5026.00 5089.13 70.89
1539 0.8359 5053.00 5088.34 71.08
1540 0.8363 5022.00 5087.56 70.87
1541 0.8366 5071.00 5086.82 71.21
1542 0.8370 5095.00 5086.10 71.38
1543 0.8373 5105.00 5085.40 71.45
1544 0.8377 5114.00 5084.72 71.51
1545 0.8380 5103.00 5084.06 71.44
1546 0.8384 5091.00 5083.42 71.35
1547 0.8387 5116.00 5082.80 71.53
1548 0.8391 5097.00 5082.20 71.39
1549 0.8394 5134.00 5081.61 71.65
1550 0.8398 5103.00 5081.04 71.44
1551 0.8401 5097.00 5080.48 71.39
1552 0.8405 4955.00 5079.94 70.39
1553 0.8408 5042.00 5079.40 71.01
1554 0.8412 5060.00 5078.89 71.13
1555 0.8415 5021.00 5078.38 70.86
1556 0.8419 5058.00 5077.89 71.12
1557 0.8422 5127.00 5077.40 71.60
1558 0.8426 5127.00 5076.93 71.60
1559 0.8429 5144.00 5076.47 71.72
1560 0.8433 5046.00 5076.02 71.04
1561 0.8436 4950.00 5075.58 70.36
1562 0.8440 4981.00 5075.15 70.58
1563 0.8443 5041.00 5074.72 71.00
1564 0.8447 5059.00 5074.31 71.13
1565 0.8450 5084.00 5073.90 71.30
1566 0.8454 5075.00 5073.50 71.24
1567 0.8457 5119.00 5073.11 71.55
1568 0.8461 5164.00 5072.73 71.86
1569 0.8464 5135.00 5072.36 71.66
1570 0.8468 5036.00 5071.99 70.96
1571 0.8471 5026.00 5071.61 70.89
1572 0.8475 5092.00 5071.26 71.36
1573 0.8478 5097.00 5070.92 71.39
1574 0.8482 5095.00 5070.58 71.38
1575 0.8485 5197.00 5070.25 72.09
1576 0.8489 5086.00 5069.93 71.32
1577 0.8492 5113.00 5069.61 71.51
1578 0.8495 5061.00 5069.30 71.14
1579 0.8499 5006.00 5069.00 70.75
1580 0.8502 5137.00 5068.71 71.67
1581 0.8506 5133.00 5068.43 71.64
1582 0.8509 5026.00 5068.15 70.89
1583 0.8513 5016.00 5067.88 70.82
1584 0.8516 5009.00 5067.61 70.77
1585 0.8520 5033.00 5067.36 70.94
1586 0.8523 5135.00 5067.11 71.66
1587 0.8527 5098.00 5066.87 71.40
1588 0.8530 5083.00 5066.64 71.30
1589 0.8534 5075.00 5066.42 71.24
1590 0.8537 5103.00 5066.21 71.44
1591 0.8541 5066.00 5066.08 71.18
1592 0.8544 5074.00 5065.89 71.23
1593 0.8548 5075.00 5065.71 71.24
1594 0.8551 5116.00 5065.54 71.53
1595 0.8555 5082.00 5065.38 71.29
1596 0.8558 5020.00 5065.24 70.85
1597 0.8562 4950.00 5065.10 70.36
1598 0.8565 5023.00 5064.99 70.87
1599 0.8569 5104.00 5064.89 71.44
1600 0.8572 5129.00 5064.80 71.62
1601 0.8576 5039.00 5064.73 70.99
1602 0.8579 5024.00 5063.12 70.88
1603 0.8583 5030.00 5063.11 70.92
1604 0.8586 5033.00 5063.12 70.94
1605 0.8590 4996.00 5063.16 70.68
1606 0.8593 4999.00 5063.22 70.70
1607 0.8597 5057.00 5063.31 71.11
1608 0.8600 5098.00 5063.44 71.40
1609 0.8604 5069.00 5063.61 71.20
1610 0.8607 4985.00 5063.82 70.60
1611 0.8611 5006.00 5064.09 70.75
1612 0.8614 5154.00 5064.44 71.79
1613 0.8618 5109.00 5064.86 71.48
1614 0.8621 5087.00 5065.41 71.32
1615 0.8625 5010.00 5066.10 70.78
1616 0.8628 5011.00 5066.98 70.79
1617 0.8632 5050.00 5068.11 71.06
1618 0.8635 5007.00 5069.55 70.76
1619 0.8639 4979.00 5071.36 70.56
1620 0.8642 5115.00 5073.61 71.52
1621 0.8646 5186.00 5076.38 72.01
1622 0.8649 5127.00 5079.69 71.60
1623 0.8653 5010.00 5083.58 70.78
1624 0.8656 5024.00 5088.02 70.88
1625 0.8660 5059.00 5092.97 71.13
1626 0.8663 5139.00 5098.32 71.69
1627 0.8667 5134.00 5103.92 71.65
1628 0.8670 5126.00 5109.59 71.60
1629 0.8674 5182.00 5115.15 71.99
1630 0.8677 5113.00 5120.51 71.51
1631 0.8680 5080.00 5125.81 71.27
1632 0.8684 5172.00 5131.51 71.92
1633 0.8687 5076.00 5138.37 71.25
1634 0.8691 5032.00 5147.31 70.94
1635 0.8694 5113.00 5159.30 71.51
1636 0.8698 5130.00 5175.22 71.62
1637 0.8701 5197.00 5195.76 72.09
1638 0.8705 5290.00 5221.33 72.73
1639 0.8708 5146.00 5251.98 71.74
1640 0.8712 5248.00 5287.33 72.44
1641 0.8715 5314.00 5326.42 72.90
1642 0.8719 5405.00 5367.71 73.52
1643 0.8722 5455.00 5408.88 73.86
1644 0.8726 5539.00 5446.88 74.42
1645 0.8729 5528.00 5478.01 74.35
1646 0.8733 5570.00 5498.46 74.63
1647 0.8736 5421.00 5505.27 73.63
1648 0.8740 5429.00 5497.33 73.68
1649 0.8743 5412.00 5475.88 73.57
1650 0.8747 5361.00 5443.93 73.22
1651 0.8750 5347.00 5405.30 73.12
1652 0.8754 5326.00 5363.59 72.98
1653 0.8757 5264.00 5321.77 72.55
1654 0.8761 5239.00 5282.04 72.38
1655 0.8764 5180.00 5245.90 71.97
1656 0.8768 5188.00 5214.24 72.03
1657 0.8771 5237.00 5187.47 72.37
1658 0.8775 5168.00 5165.60 71.89
1659 0.8778 5124.00 5148.33 71.58
1660 0.8782 5098.00 5135.19 71.40
1661 0.8785 5101.00 5125.59 71.42
1662 0.8789 5122.00 5118.91 71.57
1663 0.8792 5110.00 5114.54 71.48
1664 0.8796 5102.00 5111.94 71.43
1665 0.8799 5100.00 5110.64 71.41
1666 0.8803 4994.00 5110.24 70.67
1667 0.8806 5132.00 5110.41 71.64
1668 0.8810 5089.00 5110.89 71.34
1669 0.8813 5021.00 5111.44 70.86
1670 0.8817 4994.00 5111.89 70.67
1671 0.8820 5090.00 5112.07 71.34
1672 0.8824 5052.00 5111.89 71.08
1673 0.8827 5103.00 5111.28 71.44
1674 0.8831 5112.00 5110.21 71.50
1675 0.8834 5039.00 5108.72 70.99
1676 0.8838 5053.00 5106.87 71.08
1677 0.8841 5091.00 5104.72 71.35
1678 0.8845 5129.00 5102.39 71.62
1679 0.8848 5005.00 5099.96 70.75
1680 0.8852 5044.00 5097.53 71.02
1681 0.8855 5088.00 5095.19 71.33
1682 0.8859 4993.00 5093.01 70.66
1683 0.8862 5012.00 5091.07 70.80
1684 0.8865 5115.00 5089.44 71.52
1685 0.8869 5030.00 5088.19 70.92
1686 0.8872 5042.00 5087.36 71.01
1687 0.8876 5067.00 5087.04 71.18
1688 0.8879 5100.00 5087.29 71.41
1689 0.8883 5067.00 5088.19 71.18
1690 0.8886 5013.00 5089.82 70.80
1691 0.8890 5043.00 5092.28 71.01
1692 0.8893 4983.00 5095.66 70.59
1693 0.8897 5014.00 5100.09 70.81
1694 0.8900 5062.00 5105.70 71.15
1695 0.8904 4985.00 5112.19 70.60
1696 0.8907 4991.00 5120.56 70.65
1697 0.8911 5158.00 5130.52 71.82
1698 0.8914 5145.00 5142.26 71.73
1699 0.8918 5093.00 5155.99 71.37
1700 0.8921 5236.00 5171.96 72.36
1701 0.8925 5136.00 5190.46 71.67
1702 0.8928 5166.00 5211.91 71.87
1703 0.8932 5291.00 5236.80 72.74
1704 0.8935 5182.00 5265.80 71.99
1705 0.8939 5421.00 5299.69 73.63
1706 0.8942 5404.00 5339.38 73.51
1707 0.8946 5376.00 5385.86 73.32
1708 0.8949 5489.00 5440.05 74.09
1709 0.8953 5581.00 5502.73 74.71
1710 0.8956 5684.00 5574.33 75.39
1711 0.8960 5604.00 5654.89 74.86
1712 0.8963 5773.00 5743.73 75.98
1713 0.8967 5969.00 5839.38 77.26
1714 0.8970 6035.00 5939.12 77.69
1715 0.8974 6030.00 6038.78 77.65
1716 0.8977 6136.00 6132.19 78.33
1717 0.8981 6311.00 6211.12 79.44
1718 0.8984 6440.00 6266.06 80.25
1719 0.8988 6312.00 6288.09 79.45
1720 0.8991 6380.00 6271.92 79.87
1721 0.8995 6220.00 6218.25 78.87
1722 0.8998 5982.00 6133.61 77.34
1723 0.9002 5915.00 6027.92 76.91
1724 0.9005 5809.00 5911.50 76.22
1725 0.9009 5742.00 5793.25 75.78
1726 0.9012 5591.00 5679.85 74.77
1727 0.9016 5509.00 5576.00 74.22
1728 0.9019 5468.00 5484.48 73.95
1729 0.9023 5390.00 5406.61 73.42
1730 0.9026 5368.00 5342.41 73.27
1731 0.9030 5349.00 5290.84 73.14
1732 0.9033 5277.00 5250.74 72.64
1733 0.9037 5245.00 5220.00 72.42
1734 0.9040 5202.00 5196.61 72.12
1735 0.9044 5249.00 5178.61 72.45
1736 0.9047 5253.00 5164.30 72.48
1737 0.9051 5176.00 5152.30 71.94
1738 0.9054 5290.00 5144.65 72.73
1739 0.9057 5166.00 5134.80 71.87
1740 0.9061 5118.00 5125.44 71.54
1741 0.9064 5125.00 5116.48 71.59
1742 0.9068 5129.00 5107.94 71.62
1743 0.9071 5035.00 5099.88 70.96
1744 0.9075 5146.00 5092.38 71.74
1745 0.9078 5084.00 5085.50 71.30
1746 0.9082 5058.00 5079.28 71.12
1747 0.9085 5067.00 5073.74 71.18
1748 0.9089 5091.00 5068.87 71.35
1749 0.9092 5109.00 5064.64 71.48
1750 0.9096 5146.00 5061.01 71.74
1751 0.9099 4989.00 5057.92 70.63
1752 0.9103 5038.00 5055.30 70.98
1753 0.9106 5031.00 5053.06 70.93
1754 0.9110 5056.00 5051.12 71.11
1755 0.9113 5183.00 5049.39 71.99
1756 0.9117 5046.00 5047.79 71.04
1757 0.9120 5057.00 5046.24 71.11
1758 0.9124 5034.00 5044.69 70.95
1759 0.9127 4982.00 5043.11 70.58
1760 0.9131 4972.00 5041.48 70.51
1761 0.9134 5074.00 5039.81 71.23
1762 0.9138 5053.00 5038.10 71.08
1763 0.9141 5130.00 5036.40 71.62
1764 0.9145 4977.00 5034.71 70.55
1765 0.9148 4990.00 5033.06 70.64
1766 0.9152 5002.00 5031.46 70.72
1767 0.9155 4963.00 5029.93 70.45
1768 0.9159 5007.00 5028.48 70.76
1769 0.9162 5099.00 5027.11 71.41
1770 0.9166 5018.00 5025.83 70.84
1771 0.9169 5021.00 5024.63 70.86
1772 0.9173 4980.00 5023.53 70.57
1773 0.9176 4978.00 5022.51 70.55
1774 0.9180 5070.00 5021.56 71.20
1775 0.9183 5032.00 5020.69 70.94
1776 0.9187 5000.00 5019.89 70.71
1777 0.9190 5072.00 5019.15 71.22
1778 0.9194 4961.00 5018.46 70.43
1779 0.9197 4894.00 5017.82 69.96
1780 0.9201 5027.00 5017.22 70.90
1781 0.9204 5032.00 5016.66 70.94
1782 0.9208 5071.00 5016.14 71.21
1783 0.9211 5010.00 5015.64 70.78
1784 0.9215 4961.00 5015.17 70.43
1785 0.9218 4952.00 5014.73 70.37
1786 0.9222 4969.00 5014.31 70.49
1787 0.9225 4994.00 5013.92 70.67
1788 0.9229 4998.00 5013.54 70.70
1789 0.9232 5047.00 5013.19 71.04
1790 0.9236 4978.00 5012.85 70.55
1791 0.9239 4952.00 5012.54 70.37
1792 0.9242 5000.00 5012.25 70.71
1793 0.9246 4974.00 5011.41 70.53
1794 0.9249 4992.00 5011.16 70.65
1795 0.9253 5036.00 5010.94 70.96
1796 0.9256 5069.00 5010.74 71.20
1797 0.9260 5066.00 5010.56 71.18
1798 0.9263 4975.00 5010.42 70.53
1799 0.9267 5074.00 5010.30 71.23
1800 0.9270 4982.00 5010.22 70.58
1801 0.9274 5005.00 5010.19 70.75
1802 0.9277 5012.00 5010.20 70.80
1803 0.9281 4972.00 5010.26 70.51
1804 0.9284 5016.00 5010.40 70.82
1805 0.9288 5073.00 5010.63 71.22
1806 0.9291 4997.00 5010.98 70.69
1807 0.9295 5093.00 5011.48 71.37
1808 0.9298 5059.00 5012.18 71.13
1809 0.9302 5015.00 5013.15 70.82
1810 0.9305 4984.00 5014.46 70.60
1811 0.9309 5018.00 5016.21 70.84
1812 0.9312 5039.00 5018.52 70.99
1813 0.9316 5023.00 5021.51 70.87
1814 0.9319 5022.00 5025.33 70.87
1815 0.9323 4980.00 5030.11 70.57
1816 0.9326 5123.00 5035.98 71.58
1817 0.9330 5042.00 5043.03 71.01
1818 0.9333 5026.00 5051.32 70.89
1819 0.9337 4999.00 5060.85 70.70
1820 0.9340 5102.00 5071.51 71.43
1821 0.9344 5013.00 5083.13 70.80
1822 0.9347 5047.00 5095.40 71.04
1823 0.9351 5110.00 5107.87 71.48
1824 0.9354 5038.00 5119.95 70.98
1825 0.9358 5083.00 5130.87 71.30
1826 0.9361 5111.00 5139.76 71.49
1827 0.9365 5131.00 5145.73 71.63
1828 0.9368 5032.00 5148.12 70.94
1829 0.9372 5107.00 5146.57 71.46
1830 0.9375 5098.00 5141.25 71.40
1831 0.9379 5121.00 5132.75 71.56
1832 0.9382 5094.00 5121.92 71.37
1833 0.9386 5177.00 5109.64 71.95
1834 0.9389 5014.00 5096.72 70.81
1835 0.9393 5124.00 5083.82 71.58
1836 0.9396 5109.00 5071.42 71.48
1837 0.9400 5085.00 5059.90 71.31
1838 0.9403 5018.00 5049.46 70.84
1839 0.9407 5013.00 5040.23 70.80
1840 0.9410 5023.00 5032.25 70.87
1841 0.9414 5192.00 5025.49 72.06
1842 0.9417 5053.00 5019.84 71.08
1843 0.9421 5194.00 5015.21 72.07
1844 0.9424 5041.00 5011.44 71.00
1845 0.9427 5048.00 5008.41 71.05
1846 0.9431 5042.00 5005.98 71.01
1847 0.9434 5019.00 5004.03 70.84
1848 0.9438 4997.00 5002.45 70.69
1849 0.9441 4929.00 5001.17 70.21
1850 0.9445 5038.00 5000.11 70.98
1851 0.9448 5025.00 4999.21 70.89
1852 0.9452 4922.00 4998.45 70.16
1853 0.9455 4961.00 4997.78 70.43
1854 0.9459 4953.00 4997.20 70.38
1855 0.9462 5017.00 4996.68 70.83
1856 0.9466 5089.00 4996.20 71.34
1857 0.9469 5042.00 4995.57 71.01
1858 0.9473 5068.00 4995.18 71.19
1859 0.9476 4984.00 4994.83 70.60
1860 0.9480 4976.00 4994.52 70.54
1861 0.9483 5024.00 4994.22 70.88
1862 0.9487 5001.00 4993.95 70.72
1863 0.9490 5008.00 4993.71 70.77
1864 0.9494 4933.00 4993.49 70.24
1865 0.9497 4960.00 4993.29 70.43
1866 0.9501 5041.00 4993.11 71.00
1867 0.9504 5054.00 4992.95 71.09
1868 0.9508 5020.00 4992.82 70.85
1869 0.9511 5027.00 4992.70 70.90
1870 0.9515 4985.00 4992.60 70.60
1871 0.9518 5015.00 4992.53 70.82
1872 0.9522 5152.00 4992.48 71.78
1873 0.9525 5020.00 4992.44 70.85
1874 0.9529 4993.00 4992.43 70.66
1875 0.9532 5010.00 4992.44 70.78
1876 0.9536 4983.00 4992.48 70.59
1877 0.9539 4962.00 4992.54 70.44
1878 0.9543 4920.00 4992.62 70.14
1879 0.9546 5000.00 4992.73 70.71
1880 0.9550 4978.00 4992.86 70.55
1881 0.9553 5000.00 4993.02 70.71
1882 0.9557 4980.00 4993.22 70.57
1883 0.9560 5026.00 4993.45 70.89
1884 0.9564 5002.00 4993.71 70.72
1885 0.9567 5120.00 4994.01 71.55
1886 0.9571 4998.00 4994.34 70.70
1887 0.9574 5081.00 4994.72 71.28
1888 0.9578 5066.00 4995.15 71.18
1889 0.9581 4988.00 4995.63 70.63
1890 0.9585 4942.00 4996.15 70.30
1891 0.9588 5032.00 4996.74 70.94
1892 0.9592 5025.00 4997.40 70.89
1893 0.9595 4998.00 4998.12 70.70
1894 0.9599 5022.00 4998.92 70.87
1895 0.9602 4953.00 4999.81 70.38
1896 0.9606 4983.00 5000.79 70.59
1897 0.9609 4999.00 5001.88 70.70
1898 0.9612 4994.00 5003.08 70.67
1899 0.9616 4912.00 5004.42 70.09
1900 0.9619 4853.00 5005.90 69.66
1901 0.9623 5152.00 5007.55 71.78
1902 0.9626 5071.00 5009.39 71.21
1903 0.9630 5012.00 5011.45 70.80
1904 0.9633 5055.00 5013.75 71.10
1905 0.9637 4945.00 5016.36 70.32
1906 0.9640 5005.00 5019.32 70.75
1907 0.9644 4973.00 5022.74 70.52
1908 0.9647 4995.00 5026.73 70.68
1909 0.9651 4993.00 5031.51 70.66
1910 0.9654 5166.00 5037.39 71.87
1911 0.9658 5092.00 5044.84 71.36
1912 0.9661 5040.00 5054.60 70.99
1913 0.9665 5012.00 5067.68 70.80
1914 0.9668 5007.00 5085.55 70.76
1915 0.9672 5098.00 5110.12 71.40
1916 0.9675 5121.00 5143.79 71.56
1917 0.9679 5119.00 5189.36 71.55
1918 0.9682 5219.00 5249.86 72.24
1919 0.9686 5252.00 5328.16 72.47
1920 0.9689 5351.00 5426.52 73.15
1921 0.9693 5414.00 5546.05 73.58
1922 0.9696 5613.00 5685.94 74.92
1923 0.9700 5835.00 5842.65 76.39
1924 0.9703 5979.00 6011.17 77.32
1925 0.9707 6059.00 6181.87 77.84
1926 0.9710 6378.00 6342.12 79.86
1927 0.9714 6543.00 6476.46 80.89
1928 0.9717 6746.00 6568.22 82.13
1929 0.9721 6665.00 6603.72 81.64
1930 0.9724 6626.00 6577.06 81.40
1931 0.9728 6493.00 6492.84 80.58
1932 0.9731 6383.00 6364.05 79.89
1933 0.9735 6209.00 6207.21 78.80
1934 0.9738 6096.00 6038.20 78.08
1935 0.9742 5745.00 5869.95 75.80
1936 0.9745 5571.00 5712.12 74.64
1937 0.9749 5516.00 5571.02 74.27
1938 0.9752 5384.00 5450.16 73.38
1939 0.9756 5367.00 5350.54 73.26
1940 0.9759 5335.00 5271.25 73.04
1941 0.9763 5391.00 5210.20 73.42
1942 0.9766 5202.00 5164.54 72.12
1943 0.9770 5157.00 5131.29 71.81
1944 0.9773 5266.00 5107.62 72.57
1945 0.9777 5128.00 5091.10 71.61
1946 0.9780 5217.00 5079.78 72.23
1947 0.9784 5162.00 5072.22 71.85
1948 0.9787 5148.00 5067.39 71.75
1949 0.9791 5131.00 5064.60 71.63
1950 0.9794 5107.00 5063.45 71.46
1951 0.9798 5073.00 5063.70 71.22
1952 0.9801 5082.00 5065.27 71.29
1953 0.9804 5083.00 5068.17 71.30
1954 0.9808 5007.00 5072.49 70.76
1955 0.9811 5047.00 5078.35 71.04
1956 0.9815 5071.00 5085.92 71.21
1957 0.9818 4974.00 5095.42 70.53
1958 0.9822 5061.00 5107.06 71.14
1959 0.9825 4961.00 5121.09 70.43
1960 0.9829 5117.00 5137.73 71.53
1961 0.9832 5087.00 5157.23 71.32
1962 0.9836 5125.00 5179.77 71.59
1963 0.9839 5197.00 5205.51 72.09
1964 0.9843 5197.00 5234.56 72.09
1965 0.9846 5190.00 5266.96 72.04
1966 0.9850 5330.00 5302.62 73.01
1967 0.9853 5349.00 5341.36 73.14
1968 0.9857 5461.00 5382.90 73.90
1969 0.9860 5499.00 5426.77 74.16
1970 0.9864 5581.00 5472.38 74.71
1971 0.9867 5476.00 5518.91 74.00
1972 0.9871 5596.00 5565.38 74.81
1973 0.9874 5763.00 5610.60 75.91
1974 0.9878 5775.00 5653.12 75.99
1975 0.9881 5765.00 5691.37 75.93
1976 0.9885 5858.00 5723.69 76.54
1977 0.9888 5861.00 5748.46 76.56
1978 0.9892 5834.00 5764.30 76.38
1979 0.9895 5775.00 5770.30 75.99
1980 0.9899 5812.00 5766.15 76.24
1981 0.9902 5793.00 5752.19 76.11
1982 0.9906 5660.00 5729.41 75.23
1983 0.9909 5645.00 5699.17 75.13
1984 0.9913 5807.00 5663.14 76.20
1985 0.9916 5696.00 5622.98 75.47
1986 0.9920 5457.00 5580.31 73.87
1987 0.9923 5521.00 5536.50 74.30
1988 0.9927 5506.00 5492.79 74.20
1989 0.9930 5520.00 5450.20 74.30
1990 0.9934 5282.00 5409.53 72.68
1991 0.9937 5293.00 5371.41 72.75
1992 0.9941 5322.00 5336.29 72.95
1993 0.9944 5297.00 5304.54 72.78
1994 0.9948 5254.00 5276.24 72.48
1995 0.9951 5172.00 5251.75 71.92
1996 0.9955 5109.00 5230.99 71.48
1997 0.9958 5115.00 5213.94 71.52
1998 0.9962 5018.00 5200.55 70.84
1999 0.9965 5040.00 5190.75 70.99
2000 0.9969 5120.00 5184.45 71.55
2001 0.9972 5166.00 5181.63 71.87
2002 0.9976 5184.00 5182.25 72.00
2003 0.9979 5076.00 5186.39 71.25
2004 0.9983 5295.00 5194.15 72.77
2005 0.9986 5309.00 5205.73 72.86
2006 0.9989 5301.00 5221.43 72.81
2007 0.9993 5175.00 5241.63 71.94
2008 0.9996 5328.00 5266.81 72.99
2009 1.0000 5355.00 5297.55 73.18
2010 1.0003 5360.00 5334.53 73.21
2011 1.0007 5369.00 5378.46 73.27
2012 1.0010 5413.00 5430.13 73.57
2013 1.0014 5485.00 5490.34 74.06
2014 1.0017 5545.00 5559.88 74.46
2015 1.0021 5647.00 5639.46 75.15
2016 1.0024 5730.00 5729.69 75.70
2017 1.0028 5805.00 5831.03 76.19
2018 1.0031 5923.00 5943.55 76.96
2019 1.0035 6096.00 6067.22 78.08
2020 1.0038 6073.00 6201.50 77.93
2021 1.0042 6103.00 6345.50 78.12
2022 1.0045 6490.00 6497.58 80.56
2023 1.0049 6648.00 6655.91 81.54
2024 1.0052 6832.00 6817.63 82.66
2025 1.0056 7014.00 6979.40 83.75
2026 1.0059 7164.00 7137.11 84.64
2027 1.0063 7150.00 7285.96 84.56
2028 1.0066 7322.00 7420.38 85.57
2029 1.0070 7490.00 7534.59 86.54
2030 1.0073 7390.00 7622.81 85.97
2031 1.0077 7695.00 7679.92 87.72
2032 1.0080 7849.00 7702.20 88.59
2033 1.0084 7670.00 7687.98 87.58
2034 1.0087 7682.00 7637.97 87.65
2035 1.0091 7461.00 7555.29 86.38
2036 1.0094 7407.00 7444.97 86.06
2037 1.0098 7266.00 7312.57 85.24
2038 1.0101 7049.00 7164.48 83.96
2039 1.0105 6967.00 7006.74 83.47
2040 1.0108 6784.00 6844.45 82.36
2041 1.0112 6709.00 6682.29 81.91
2042 1.0115 6592.00 6523.88 81.19
2043 1.0119 6404.00 6372.12 80.03
2044 1.0122 6260.00 6229.15 79.12
2045 1.0126 6161.00 6096.61 78.49
2046 1.0129 6023.00 5975.42 77.61
2047 1.0133 5827.00 5866.07 76.33
2048 1.0136 5822.00 5768.56 76.30
2049 1.0140 5700.00 5682.55 75.50
2050 1.0143 5714.00 5607.37 75.59
2051 1.0147 5705.00 5542.09 75.53
2052 1.0150 5712.00 5485.67 75.58
2053 1.0154 5664.00 5436.92 75.26
2054 1.0157 5543.00 5394.64 74.45
2055 1.0161 5471.00 5357.69 73.97
2056 1.0164 5547.00 5325.06 74.48
2057 1.0168 5461.00 5295.85 73.90
2058 1.0171 5283.00 5269.40 72.68
2059 1.0174 5419.00 5245.19 73.61
2060 1.0178 5394.00 5222.84 73.44
2061 1.0181 5327.00 5202.11 72.99
2062 1.0185 5354.00 5182.82 73.17
2063 1.0188 5270.00 5164.86 72.59
2064 1.0192 5272.00 5148.13 72.61
2065 1.0195 5293.00 5132.56 72.75
2066 1.0199 5305.00 5118.00 72.84
2067 1.0202 5277.00 5104.52 72.64
2068 1.0206 5181.00 5091.96 71.98
2069 1.0209 5022.00 5080.25 70.87
2070 1.0213 5082.00 5069.29 71.29
2071 1.0216 5134.00 5059.00 71.65
2072 1.0220 5070.00 5049.35 71.20
2073 1.0223 4997.00 5040.31 70.69
2074 1.0227 5015.00 5031.89 70.82
2075 1.0230 5011.00 5024.09 70.79
2076 1.0234 5058.00 5016.90 71.12
2077 1.0237 5012.00 5010.33 70.80
2078 1.0241 5089.00 5004.34 71.34
2079 1.0244 4976.00 4998.89 70.54
2080 1.0248 5090.00 4993.96 71.34
2081 1.0251 5089.00 4989.50 71.34
2082 1.0255 5019.00 4985.47 70.84
2083 1.0258 4926.00 4981.80 70.19
2084 1.0262 4974.00 4978.47 70.53
2085 1.0265 5042.00 4975.43 71.01
2086 1.0269 4965.00 4972.64 70.46
2087 1.0272 4917.00 4970.06 70.12
2088 1.0276 5048.00 4967.67 71.05
2089 1.0279 5035.00 4965.44 70.96
2090 1.0283 4972.00 4963.35 70.51
2091 1.0286 4903.00 4961.44 70.02
2092 1.0290 4882.00 4959.58 69.87
2093 1.0293 4899.00 4957.83 69.99
2094 1.0297 4869.00 4956.16 69.78
2095 1.0300 4996.00 4954.58 70.68
2096 1.0304 4953.00 4953.08 70.38
2097 1.0307 4975.00 4951.66 70.53
2098 1.0311 4884.00 4950.30 69.89
2099 1.0314 4903.00 4949.02 70.02
2100 1.0318 4968.00 4947.80 70.48
2101 1.0321 4997.00 4946.65 70.69
2102 1.0325 4908.00 4945.56 70.06
2103 1.0328 4969.00 4944.54 70.49
2104 1.0332 4968.00 4943.58 70.48
2105 1.0335 4926.00 4942.68 70.19
2106 1.0339 4860.00 4941.85 69.71
2107 1.0342 4970.00 4941.07 70.50
2108 1.0346 4936.00 4940.35 70.26
2109 1.0349 4877.00 4939.68 69.84
2110 1.0353 4895.00 4939.07 69.96
2111 1.0356 4894.00 4938.52 69.96
2112 1.0359 4919.00 4938.02 70.14
2113 1.0363 4980.00 4937.58 70.57
2114 1.0366 4980.00 4937.21 70.57
2115 1.0370 4943.00 4936.92 70.31
2116 1.0373 4889.00 4936.74 69.92
2117 1.0377 4846.00 4936.69 69.61
2118 1.0380 4922.00 4936.81 70.16
2119 1.0384 4876.00 4937.13 69.83
2120 1.0387 4998.00 4937.68 70.70
2121 1.0391 5001.00 4937.90 70.72
2122 1.0394 5013.00 4938.99 70.80
2123 1.0398 4922.00 4940.37 70.16
2124 1.0401 4892.00 4942.05 69.94
2125 1.0405 4962.00 4944.00 70.44
2126 1.0408 4863.00 4946.19 69.74
2127 1.0412 4945.00 4948.57 70.32
2128 1.0415 5018.00 4951.06 70.84
2129 1.0419 4914.00 4953.54 70.10
2130 1.0422 4949.00 4955.89 70.35
2131 1.0426 4849.00 4957.95 69.63
2132 1.0429 4838.00 4959.55 69.56
2133 1.0433 4912.00 4960.52 70.09
2134 1.0436 4915.00 4960.74 70.11
2135 1.0440 4896.00 4960.12 69.97
2136 1.0443 4900.00 4958.65 70.00
2137 1.0447 4863.00 4956.42 69.74
2138 1.0450 4902.00 4953.54 70.01
2139 1.0454 4875.00 4950.19 69.82
2140 1.0457 4972.00 4946.55 70.51
2141 1.0461 4938.00 4942.77 70.27
2142 1.0464 4957.00 4939.00 70.41
2143 1.0468 4884.00 4935.35 69.89
2144 1.0471 4856.00 4931.89 69.68
2145 1.0475 4933.00 4928.69 70.24
2146 1.0478 4923.00 4925.78 70.16
2147 1.0482 4916.00 4923.17 70.11
2148 1.0485 4812.00 4920.86 69.37
2149 1.0489 4849.00 4918.84 69.63
2150 1.0492 4834.00 4917.08 69.53
2151 1.0496 4877.00 4916.02 69.84
2152 1.0499 4878.00 4914.71 69.84
2153 1.0503 4875.00 4913.57 69.82
2154 1.0506 4916.00 4912.58 70.11
2155 1.0510 4894.00 4911.72 69.96
2156 1.0513 4905.00 4910.95 70.04
2157 1.0517 4980.00 4910.26 70.57
2158 1.0520 4919.00 4909.63 70.14
2159 1.0524 4847.00 4909.05 69.62
2160 1.0527 4856.00 4908.51 69.68
2161 1.0531 4882.00 4908.00 69.87
2162 1.0534 4891.00 4907.52 69.94
2163 1.0538 4844.00 4907.06 69.60
2164 1.0541 4898.00 4906.62 69.99
2165 1.0545 4863.00 4906.19 69.74
2166 1.0548 4890.00 4905.78 69.93
2167 1.0551 4940.00 4905.38 70.29
2168 1.0555 4922.00 4905.00 70.16
2169 1.0558 4826.00 4904.63 69.47
2170 1.0562 4796.00 4904.26 69.25
2171 1.0565 4760.00 4903.91 68.99
2172 1.0569 4772.00 4903.57 69.08
2173 1.0572 4848.00 4903.24 69.63
2174 1.0576 4938.00 4902.92 70.27
2175 1.0579 4929.00 4902.62 70.21
2176 1.0583 4867.00 4902.32 69.76
2177 1.0586 4873.00 4902.04 69.81
2178 1.0590 4900.00 4901.77 70.00
2179 1.0593 4900.00 4901.52 70.00
2180 1.0597 4900.00 4901.29 70.00
2181 1.0600 4815.00 4901.08 69.39
2182 1.0604 4850.00 4900.90 69.64
2183 1.0607 4893.00 4900.76 69.95
2184 1.0611 4867.00 4900.67 69.76
2185 1.0614 4832.00 4900.63 69.51
2186 1.0618 4896.00 4900.65 69.97
2187 1.0621 4826.00 4900.73 69.47
2188 1.0625 4892.00 4900.89 69.94
2189 1.0628 4864.00 4901.13 69.74
2190 1.0632 4842.00 4901.45 69.58
2191 1.0635 4807.00 4901.84 69.33
2192 1.0639 4918.00 4902.30 70.13
2193 1.0642 4979.00 4902.80 70.56
2194 1.0646 4951.00 4903.32 70.36
2195 1.0649 4904.00 4903.84 70.03
2196 1.0653 4899.00 4904.31 69.99
2197 1.0656 4801.00 4904.69 69.29
2198 1.0660 4903.00 4904.95 70.02
2199 1.0663 4864.00 4905.06 69.74
2200 1.0667 4887.00 4905.03 69.91
2201 1.0670 4907.00 4904.89 70.05
2202 1.0674 4832.00 4904.68 69.51
2203 1.0677 4922.00 4904.45 70.16
2204 1.0681 4918.00 4904.24 70.13
2205 1.0684 4825.00 4904.09 69.46
2206 1.0688 4984.00 4904.02 70.60
2207 1.0691 4906.00 4904.04 70.04
2208 1.0695 4936.00 4904.18 70.26
2209 1.0698 4885.00 4904.44 69.89
2210 1.0702 4988.00 4904.79 70.63
2211 1.0705 5005.00 4905.25 70.75
2212 1.0709 4924.00 4905.78 70.17
2213 1.0712 4823.00 4906.37 69.45
2214 1.0716 4943.00 4907.00 70.31
2215 1.0719 4878.00 4907.64 69.84
2216 1.0723 4931.00 4908.26 70.22
2217 1.0726 4916.00 4908.84 70.11
2218 1.0730 4824.00 4909.36 69.46
2219 1.0733 4871.00 4909.81 69.79
2220 1.0736 4938.00 4910.18 70.27
2221 1.0740 4946.00 4910.47 70.33
2222 1.0743 4872.00 4910.69 69.80
2223 1.0747 4924.00 4910.88 70.17
2224 1.0750 4954.00 4911.02 70.38
2225 1.0754 4987.00 4911.14 70.62
2226 1.0757 4874.00 4911.26 69.81
2227 1.0761 4838.00 4911.42 69.56
2228 1.0764 4837.00 4911.62 69.55
2229 1.0768 4858.00 4911.87 69.70
2230 1.0771 4833.00 4912.20 69.52
2231 1.0775 4862.00 4912.61 69.73
2232 1.0778 4866.00 4913.13 69.76
2233 1.0782 4941.00 4913.75 70.29
2234 1.0785 4925.00 4914.52 70.18
2235 1.0789 4975.00 4915.46 70.53
2236 1.0792 5025.00 4916.65 70.89
2237 1.0796 4941.00 4918.16 70.29
2238 1.0799 4874.00 4920.12 69.81
2239 1.0803 4856.00 4922.73 69.68
2240 1.0806 4942.00 4926.22 70.30
2241 1.0810 4903.00 4930.93 70.02
2242 1.0813 4997.00 4937.25 70.69
2243 1.0817 5015.00 4945.66 70.82
2244 1.0820 4995.00 4956.71 70.68
2245 1.0824 4885.00 4970.96 69.89
2246 1.0827 4911.00 4988.96 70.08
2247 1.0831 5037.00 5011.16 70.97
2248 1.0834 5106.00 5037.88 71.46
2249 1.0838 5055.00 5069.16 71.10
2250 1.0841 5014.00 5104.72 70.81
2251 1.0845 5110.00 5143.89 71.48
2252 1.0848 5180.00 5185.52 71.97
2253 1.0852 5177.00 5227.95 71.95
2254 1.0855 5155.00 5268.90 71.80
2255 1.0859 5281.00 5305.57 72.67
2256 1.0862 5314.00 5334.78 72.90
2257 1.0866 5388.00 5353.39 73.40
2258 1.0869 5301.00 5359.06 72.81
2259 1.0873 5335.00 5350.96 73.04
2260 1.0876 5314.00 5330.07 72.90
2261 1.0880 5376.00 5298.85 73.32
2262 1.0883 5345.00 5260.46 73.11
2263 1.0887 5286.00 5218.06 72.70
2264 1.0890 5242.00 5174.42 72.40
2265 1.0894 5212.00 5131.74 72.19
2266 1.0897 5119.00 5091.64 71.55
2267 1.0901 4975.00 5055.24 70.53
2268 1.0904 4930.00 5023.18 70.21
2269 1.0908 4958.00 4995.69 70.41
2270 1.0911 4879.00 4972.71 69.85
2271 1.0915 4931.00 4953.93 70.22
2272 1.0918 4954.00 4938.88 70.38
2273 1.0921 4946.00 4927.01 70.33
2274 1.0925 4909.00 4917.77 70.06
2275 1.0928 4954.00 4910.64 70.38
2276 1.0932 4939.00 4905.13 70.28
2277 1.0935 4859.00 4900.86 69.71
2278 1.0939 4896.00 4897.52 69.97
2279 1.0942 4918.00 4894.85 70.13
2280 1.0946 4878.00 4892.67 69.84
2281 1.0949 4887.00 4890.86 69.91
2282 1.0953 4948.00 4889.31 70.34
2283 1.0956 4895.00 4887.97 69.96
2284 1.0960 4861.00 4886.78 69.72
2285 1.0963 4830.00 4885.90 69.50
2286 1.0967 4829.00 4884.93 69.49
2287 1.0970 4825.00 4884.05 69.46
2288 1.0974 4883.00 4883.24 69.88
2289 1.0977 4835.00 4882.50 69.53
2290 1.0981 4813.00 4881.81 69.38
2291 1.0984 4898.00 4881.17 69.99
2292 1.0988 4848.00 4880.58 69.63
2293 1.0991 4860.00 4880.03 69.71
2294 1.0995 4869.00 4879.51 69.78
2295 1.0998 4893.00 4879.03 69.95
2296 1.1002 4865.00 4878.59 69.75
2297 1.1005 4891.00 4878.17 69.94
2298 1.1009 4814.00 4877.79 69.38
2299 1.1012 4871.00 4877.43 69.79
2300 1.1016 5014.00 4877.10 70.81
2301 1.1019 4918.00 4876.80 70.13
2302 1.1023 4852.00 4876.52 69.66
2303 1.1026 4969.00 4876.28 70.49
2304 1.1030 4982.00 4876.07 70.58
2305 1.1033 4947.00 4875.89 70.33
2306 1.1037 4958.00 4875.74 70.41
2307 1.1040 5019.00 4875.64 70.84
2308 1.1044 4928.00 4875.58 70.20
2309 1.1047 4848.00 4875.58 69.63
2310 1.1051 4836.00 4875.63 69.54
2311 1.1054 4902.00 4875.74 70.01
2312 1.1058 4833.00 4875.57 69.52
2313 1.1061 4851.00 4875.84 69.65
2314 1.1065 4860.00 4876.20 69.71
2315 1.1068 4868.00 4876.66 69.77
2316 1.1072 4907.00 4877.22 70.05
2317 1.1075 4877.00 4877.90 69.84
2318 1.1079 4905.00 4878.70 70.04
2319 1.1082 4872.00 4879.63 69.80
2320 1.1086 4936.00 4880.69 70.26
2321 1.1089 4968.00 4881.89 70.48
2322 1.1093 4916.00 4883.30 70.11
2323 1.1096 5026.00 4884.75 70.89
2324 1.1100 4916.00 4886.32 70.11
2325 1.1103 4907.00 4887.99 70.05
2326 1.1107 4964.00 4889.75 70.46
2327 1.1110 4903.00 4891.56 70.02
2328 1.1113 5023.00 4893.40 70.87
2329 1.1117 4938.00 4895.24 70.27
2330 1.1120 4902.00 4897.04 70.01
2331 1.1124 4980.00 4898.74 70.57
2332 1.1127 4910.00 4900.30 70.07
2333 1.1131 4969.00 4901.67 70.49
2334 1.1134 4831.00 4902.79 69.51
2335 1.1138 4867.00 4903.62 69.76
2336 1.1141 4935.00 4904.12 70.25
2337 1.1145 4936.00 4904.29 70.26
2338 1.1148 4868.00 4904.12 69.77
2339 1.1152 4854.00 4903.63 69.67
2340 1.1155 4864.00 4902.88 69.74
2341 1.1159 4867.00 4901.90 69.76
2342 1.1162 4937.00 4900.75 70.26
2343 1.1166 4964.00 4899.49 70.46
2344 1.1169 4961.00 4898.16 70.43
2345 1.1173 4847.00 4896.82 69.62
2346 1.1176 4956.00 4895.49 70.40
2347 1.1180 4991.00 4893.28 70.65
2348 1.1183 4950.00 4892.10 70.36
2349 1.1187 4916.00 4891.02 70.11
2350 1.1190 4815.00 4890.07 69.39
2351 1.1194 4902.00 4889.27 70.01
2352 1.1197 4852.00 4888.63 69.66
2353 1.1201 4923.00 4888.19 70.16
2354 1.1204 4896.00 4887.97 69.97
2355 1.1208 4913.00 4888.00 70.09
2356 1.1211 4926.00 4888.34 70.19
2357 1.1215 4915.00 4889.01 70.11
2358 1.1218 4937.00 4890.09 70.26
2359 1.1222 4813.00 4891.63 69.38
2360 1.1225 4897.00 4893.68 69.98
2361 1.1229 4959.00 4896.32 70.42
2362 1.1232 4946.00 4899.58 70.33
2363 1.1236 4877.00 4903.52 69.84
2364 1.1239 4892.00 4908.15 69.94
2365 1.1243 4909.00 4913.48 70.06
2366 1.1246 4883.00 4919.48 69.88
2367 1.1250 4980.00 4926.09 70.57
2368 1.1253 4995.00 4933.20 70.68
2369 1.1257 4919.00 4940.66 70.14
2370 1.1260 4967.00 4948.30 70.48
2371 1.1264 5020.00 4955.85 70.85
2372 1.1267 5046.00 4963.00 71.04
2373 1.1271 4986.00 4969.40 70.61
2374 1.1274 4984.00 4974.66 70.60
2375 1.1278 4993.00 4978.40 70.66
2376 1.1281 4916.00 4980.34 70.11
2377 1.1285 4849.00 4980.28 69.63
2378 1.1288 5051.00 4978.24 71.07
2379 1.1292 4910.00 4974.37 70.07
2380 1.1295 4866.00 4968.98 69.76
2381 1.1298 4901.00 4962.42 70.01
2382 1.1302 4936.00 4955.08 70.26
2383 1.1305 4898.00 4947.30 69.99
2384 1.1309 4906.00 4939.38 70.04
2385 1.1312 4880.00 4931.54 69.86
2386 1.1316 4944.00 4923.98 70.31
2387 1.1319 4964.00 4916.84 70.46
2388 1.1323 4926.00 4910.19 70.19
2389 1.1326 4972.00 4904.11 70.51
2390 1.1330 5023.00 4898.61 70.87
2391 1.1333 4879.00 4893.71 69.85
2392 1.1337 4905.00 4889.40 70.04
2393 1.1340 4952.00 4885.63 70.37
2394 1.1344 4951.00 4882.38 70.36
2395 1.1347 4894.00 4879.60 69.96
2396 1.1351 4850.00 4877.24 69.64
2397 1.1354 4884.00 4875.32 69.89
2398 1.1358 4816.00 4873.59 69.40
2399 1.1361 4877.00 4872.19 69.84
2400 1.1365 4910.00 4871.03 70.07
2401 1.1368 4824.00 4870.07 69.46
2402 1.1372 4890.00 4869.28 69.93
2403 1.1375 4819.00 4868.64 69.42
2404 1.1379 4834.00 4868.13 69.53
2405 1.1382 4797.00 4867.74 69.26
2406 1.1386 4930.00 4867.45 70.21
2407 1.1389 4825.00 4867.26 69.46
2408 1.1393 4853.00 4866.79 69.66
2409 1.1396 4873.00 4866.78 69.81
2410 1.1400 4948.00 4866.88 70.34
2411 1.1403 4957.00 4867.08 70.41
2412 1.1407 4858.00 4867.40 69.70
2413 1.1410 4848.00 4867.86 69.63
2414 1.1414 4767.00 4868.48 69.04
2415 1.1417 4883.00 4869.29 69.88
2416 1.1421 4892.00 4870.34 69.94
2417 1.1424 4850.00 4871.66 69.64
2418 1.1428 4840.00 4873.33 69.57
2419 1.1431 4927.00 4875.39 70.19
2420 1.1435 4919.00 4877.92 70.14
2421 1.1438 4827.00 4881.01 69.48
2422 1.1442 4920.00 4884.71 70.14
2423 1.1445 4891.00 4889.12 69.94
2424 1.1449 4969.00 4894.28 70.49
2425 1.1452 4913.00 4900.25 70.09
2426 1.1456 4975.00 4907.06 70.53
2427 1.1459 4873.00 4914.71 69.81
2428 1.1463 4924.00 4923.16 70.17
2429 1.1466 4846.00 4932.38 69.61
2430 1.1470 4911.00 4942.15 70.08
2431 1.1473 4953.00 4952.34 70.38
2432 1.1477 5039.00 4962.70 70.99
2433 1.1480 5007.00 4972.94 70.76
2434 1.1483 4963.00 4982.67 70.45
2435 1.1487 5000.00 4991.46 70.71
2436 1.1490 5001.00 4998.82 70.72
2437 1.1494 4947.00 5004.29 70.33
2438 1.1497 5118.00 5007.48 71.54
2439 1.1501 5019.00 5008.15 70.84
2440 1.1504 4961.00 5006.26 70.43
2441 1.1508 4975.00 5001.99 70.53
2442 1.1511 4991.00 4995.69 70.65
2443 1.1515 4946.00 4987.83 70.33
2444 1.1518 5005.00 4978.87 70.75
2445 1.1522 4891.00 4969.29 69.94
2446 1.1525 4799.00 4959.47 69.27
2447 1.1529 4889.00 4949.75 69.92
2448 1.1532 4912.00 4940.39 70.09
2449 1.1536 4928.00 4931.60 70.20
2450 1.1539 4823.00 4923.53 69.45
2451 1.1543 4885.00 4916.25 69.89
2452 1.1546 4816.00 4909.84 69.40
2453 1.1550 4851.00 4904.30 69.65
2454 1.1553 4872.00 4899.62 69.80
2455 1.1557 4950.00 4895.76 70.36
2456 1.1560 4886.00 4892.66 69.90
2457 1.1564 4892.00 4890.27 69.94
2458 1.1567 4918.00 4888.51 70.13
2459 1.1571 4912.00 4887.32 70.09
2460 1.1574 4881.00 4886.65 69.86
2461 1.1578 4819.00 4886.43 69.42
2462 1.1581 4855.00 4886.63 69.68
2463 1.1585 4856.00 4887.22 69.68
2464 1.1588 4815.00 4888.19 69.39
2465 1.1592 4843.00 4889.53 69.59
2466 1.1595 4871.00 4891.27 69.79
2467 1.1599 4958.00 4893.43 70.41
2468 1.1602 4879.00 4896.05 69.85
2469 1.1606 4786.00 4899.20 69.18
2470 1.1609 4881.00 4902.97 69.86
2471 1.1613 4880.00 4907.42 69.86
2472 1.1616 4919.00 4912.69 70.14
2473 1.1620 4979.00 4918.88 70.56
2474 1.1623 4862.00 4926.14 69.73
2475 1.1627 4910.00 4934.61 70.07
2476 1.1630 4868.00 4944.46 69.77
2477 1.1634 4933.00 4955.85 70.24
2478 1.1637 4937.00 4968.95 70.26
2479 1.1641 5011.00 4983.94 70.79
2480 1.1644 5017.00 5000.96 70.83
2481 1.1648 5069.00 5019.99 71.20
2482 1.1651 5031.00 5041.52 70.93
2483 1.1655 5144.00 5065.45 71.72
2484 1.1658 5202.00 5091.84 72.12
2485 1.1662 5072.00 5120.69 71.22
2486 1.1665 5244.00 5151.97 72.42
2487 1.1668 5186.00 5185.52 72.01
2488 1.1672 5188.00 5221.20 72.03
2489 1.1675 5295.00 5258.70 72.77
2490 1.1679 5343.00 5297.67 73.10
2491 1.1682 5372.00 5337.59 73.29
2492 1.1686 5392.00 5377.93 73.43
2493 1.1689 5422.00 5417.93 73.63
2494 1.1693 5562.00 5456.76 74.58
2495 1.1696 5617.00 5493.50 74.95
2496 1.1700 5615.00 5527.04 74.93
2497 1.1703 5604.00 5556.29 74.86
2498 1.1707 5611.00 5580.10 74.91
2499 1.1710 5733.00 5597.49 75.72
2500 1.1714 5708.00 5607.63 75.55
2501 1.1717 5667.00 5609.98 75.28
2502 1.1721 5727.00 5604.42 75.68
2503 1.1724 5650.00 5591.18 75.17
2504 1.1728 5726.00 5570.89 75.67
2505 1.1731 5635.00 5544.47 75.07
2506 1.1735 5559.00 5513.00 74.56
2507 1.1738 5523.00 5477.64 74.32
2508 1.1742 5453.00 5439.59 73.84
2509 1.1745 5359.00 5399.77 73.21
2510 1.1749 5384.00 5359.18 73.38
2511 1.1752 5317.00 5318.60 72.92
2512 1.1756 5333.00 5278.75 73.03
2513 1.1759 5164.00 5240.14 71.86
2514 1.1763 5131.00 5203.27 71.63
2515 1.1766 5119.00 5168.40 71.55
2516 1.1770 5103.00 5135.84 71.44
2517 1.1773 5185.00 5105.70 72.01
2518 1.1777 5065.00 5078.12 71.17
2519 1.1780 4957.00 5053.07 70.41
2520 1.1784 5076.00 5030.53 71.25
2521 1.1787 4979.00 5010.44 70.56
2522 1.1791 5044.00 4992.66 71.02
2523 1.1794 4942.00 4977.08 70.30
2524 1.1798 4910.00 4963.52 70.07
2525 1.1801 4904.00 4951.83 70.03
2526 1.1805 4979.00 4941.83 70.56
2527 1.1808 4975.00 4933.36 70.53
2528 1.1812 4979.00 4926.26 70.56
2529 1.1815 4994.00 4920.40 70.67
2530 1.1819 4990.00 4915.62 70.64
2531 1.1822 4945.00 4911.82 70.32
2532 1.1826 4963.00 4908.89 70.45
2533 1.1829 4863.00 4906.75 69.74
2534 1.1833 4882.00 4905.33 69.87
2535 1.1836 4845.00 4904.57 69.61
2536 1.1840 4920.00 4904.42 70.14
2537 1.1843 4996.00 4904.86 70.68
2538 1.1847 4994.00 4905.88 70.67
2539 1.1850 4939.00 4907.44 70.28
2540 1.1854 4841.00 4909.56 69.58
2541 1.1857 4898.00 4912.23 69.99
2542 1.1860 4835.00 4915.45 69.53
2543 1.1864 4835.00 4919.23 69.53
2544 1.1867 4912.00 4923.57 70.09
2545 1.1871 4979.00 4928.46 70.56
2546 1.1874 4953.00 4933.91 70.38
2547 1.1878 4973.00 4939.89 70.52
2548 1.1881 4964.00 4946.39 70.46
2549 1.1885 4999.00 4953.37 70.70
2550 1.1888 4937.00 4960.79 70.26
2551 1.1892 4988.00 4968.60 70.63
2552 1.1895 4945.00 4976.74 70.32
2553 1.1899 5019.00 4985.14 70.84
2554 1.1902 5000.00 4993.72 70.71
2555 1.1906 4985.00 5002.37 70.60
2556 1.1909 4942.00 5011.01 70.30
2557 1.1913 5120.00 5019.48 71.55
2558 1.1916 5141.00 5027.65 71.70
2559 1.1920 5143.00 5035.36 71.71
2560 1.1923 5083.00 5042.40 71.30
2561 1.1927 5044.00 5048.59 71.02
2562 1.1930 5064.00 5053.71 71.16
2563 1.1934 5058.00 5057.55 71.12
2564 1.1937 4976.00 5059.95 70.54
2565 1.1941 5039.00 5060.76 70.99
2566 1.1944 5104.00 5059.90 71.44
2567 1.1948 5037.00 5057.38 70.97
2568 1.1951 5131.00 5053.24 71.63
2569 1.1955 5029.00 5047.63 70.92
2570 1.1958 4895.00 5040.71 69.96
2571 1.1962 4965.00 5032.70 70.46
2572 1.1965 4996.00 5023.81 70.68
2573 1.1969 5065.00 5014.29 71.17
2574 1.1972 5032.00 5004.35 70.94
2575 1.1976 4987.00 4994.17 70.62
2576 1.1979 4971.00 4983.94 70.51
2577 1.1983 5063.00 4973.80 71.15
2578 1.1986 4909.00 4963.88 70.06
2579 1.1990 4834.00 4954.28 69.53
2580 1.1993 4938.00 4945.10 70.27
2581 1.1997 4927.00 4936.38 70.19
2582 1.2000 4921.00 4928.20 70.15
2583 1.2004 5014.00 4920.58 70.81
2584 1.2007 5093.00 4913.54 71.37
2585 1.2011 4903.00 4907.10 70.02
2586 1.2014 4844.00 4901.24 69.60
2587 1.2018 4901.00 4895.96 70.01
2588 1.2021 4989.00 4891.24 70.63
2589 1.2025 4880.00 4887.11 69.86
2590 1.2028 4954.00 4883.44 70.38
2591 1.2032 4936.00 4880.27 70.26
2592 1.2035 4916.00 4877.58 70.11
2593 1.2039 4864.00 4875.31 69.74
2594 1.2042 4825.00 4873.45 69.46
2595 1.2045 4748.00 4872.00 68.91
2596 1.2049 4888.00 4870.94 69.91
2597 1.2052 4904.00 4870.28 70.03
2598 1.2056 4858.00 4870.02 69.70
2599 1.2059 4859.00 4870.19 69.71
2600 1.2063 4857.00 4870.81 69.69
2601 1.2066 4862.00 4871.92 69.73
2602 1.2070 4875.00 4873.57 69.82
2603 1.2073 4898.00 4875.83 69.99
2604 1.2077 4856.00 4878.73 69.68
2605 1.2080 4804.00 4882.36 69.31
2606 1.2084 4811.00 4886.76 69.36
2607 1.2087 4826.00 4891.99 69.47
2608 1.2091 4906.00 4898.08 70.04
2609 1.2094 4892.00 4905.03 69.94
2610 1.2098 4954.00 4912.84 70.38
2611 1.2101 4975.00 4921.47 70.53
2612 1.2105 4930.00 4930.82 70.21
2613 1.2108 4941.00 4940.78 70.29
2614 1.2112 4888.00 4951.16 69.91
2615 1.2115 4904.00 4961.73 70.03
2616 1.2119 5045.00 4972.19 71.03
2617 1.2122 5065.00 4982.21 71.17
2618 1.2126 4989.00 4991.36 70.63
2619 1.2129 4998.00 4999.20 70.70
2620 1.2133 5006.00 5005.29 70.75
2621 1.2136 5032.00 5009.26 70.94
2622 1.2140 5082.00 5010.83 71.29
2623 1.2143 5041.00 5009.94 71.00
2624 1.2147 4925.00 5006.70 70.18
2625 1.2150 4920.00 5001.37 70.14
2626 1.2154 4944.00 4994.36 70.31
2627 1.2157 4999.00 4986.09 70.70
2628 1.2161 5113.00 4976.99 71.51
2629 1.2164 4971.00 4967.44 70.51
2630 1.2168 4855.00 4957.76 69.68
2631 1.2171 4954.00 4948.21 70.38
2632 1.2175 4942.00 4938.98 70.30
2633 1.2178 4927.00 4930.20 70.19
2634 1.2182 4955.00 4921.98 70.39
2635 1.2185 4954.00 4914.37 70.38
2636 1.2189 4934.00 4907.38 70.24
2637 1.2192 4933.00 4901.03 70.24
2638 1.2196 4927.00 4895.28 70.19
2639 1.2199 4839.00 4890.14 69.56
2640 1.2203 4922.00 4885.55 70.16
2641 1.2206 4900.00 4881.48 70.00
2642 1.2210 4837.00 4877.90 69.55
2643 1.2213 4864.00 4874.77 69.74
2644 1.2217 4909.00 4872.03 70.06
2645 1.2220 4818.00 4869.66 69.41
2646 1.2224 4768.00 4867.61 69.05
2647 1.2227 4833.00 4865.86 69.52
2648 1.2230 4840.00 4864.38 69.57
2649 1.2234 4945.00 4863.15 70.32
2650 1.2237 4846.00 4862.14 69.61
2651 1.2241 4889.00 4861.35 69.92
2652 1.2244 4969.00 4860.76 70.49
2653 1.2248 4900.00 4860.37 70.00
2654 1.2251 4914.00 4860.17 70.10
2655 1.2255 4877.00 4860.16 69.84
2656 1.2258 4860.00 4860.34 69.71
2657 1.2262 4837.00 4860.70 69.55
2658 1.2265 4863.00 4861.25 69.74
2659 1.2269 4952.00 4861.99 70.37
2660 1.2272 4839.00 4862.92 69.56
2661 1.2276 4831.00 4864.06 69.51
2662 1.2279 4825.00 4865.35 69.46
2663 1.2283 4942.00 4866.93 70.30
2664 1.2286 4796.00 4868.76 69.25
2665 1.2290 4911.00 4871.64 70.08
2666 1.2293 4871.00 4874.06 69.79
2667 1.2297 4907.00 4876.82 70.05
2668 1.2300 4925.00 4879.98 70.18
2669 1.2304 4943.00 4883.59 70.31
2670 1.2307 4814.00 4887.70 69.38
2671 1.2311 4947.00 4892.38 70.33
2672 1.2314 4901.00 4897.69 70.01
2673 1.2318 4932.00 4903.69 70.23
2674 1.2321 4885.00 4910.43 69.89
2675 1.2325 4847.00 4917.96 69.62
2676 1.2328 4946.00 4926.30 70.33
2677 1.2332 4941.00 4935.46 70.29
2678 1.2335 5051.00 4945.42 71.07
2679 1.2339 5112.00 4956.12 71.50
2680 1.2342 4983.00 4967.45 70.59
2681 1.2346 4897.00 4979.28 69.98
2682 1.2349 4956.00 4991.35 70.40
2683 1.2353 4982.00 5003.40 70.58
2684 1.2356 5053.00 5015.04 71.08
2685 1.2360 5167.00 5025.84 71.88
2686 1.2363 5052.00 5035.29 71.08
2687 1.2367 5043.00 5042.84 71.01
2688 1.2370 4990.00 5048.02 70.64
2689 1.2374 5175.00 5050.47 71.94
2690 1.2377 4969.00 5050.02 70.49
2691 1.2381 5043.00 5046.78 71.01
2692 1.2384 5015.00 5041.07 70.82
2693 1.2388 5007.00 5033.39 70.76
2694 1.2391 5046.00 5024.31 71.04
2695 1.2395 4972.00 5014.40 70.51
2696 1.2398 5074.00 5004.19 71.23
2697 1.2402 5119.00 4994.11 71.55
2698 1.2405 4926.00 4984.48 70.19
2699 1.2409 4946.00 4975.58 70.33
2700 1.2412 4938.00 4967.55 70.27
2701 1.2415 5010.00 4960.46 70.78
2702 1.2419 4920.00 4954.29 70.14
2703 1.2422 4855.00 4948.95 69.68
2704 1.2426 4972.00 4944.31 70.51
2705 1.2429 4935.00 4940.17 70.25
2706 1.2433 4985.00 4936.31 70.60
2707 1.2436 4955.00 4932.56 70.39
2708 1.2440 4983.00 4928.76 70.59
2709 1.2443 5041.00 4924.81 71.00
2710 1.2447 4938.00 4920.70 70.27
2711 1.2450 4921.00 4916.44 70.15
2712 1.2454 4905.00 4912.09 70.04
2713 1.2457 4910.00 4907.71 70.07
2714 1.2461 4846.00 4903.40 69.61
2715 1.2464 4882.00 4899.21 69.87
2716 1.2468 4919.00 4895.23 70.14
2717 1.2471 4911.00 4891.49 70.08
2718 1.2475 4950.00 4888.06 70.36
2719 1.2478 4920.00 4884.97 70.14
2720 1.2482 4970.00 4882.23 70.50
2721 1.2485 4900.00 4879.87 70.00
2722 1.2489 4828.00 4877.88 69.48
2723 1.2492 4868.00 4876.25 69.77
2724 1.2496 4841.00 4874.97 69.58
2725 1.2499 4866.00 4874.01 69.76
2726 1.2503 4822.00 4873.34 69.44
2727 1.2506 4811.00 4872.87 69.36
2728 1.2510 4858.00 4872.70 69.70
2729 1.2513 4774.00 4872.71 69.09
2730 1.2517 4833.00 4872.86 69.52
2731 1.2520 4957.00 4873.13 70.41
2732 1.2524 4857.00 4873.45 69.69
2733 1.2527 4821.00 4873.78 69.43
2734 1.2531 4823.00 4874.13 69.45
2735 1.2534 4771.00 4874.37 69.07
2736 1.2538 4856.00 4874.51 69.68
2737 1.2541 4865.00 4874.53 69.75
2738 1.2545 4861.00 4874.42 69.72
2739 1.2548 4917.00 4874.20 70.12
2740 1.2552 4890.00 4873.88 69.93
2741 1.2555 4893.00 4873.50 69.95
2742 1.2559 4889.00 4873.09 69.92
2743 1.2562 4836.00 4872.74 69.54
2744 1.2566 4917.00 4872.48 70.12
2745 1.2569 4837.00 4872.41 69.55
2746 1.2573 4886.00 4872.61 69.90
2747 1.2576 4877.00 4873.19 69.84
2748 1.2580 4933.00 4874.26 70.24
2749 1.2583 4827.00 4875.94 69.48
2750 1.2587 4931.00 4878.38 70.22
2751 1.2590 4893.00 4881.71 69.95
2752 1.2594 4903.00 4886.06 70.02
2753 1.2597 4824.00 4891.56 69.46
2754 1.2601 4972.00 4898.30 70.51
2755 1.2604 4879.00 4906.33 69.85
2756 1.2607 4830.00 4915.66 69.50
2757 1.2611 4883.00 4926.22 69.88
2758 1.2614 4928.00 4937.88 70.20
2759 1.2618 4910.00 4950.40 70.07
2760 1.2621 4868.00 4963.45 69.77
2761 1.2625 4952.00 4976.60 70.37
2762 1.2628 4931.00 4989.29 70.22
2763 1.2632 4995.00 5000.89 70.68
2764 1.2635 4954.00 5010.67 70.38
2765 1.2639 5011.00 5017.91 70.79
2766 1.2642 5005.00 5021.99 70.75
2767 1.2646 5040.00 5022.54 70.99
2768 1.2649 5113.00 5019.49 71.51
2769 1.2653 4965.00 5013.15 70.46
2770 1.2656 4977.00 5004.07 70.55
2771 1.2660 4991.00 4992.96 70.65
2772 1.2663 4935.00 4980.54 70.25
2773 1.2667 4993.00 4967.46 70.66
2774 1.2670 4892.00 4954.28 69.94
2775 1.2674 4992.00 4941.48 70.65
2776 1.2677 5013.00 4929.38 70.80
2777 1.2681 4920.00 4918.24 70.14
2778 1.2684 4966.00 4908.23 70.47
2779 1.2688 5005.00 4899.42 70.75
2780 1.2691 4880.00 4891.82 69.86
2781 1.2695 4899.00 4885.40 69.99
2782 1.2698 4823.00 4880.08 69.45
2783 1.2702 4823.00 4875.74 69.45
2784 1.2705 4851.00 4872.29 69.65
2785 1.2709 4904.00 4869.59 70.03
2786 1.2712 4769.00 4867.54 69.06
2787 1.2716 4910.00 4866.03 70.07
2788 1.2719 4903.00 4865.08 70.02
2789 1.2723 4947.00 4864.40 70.33
2790 1.2726 4813.00 4864.03 69.38
2791 1.2730 4876.00 4863.94 69.83
2792 1.2733 4809.00 4864.08 69.35
2793 1.2737 4846.00 4864.41 69.61
2794 1.2740 4856.00 4864.91 69.68
2795 1.2744 4820.00 4865.56 69.43
2796 1.2747 4919.00 4866.33 70.14
2797 1.2751 4922.00 4867.19 70.16
2798 1.2754 4835.00 4868.10 69.53
2799 1.2758 4908.00 4869.05 70.06
2800 1.2761 4990.00 4869.97 70.64
2801 1.2765 4879.00 4870.83 69.85
2802 1.2768 4989.00 4871.57 70.63
2803 1.2772 4910.00 4872.15 70.07
2804 1.2775 4893.00 4872.51 69.95
2805 1.2779 4873.00 4872.61 69.81
2806 1.2782 4884.00 4872.45 69.89
2807 1.2786 4847.00 4872.01 69.62
2808 1.2789 4833.00 4871.32 69.52
2809 1.2792 4884.00 4870.43 69.89
2810 1.2796 4883.00 4869.37 69.88
2811 1.2799 4869.00 4868.20 69.78
2812 1.2803 4902.00 4866.96 70.01
2813 1.2806 4809.00 4865.70 69.35
2814 1.2810 4890.00 4864.46 69.93
2815 1.2813 4823.00 4863.26 69.45
2816 1.2817 4819.00 4862.12 69.42
2817 1.2820 4824.00 4861.07 69.46
2818 1.2824 4894.00 4860.12 69.96
2819 1.2827 4802.00 4859.26 69.30
2820 1.2831 4881.00 4858.61 69.86
2821 1.2834 4832.00 4857.96 69.51
2822 1.2838 4773.00 4857.43 69.09
2823 1.2841 4785.00 4856.98 69.17
2824 1.2845 4834.00 4856.63 69.53
2825 1.2848 4837.00 4856.36 69.55
2826 1.2852 4880.00 4856.17 69.86
2827 1.2855 4906.00 4856.04 70.04
2828 1.2859 4864.00 4855.97 69.74
2829 1.2862 4835.00 4855.95 69.53
2830 1.2866 4821.00 4855.97 69.43
2831 1.2869 4915.00 4856.04 70.11
2832 1.2873 4988.00 4856.14 70.63
2833 1.2876 4848.00 4856.27 69.63
2834 1.2880 4908.00 4856.43 70.06
2835 1.2883 4797.00 4856.62 69.26
2836 1.2887 4813.00 4856.84 69.38
2837 1.2890 4792.00 4857.08 69.22
2838 1.2894 4825.00 4857.35 69.46
2839 1.2897 4787.00 4857.66 69.19
2840 1.2901 4799.00 4858.01 69.27
2841 1.2904 4816.00 4858.40 69.40
2842 1.2908 4841.00 4858.85 69.58
2843 1.2911 4732.00 4859.37 68.79
2844 1.2915 4801.00 4859.97 69.29
2845 1.2918 4813.00 4860.69 69.38
2846 1.2922 4876.00 4861.55 69.83
2847 1.2925 4888.00 4862.59 69.91
2848 1.2929 4903.00 4863.85 70.02
2849 1.2932 4882.00 4865.38 69.87
2850 1.2936 4937.00 4867.24 70.26
2851 1.2939 4857.00 4869.49 69.69
2852 1.2943 4849.00 4872.18 69.63
2853 1.2946 4799.00 4875.39 69.27
2854 1.2950 4816.00 4879.17 69.40
2855 1.2953 4784.00 4883.57 69.17
2856 1.2957 4845.00 4888.62 69.61
2857 1.2960 4899.00 4894.32 69.99
2858 1.2964 4888.00 4900.66 69.91
2859 1.2967 4983.00 4907.59 70.59
2860 1.2971 4970.00 4915.00 70.50
2861 1.2974 5063.00 4922.78 71.15
2862 1.2977 4900.00 4930.74 70.00
2863 1.2981 4929.00 4938.64 70.21
2864 1.2984 5016.00 4946.20 70.82
2865 1.2988 4901.00 4953.09 70.01
2866 1.2991 4881.00 4958.94 69.86
2867 1.2995 5052.00 4963.40 71.08
2868 1.2998 4963.00 4966.15 70.45
2869 1.3002 4947.00 4966.99 70.33
2870 1.3005 4964.00 4965.87 70.46
2871 1.3009 4992.00 4962.90 70.65
2872 1.3012 4917.00 4958.35 70.12
2873 1.3016 4870.00 4952.57 69.79
2874 1.3019 4923.00 4945.90 70.16
2875 1.3023 4908.00 4938.71 70.06
2876 1.3026 4838.00 4931.30 69.56
2877 1.3030 4863.00 4923.96 69.74
2878 1.3033 4868.00 4916.88 69.77
2879 1.3037 4836.00 4910.23 69.54
2880 1.3040 4818.00 4904.12 69.41
2881 1.3044 4902.00 4898.30 70.01
2882 1.3047 4869.00 4893.48 69.78
2883 1.3051 4900.00 4889.34 70.00
2884 1.3054 4906.00 4885.84 70.04
2885 1.3058 4853.00 4882.97 69.66
2886 1.3061 4882.00 4880.67 69.87
2887 1.3065 4859.00 4878.90 69.71
2888 1.3068 4918.00 4877.56 70.13
2889 1.3072 4851.00 4876.62 69.65
2890 1.3075 4819.00 4876.03 69.42
2891 1.3079 4890.00 4875.74 69.93
2892 1.3082 4911.00 4875.71 70.08
2893 1.3086 4938.00 4875.91 70.27
2894 1.3089 4842.00 4876.32 69.58
2895 1.3093 4835.00 4876.93 69.53
2896 1.3096 4860.00 4877.72 69.71
2897 1.3100 4884.00 4878.71 69.89
2898 1.3103 4805.00 4879.89 69.32
2899 1.3107 4870.00 4881.29 69.79
2900 1.3110 4834.00 4882.91 69.53
2901 1.3114 4829.00 4884.78 69.49
2902 1.3117 4791.00 4886.92 69.22
2903 1.3121 5010.00 4889.38 70.78
2904 1.3124 4868.00 4892.18 69.77
2905 1.3128 4849.00 4895.38 69.63
2906 1.3131 4936.00 4899.03 70.26
2907 1.3135 4841.00 4903.20 69.58
2908 1.3138 4842.00 4907.97 69.58
2909 1.3142 4891.00 4913.42 69.94
2910 1.3145 4831.00 4919.66 69.51
2911 1.3149 4885.00 4926.77 69.89
2912 1.3152 4880.00 4934.85 69.86
2913 1.3156 4916.00 4944.01 70.11
2914 1.3159 5017.00 4954.31 70.83
2915 1.3162 4935.00 4965.79 70.25
2916 1.3166 4990.00 4978.45 70.64
2917 1.3169 4989.00 4992.28 70.63
2918 1.3173 5070.00 5007.17 71.20
2919 1.3176 5004.00 5023.02 70.74
2920 1.3180 5172.00 5039.62 71.92
2921 1.3183 5034.00 5056.75 70.95
2922 1.3187 5142.00 5074.10 71.71
2923 1.3190 5075.00 5091.14 71.24
2924 1.3194 5154.00 5107.58 71.79
2925 1.3197 5069.00 5122.79 71.20
2926 1.3201 5127.00 5136.26 71.60
2927 1.3204 5039.00 5147.55 70.99
2928 1.3208 5056.00 5156.44 71.11
2929 1.3211 5221.00 5163.00 72.26
2930 1.3215 5121.00 5167.52 71.56
2931 1.3218 5252.00 5170.50 72.47
2932 1.3222 5050.00 5172.49 71.06
2933 1.3225 5133.00 5173.99 71.64
2934 1.3229 5068.00 5175.41 71.19
2935 1.3232 5100.00 5177.02 71.41
2936 1.3236 5296.00 5178.91 72.77
2937 1.3239 5167.00 5181.06 71.88
2938 1.3243 5086.00 5183.28 71.32
2939 1.3246 5139.00 5185.27 71.69
2940 1.3250 5154.00 5186.62 71.79
2941 1.3253 5199.00 5186.92 72.10
2942 1.3257 5182.00 5185.73 71.99
2943 1.3260 5311.00 5182.70 72.88
2944 1.3264 5258.00 5177.61 72.51
2945 1.3267 5248.00 5170.39 72.44
2946 1.3271 5254.00 5161.13 72.48
2947 1.3274 5090.00 5150.03 71.34
2948 1.3278 5170.00 5137.42 71.90
2949 1.3281 5158.00 5123.65 71.82
2950 1.3285 5126.00 5109.10 71.60
2951 1.3288 5072.00 5094.12 71.22
2952 1.3292 5084.00 5079.05 71.30
2953 1.3295 4993.00 5064.20 70.66
2954 1.3299 5026.00 5049.82 70.89
2955 1.3302 5086.00 5036.11 71.32
2956 1.3306 4982.00 5023.27 70.58
2957 1.3309 5019.00 5011.45 70.84
2958 1.3313 4960.00 5000.75 70.43
2959 1.3316 4955.00 4991.26 70.39
2960 1.3320 4936.00 4983.03 70.26
2961 1.3323 5058.00 4976.10 71.12
2962 1.3327 5072.00 4970.49 71.22
2963 1.3330 5004.00 4966.18 70.74
2964 1.3334 4970.00 4963.19 70.50
2965 1.3337 4928.00 4961.48 70.20
2966 1.3341 5002.00 4961.02 70.72
2967 1.3344 5040.00 4961.81 70.99
2968 1.3348 4993.00 4963.80 70.66
2969 1.3351 4994.00 4966.98 70.67
2970 1.3354 4943.00 4971.34 70.31
2971 1.3358 5094.00 4976.86 71.37
2972 1.3361 5036.00 4983.54 70.96
2973 1.3365 5055.00 4991.36 71.10
2974 1.3368 5049.00 5000.34 71.06
2975 1.3372 4979.00 5010.47 70.56
2976 1.3375 4998.00 5021.67 70.70
2977 1.3379 5067.00 5034.11 71.18
2978 1.3382 5079.00 5047.69 71.27
2979 1.3386 5035.00 5062.42 70.96
2980 1.3389 5091.00 5078.24 71.35
2981 1.3393 5103.00 5095.15 71.44
2982 1.3396 5041.00 5113.01 71.00
2983 1.3400 5219.00 5131.92 72.24
2984 1.3403 5170.00 5151.69 71.90
2985 1.3407 5105.00 5172.21 71.45
2986 1.3410 5138.00 5193.37 71.68
2987 1.3414 5167.00 5214.99 71.88
2988 1.3417 5295.00 5236.88 72.77
2989 1.3421 5234.00 5258.80 72.35
2990 1.3424 5198.00 5280.49 72.10
2991 1.3428 5174.00 5301.65 71.93
2992 1.3431 5262.00 5321.96 72.54
2993 1.3435 5261.00 5341.08 72.53
2994 1.3438 5281.00 5358.64 72.67
2995 1.3442 5281.00 5374.30 72.67
2996 1.3445 5382.00 5387.69 73.36
2997 1.3449 5397.00 5398.52 73.46
2998 1.3452 5448.00 5406.50 73.81
2999 1.3456 5408.00 5411.42 73.54
3000 1.3459 5396.00 5413.11 73.46
3001 1.3463 5370.00 5411.52 73.28
3002 1.3466 5463.00 5406.66 73.91
3003 1.3470 5375.00 5398.64 73.31
3004 1.3473 5287.00 5387.63 72.71
3005 1.3477 5330.00 5373.91 73.01
3006 1.3480 5172.00 5357.83 71.92
3007 1.3484 5302.00 5339.77 72.81
3008 1.3487 5340.00 5320.15 73.08
3009 1.3491 5248.00 5299.39 72.44
3010 1.3494 5273.00 5277.91 72.62
3011 1.3498 5128.00 5256.09 71.61
3012 1.3501 5181.00 5234.28 71.98
3013 1.3505 5152.00 5212.86 71.78
3014 1.3508 5206.00 5191.99 72.15
3015 1.3512 5094.00 5171.97 71.37
3016 1.3515 5065.00 5152.98 71.17
3017 1.3519 5056.00 5135.17 71.11
3018 1.3522 5026.00 5118.69 70.89
3019 1.3526 5039.00 5103.61 70.99
3020 1.3529 5045.00 5089.97 71.03
3021 1.3533 4969.00 5077.81 70.49
3022 1.3536 5058.00 5067.11 71.12
3023 1.3539 4997.00 5057.84 70.69
3024 1.3543 5044.00 5049.94 71.02
3025 1.3546 5073.00 5043.32 71.22
3026 1.3550 5151.00 5037.80 71.77
3027 1.3553 5073.00 5033.40 71.22
3028 1.3557 5138.00 5029.90 71.68
3029 1.3560 5066.00 5027.14 71.18
3030 1.3564 5022.00 5024.95 70.87
3031 1.3567 5011.00 5023.15 70.79
3032 1.3571 5029.00 5021.55 70.92
3033 1.3574 5033.00 5019.99 70.94
3034 1.3578 4985.00 5018.33 70.60
3035 1.3581 4968.00 5016.42 70.48
3036 1.3585 4968.00 5014.19 70.48
3037 1.3588 5000.00 5011.60 70.71
3038 1.3592 5019.00 5008.64 70.84
3039 1.3595 5011.00 5005.37 70.79
3040 1.3599 5020.00 5001.85 70.85
3041 1.3602 5053.00 4998.19 71.08
3042 1.3606 5027.00 4994.49 70.90
3043 1.3609 4969.00 4990.85 70.49
3044 1.3613 5041.00 4987.36 71.00
3045 1.3616 5056.00 4984.13 71.11
3046 1.3620 4932.00 4981.23 70.23
3047 1.3623 4954.00 4978.70 70.38
3048 1.3627 5021.00 4976.59 70.86
3049 1.3630 4940.00 4974.93 70.29
3050 1.3634 5037.00 4973.71 70.97
3051 1.3637 5012.00 4972.93 70.80
3052 1.3641 5050.00 4972.55 71.06
3053 1.3644 5066.00 4972.53 71.18
3054 1.3648 5000.00 4972.78 70.71
3055 1.3651 4897.00 4973.23 69.98
3056 1.3655 5013.00 4973.76 70.80
3057 1.3658 4966.00 4974.26 70.47
3058 1.3662 5067.00 4974.59 71.18
3059 1.3665 5019.00 4974.63 70.84
3060 1.3669 4997.00 4974.26 70.69
3061 1.3672 4952.00 4973.39 70.37
3062 1.3676 5078.00 4971.95 71.26
3063 1.3679 5078.00 4969.93 71.26
3064 1.3683 5038.00 4967.37 70.98
3065 1.3686 4910.00 4964.32 70.07
3066 1.3690 4920.00 4960.88 70.14
3067 1.3693 4947.00 4957.15 70.33
3068 1.3697 4986.00 4953.24 70.61
3069 1.3700 4911.00 4949.25 70.08
3070 1.3704 4919.00 4945.28 70.14
3071 1.3707 4894.00 4941.44 69.96
3072 1.3711 4925.00 4937.79 70.18
3073 1.3714 4956.00 4934.41 70.40
3074 1.3718 4963.00 4931.38 70.45
3075 1.3721 4948.00 4928.76 70.34
3076 1.3724 4966.00 4926.62 70.47
3077 1.3728 4914.00 4925.01 70.10
3078 1.3731 4777.00 4924.00 69.12
3079 1.3735 4937.00 4923.65 70.26
3080 1.3738 4905.00 4924.03 70.04
3081 1.3742 4906.00 4925.22 70.04
3082 1.3745 5043.00 4927.26 71.01
3083 1.3749 4901.00 4930.25 70.01
3084 1.3752 4866.00 4934.23 69.76
3085 1.3756 4973.00 4939.27 70.52
3086 1.3759 5118.00 4945.40 71.54
3087 1.3763 5010.00 4952.65 70.78
3088 1.3766 4967.00 4961.02 70.48
3089 1.3770 4915.00 4970.48 70.11
3090 1.3773 5048.00 4980.96 71.05
3091 1.3777 4983.00 4992.34 70.59
3092 1.3780 5069.00 5004.49 71.20
3093 1.3784 5045.00 5017.18 71.03
3094 1.3787 5140.00 5030.14 71.69
3095 1.3791 5211.00 5043.06 72.19
3096 1.3794 5062.00 5055.55 71.15
3097 1.3798 5103.00 5067.17 71.44
3098 1.3801 5127.00 5077.42 71.60
3099 1.3805 5160.00 5085.80 71.83
3100 1.3808 5168.00 5091.84 71.89
3101 1.3812 5082.00 5095.14 71.29
3102 1.3815 5124.00 5095.49 71.58
3103 1.3819 5147.00 5092.86 71.74
3104 1.3822 5174.00 5087.40 71.93
3105 1.3826 5121.00 5079.47 71.56
3106 1.3829 5011.00 5069.51 70.79
3107 1.3833 5023.00 5058.02 70.87
3108 1.3836 4955.00 5045.48 70.39
3109 1.3840 5015.00 5032.37 70.82
3110 1.3843 5025.00 5019.06 70.89
3111 1.3847 4981.00 5005.88 70.58
3112 1.3850 4995.00 4993.13 70.68
3113 1.3854 4952.00 4981.00 70.37
3114 1.3857 4965.00 4969.65 70.46
3115 1.3861 4940.00 4959.20 70.29
3116 1.3864 4914.00 4949.71 70.10
3117 1.3868 4875.00 4941.21 69.82
3118 1.3871 4931.00 4933.68 70.22
3119 1.3875 4919.00 4927.09 70.14
3120 1.3878 4885.00 4921.38 69.89
3121 1.3882 5006.00 4916.48 70.75
3122 1.3885 4983.00 4912.30 70.59
3123 1.3889 5070.00 4908.78 71.20
3124 1.3892 4882.00 4905.82 69.87
3125 1.3896 4864.00 4903.34 69.74
3126 1.3899 4926.00 4901.28 70.19
3127 1.3903 4853.00 4899.55 69.66
3128 1.3906 4916.00 4898.11 70.11
3129 1.3909 4858.00 4896.90 69.70
3130 1.3913 4887.00 4895.89 69.91
3131 1.3916 5032.00 4895.02 70.94
3132 1.3920 4969.00 4894.29 70.49
3133 1.3923 4931.00 4893.88 70.22
3134 1.3927 4801.00 4893.33 69.29
3135 1.3930 4857.00 4892.86 69.69
3136 1.3934 4815.00 4892.45 69.39
3137 1.3937 4823.00 4892.09 69.45
3138 1.3941 4941.00 4891.78 70.29
3139 1.3944 4921.00 4891.50 70.15
3140 1.3948 4923.00 4891.26 70.16
3141 1.3951 4953.00 4891.05 70.38
3142 1.3955 4842.00 4890.87 69.58
3143 1.3958 4857.00 4890.71 69.69
3144 1.3962 4957.00 4890.58 70.41
3145 1.3965 5008.00 4890.47 70.77
3146 1.3969 4927.00 4890.38 70.19
3147 1.3972 4855.00 4890.30 69.68
3148 1.3976 4855.00 4890.25 69.68
3149 1.3979 4922.00 4890.18 70.16
3150 1.3983 4916.00 4890.16 70.11
3151 1.3986 4883.00 4890.16 69.88
3152 1.3990 4929.00 4890.18 70.21
3153 1.3993 4905.00 4890.22 70.04
3154 1.3997 4921.00 4890.27 70.15
3155 1.4000 4856.00 4890.34 69.68
3156 1.4004 4954.00 4890.43 70.38
3157 1.4007 4885.00 4890.54 69.89
3158 1.4011 4891.00 4890.66 69.94
3159 1.4014 4844.00 4890.81 69.60
3160 1.4018 4775.00 4890.97 69.10
3161 1.4021 4885.00 4891.16 69.89
3162 1.4025 4971.00 4891.37 70.51
3163 1.4028 4963.00 4891.61 70.45
3164 1.4032 4909.00 4891.88 70.06
3165 1.4035 4784.00 4892.17 69.17
3166 1.4039 4825.00 4892.49 69.46
3167 1.4042 4917.00 4892.84 70.12
3168 1.4046 4900.00 4893.24 70.00
3169 1.4049 4842.00 4893.67 69.58
3170 1.4053 4885.00 4894.14 69.89
3171 1.4056 4869.00 4894.65 69.78
3172 1.4060 4931.00 4895.22 70.22
3173 1.4063 4819.00 4895.83 69.42
3174 1.4067 4876.00 4896.50 69.83
3175 1.4070 4851.00 4897.24 69.65
3176 1.4074 4829.00 4898.03 69.49
3177 1.4077 4811.00 4898.90 69.36
3178 1.4081 4917.00 4899.85 70.12
3179 1.4084 4946.00 4900.89 70.33
3180 1.4088 4825.00 4902.02 69.46
3181 1.4091 4936.00 4903.25 70.26
3182 1.4095 4941.00 4904.59 70.29
3183 1.4098 4924.00 4906.06 70.17
3184 1.4101 4871.00 4907.67 69.79
3185 1.4105 4863.00 4909.43 69.74
3186 1.4108 4894.00 4911.36 69.96
3187 1.4112 4950.00 4913.48 70.36
3188 1.4115 4922.00 4915.79 70.16
3189 1.4119 4895.00 4918.43 69.96
3190 1.4122 4872.00 4921.21 69.80
3191 1.4126 4902.00 4924.20 70.01
3192 1.4129 4826.00 4927.53 69.47
3193 1.4133 4946.00 4931.16 70.33
3194 1.4136 4949.00 4935.11 70.35
3195 1.4140 4983.00 4939.39 70.59
3196 1.4143 5010.00 4944.01 70.78
3197 1.4147 5004.00 4948.98 70.74
3198 1.4150 4942.00 4954.29 70.30
3199 1.4154 4852.00 4959.95 69.66
3200 1.4157 4923.00 4965.93 70.16
3201 1.4161 5000.00 4972.23 70.71
3202 1.4164 4935.00 4978.82 70.25
3203 1.4168 4944.00 4985.66 70.31
3204 1.4171 5076.00 4992.71 71.25
3205 1.4175 5089.00 4999.93 71.34
3206 1.4178 5021.00 5007.24 70.86
3207 1.4182 5029.00 5014.58 70.92
3208 1.4185 5068.00 5021.86 71.19
3209 1.4189 5128.00 5028.97 71.61
3210 1.4192 5103.00 5035.80 71.44
3211 1.4196 5105.00 5042.23 71.45
3212 1.4199 5049.00 5048.15 71.06
3213 1.4203 5028.00 5053.42 70.91
3214 1.4206 5095.00 5057.96 71.38
3215 1.4210 5093.00 5061.71 71.37
3216 1.4213 5031.00 5064.65 70.93
3217 1.4217 5141.00 5066.78 71.70
3218 1.4220 5032.00 5068.16 70.94
3219 1.4224 5219.00 5068.89 72.24
3220 1.4227 5098.00 5069.06 71.40
3221 1.4231 5073.00 5068.78 71.22
3222 1.4234 5074.00 5068.19 71.23
3223 1.4238 5111.00 5067.30 71.49
3224 1.4241 5089.00 5066.21 71.34
3225 1.4245 5076.00 5064.95 71.25
3226 1.4248 5137.00 5063.53 71.67
3227 1.4252 5152.00 5061.94 71.78
3228 1.4255 5008.00 5060.13 70.77
3229 1.4259 5065.00 5058.06 71.17
3230 1.4262 5088.00 5055.65 71.33
3231 1.4266 5111.00 5052.84 71.49
3232 1.4269 5127.00 5049.55 71.60
3233 1.4273 5175.00 5045.75 71.94
3234 1.4276 5169.00 5041.40 71.90
3235 1.4280 5055.00 5036.50 71.10
3236 1.4283 5028.00 5031.09 70.91
3237 1.4286 4964.00 5025.22 70.46
3238 1.4290 5112.00 5018.97 71.50
3239 1.4293 5088.00 5012.43 71.33
3240 1.4297 4892.00 5005.69 69.94
3241 1.4300 5040.00 4998.84 70.99
3242 1.4304 4988.00 4991.96 70.63
3243 1.4307 4980.00 4985.12 70.57
3244 1.4311 5003.00 4978.39 70.73
3245 1.4314 5006.00 4971.82 70.75
3246 1.4318 4976.00 4965.47 70.54
3247 1.4321 4979.00 4959.36 70.56
3248 1.4325 4980.00 4953.53 70.57
3249 1.4328 4998.00 4948.02 70.70
3250 1.4332 5013.00 4942.83 70.80
3251 1.4335 4940.00 4937.99 70.29
3252 1.4339 4988.00 4933.50 70.63
3253 1.4342 4947.00 4929.36 70.33
3254 1.4346 5001.00 4925.55 70.72
3255 1.4349 4872.00 4922.11 69.80
3256 1.4353 4956.00 4918.98 70.40
3257 1.4356 4939.00 4916.18 70.28
3258 1.4360 4869.00 4913.67 69.78
3259 1.4363 4828.00 4911.44 69.48
3260 1.4367 4903.00 4909.48 70.02
3261 1.4370 4934.00 4907.76 70.24
3262 1.4374 4861.00 4906.26 69.72
3263 1.4377 4804.00 4904.96 69.31
3264 1.4381 4880.00 4903.85 69.86
3265 1.4384 4907.00 4902.91 70.05
3266 1.4388 4953.00 4902.13 70.38
3267 1.4391 4971.00 4901.48 70.51
3268 1.4395 4875.00 4900.96 69.82
3269 1.4398 4859.00 4900.56 69.71
3270 1.4402 4853.00 4900.26 69.66
3271 1.4405 4908.00 4900.08 70.06
3272 1.4409 4949.00 4899.96 70.35
3273 1.4412 4942.00 4899.92 70.30
3274 1.4416 4851.00 4899.96 69.65
3275 1.4419 4850.00 4900.07 69.64
3276 1.4423 4905.00 4900.24 70.04
3277 1.4426 4880.00 4900.47 69.86
3278 1.4430 4900.00 4900.76 70.00
3279 1.4433 4869.00 4901.10 69.78
3280 1.4437 4997.00 4901.49 70.69
3281 1.4440 4915.00 4901.94 70.11
3282 1.4444 4862.00 4902.43 69.73
3283 1.4447 4943.00 4902.96 70.31
3284 1.4451 4900.00 4903.54 70.00
3285 1.4454 4884.00 4904.17 69.89
3286 1.4458 4965.00 4904.84 70.46
3287 1.4461 5026.00 4905.55 70.89
3288 1.4465 4936.00 4906.31 70.26
3289 1.4468 4881.00 4907.12 69.86
3290 1.4471 4917.00 4907.97 70.12
3291 1.4475 4884.00 4908.87 69.89
3292 1.4478 4855.00 4909.82 69.68
3293 1.4482 4858.00 4910.83 69.70
3294 1.4485 4786.00 4911.90 69.18
3295 1.4489 4844.00 4913.04 69.60
3296 1.4492 4848.00 4914.25 69.63
3297 1.4496 4829.00 4915.53 69.49
3298 1.4499 4874.00 4916.90 69.81
3299 1.4503 4823.00 4918.36 69.45
3300 1.4506 4996.00 4919.91 70.68
3301 1.4510 4980.00 4921.57 70.57
3302 1.4513 4901.00 4923.34 70.01
3303 1.4517 4868.00 4925.23 69.77
3304 1.4520 4897.00 4927.27 69.98
3305 1.4524 4960.00 4929.28 70.43
3306 1.4527 4922.00 4931.55 70.16
3307 1.4531 4871.00 4933.94 69.79
3308 1.4534 4888.00 4936.45 69.91
3309 1.4538 4885.00 4939.06 69.89
3310 1.4541 4919.00 4941.76 70.14
3311 1.4545 4893.00 4944.54 69.95
3312 1.4548 4904.00 4947.35 70.03
3313 1.4552 4966.00 4950.16 70.47
3314 1.4555 5005.00 4952.93 70.75
3315 1.4559 5012.00 4955.61 70.80
3316 1.4562 4987.00 4958.12 70.62
3317 1.4566 5008.00 4960.41 70.77
3318 1.4569 5110.00 4962.39 71.48
3319 1.4573 5045.00 4963.99 71.03
3320 1.4576 4987.00 4965.13 70.62
3321 1.4580 4993.00 4965.76 70.66
3322 1.4583 4924.00 4965.81 70.17
3323 1.4587 4939.00 4965.26 70.28
3324 1.4590 4982.00 4964.11 70.58
3325 1.4594 4997.00 4962.39 70.69
3326 1.4597 5018.00 4960.13 70.84
3327 1.4601 4999.00 4957.41 70.70
3328 1.4604 5022.00 4954.31 70.87
3329 1.4608 4995.00 4950.90 70.68
3330 1.4611 4972.00 4947.27 70.51
3331 1.4615 4919.00 4943.50 70.14
3332 1.4618 4879.00 4939.66 69.85
3333 1.4622 4908.00 4935.81 70.06
3334 1.4625 4960.00 4932.01 70.43
3335 1.4629 5013.00 4928.31 70.80
3336 1.4632 5093.00 4924.74 71.37
3337 1.4636 4964.00 4921.33 70.46
3338 1.4639 4857.00 4918.10 69.69
3339 1.4643 4916.00 4915.09 70.11
3340 1.4646 4931.00 4912.29 70.22
3341 1.4650 4972.00 4909.72 70.51
3342 1.4653 4874.00 4907.37 69.81
3343 1.4656 4859.00 4905.25 69.71
3344 1.4660 4893.00 4903.36 69.95
3345 1.4663 4971.00 4901.68 70.51
3346 1.4667 4867.00 4900.20 69.76
3347 1.4670 4951.00 4898.91 70.36
3348 1.4674 4959.00 4897.80 70.42
3349 1.4677 4996.00 4896.87 70.68
3350 1.4681 4933.00 4896.10 70.24
3351 1.4684 4843.00 4895.51 69.59
3352 1.4688 4905.00 4895.03 70.04
3353 1.4691 4922.00 4894.68 70.16
3354 1.4695 4852.00 4894.47 69.66
3355 1.4698 4831.00 4894.39 69.51
3356 1.4702 4934.00 4894.45 70.24
3357 1.4705 4979.00 4894.65 70.56
3358 1.4709 4988.00 4894.99 70.63
3359 1.4712 4870.00 4895.51 69.79
3360 1.4716 4839.00 4896.20 69.56
3361 1.4719 4915.00 4897.10 70.11
3362 1.4723 4838.00 4898.22 69.56
3363 1.4726 4835.00 4899.59 69.53
3364 1.4730 4815.00 4901.24 69.39
3365 1.4733 4871.00 4903.20 69.79
3366 1.4737 4919.00 4905.50 70.14
3367 1.4740 4879.00 4908.16 69.85
3368 1.4744 4974.00 4911.22 70.53
3369 1.4747 4833.00 4914.71 69.52
3370 1.4751 4861.00 4918.63 69.72
3371 1.4754 4925.00 4923.00 70.18
3372 1.4758 4878.00 4927.83 69.84
3373 1.4761 4956.00 4933.11 70.40
3374 1.4765 4911.00 4938.82 70.08
3375 1.4768 4896.00 4944.92 69.97
3376 1.4772 4937.00 4951.38 70.26
3377 1.4775 5019.00 4958.12 70.84
3378 1.4779 4979.00 4965.07 70.56
3379 1.4782 4968.00 4972.13 70.48
3380 1.4786 5004.00 4979.18 70.74
3381 1.4789 5024.00 4986.08 70.88
3382 1.4793 5059.00 4992.66 71.13
3383 1.4796 5067.00 4998.75 71.18
3384 1.4800 5086.00 5004.16 71.32
3385 1.4803 5073.00 5008.70 71.22
3386 1.4807 4970.00 5012.18 70.50
3387 1.4810 4956.00 5014.45 70.40
3388 1.4814 5075.00 5015.40 71.24
3389 1.4817 5100.00 5014.98 71.41
3390 1.4821 5078.00 5013.20 71.26
3391 1.4824 5087.00 5010.15 71.32
3392 1.4828 4999.00 5005.95 70.70
3393 1.4831 5039.00 5000.79 70.99
3394 1.4835 5093.00 4994.85 71.37
3395 1.4838 5006.00 4988.31 70.75
3396 1.4842 5026.00 4981.38 70.89
3397 1.4845 4991.00 4974.21 70.65
3398 1.4848 4994.00 4966.96 70.67
3399 1.4852 4916.00 4959.76 70.11
3400 1.4855 5003.00 4952.71 70.73
3401 1.4859 4849.00 4945.85 69.63
3402 1.4862 4797.00 4939.38 69.26
3403 1.4866 4898.00 4933.28 69.99
3404 1.4869 4967.00 4927.59 70.48
3405 1.4873 4867.00 4922.35 69.76
3406 1.4876 4898.00 4917.55 69.99
3407 1.4880 4874.00 4913.21 69.81
3408 1.4883 4871.00 4909.32 69.79
3409 1.4887 4870.00 4905.86 69.79
3410 1.4890 4919.00 4902.81 70.14
3411 1.4894 4875.00 4900.14 69.82
3412 1.4897 4853.00 4897.82 69.66
3413 1.4901 4802.00 4895.82 69.30
3414 1.4904 4764.00 4894.12 69.02
3415 1.4908 4870.00 4892.67 69.79
3416 1.4911 4885.00 4891.38 69.89
3417 1.4915 4896.00 4890.38 69.97
3418 1.4918 4928.00 4889.55 70.20
3419 1.4922 4926.00 4888.89 70.19
3420 1.4925 4891.00 4888.33 69.94
3421 1.4929 4881.00 4887.93 69.86
3422 1.4932 4849.00 4887.63 69.63
3423 1.4936 4778.00 4887.43 69.12
3424 1.4939 4816.00 4887.31 69.40
3425 1.4943 4931.00 4887.27 70.22
3426 1.4946 4878.00 4887.29 69.84
3427 1.4950 4897.00 4887.38 69.98
3428 1.4953 4896.00 4887.52 69.97
3429 1.4957 4941.00 4887.80 70.29
3430 1.4960 4879.00 4888.03 69.85
3431 1.4964 4914.00 4888.30 70.10
3432 1.4967 4846.00 4888.60 69.61
3433 1.4971 4954.00 4888.93 70.38
3434 1.4974 4873.00 4889.29 69.81
3435 1.4978 4973.00 4889.63 70.52
3436 1.4981 4845.00 4890.02 69.61
3437 1.4985 4835.00 4890.44 69.53
3438 1.4988 4857.00 4890.88 69.69
3439 1.4992 4893.00 4891.35 69.95
3440 1.4995 4841.00 4891.85 69.58
3441 1.4999 4853.00 4892.41 69.66
3442 1.5002 4902.00 4893.05 70.01
3443 1.5006 4869.00 4893.78 69.78
3444 1.5009 4817.00 4894.63 69.40
3445 1.5013 4816.00 4895.64 69.40
3446 1.5016 4913.00 4896.84 70.09
3447 1.5020 4822.00 4898.25 69.44
3448 1.5023 4857.00 4899.91 69.69
3449 1.5027 4887.00 4901.85 69.91
3450 1.5030 4944.00 4904.11 70.31
3451 1.5033 4919.00 4906.72 70.14
3452 1.5037 4940.00 4909.70 70.29
3453 1.5040 4995.00 4913.08 70.68
3454 1.5044 4991.00 4916.89 70.65
3455 1.5047 4843.00 4921.13 69.59
3456 1.5051 4941.00 4925.83 70.29
3457 1.5054 4929.00 4930.98 70.21
3458 1.5058 4967.00 4936.60 70.48
3459 1.5061 5012.00 4942.65 70.80
3460 1.5065 4977.00 4949.13 70.55
3461 1.5068 4942.00 4955.99 70.30
3462 1.5072 4989.00 4963.19 70.63
3463 1.5075 4970.00 4970.67 70.50
3464 1.5079 4976.00 4978.35 70.54
3465 1.5082 5112.00 4986.13 71.50
3466 1.5086 5045.00 4993.90 71.03
3467 1.5089 4952.00 5001.52 70.37
3468 1.5093 4962.00 5008.86 70.44
3469 1.5096 4974.00 5015.76 70.53
3470 1.5100 5079.00 5022.06 71.27
3471 1.5103 4997.00 5027.60 70.69
3472 1.5107 4920.00 5032.26 70.14
3473 1.5110 5045.00 5035.93 71.03
3474 1.5114 4954.00 5038.56 70.38
3475 1.5117 5059.00 5040.17 71.13
3476 1.5121 5073.00 5040.78 71.22
3477 1.5124 5060.00 5040.50 71.13
3478 1.5128 5031.00 5039.45 70.93
3479 1.5131 5114.00 5037.78 71.51
3480 1.5135 5087.00 5035.64 71.32
3481 1.5138 5001.00 5033.17 70.72
3482 1.5142 5047.00 5030.49 71.04
3483 1.5145 5017.00 5027.72 70.83
3484 1.5149 5004.00 5024.97 70.74
3485 1.5152 5097.00 5022.31 71.39
3486 1.5156 4979.00 5019.80 70.56
3487 1.5159 5028.00 5017.48 70.91
3488 1.5163 4917.00 5015.39 70.12
3489 1.5166 5021.00 5013.55 70.86
3490 1.5170 5028.00 5011.77 70.91
3491 1.5173 5009.00 5010.41 70.77
3492 1.5177 5022.00 5009.61 70.87
3493 1.5180 5064.00 5008.68 71.16
3494 1.5184 5015.00 5007.92 70.82
3495 1.5187 4951.00 5007.30 70.36
3496 1.5191 5083.00 5006.79 71.30
3497 1.5194 5114.00 5006.36 71.51
3498 1.5198 5029.00 5005.99 70.92
3499 1.5201 5041.00 5005.65 71.00
3500 1.5205 5040.00 5005.34 70.99
3501 1.5208 5010.00 5005.03 70.78
3502 1.5212 4987.00 5004.74 70.62
3503 1.5215 5002.00 5004.46 70.72
3504 1.5218 5001.00 5004.20 70.72
3505 1.5222 5008.00 5003.98 70.77
3506 1.5225 4994.00 5003.81 70.67
3507 1.5229 5007.00 5003.70 70.76
3508 1.5232 4991.00 5003.68 70.65
3509 1.5236 5010.00 5003.76 70.78
3510 1.5239 4959.00 5003.96 70.42
3511 1.5243 5052.00 5004.28 71.08
3512 1.5246 5125.00 5004.73 71.59
3513 1.5250 4952.00 5005.32 70.37
3514 1.5253 4918.00 5006.02 70.13
3515 1.5257 4974.00 5006.85 70.53
3516 1.5260 4998.00 5007.76 70.70
3517 1.5264 5024.00 5008.75 70.88
3518 1.5267 4983.00 5009.79 70.59
3519 1.5271 4987.00 5010.83 70.62
3520 1.5274 5008.00 5011.83 70.77
3521 1.5278 5074.00 5012.75 71.23
3522 1.5281 4972.00 5013.53 70.51
3523 1.5285 5103.00 5014.11 71.44
3524 1.5288 5060.00 5014.39 71.13
3525 1.5292 5031.00 5014.32 70.93
3526 1.5295 5023.00 5013.80 70.87
3527 1.5299 5018.00 5012.74 70.84
3528 1.5302 5043.00 5011.06 71.01
3529 1.5306 4974.00 5008.70 70.53
3530 1.5309 4976.00 5005.61 70.54
3531 1.5313 4940.00 5001.77 70.29
3532 1.5316 5019.00 4997.22 70.84
3533 1.5320 4939.00 4991.99 70.28
3534 1.5323 4996.00 4986.19 70.68
3535 1.5327 4926.00 4979.91 70.19
3536 1.5330 5040.00 4973.26 70.99
3537 1.5334 5032.00 4966.37 70.94
3538 1.5337 5004.00 4959.34 70.74
3539 1.5341 4904.00 4952.29 70.03
3540 1.5344 4947.00 4945.29 70.33
3541 1.5348 5041.00 4938.44 71.00
3542 1.5351 4959.00 4931.79 70.42
3543 1.5355 4850.00 4925.41 69.64
3544 1.5358 4966.00 4919.32 70.47
3545 1.5362 4850.00 4913.58 69.64
3546 1.5365 4858.00 4908.20 69.70
3547 1.5369 4907.00 4903.20 70.05
3548 1.5372 4892.00 4898.57 69.94
3549 1.5376 4941.00 4894.33 70.29
3550 1.5379 4922.00 4890.46 70.16
3551 1.5383 4934.00 4887.06 70.24
3552 1.5386 4912.00 4883.88 70.09
3553 1.5390 4909.00 4881.04 70.06
3554 1.5393 4885.00 4878.49 69.89
3555 1.5397 4858.00 4876.21 69.70
3556 1.5400 4853.00 4874.19 69.66
3557 1.5403 4883.00 4872.40 69.88
3558 1.5407 4962.00 4870.81 70.44
3559 1.5410 4861.00 4869.43 69.72
3560 1.5414 4870.00 4868.18 69.79
3561 1.5417 4826.00 4867.08 69.47
3562 1.5421 4826.00 4866.10 69.47
3563 1.5424 4852.00 4865.24 69.66
3564 1.5428 4798.00 4864.47 69.27
3565 1.5431 4844.00 4863.78 69.60
3566 1.5435 4830.00 4863.17 69.50
3567 1.5438 4858.00 4862.64 69.70
3568 1.5442 4908.00 4862.16 70.06
3569 1.5445 4916.00 4861.73 70.11
3570 1.5449 4837.00 4861.37 69.55
3571 1.5452 4818.00 4861.05 69.41
3572 1.5456 4932.00 4860.77 70.23
3573 1.5459 4823.00 4860.54 69.45
3574 1.5463 4908.00 4860.35 70.06
3575 1.5466 4818.00 4860.19 69.41
3576 1.5470 4892.00 4860.08 69.94
3577 1.5473 4892.00 4859.99 69.94
3578 1.5477 4846.00 4859.94 69.61
3579 1.5480 4820.00 4859.92 69.43
3580 1.5484 4786.00 4859.92 69.18
3581 1.5487 4766.00 4859.94 69.04
3582 1.5491 4848.00 4859.98 69.63
3583 1.5494 4835.00 4860.03 69.53
3584 1.5498 4842.00 4860.08 69.58
3585 1.5501 4852.00 4860.14 69.66
3586 1.5505 4952.00 4860.19 70.37
3587 1.5508 4840.00 4860.23 69.57
3588 1.5512 4865.00 4860.26 69.75
3589 1.5515 4859.00 4860.28 69.71
3590 1.5519 4863.00 4860.27 69.74
3591 1.5522 4841.00 4860.26 69.58
3592 1.5526 4907.00 4860.23 70.05
3593 1.5529 4883.00 4860.20 69.88
3594 1.5533 4928.00 4860.18 70.20
3595 1.5536 4859.00 4860.16 69.71
3596 1.5540 4823.00 4860.15 69.45
3597 1.5543 4865.00 4860.18 69.75
3598 1.5547 4853.00 4860.24 69.66
3599 1.5550 4836.00 4860.35 69.54
3600 1.5554 4790.00 4860.50 69.21
3601 1.5557 4815.00 4860.70 69.39
3602 1.5561 4916.00 4860.96 70.11
3603 1.5564 4814.00 4861.27 69.38
3604 1.5568 4864.00 4861.64 69.74
3605 1.5571 4832.00 4862.07 69.51
3606 1.5575 4861.00 4862.56 69.72
3607 1.5578 4845.00 4863.11 69.61
3608 1.5582 4811.00 4863.73 69.36
3609 1.5585 4848.00 4864.40 69.63
3610 1.5589 4808.00 4865.12 69.34
3611 1.5592 4862.00 4865.85 69.73
3612 1.5595 4851.00 4866.67 69.65
3613 1.5599 4846.00 4867.54 69.61
3614 1.5602 4737.00 4868.44 68.83
3615 1.5606 4739.00 4869.36 68.84
3616 1.5609 4779.00 4870.31 69.13
3617 1.5613 4838.00 4871.27 69.56
3618 1.5616 4822.00 4872.23 69.44
3619 1.5620 4802.00 4873.18 69.30
3620 1.5623 4928.00 4874.11 70.20
3621 1.5627 4887.00 4875.01 69.91
3622 1.5630 4894.00 4875.86 69.96
3623 1.5634 4929.00 4876.66 70.21
3624 1.5637 4826.00 4877.39 69.47
3625 1.5641 4843.00 4878.03 69.59
3626 1.5644 4834.00 4878.58 69.53
3627 1.5648 4927.00 4879.02 70.19
3628 1.5651 4856.00 4879.34 69.68
3629 1.5655 4847.00 4879.53 69.62
3630 1.5658 4899.00 4879.58 69.99
3631 1.5662 4859.00 4879.49 69.71
3632 1.5665 4912.00 4879.26 70.09
3633 1.5669 4814.00 4878.90 69.38
3634 1.5672 4864.00 4878.40 69.74
3635 1.5676 4815.00 4877.78 69.39
3636 1.5679 4869.00 4877.05 69.78
3637 1.5683 4965.00 4876.23 70.46
3638 1.5686 4914.00 4875.33 70.10
3639 1.5690 4863.00 4874.37 69.74
3640 1.5693 4847.00 4873.37 69.62
3641 1.5697 4846.00 4872.35 69.61
3642 1.5700 4836.00 4871.32 69.54
3643 1.5704 4836.00 4870.30 69.54
3644 1.5707 4862.00 4869.30 69.73
3645 1.5711 4801.00 4868.35 69.29
3646 1.5714 4905.00 4867.46 70.04
3647 1.5718 4882.00 4866.63 69.87
3648 1.5721 4935.00 4865.88 70.25
3649 1.5725 4846.00 4865.22 69.61
3650 1.5728 4779.00 4864.64 69.13
3651 1.5732 4859.00 4864.17 69.71
3652 1.5735 4875.00 4863.79 69.82
3653 1.5739 4856.00 4863.51 69.68
3654 1.5742 4822.00 4863.33 69.44
3655 1.5746 4803.00 4863.24 69.30
3656 1.5749 4803.00 4863.25 69.30
3657 1.5753 4847.00 4863.33 69.62
3658 1.5756 4820.00 4863.49 69.43
3659 1.5760 4892.00 4863.70 69.94
3660 1.5763 4893.00 4863.95 69.95
3661 1.5767 4814.00 4864.23 69.38
3662 1.5770 4804.00 4864.53 69.31
3663 1.5774 4935.00 4864.83 70.25
3664 1.5777 4859.00 4865.11 69.71
3665 1.5780 4766.00 4865.38 69.04
3666 1.5784 4888.00 4865.64 69.91
3667 1.5787 4836.00 4865.87 69.54
3668 1.5791 4810.00 4866.10 69.35
3669 1.5794 4819.00 4866.33 69.42
3670 1.5798 4864.00 4866.58 69.74
3671 1.5801 4873.00 4866.86 69.81
3672 1.5805 4918.00 4867.17 70.13
3673 1.5808 4808.00 4867.53 69.34
3674 1.5812 4851.00 4867.94 69.65
3675 1.5815 4856.00 4868.40 69.68
3676 1.5819 4817.00 4868.92 69.40
3677 1.5822 4845.00 4869.48 69.61
3678 1.5826 4861.00 4870.08 69.72
3679 1.5829 4923.00 4870.71 70.16
3680 1.5833 4932.00 4871.35 70.23
3681 1.5836 4898.00 4871.99 69.99
3682 1.5840 4825.00 4872.65 69.46
3683 1.5843 4785.00 4873.25 69.17
3684 1.5847 4783.00 4873.81 69.16
3685 1.5850 4897.00 4874.33 69.98
3686 1.5854 4733.00 4874.81 68.80
3687 1.5857 4800.00 4875.25 69.28
3688 1.5861 4841.00 4875.65 69.58
3689 1.5864 4862.00 4876.02 69.73
3690 1.5868 4962.00 4876.35 70.44
3691 1.5871 4854.00 4876.66 69.67
3692 1.5875 4849.00 4876.92 69.63
3693 1.5878 4847.00 4877.14 69.62
3694 1.5882 4845.00 4877.29 69.61
3695 1.5885 4869.00 4877.37 69.78
3696 1.5889 4942.00 4877.34 70.30
3697 1.5892 4863.00 4877.15 69.74
3698 1.5896 4806.00 4876.84 69.33
3699 1.5899 4902.00 4876.35 70.01
3700 1.5903 4968.00 4875.66 70.48
3701 1.5906 4883.00 4874.76 69.88
3702 1.5910 4808.00 4873.66 69.34
3703 1.5913 4803.00 4872.35 69.30
3704 1.5917 4753.00 4870.87 68.94
3705 1.5920 4827.00 4869.23 69.48
3706 1.5924 4845.00 4867.47 69.61
3707 1.5927 4885.00 4865.62 69.89
3708 1.5931 4831.00 4863.72 69.51
3709 1.5934 4858.00 4861.81 69.70
3710 1.5938 4854.00 4859.90 69.67
3711 1.5941 4849.00 4858.02 69.63
3712 1.5945 4874.00 4856.22 69.81
3713 1.5948 4980.00 4854.49 70.57
3714 1.5952 4863.00 4852.85 69.74
3715 1.5955 4835.00 4851.33 69.53
3716 1.5959 4872.00 4849.91 69.80
3717 1.5962 4968.00 4848.63 70.48
3718 1.5965 4942.00 4847.46 70.30
3719 1.5969 4818.00 4846.42 69.41
3720 1.5972 4751.00 4845.51 68.93
3721 1.5976 4859.00 4844.73 69.71
3722 1.5979 4838.00 4844.05 69.56
3723 1.5983 4864.00 4843.50 69.74
3724 1.5986 4825.00 4843.05 69.46
3725 1.5990 4905.00 4842.66 70.04
3726 1.5993 4912.00 4842.41 70.09
3727 1.5997 4882.00 4842.23 69.87
3728 1.6000 4911.00 4842.13 70.08
3729 1.6004 4932.00 4842.09 70.23
3730 1.6007 4773.00 4842.12 69.09
3731 1.6011 4781.00 4842.20 69.14
3732 1.6014 4777.00 4842.33 69.12
3733 1.6018 4783.00 4842.50 69.16
3734 1.6021 4771.00 4842.70 69.07
3735 1.6025 4763.00 4842.94 69.01
3736 1.6028 4730.00 4843.20 68.78
3737 1.6032 4803.00 4843.48 69.30
3738 1.6035 4795.00 4843.79 69.25
3739 1.6039 4821.00 4844.12 69.43
3740 1.6042 4799.00 4844.46 69.27
3741 1.6046 4868.00 4844.82 69.77
3742 1.6049 4866.00 4845.20 69.76
3743 1.6053 4931.00 4845.59 70.22
3744 1.6056 4822.00 4846.00 69.44
3745 1.6060 4752.00 4846.44 68.93
3746 1.6063 4868.00 4846.89 69.77
3747 1.6067 4785.00 4847.36 69.17
3748 1.6070 4961.00 4847.86 70.43
3749 1.6074 4887.00 4848.38 69.91
3750 1.6077 4848.00 4848.93 69.63
3751 1.6081 4852.00 4849.52 69.66
3752 1.6084 4848.00 4850.13 69.63
3753 1.6088 4941.00 4850.78 70.29
3754 1.6091 4937.00 4851.46 70.26
3755 1.6095 4856.00 4852.19 69.68
3756 1.6098 4824.00 4852.95 69.46
3757 1.6102 4776.00 4853.76 69.11
3758 1.6105 4848.00 4854.63 69.63
3759 1.6109 4898.00 4855.55 69.99
3760 1.6112 4947.00 4856.55 70.33
3761 1.6116 4922.00 4857.62 70.16
3762 1.6119 4878.00 4858.80 69.84
3763 1.6123 4898.00 4860.10 69.99
3764 1.6126 4992.00 4861.48 70.65
3765 1.6130 4876.00 4863.08 69.83
3766 1.6133 4860.00 4864.86 69.71
3767 1.6137 4875.00 4866.83 69.82
3768 1.6140 4809.00 4869.00 69.35
3769 1.6144 4844.00 4871.39 69.60
3770 1.6147 4954.00 4873.98 70.38
3771 1.6151 5019.00 4876.78 70.84
3772 1.6154 4981.00 4879.78 70.58
3773 1.6157 4997.00 4882.96 70.69
3774 1.6161 4913.00 4886.29 70.09
3775 1.6164 4872.00 4889.74 69.80
3776 1.6168 4998.00 4893.28 70.70
3777 1.6171 4892.00 4896.84 69.94
3778 1.6175 4882.00 4900.38 69.87
3779 1.6178 4943.00 4903.82 70.31
3780 1.6182 4999.00 4907.11 70.70
3781 1.6185 4960.00 4910.16 70.43
3782 1.6189 4939.00 4912.88 70.28
3783 1.6192 4964.00 4915.21 70.46
3784 1.6196 4983.00 4917.06 70.59
3785 1.6199 4925.00 4918.37 70.18
3786 1.6203 4945.00 4919.10 70.32
3787 1.6206 4974.00 4919.20 70.53
3788 1.6210 5019.00 4918.69 70.84
3789 1.6213 4969.00 4917.58 70.49
3790 1.6217 5090.00 4915.91 71.34
3791 1.6220 5035.00 4913.74 70.96
3792 1.6224 4918.00 4911.14 70.13
3793 1.6227 4896.00 4908.19 69.97
3794 1.6231 4852.00 4904.98 69.66
3795 1.6234 4799.00 4901.59 69.27
3796 1.6238 4927.00 4898.09 70.19
3797 1.6241 4995.00 4894.56 70.68
3798 1.6245 4945.00 4891.07 70.32
3799 1.6248 4816.00 4887.67 69.40
3800 1.6252 4864.00 4884.43 69.74
3801 1.6255 4840.00 4881.38 69.57
3802 1.6259 4849.00 4878.58 69.63
3803 1.6262 4796.00 4876.06 69.25
3804 1.6266 4799.00 4873.86 69.27
3805 1.6269 4856.00 4872.00 69.68
3806 1.6273 4906.00 4870.50 70.04
3807 1.6276 4876.00 4869.38 69.83
3808 1.6280 4889.00 4868.65 69.92
3809 1.6283 4938.00 4868.33 70.27
3810 1.6287 4858.00 4868.42 69.70
3811 1.6290 4790.00 4868.92 69.21
3812 1.6294 4861.00 4869.84 69.72
3813 1.6297 4886.00 4871.16 69.90
3814 1.6301 4945.00 4872.88 70.32
3815 1.6304 4969.00 4874.99 70.49
3816 1.6308 4972.00 4877.48 70.51
3817 1.6311 5023.00 4880.34 70.87
3818 1.6315 4890.00 4883.56 69.93
3819 1.6318 4867.00 4887.10 69.76
3820 1.6322 4919.00 4890.94 70.14
3821 1.6325 4904.00 4895.07 70.03
3822 1.6329 4917.00 4899.45 70.12
3823 1.6332 4960.00 4904.05 70.43
3824 1.6336 4885.00 4908.84 69.89
3825 1.6339 4955.00 4913.77 70.39
3826 1.6342 4883.00 4918.80 69.88
3827 1.6346 4935.00 4923.89 70.25
3828 1.6349 4920.00 4928.98 70.14
3829 1.6353 5004.00 4934.01 70.74
3830 1.6356 4941.00 4938.94 70.29
3831 1.6360 5045.00 4943.68 71.03
3832 1.6363 4942.00 4948.19 70.30
3833 1.6367 4978.00 4952.39 70.55
3834 1.6370 5020.00 4956.23 70.85
3835 1.6374 4981.00 4959.62 70.58
3836 1.6377 5080.00 4962.54 71.27
3837 1.6381 5010.00 4964.91 70.78
3838 1.6384 4967.00 4966.69 70.48
3839 1.6388 4967.00 4967.86 70.48
3840 1.6391 4978.00 4968.38 70.55
3841 1.6395 4951.00 4968.25 70.36
3842 1.6398 5046.00 4967.47 71.04
3843 1.6402 4904.00 4966.05 70.03
3844 1.6405 4932.00 4964.02 70.23
3845 1.6409 4936.00 4961.42 70.26
3846 1.6412 4919.00 4958.31 70.14
3847 1.6416 4892.00 4954.73 69.94
3848 1.6419 4920.00 4950.76 70.14
3849 1.6423 4991.00 4946.45 70.65
3850 1.6426 4861.00 4941.88 69.72
3851 1.6430 4911.00 4937.12 70.08
3852 1.6433 4854.00 4932.22 69.67
3853 1.6437 4890.00 4927.24 69.93
3854 1.6440 4898.00 4922.24 69.99
3855 1.6444 4907.00 4917.27 70.05
3856 1.6447 4944.00 4912.38 70.31
3857 1.6451 4902.00 4907.60 70.01
3858 1.6454 4917.00 4902.97 70.12
3859 1.6458 4917.00 4898.51 70.12
3860 1.6461 4897.00 4894.22 69.98
3861 1.6465 4758.00 4890.20 68.98
3862 1.6468 4761.00 4886.43 69.00
3863 1.6472 4906.00 4882.92 70.04
3864 1.6475 4935.00 4879.70 70.25
3865 1.6479 4852.00 4876.75 69.66
3866 1.6482 4836.00 4874.09 69.54
3867 1.6486 4811.00 4871.73 69.36
3868 1.6489 4860.00 4869.67 69.71
3869 1.6493 4887.00 4867.91 69.91
3870 1.6496 4814.00 4866.45 69.38
3871 1.6500 4819.00 4865.29 69.42
3872 1.6503 4881.00 4864.44 69.86
3873 1.6507 4918.00 4863.88 70.13
3874 1.6510 4893.00 4863.62 69.95
3875 1.6514 4922.00 4863.65 70.16
3876 1.6517 4879.00 4863.97 69.85
3877 1.6521 4817.00 4864.58 69.40
3878 1.6524 4892.00 4865.48 69.94
3879 1.6527 4853.00 4866.67 69.66
3880 1.6531 4909.00 4868.14 70.06
3881 1.6534 4951.00 4869.90 70.36
3882 1.6538 4850.00 4871.94 69.64
3883 1.6541 4876.00 4874.27 69.83
3884 1.6545 4846.00 4876.89 69.61
3885 1.6548 4956.00 4879.79 70.40
3886 1.6552 4886.00 4882.99 69.90
3887 1.6555 4950.00 4886.48 70.36
3888 1.6559 4951.00 4890.26 70.36
3889 1.6562 4880.00 4894.33 69.86
3890 1.6566 4954.00 4898.70 70.38
3891 1.6569 4934.00 4903.35 70.24
3892 1.6573 4827.00 4908.30 69.48
3893 1.6576 4858.00 4913.53 69.70
3894 1.6580 4896.00 4919.06 69.97
3895 1.6583 4909.00 4924.86 70.06
3896 1.6587 4860.00 4930.93 69.71
3897 1.6590 4890.00 4937.28 69.93
3898 1.6594 4942.00 4943.87 70.30
3899 1.6597 5061.00 4950.71 71.14
3900 1.6601 4956.00 4957.77 70.40
3901 1.6604 4995.00 4965.04 70.68
3902 1.6608 4933.00 4972.50 70.24
3903 1.6611 4950.00 4980.12 70.36
3904 1.6615 5049.00 4987.88 71.06
3905 1.6618 4971.00 4995.75 70.51
3906 1.6622 5003.00 5003.70 70.73
3907 1.6625 5115.00 5011.69 71.52
3908 1.6629 5107.00 5019.68 71.46
3909 1.6632 5139.00 5027.63 71.69
3910 1.6636 5086.00 5035.50 71.32
3911 1.6639 5068.00 5043.25 71.19
3912 1.6643 5068.00 5050.82 71.19
3913 1.6646 5209.00 5058.30 72.17
3914 1.6650 5101.00 5065.38 71.42
3915 1.6653 5052.00 5072.13 71.08
3916 1.6657 5090.00 5078.51 71.34
3917 1.6660 5113.00 5084.49 71.51
3918 1.6664 5026.00 5089.98 70.89
3919 1.6667 5128.00 5095.02 71.61
3920 1.6671 5111.00 5099.53 71.49
3921 1.6674 5145.00 5103.48 71.73
3922 1.6678 5261.00 5106.85 72.53
3923 1.6681 5118.00 5109.62 71.54
3924 1.6685 5114.00 5111.78 71.51
3925 1.6688 5133.00 5113.32 71.64
3926 1.6692 5115.00 5114.24 71.52
3927 1.6695 5146.00 5114.56 71.74
3928 1.6699 5192.00 5114.29 72.06
3929 1.6702 5104.00 5113.47 71.44
3930 1.6706 5062.00 5112.13 71.15
3931 1.6709 5168.00 5110.33 71.89
3932 1.6712 5159.00 5108.13 71.83
3933 1.6716 5111.00 5105.60 71.49
3934 1.6719 5130.00 5102.82 71.62
3935 1.6723 5102.00 5099.88 71.43
3936 1.6726 5212.00 5096.89 72.19
3937 1.6730 5141.00 5093.94 71.70
3938 1.6733 5053.00 5091.13 71.08
3939 1.6737 5099.00 5088.59 71.41
3940 1.6740 5067.00 5086.41 71.18
3941 1.6744 5053.00 5084.70 71.08
3942 1.6747 5069.00 5083.55 71.20
3943 1.6751 4957.00 5083.06 70.41
3944 1.6754 5033.00 5083.29 70.94
3945 1.6758 5036.00 5084.31 70.96
3946 1.6761 5179.00 5086.17 71.97
3947 1.6765 5145.00 5088.88 71.73
3948 1.6768 5092.00 5092.47 71.36
3949 1.6772 5077.00 5096.90 71.25
3950 1.6775 5086.00 5102.15 71.32
3951 1.6779 4987.00 5108.13 70.62
3952 1.6782 5037.00 5114.76 70.97
3953 1.6786 5108.00 5121.90 71.47
3954 1.6789 5122.00 5129.42 71.57
3955 1.6793 5087.00 5137.11 71.32
3956 1.6796 5119.00 5144.76 71.55
3957 1.6800 5023.00 5152.14 70.87
3958 1.6803 5102.00 5158.97 71.43
3959 1.6807 5073.00 5164.95 71.22
3960 1.6810 5039.00 5169.81 70.99
3961 1.6814 5087.00 5173.24 71.32
3962 1.6817 5122.00 5175.00 71.57
3963 1.6821 5074.00 5174.88 71.23
3964 1.6824 5038.00 5172.75 70.98
3965 1.6828 5003.00 5168.57 70.73
3966 1.6831 5074.00 5162.38 71.23
3967 1.6835 5037.00 5154.32 70.97
3968 1.6838 5102.00 5144.59 71.43
3969 1.6842 5103.00 5133.46 71.44
3970 1.6845 5012.00 5121.25 70.80
3971 1.6849 5069.00 5108.14 71.20
3972 1.6852 5051.00 5094.47 71.07
3973 1.6856 4976.00 5080.50 70.54
3974 1.6859 5059.00 5066.44 71.13
3975 1.6863 4981.00 5052.52 70.58
3976 1.6866 5072.00 5038.86 71.22
3977 1.6870 5010.00 5025.62 70.78
3978 1.6873 5036.00 5012.89 70.96
3979 1.6877 5060.00 5000.72 71.13
3980 1.6880 5035.00 4989.16 70.96
3981 1.6884 4980.00 4978.21 70.57
3982 1.6887 4995.00 4967.87 70.68
3983 1.6891 5032.00 4958.09 70.94
3984 1.6894 4963.00 4948.83 70.45
3985 1.6898 4980.00 4940.03 70.57
3986 1.6901 5104.00 4931.65 71.44
3987 1.6904 4970.00 4923.62 70.50
3988 1.6908 4933.00 4915.91 70.24
3989 1.6911 4961.00 4908.49 70.43
3990 1.6915 4958.00 4901.33 70.41
3991 1.6918 4895.00 4894.42 69.96
3992 1.6922 4933.00 4887.76 70.24
3993 1.6925 4912.00 4881.34 70.09
3994 1.6929 4829.00 4875.17 69.49
3995 1.6932 4916.00 4869.25 70.11
3996 1.6936 4900.00 4863.58 70.00
3997 1.6939 4816.00 4858.15 69.40
3998 1.6943 4905.00 4852.99 70.04
3999 1.6946 4904.00 4848.07 70.03
4000 1.6950 4941.00 4843.40 70.29
4001 1.6953 4784.00 4838.98 69.17
4002 1.6957 4845.00 4834.81 69.61
4003 1.6960 4818.00 4830.87 69.41
4004 1.6964 4800.00 4827.17 69.28
4005 1.6967 4893.00 4823.70 69.95
4006 1.6971 4834.00 4820.45 69.53
4007 1.6974 4765.00 4817.41 69.03
4008 1.6978 4855.00 4814.58 69.68
4009 1.6981 4875.00 4811.93 69.82
4010 1.6985 4744.00 4809.47 68.88
4011 1.6988 4705.00 4807.17 68.59
4012 1.6992 4762.00 4805.04 69.01
4013 1.6995 4748.00 4803.04 68.91
4014 1.6999 4813.00 4801.18 69.38
4015 1.7002 4791.00 4799.43 69.22
4016 1.7006 4808.00 4797.80 69.34
4017 1.7009 4745.00 4796.25 68.88
4018 1.7013 4771.00 4794.80 69.07
4019 1.7016 4720.00 4793.41 68.70
4020 1.7020 4845.00 4792.09 69.61
4021 1.7023 4761.00 4790.83 69.00
4022 1.7027 4744.00 4789.62 68.88
4023 1.7030 4781.00 4788.46 69.14
4024 1.7034 4783.00 4787.32 69.16
4025 1.7037 4795.00 4786.23 69.25
4026 1.7041 4764.00 4785.15 69.02
4027 1.7044 4798.00 4784.10 69.27
4028 1.7048 4743.00 4783.07 68.87
4029 1.7051 4747.00 4782.05 68.90
4030 1.7055 4784.00 4781.05 69.17
4031 1.7058 4782.00 4780.06 69.15
4032 1.7062 4793.00 4779.08 69.23
4033 1.7065 4737.00 4778.11 68.83
4034 1.7069 4799.00 4777.14 69.27
4035 1.7072 4727.00 4776.17 68.75
4036 1.7076 4780.00 4775.21 69.14
4037 1.7079 4767.00 4774.25 69.04
4038 1.7083 4716.00 4773.29 68.67
4039 1.7086 4720.00 4772.33 68.70
4040 1.7089 4807.00 4771.36 69.33
4041 1.7093 4781.00 4770.39 69.14
4042 1.7096 4793.00 4769.42 69.23
4043 1.7100 4788.00 4768.44 69.20
4044 1.7103 4747.00 4767.45 68.90
4045 1.7107 4770.00 4766.46 69.07
4046 1.7110 4677.00 4765.45 68.39
4047 1.7114 4675.00 4764.43 68.37
4048 1.7117 4727.00 4763.41 68.75
4049 1.7121 4692.00 4762.36 68.50
4050 1.7124 4859.00 4761.31 69.71
4051 1.7128 4794.00 4760.24 69.24
4052 1.7131 4843.00 4759.15 69.59
4053 1.7135 4888.00 4758.03 69.91
4054 1.7138 4794.00 4756.92 69.24
4055 1.7142 4703.00 4755.79 68.58
4056 1.7145 4741.00 4754.78 68.85
4057 1.7149 4857.00 4753.63 69.69
4058 1.7152 4767.00 4752.46 69.04
4059 1.7156 4778.00 4751.27 69.12
4060 1.7159 4774.00 4750.08 69.09
4061 1.7163 4803.00 4748.89 69.30
4062 1.7166 4878.00 4747.68 69.84
4063 1.7170 4741.00 4746.47 68.85
4064 1.7173 4679.00 4745.25 68.40
4065 1.7177 4665.00 4744.03 68.30
4066 1.7180 4755.00 4742.81 68.96
4067 1.7184 4764.00 4741.59 69.02
4068 1.7187 4671.00 4740.36 68.34
4069 1.7191 4744.00 4739.14 68.88
4070 1.7194 4728.00 4737.92 68.76
4071 1.7198 4746.00 4736.70 68.89
4072 1.7201 4745.00 4735.48 68.88
4073 1.7205 4795.00 4734.27 69.25
4074 1.7208 4717.00 4733.06 68.68
4075 1.7212 4727.00 4731.85 68.75
4076 1.7215 4762.00 4730.65 69.01
4077 1.7219 4773.00 4729.45 69.09
4078 1.7222 4689.00 4728.25 68.48
4079 1.7226 4699.00 4727.05 68.55
4080 1.7229 4666.00 4725.85 68.31
4081 1.7233 4626.00 4724.66 68.01
4082 1.7236 4672.00 4723.45 68.35
4083 1.7240 4678.00 4722.24 68.40
4084 1.7243 4720.00 4721.03 68.70
4085 1.7247 4799.00 4719.80 69.27
4086 1.7250 4778.00 4718.56 69.12
4087 1.7254 4691.00 4717.30 68.49
4088 1.7257 4676.00 4716.02 68.38
4089 1.7261 4741.00 4714.72 68.85
4090 1.7264 4727.00 4713.39 68.75
4091 1.7268 4752.00 4712.04 68.93
4092 1.7271 4825.00 4710.65 69.46
4093 1.7274 4744.00 4709.24 68.88
4094 1.7278 4714.00 4707.79 68.66
4095 1.7281 4674.00 4706.32 68.37
4096 1.7285 4731.00 4704.82 68.78
4097 1.7288 4676.00 4703.29 68.38
4098 1.7292 4728.00 4701.74 68.76
4099 1.7295 4720.00 4700.16 68.70
4100 1.7299 4726.00 4698.57 68.75
