#------------------------------------------------------------------------------
#$Date: 2016-02-14 06:40:26 +0200 (Sun, 14 Feb 2016) $
#$Revision: 176432 $
#$URL: svn://www.crystallography.net/cod/cif/7/20/38/7203838.cif $
#------------------------------------------------------------------------------
#
# This file is available in the Crystallography Open Database (COD),
# http://www.crystallography.net/
#
# All data on this site have been placed in the public domain by the
# contributors.
#
data_7203838
loop_
_publ_author_name
'Abakumov, Artem M.'
'Rossell, Marta D.'
'Seryakov, Sergey A.'
'Rozova, Marina G.'
'Markina, Maria M.'
'Van Tendeloo, Gustaaf'
'Antipov, Evgeny V.'
_publ_section_title
;
 Synthesis and crystal structure of novel CaRMnSnO6(R = La, Pr, Nd,
 Sm--Dy) double perovskites
;
_journal_issue                   46
_journal_name_full               'Journal of Materials Chemistry'
_journal_page_first              4899
_journal_paper_doi               10.1039/b510242a
_journal_volume                  15
_journal_year                    2005
_chemical_formula_sum            'Ca Mn O6 Sm Sn'
_chemical_formula_weight         460.1
_chemical_name_systematic        ' ?'
_space_group_IT_number           62
_symmetry_cell_setting           orthorhombic
_symmetry_space_group_name_Hall  '-P 2ac 2n'
_symmetry_space_group_name_H-M   'P n m a'
_audit_creation_method           'Jana2000 Version : 25/06/2004'
_cell_angle_alpha                90
_cell_angle_beta                 90
_cell_angle_gamma                90
_cell_formula_units_Z            2
_cell_length_a                   5.7186
_cell_length_b                   7.8408
_cell_length_c                   5.4918
_cell_volume                     246.244
_computing_publication_material  '(Jana2000; Petricek and Dusek, 2000)'
_computing_structure_refinement  '(Jana2000; Petricek and Dusek, 2000)'
_diffrn_radiation_type           X-ray
_diffrn_radiation_wavelength     1.5406
_exptl_absorpt_coefficient_mu    20081.801
_exptl_absorpt_process_details   '(Jana2000; Petricek and Dusek, 2000)'
_exptl_crystal_density_diffrn    6.2031
_exptl_crystal_F_000             410
_pd_meas_2theta_range_inc        0.02
_pd_meas_2theta_range_max        99.987
_pd_meas_2theta_range_min        18.007
_pd_meas_number_of_points        4100
_pd_proc_2theta_range_inc        0.02
_pd_proc_2theta_range_max        99.987
_pd_proc_2theta_range_min        18.007
_pd_proc_ls_background_function  '12 Legendre polynoms'
_pd_proc_ls_pref_orient_corr     none
_pd_proc_ls_profile_function     Pseudo-Voigt
_pd_proc_ls_prof_R_factor        0.0099
_pd_proc_ls_prof_wR_expected     0.0140
_pd_proc_ls_prof_wR_factor       0.0126
_refine_ls_extinction_method     none
_refine_ls_number_parameters     34
_refine_ls_R_factor_all          0.0362
_refine_ls_R_factor_gt           0.0301
_refine_ls_shift/su_max          0.0061
_refine_ls_shift/su_mean         0.0011
_refine_ls_weighting_scheme      sigma
_refine_ls_wR_factor_gt          0.0119
_refine_ls_wR_factor_ref         0.0123
_cod_data_source_file            b510242a.txt
_cod_data_source_block           (I)c
_cod_original_cell_volume        246.2444
_cod_original_sg_symbol_Hall     '-P -2zac;-2xn'
_cod_original_formula_sum        'Ca1 Mn1 O6 Sm1 Sn1'
_cod_database_code               7203838
loop_
_symmetry_equiv_pos_site_id
_symmetry_equiv_pos_as_xyz
1 x,y,z
2 1/2+x,y,1/2-z
3 1/2-x,1/2+y,1/2+z
4 -x,1/2+y,-z
5 -x,-y,-z
6 1/2-x,-y,1/2+z
7 1/2+x,1/2-y,1/2-z
8 x,1/2-y,z
loop_
_atom_site_label
_atom_site_type_symbol
_atom_site_fract_x
_atom_site_fract_y
_atom_site_fract_z
_atom_site_adp_type
_atom_site_U_iso_or_equiv
_atom_site_symmetry_multiplicity
_atom_site_occupancy
_atom_site_calc_flag
_atom_site_refinement_flags
_atom_site_disorder_assembly
_atom_site_disorder_group
Sm Sm 0.0589(3) 0.25 -0.0124(8) Uiso 0.0139(9) 4 0.5 d . . .
Sm Ca 0.0589(3) 0.25 -0.0124(8) Uiso 0.0139(9) 4 0.5 d . . .
Sn Sn 0 0 0.5 Uiso 0.0051(8) 4 0.5 d . . .
Sn Mn 0 0 0.5 Uiso 0.0051(8) 4 0.5 d . . .
O1 O 0.4615(17) 0.25 0.0916(19) Uiso 0.010(3) 4 1 d . . .
O2 O 0.3083(14) 0.0532(11) 0.7135(18) Uiso 0.010(3) 8 1 d . . .
loop_
_atom_type_symbol
_atom_type_scat_dispersion_real
_atom_type_scat_dispersion_imag
_atom_type_scat_source
_atom_type_scat_versus_stol_list
Sm -5.324 12.218 'International Tables Vol C Tables 4.2.6.8 and 6.1.1.1'
;
stol 0.00 0.05 0.10 0.15 0.20 0.25 0.30 0.35 0.40
f 62.000 60.525 57.463 54.163 50.786 47.406 44.180 41.221 38.559
stol 0.45 0.50 0.55 0.60 0.65 0.70 0.75 0.80 0.85
f 36.169 34.008 32.036 30.222 28.547 27.002 25.580 24.281 23.098
stol 0.90 0.95 1.00 1.05 1.10 1.15 1.20 1.25 1.30
f 22.030 21.066 20.202 19.426 18.728 18.098 17.523 16.997 16.507
stol 1.35 1.40 1.45 1.50 1.55 1.60 1.65 1.70 1.75
f 16.049 15.613 15.196 14.790 14.394 14.005 13.622 13.243 12.869
;
Ca 0.364 1.286 'International Tables Vol C Tables 4.2.6.8 and 6.1.1.1'
;
stol 0.00 0.05 0.10 0.15 0.20 0.25 0.30 0.35 0.40
f 20.000 19.091 17.331 15.723 14.304 12.961 11.705 10.590 9.650
stol 0.45 0.50 0.55 0.60 0.65 0.70 0.75 0.80 0.85
f 8.885 8.275 7.788 7.392 7.057 6.762 6.491 6.228 5.972
stol 0.90 0.95 1.00 1.05 1.10 1.15 1.20 1.25 1.30
f 5.717 5.463 5.209 4.958 4.710 4.468 4.233 4.007 3.791
stol 1.35 1.40 1.45 1.50 1.55 1.60 1.65 1.70 1.75
f 3.585 3.391 3.209 3.039 2.881 2.733 2.595 2.470 2.356
;
Sn 0.026 5.459 'International Tables Vol C Tables 4.2.6.8 and 6.1.1.1'
;
stol 0.00 0.05 0.10 0.15 0.20 0.25 0.30 0.35 0.40
f 50.000 48.934 46.361 43.309 40.302 37.462 34.794 32.303 30.011
stol 0.45 0.50 0.55 0.60 0.65 0.70 0.75 0.80 0.85
f 27.938 26.096 24.482 23.081 21.868 20.815 19.895 19.073 18.333
stol 0.90 0.95 1.00 1.05 1.10 1.15 1.20 1.25 1.30
f 17.646 17.003 16.384 15.787 15.201 14.627 14.062 13.507 12.962
stol 1.35 1.40 1.45 1.50 1.55 1.60 1.65 1.70 1.75
f 12.430 11.913 11.414 10.933 10.472 10.034 9.618 9.227 8.860
;
Mn -0.530 2.805 'International Tables Vol C Tables 4.2.6.8 and 6.1.1.1'
;
stol 0.00 0.05 0.10 0.15 0.20 0.25 0.30 0.35 0.40
f 25.000 24.274 22.611 20.764 19.012 17.364 15.806 14.353 13.031
stol 0.45 0.50 0.55 0.60 0.65 0.70 0.75 0.80 0.85
f 11.858 10.840 9.973 9.245 8.639 8.137 7.720 7.368 7.070
stol 0.90 0.95 1.00 1.05 1.10 1.15 1.20 1.25 1.30
f 6.808 6.575 6.359 6.157 5.962 5.773 5.586 5.400 5.215
stol 1.35 1.40 1.45 1.50 1.55 1.60 1.65 1.70 1.75
f 5.031 4.849 4.668 4.490 4.315 4.144 3.976 3.814 3.657
;
O 0.049 0.032 'International Tables Vol C Tables 4.2.6.8 and 6.1.1.1'
;
stol 0.00 0.05 0.10 0.15 0.20 0.25 0.30 0.35 0.40
f 8.000 7.798 7.245 6.472 5.623 4.808 4.089 3.489 3.006
stol 0.45 0.50 0.55 0.60 0.65 0.70 0.75 0.80 0.85
f 2.629 2.338 2.115 1.946 1.816 1.714 1.635 1.568 1.512
stol 0.90 0.95 1.00 1.05 1.10 1.15 1.20 1.25 1.30
f 1.463 1.419 1.377 1.337 1.298 1.259 1.221 1.183 1.145
stol 1.35 1.40 1.45 1.50 1.55 1.60 1.65 1.70 1.75
f 1.107 1.070 1.033 0.997 0.961 0.926 0.891 0.857 0.824
;
loop_
_geom_bond_atom_site_label_1
_geom_bond_atom_site_label_2
_geom_bond_site_symmetry_1
_geom_bond_site_symmetry_2
_geom_bond_distance
_geom_bond_publ_flag
Sm O1 . 1_455 3.464(10) yes
Sm O1 . . 2.372(10) yes
Sm O1 . 2_454 3.229(11) yes
Sm O1 . 2_455 2.377(11) yes
Sm O2 . 1_554 2.585(9) yes
Sm O2 . 5_556 3.571(9) yes
Sm O2 . 2_455 2.378(9) yes
Sm O2 . 6_554 2.787(9) yes
Sm O2 . 3_554 2.787(9) yes
Sm O2 . 7_455 2.378(9) yes
Sm O2 . 4_556 3.571(9) yes
Sm O2 . 8_554 2.585(9) yes
Sn O1 . . 3.980(9) yes
Sn O1 . 5_556 3.980(9) yes
Sn O1 . 2_455 2.036(3) yes
Sn O1 . 6_555 2.036(3) yes
Sn O2 . . 2.158(9) yes
Sn O2 . 5_556 2.158(9) yes
Sn O2 . 2_456 1.962(9) yes
Sn O2 . 6_554 1.962(9) yes
Sn O2 . 3_544 3.994(9) yes
Sn O2 . 7_456 3.994(9) yes
loop_
_pd_proc_point_id
_pd_proc_2theta_corrected
_pd_proc_intensity_net
_pd_calc_intensity_net
_pd_proc_ls_weight
1 0.3464 6109.00 6217.88 78.16
2 0.3468 6226.00 6214.97 78.90
3 0.3471 6211.00 6212.06 78.81
4 0.3475 6201.00 6209.14 78.75
5 0.3478 6198.00 6206.23 78.73
6 0.3482 6194.00 6203.31 78.70
7 0.3485 6036.00 6200.38 77.69
8 0.3489 6059.00 6197.46 77.84
9 0.3492 6265.00 6194.53 79.15
10 0.3496 6263.00 6191.60 79.14
11 0.3499 6330.00 6188.68 79.56
12 0.3503 6224.00 6185.74 78.89
13 0.3506 6188.00 6182.81 78.66
14 0.3510 6129.00 6179.88 78.29
15 0.3513 6095.00 6176.94 78.07
16 0.3517 6075.00 6174.00 77.94
17 0.3520 6098.00 6171.06 78.09
18 0.3524 6221.00 6168.13 78.87
19 0.3527 6124.00 6165.18 78.26
20 0.3531 6253.00 6162.24 79.08
21 0.3534 6183.00 6159.30 78.63
22 0.3538 6081.00 6156.36 77.98
23 0.3541 6044.00 6153.42 77.74
24 0.3545 6115.00 6150.47 78.20
25 0.3548 6091.00 6147.53 78.04
26 0.3551 6223.00 6144.59 78.89
27 0.3555 6239.00 6141.64 78.99
28 0.3558 6178.00 6138.70 78.60
29 0.3562 6239.00 6135.76 78.99
30 0.3565 6098.00 6132.81 78.09
31 0.3569 6076.00 6129.87 77.95
32 0.3572 6131.00 6126.93 78.30
33 0.3576 6212.00 6123.99 78.82
34 0.3579 6071.00 6121.05 77.92
35 0.3583 6099.00 6118.11 78.10
36 0.3586 6046.00 6115.17 77.76
37 0.3590 6222.00 6112.23 78.88
38 0.3593 6179.00 6109.30 78.61
39 0.3597 6091.00 6106.37 78.04
40 0.3600 6128.00 6103.44 78.28
41 0.3604 6213.00 6100.51 78.82
42 0.3607 6206.00 6097.58 78.78
43 0.3611 6063.00 6094.66 77.87
44 0.3614 6071.00 6091.74 77.92
45 0.3618 6039.00 6088.82 77.71
46 0.3621 6097.00 6085.90 78.08
47 0.3625 6001.00 6082.99 77.47
48 0.3628 5978.00 6080.09 77.32
49 0.3632 5991.00 6077.19 77.40
50 0.3635 5974.00 6074.29 77.29
51 0.3639 6156.00 6071.40 78.46
52 0.3642 6002.00 6068.52 77.47
53 0.3646 6067.00 6065.65 77.89
54 0.3649 5997.00 6062.78 77.44
55 0.3653 6075.00 6059.93 77.94
56 0.3656 6009.00 6057.08 77.52
57 0.3660 6064.00 6054.25 77.87
58 0.3663 6131.00 6051.43 78.30
59 0.3667 6187.00 6048.63 78.66
60 0.3670 6095.00 6045.85 78.07
61 0.3674 6103.00 6043.10 78.12
62 0.3677 6099.00 6040.38 78.10
63 0.3681 5936.00 6037.69 77.05
64 0.3684 6069.00 6035.04 77.90
65 0.3688 5960.00 6032.45 77.20
66 0.3691 5953.00 6029.94 77.16
67 0.3695 6080.00 6027.52 77.97
68 0.3698 5969.00 6025.26 77.26
69 0.3702 6112.00 6023.22 78.18
70 0.3705 6107.00 6021.55 78.15
71 0.3709 6018.00 6020.44 77.58
72 0.3712 6039.00 6020.14 77.71
73 0.3716 6061.00 6020.95 77.85
74 0.3719 6045.00 6023.05 77.75
75 0.3723 6054.00 6026.33 77.81
76 0.3726 5923.00 6030.46 76.96
77 0.3730 6059.00 6035.13 77.84
78 0.3733 6058.00 6039.43 77.83
79 0.3737 6101.00 6042.00 78.11
80 0.3740 6061.00 6043.40 77.85
81 0.3743 6032.00 6045.27 77.67
82 0.3747 6029.00 6048.27 77.65
83 0.3750 6005.00 6052.07 77.49
84 0.3754 6098.00 6055.66 78.09
85 0.3757 6116.00 6058.52 78.20
86 0.3761 6130.00 6059.54 78.29
87 0.3764 6057.00 6056.06 77.83
88 0.3768 6070.00 6045.60 77.91
89 0.3771 6100.00 6028.68 78.10
90 0.3775 6036.00 6009.41 77.69
91 0.3778 5929.00 5991.89 77.00
92 0.3782 5868.00 5977.83 76.60
93 0.3785 5840.00 5967.20 76.42
94 0.3789 6041.00 5959.27 77.72
95 0.3792 6048.00 5953.19 77.77
96 0.3796 5864.00 5948.26 76.58
97 0.3799 5980.00 5944.01 77.33
98 0.3803 5921.00 5940.15 76.95
99 0.3806 5886.00 5936.54 76.72
100 0.3810 6008.00 5933.10 77.51
101 0.3813 5886.00 5929.78 76.72
102 0.3817 5925.00 5926.55 76.97
103 0.3820 5916.00 5923.40 76.92
104 0.3824 5950.00 5920.30 77.14
105 0.3827 5933.00 5917.26 77.03
106 0.3831 5856.00 5914.25 76.52
107 0.3834 5920.00 5911.28 76.94
108 0.3838 5919.00 5908.33 76.93
109 0.3841 5925.00 5905.41 76.97
110 0.3845 5973.00 5902.51 77.29
111 0.3848 6088.00 5899.63 78.03
112 0.3852 5923.00 5896.76 76.96
113 0.3855 5937.00 5893.91 77.05
114 0.3859 5869.00 5891.07 76.61
115 0.3862 5881.00 5888.24 76.69
116 0.3866 6002.00 5885.43 77.47
117 0.3869 5925.00 5882.63 76.97
118 0.3873 5972.00 5879.83 77.28
119 0.3876 5880.00 5877.04 76.68
120 0.3880 5856.00 5874.27 76.52
121 0.3883 5961.00 5871.50 77.21
122 0.3887 5972.00 5868.74 77.28
123 0.3890 5872.00 5865.98 76.63
124 0.3894 5920.00 5863.24 76.94
125 0.3897 5987.00 5860.50 77.38
126 0.3901 5875.00 5857.76 76.65
127 0.3904 5838.00 5855.04 76.41
128 0.3908 5739.00 5852.32 75.76
129 0.3911 5878.00 5849.60 76.67
130 0.3915 5926.00 5846.90 76.98
131 0.3918 5834.00 5844.67 76.38
132 0.3922 5764.00 5841.99 75.92
133 0.3925 5819.00 5839.31 76.28
134 0.3928 5783.00 5836.64 76.05
135 0.3932 5823.00 5833.97 76.31
136 0.3935 5782.00 5831.31 76.04
137 0.3939 5854.00 5828.66 76.51
138 0.3942 5666.00 5826.01 75.27
139 0.3946 5885.00 5823.37 76.71
140 0.3949 5866.00 5820.74 76.59
141 0.3953 5852.00 5818.11 76.50
142 0.3956 5804.00 5815.48 76.18
143 0.3960 5752.00 5812.87 75.84
144 0.3963 5847.00 5810.26 76.47
145 0.3967 5810.00 5807.65 76.22
146 0.3970 5734.00 5805.05 75.72
147 0.3974 5805.00 5802.46 76.19
148 0.3977 5755.00 5799.88 75.86
149 0.3981 5800.00 5797.30 76.16
150 0.3984 5690.00 5794.72 75.43
151 0.3988 5718.00 5792.15 75.62
152 0.3991 5848.00 5789.59 76.47
153 0.3995 5930.00 5787.04 77.01
154 0.3998 5821.00 5784.49 76.30
155 0.4002 5975.00 5781.95 77.30
156 0.4005 5848.00 5779.42 76.47
157 0.4009 5740.00 5776.89 75.76
158 0.4012 5684.00 5774.37 75.39
159 0.4016 5731.00 5771.86 75.70
160 0.4019 5768.00 5769.35 75.95
161 0.4023 5764.00 5766.85 75.92
162 0.4026 5773.00 5764.36 75.98
163 0.4030 5752.00 5761.87 75.84
164 0.4033 5782.00 5759.40 76.04
165 0.4037 5654.00 5756.78 75.19
166 0.4040 5689.00 5754.32 75.43
167 0.4044 5762.00 5751.87 75.91
168 0.4047 5775.00 5749.43 75.99
169 0.4051 5739.00 5747.00 75.76
170 0.4054 5759.00 5744.58 75.89
171 0.4058 5762.00 5742.16 75.91
172 0.4061 5733.00 5739.75 75.72
173 0.4065 5811.00 5737.36 76.23
174 0.4068 5665.00 5734.97 75.27
175 0.4072 5738.00 5732.59 75.75
176 0.4075 5681.00 5730.23 75.37
177 0.4079 5670.00 5727.88 75.30
178 0.4082 5804.00 5725.53 76.18
179 0.4086 5816.00 5723.20 76.26
180 0.4089 5795.00 5720.89 76.12
181 0.4093 5687.00 5718.59 75.41
182 0.4096 5829.00 5716.30 76.35
183 0.4100 5696.00 5714.03 75.47
184 0.4103 5645.00 5711.78 75.13
185 0.4107 5700.00 5709.54 75.50
186 0.4110 5706.00 5707.33 75.54
187 0.4113 5743.00 5705.14 75.78
188 0.4117 5652.00 5702.97 75.18
189 0.4120 5710.00 5700.83 75.56
190 0.4124 5583.00 5698.72 74.72
191 0.4127 5682.00 5696.64 75.38
192 0.4131 5742.00 5694.61 75.78
193 0.4134 5782.00 5692.61 76.04
194 0.4138 5602.00 5690.67 74.85
195 0.4141 5605.00 5688.78 74.87
196 0.4145 5704.00 5686.96 75.52
197 0.4148 5687.00 5685.21 75.41
198 0.4152 5727.00 5683.56 75.68
199 0.4155 5642.00 5682.02 75.11
200 0.4159 5653.00 5680.61 75.19
201 0.4162 5573.00 5679.38 74.65
202 0.4166 5775.00 5678.36 75.99
203 0.4169 5587.00 5677.63 74.75
204 0.4173 5593.00 5677.31 74.79
205 0.4176 5666.00 5677.61 75.27
206 0.4180 5601.00 5678.83 74.84
207 0.4183 5538.00 5681.47 74.42
208 0.4187 5590.00 5686.18 74.77
209 0.4190 5603.00 5693.79 74.85
210 0.4194 5726.00 5705.16 75.67
211 0.4197 5710.00 5720.79 75.56
212 0.4201 5793.00 5740.30 76.11
213 0.4204 5783.00 5762.86 76.05
214 0.4208 5867.00 5788.13 76.60
215 0.4211 5995.00 5814.44 77.43
216 0.4215 5832.00 5837.32 76.37
217 0.4218 5896.00 5855.41 76.79
218 0.4222 5980.00 5873.10 77.33
219 0.4225 6015.00 5893.16 77.56
220 0.4229 5947.00 5913.62 77.12
221 0.4232 6090.00 5928.55 78.04
222 0.4236 6123.00 5930.59 78.25
223 0.4239 5849.00 5914.35 76.48
224 0.4243 5861.00 5878.73 76.56
225 0.4246 5885.00 5831.76 76.71
226 0.4250 5859.00 5785.94 76.54
227 0.4253 5768.00 5749.02 75.95
228 0.4257 5715.00 5722.63 75.60
229 0.4260 5698.00 5704.83 75.49
230 0.4264 5650.00 5692.76 75.17
231 0.4267 5729.00 5684.35 75.69
232 0.4271 5759.00 5678.20 75.89
233 0.4274 5647.00 5672.83 75.15
234 0.4278 5718.00 5666.71 75.62
235 0.4281 5749.00 5658.63 75.82
236 0.4285 5581.00 5648.38 74.71
237 0.4288 5653.00 5637.04 75.19
238 0.4292 5489.00 5625.97 74.09
239 0.4295 5650.00 5616.07 75.17
240 0.4298 5614.00 5607.67 74.93
241 0.4302 5569.00 5600.73 74.63
242 0.4305 5490.00 5595.03 74.09
243 0.4309 5599.00 5590.31 74.83
244 0.4312 5579.00 5586.31 74.69
245 0.4316 5630.00 5582.79 75.03
246 0.4319 5720.00 5579.62 75.63
247 0.4323 5650.00 5576.67 75.17
248 0.4326 5477.00 5573.89 74.01
249 0.4330 5583.00 5571.22 74.72
250 0.4333 5505.00 5568.65 74.20
251 0.4337 5598.00 5566.15 74.82
252 0.4340 5573.00 5563.72 74.65
253 0.4344 5612.00 5561.34 74.91
254 0.4347 5641.00 5559.01 75.11
255 0.4351 5535.00 5556.71 74.40
256 0.4354 5602.00 5554.45 74.85
257 0.4358 5504.00 5552.23 74.19
258 0.4361 5559.00 5550.03 74.56
259 0.4365 5553.00 5547.85 74.52
260 0.4368 5486.00 5545.70 74.07
261 0.4372 5400.00 5543.57 73.48
262 0.4375 5517.00 5541.45 74.28
263 0.4379 5498.00 5539.36 74.15
264 0.4382 5428.00 5537.28 73.68
265 0.4386 5414.00 5535.22 73.58
266 0.4389 5478.00 5533.17 74.01
267 0.4393 5523.00 5531.13 74.32
268 0.4396 5519.00 5531.13 74.29
269 0.4400 5510.00 5529.16 74.23
270 0.4403 5453.00 5527.21 73.84
271 0.4407 5529.00 5525.27 74.36
272 0.4410 5574.00 5523.34 74.66
273 0.4414 5484.00 5521.42 74.05
274 0.4417 5517.00 5519.52 74.28
275 0.4421 5472.00 5517.62 73.97
276 0.4424 5523.00 5515.74 74.32
277 0.4428 5606.00 5513.86 74.87
278 0.4431 5370.00 5512.00 73.28
279 0.4435 5521.00 5510.15 74.30
280 0.4438 5470.00 5508.31 73.96
281 0.4442 5449.00 5506.48 73.82
282 0.4445 5483.00 5504.66 74.05
283 0.4449 5499.00 5502.85 74.16
284 0.4452 5611.00 5501.05 74.91
285 0.4456 5562.00 5499.26 74.58
286 0.4459 5517.00 5497.48 74.28
287 0.4463 5524.00 5495.72 74.32
288 0.4466 5558.00 5493.96 74.55
289 0.4470 5411.00 5492.21 73.56
290 0.4473 5492.00 5490.48 74.11
291 0.4477 5483.00 5488.76 74.05
292 0.4480 5372.00 5487.04 73.29
293 0.4484 5367.00 5485.35 73.26
294 0.4487 5411.00 5483.66 73.56
295 0.4490 5540.00 5481.98 74.43
296 0.4494 5474.00 5480.32 73.99
297 0.4497 5473.00 5478.67 73.98
298 0.4501 5442.00 5477.03 73.77
299 0.4504 5605.00 5475.41 74.87
300 0.4508 5444.00 5473.80 73.78
301 0.4511 5455.00 5472.21 73.86
302 0.4515 5599.00 5470.63 74.83
303 0.4518 5542.00 5469.07 74.44
304 0.4522 5479.00 5467.52 74.02
305 0.4525 5398.00 5465.99 73.47
306 0.4529 5459.00 5464.06 73.89
307 0.4532 5479.00 5462.58 74.02
308 0.4536 5493.00 5461.12 74.11
309 0.4539 5589.00 5459.68 74.76
310 0.4543 5474.00 5458.27 73.99
311 0.4546 5476.00 5456.88 74.00
312 0.4550 5476.00 5455.52 74.00
313 0.4553 5539.00 5454.19 74.42
314 0.4557 5480.00 5452.89 74.03
315 0.4560 5462.00 5451.62 73.91
316 0.4564 5513.00 5450.39 74.25
317 0.4567 5470.00 5449.19 73.96
318 0.4571 5403.00 5448.04 73.51
319 0.4574 5293.00 5446.94 72.75
320 0.4578 5374.00 5445.89 73.31
321 0.4581 5334.00 5444.89 73.03
322 0.4585 5360.00 5443.96 73.21
323 0.4588 5396.00 5443.10 73.46
324 0.4592 5484.00 5442.31 74.05
325 0.4595 5472.00 5441.61 73.97
326 0.4599 5349.00 5441.01 73.14
327 0.4602 5383.00 5440.52 73.37
328 0.4606 5428.00 5440.16 73.68
329 0.4609 5485.00 5439.94 74.06
330 0.4613 5489.00 5439.89 74.09
331 0.4616 5432.00 5440.03 73.70
332 0.4620 5464.00 5440.39 73.92
333 0.4623 5385.00 5440.93 73.38
334 0.4627 5480.00 5441.86 74.03
335 0.4630 5430.00 5443.16 73.69
336 0.4634 5425.00 5444.90 73.65
337 0.4637 5441.00 5447.18 73.76
338 0.4641 5407.00 5450.11 73.53
339 0.4644 5483.00 5453.88 74.05
340 0.4648 5433.00 5458.73 73.71
341 0.4651 5372.00 5465.04 73.29
342 0.4655 5522.00 5473.46 74.31
343 0.4658 5550.00 5485.06 74.50
344 0.4662 5498.00 5501.54 74.15
345 0.4665 5664.00 5525.41 75.26
346 0.4669 5516.00 5560.00 74.27
347 0.4672 5557.00 5609.28 74.55
348 0.4675 5726.00 5677.40 75.67
349 0.4679 5831.00 5767.36 76.36
350 0.4682 5808.00 5878.36 76.21
351 0.4686 5980.00 6006.16 77.33
352 0.4689 6057.00 6152.36 77.83
353 0.4693 6077.00 6324.89 77.96
354 0.4696 6309.00 6515.82 79.43
355 0.4700 6512.00 6688.63 80.70
356 0.4703 6818.00 6811.08 82.57
357 0.4707 7076.00 6893.67 84.12
358 0.4710 6987.00 6950.95 83.59
359 0.4714 6866.00 6960.68 82.86
360 0.4717 6975.00 6881.29 83.52
361 0.4721 6647.00 6692.64 81.53
362 0.4724 6278.00 6433.51 79.23
363 0.4728 6031.00 6170.70 77.66
364 0.4731 5850.00 5947.57 76.49
365 0.4735 5727.00 5777.75 75.68
366 0.4738 5622.00 5657.97 74.98
367 0.4742 5487.00 5577.69 74.07
368 0.4745 5527.00 5525.03 74.34
369 0.4749 5485.00 5490.00 74.06
370 0.4752 5361.00 5465.59 73.22
371 0.4756 5418.00 5447.52 73.61
372 0.4759 5488.00 5433.38 74.08
373 0.4763 5352.00 5421.85 73.16
374 0.4766 5240.00 5412.20 72.39
375 0.4770 5363.00 5403.97 73.23
376 0.4773 5402.00 5396.84 73.50
377 0.4777 5325.00 5390.58 72.97
378 0.4780 5306.00 5385.04 72.84
379 0.4784 5235.00 5380.07 72.35
380 0.4787 5260.00 5375.58 72.53
381 0.4791 5311.00 5371.49 72.88
382 0.4794 5338.00 5367.73 73.06
383 0.4798 5354.00 5364.26 73.17
384 0.4801 5334.00 5361.03 73.03
385 0.4805 5449.00 5358.00 73.82
386 0.4808 5386.00 5355.15 73.39
387 0.4812 5335.00 5352.46 73.04
388 0.4815 5404.00 5349.90 73.51
389 0.4819 5321.00 5347.46 72.95
390 0.4822 5413.00 5345.12 73.57
391 0.4826 5353.00 5342.88 73.16
392 0.4829 5366.00 5340.72 73.25
393 0.4833 5422.00 5338.63 73.63
394 0.4836 5275.00 5336.61 72.63
395 0.4840 5404.00 5334.65 73.51
396 0.4843 5331.00 5332.74 73.01
397 0.4847 5240.00 5330.88 72.39
398 0.4850 5271.00 5329.07 72.60
399 0.4854 5411.00 5327.29 73.56
400 0.4857 5303.00 5325.56 72.82
401 0.4860 5287.00 5323.85 72.71
402 0.4864 5249.00 5322.18 72.45
403 0.4867 5345.00 5320.54 73.11
404 0.4871 5285.00 5318.92 72.70
405 0.4874 5222.00 5317.33 72.26
406 0.4878 5286.00 5315.76 72.70
407 0.4881 5281.00 5314.21 72.67
408 0.4885 5296.00 5312.69 72.77
409 0.4888 5307.00 5311.18 72.85
410 0.4892 5397.00 5309.69 73.46
411 0.4895 5410.00 5308.21 73.55
412 0.4899 5448.00 5306.75 73.81
413 0.4902 5336.00 5305.31 73.05
414 0.4906 5227.00 5303.88 72.30
415 0.4909 5254.00 5302.46 72.48
416 0.4913 5340.00 5301.06 73.08
417 0.4916 5275.00 5299.67 72.63
418 0.4920 5335.00 5298.29 73.04
419 0.4923 5395.00 5296.92 73.45
420 0.4927 5316.00 5295.56 72.91
421 0.4930 5290.00 5294.21 72.73
422 0.4934 5337.00 5292.87 73.05
423 0.4937 5418.00 5291.54 73.61
424 0.4941 5358.00 5290.22 73.20
425 0.4944 5374.00 5288.90 73.31
426 0.4948 5203.00 5287.60 72.13
427 0.4951 5341.00 5286.30 73.08
428 0.4955 5368.00 5285.01 73.27
429 0.4958 5295.00 5283.73 72.77
430 0.4962 5345.00 5282.46 73.11
431 0.4965 5254.00 5281.19 72.48
432 0.4969 5279.00 5279.93 72.66
433 0.4972 5372.00 5278.67 73.29
434 0.4976 5275.00 5277.43 72.63
435 0.4979 5229.00 5276.19 72.31
436 0.4983 5226.00 5274.95 72.29
437 0.4986 5234.00 5273.72 72.35
438 0.4990 5165.00 5272.50 71.87
439 0.4993 5169.00 5271.28 71.90
440 0.4997 5300.00 5270.07 72.80
441 0.5000 5381.00 5268.86 73.36
442 0.5004 5363.00 5267.66 73.23
443 0.5007 5239.00 5266.47 72.38
444 0.5011 5260.00 5265.27 72.53
445 0.5014 5380.00 5261.98 73.35
446 0.5018 5267.00 5260.85 72.57
447 0.5021 5191.00 5259.72 72.05
448 0.5025 5382.00 5258.59 73.36
449 0.5028 5297.00 5257.47 72.78
450 0.5032 5223.00 5256.35 72.27
451 0.5035 5202.00 5255.23 72.12
452 0.5039 5194.00 5254.12 72.07
453 0.5042 5379.00 5253.01 73.34
454 0.5045 5299.00 5251.90 72.79
455 0.5049 5203.00 5250.80 72.13
456 0.5052 5236.00 5249.69 72.36
457 0.5056 5313.00 5248.60 72.89
458 0.5059 5250.00 5247.50 72.46
459 0.5063 5204.00 5246.41 72.14
460 0.5066 5275.00 5245.32 72.63
461 0.5070 5300.00 5244.24 72.80
462 0.5073 5354.00 5243.15 73.17
463 0.5077 5252.00 5242.07 72.47
464 0.5080 5130.00 5241.00 71.62
465 0.5084 5216.00 5239.92 72.22
466 0.5087 5209.00 5238.85 72.17
467 0.5091 5189.00 5237.79 72.03
468 0.5094 5278.00 5236.72 72.65
469 0.5098 5234.00 5235.66 72.35
470 0.5101 5181.00 5234.60 71.98
471 0.5105 5230.00 5233.55 72.32
472 0.5108 5130.00 5232.50 71.62
473 0.5112 5234.00 5231.45 72.35
474 0.5115 5300.00 5230.40 72.80
475 0.5119 5322.00 5229.36 72.95
476 0.5122 5305.00 5228.32 72.84
477 0.5126 5281.00 5227.28 72.67
478 0.5129 5355.00 5226.25 73.18
479 0.5133 5197.00 5225.21 72.09
480 0.5136 5226.00 5224.18 72.29
481 0.5140 5241.00 5223.16 72.39
482 0.5143 5148.00 5222.14 71.75
483 0.5147 5127.00 5221.12 71.60
484 0.5150 5204.00 5220.10 72.14
485 0.5154 5333.00 5219.08 73.03
486 0.5157 5214.00 5218.07 72.21
487 0.5161 5358.00 5217.06 73.20
488 0.5164 5284.00 5216.06 72.69
489 0.5168 5267.00 5215.05 72.57
490 0.5171 5249.00 5214.05 72.45
491 0.5175 5136.00 5213.05 71.67
492 0.5178 5270.00 5212.06 72.59
493 0.5182 5249.00 5211.06 72.45
494 0.5185 5243.00 5210.07 72.41
495 0.5189 5317.00 5209.09 72.92
496 0.5192 5233.00 5208.10 72.34
497 0.5196 5307.00 5207.12 72.85
498 0.5199 5289.00 5206.14 72.73
499 0.5203 5266.00 5205.16 72.57
500 0.5206 5171.00 5204.19 71.91
501 0.5210 5229.00 5203.22 72.31
502 0.5213 5226.00 5202.25 72.29
503 0.5217 5211.00 5201.28 72.19
504 0.5220 5249.00 5200.32 72.45
505 0.5224 5295.00 5199.36 72.77
506 0.5227 5230.00 5198.40 72.32
507 0.5231 5238.00 5197.44 72.37
508 0.5234 5223.00 5196.49 72.27
509 0.5237 5237.00 5195.54 72.37
510 0.5241 5202.00 5194.59 72.12
511 0.5244 5153.00 5193.64 71.78
512 0.5248 5059.00 5192.70 71.13
513 0.5251 5190.00 5191.76 72.04
514 0.5255 5098.00 5190.82 71.40
515 0.5258 5301.00 5189.88 72.81
516 0.5262 5304.00 5188.95 72.83
517 0.5265 5245.00 5188.02 72.42
518 0.5269 5141.00 5187.09 71.70
519 0.5272 5130.00 5186.16 71.62
520 0.5276 5124.00 5185.24 71.58
521 0.5279 5161.00 5184.32 71.84
522 0.5283 5126.00 5183.40 71.60
523 0.5286 5158.00 5182.48 71.82
524 0.5290 5186.00 5181.57 72.01
525 0.5293 5180.00 5180.65 71.97
526 0.5297 5169.00 5179.74 71.90
527 0.5300 5218.00 5178.84 72.24
528 0.5304 5145.00 5177.93 71.73
529 0.5307 5147.00 5177.03 71.74
530 0.5311 5140.00 5176.13 71.69
531 0.5314 5196.00 5175.23 72.08
532 0.5318 5182.00 5174.33 71.99
533 0.5321 5111.00 5173.44 71.49
534 0.5325 5144.00 5172.55 71.72
535 0.5328 5206.00 5171.66 72.15
536 0.5332 5224.00 5170.77 72.28
537 0.5335 5118.00 5169.89 71.54
538 0.5339 5138.00 5169.00 71.68
539 0.5342 5078.00 5168.12 71.26
540 0.5346 5186.00 5167.24 72.01
541 0.5349 5282.00 5166.37 72.68
542 0.5353 5169.00 5165.49 71.90
543 0.5356 5083.00 5164.62 71.30
544 0.5360 5177.00 5163.75 71.95
545 0.5363 5108.00 5162.88 71.47
546 0.5367 5096.00 5162.02 71.39
547 0.5370 5060.00 5161.16 71.13
548 0.5374 5127.00 5160.29 71.60
549 0.5377 5233.00 5159.43 72.34
550 0.5381 5223.00 5158.58 72.27
551 0.5384 5125.00 5157.72 71.59
552 0.5388 5121.00 5156.87 71.56
553 0.5391 5164.00 5156.02 71.86
554 0.5395 5219.00 5155.17 72.24
555 0.5398 5181.00 5154.32 71.98
556 0.5402 5169.00 5157.87 71.90
557 0.5405 5109.00 5157.11 71.48
558 0.5409 5194.00 5156.36 72.07
559 0.5412 5171.00 5155.61 71.91
560 0.5416 5022.00 5154.86 70.87
561 0.5419 5086.00 5154.12 71.32
562 0.5422 5142.00 5153.39 71.71
563 0.5426 5110.00 5152.65 71.48
564 0.5429 5160.00 5151.93 71.83
565 0.5433 5110.00 5151.21 71.48
566 0.5436 5139.00 5150.49 71.69
567 0.5440 5117.00 5149.78 71.53
568 0.5443 5174.00 5149.08 71.93
569 0.5447 5243.00 5148.38 72.41
570 0.5450 5178.00 5147.68 71.96
571 0.5454 5135.00 5146.99 71.66
572 0.5457 5155.00 5146.31 71.80
573 0.5461 5176.00 5145.64 71.94
574 0.5464 5092.00 5144.97 71.36
575 0.5468 5122.00 5144.31 71.57
576 0.5471 5185.00 5143.65 72.01
577 0.5475 5204.00 5143.00 72.14
578 0.5478 5283.00 5142.36 72.68
579 0.5482 5169.00 5141.73 71.90
580 0.5485 5162.00 5141.11 71.85
581 0.5489 5180.00 5140.49 71.97
582 0.5492 5128.00 5139.88 71.61
583 0.5496 5184.00 5139.28 72.00
584 0.5499 5128.00 5138.69 71.61
585 0.5503 5159.00 5138.11 71.83
586 0.5506 5125.00 5137.54 71.59
587 0.5510 5262.00 5136.98 72.54
588 0.5513 5213.00 5136.43 72.20
589 0.5517 5143.00 5135.90 71.71
590 0.5520 5099.00 5135.37 71.41
591 0.5524 5167.00 5134.86 71.88
592 0.5527 5220.00 5134.36 72.25
593 0.5531 5138.00 5133.87 71.68
594 0.5534 5177.00 5133.40 71.95
595 0.5538 5240.00 5132.94 72.39
596 0.5541 5285.00 5132.50 72.70
597 0.5545 5174.00 5132.08 71.93
598 0.5548 5136.00 5131.67 71.67
599 0.5552 5181.00 5131.29 71.98
600 0.5555 5088.00 5130.92 71.33
601 0.5559 5117.00 5130.58 71.53
602 0.5562 5170.00 5130.25 71.90
603 0.5566 5239.00 5129.95 72.38
604 0.5569 5258.00 5149.66 72.51
605 0.5573 5160.00 5149.82 71.83
606 0.5576 5149.00 5150.02 71.76
607 0.5580 5113.00 5150.26 71.51
608 0.5583 4996.00 5150.55 70.68
609 0.5587 5054.00 5150.88 71.09
610 0.5590 5131.00 5151.27 71.63
611 0.5594 5204.00 5151.72 72.14
612 0.5597 5086.00 5152.23 71.32
613 0.5601 5151.00 5152.80 71.77
614 0.5604 5126.00 5153.44 71.60
615 0.5607 5255.00 5154.15 72.49
616 0.5611 5081.00 5154.94 71.28
617 0.5614 5103.00 5155.81 71.44
618 0.5618 5278.00 5156.78 72.65
619 0.5621 5207.00 5157.85 72.16
620 0.5625 5210.00 5163.33 72.18
621 0.5628 5169.00 5164.70 71.90
622 0.5632 5138.00 5166.20 71.68
623 0.5635 5118.00 5167.84 71.54
624 0.5639 5129.00 5169.64 71.62
625 0.5642 5181.00 5171.60 71.98
626 0.5646 5184.00 5173.75 72.00
627 0.5649 5112.00 5176.10 71.50
628 0.5653 5193.00 5178.69 72.06
629 0.5656 5170.00 5181.52 71.90
630 0.5660 5182.00 5184.63 71.99
631 0.5663 5176.00 5188.05 71.94
632 0.5667 5210.00 5191.83 72.18
633 0.5670 5081.00 5195.99 71.28
634 0.5674 5232.00 5200.61 72.33
635 0.5677 5215.00 5205.73 72.21
636 0.5681 5274.00 5211.44 72.62
637 0.5684 5209.00 5217.82 72.17
638 0.5688 5221.00 5224.97 72.26
639 0.5691 5308.00 5233.03 72.86
640 0.5695 5243.00 5242.15 72.41
641 0.5698 5270.00 5252.53 72.59
642 0.5702 5304.00 5264.42 72.83
643 0.5705 5222.00 5278.17 72.26
644 0.5709 5255.00 5294.27 72.49
645 0.5712 5340.00 5313.43 73.08
646 0.5716 5488.00 5336.80 74.08
647 0.5719 5394.00 5366.15 73.44
648 0.5723 5514.00 5404.21 74.26
649 0.5726 5590.00 5454.96 74.77
650 0.5730 5594.00 5523.79 74.79
651 0.5733 5725.00 5617.38 75.66
652 0.5737 5835.00 5743.39 76.39
653 0.5740 5878.00 5909.74 76.67
654 0.5744 6051.00 6123.75 77.79
655 0.5747 6372.00 6389.80 79.82
656 0.5751 6539.00 6705.37 80.86
657 0.5754 7013.00 7058.81 83.74
658 0.5758 7438.00 7440.13 86.24
659 0.5761 7850.00 7857.31 88.60
660 0.5765 8325.00 8321.26 91.24
661 0.5768 8947.00 8812.13 94.59
662 0.5772 9206.00 9245.92 95.95
663 0.5775 9397.00 9486.70 96.94
664 0.5779 9470.00 9425.69 97.31
665 0.5782 9108.00 9068.46 95.44
666 0.5786 8627.00 8518.35 92.88
667 0.5789 7897.00 7900.67 88.87
668 0.5792 7299.00 7313.70 85.43
669 0.5796 6871.00 6813.05 82.89
670 0.5799 6611.00 6418.76 81.31
671 0.5803 6226.00 6127.28 78.90
672 0.5806 6089.00 5922.82 78.03
673 0.5810 5878.00 5785.35 76.67
674 0.5813 5560.00 5695.92 74.57
675 0.5817 5628.00 5639.25 75.02
676 0.5820 5610.00 5604.45 74.90
677 0.5824 5524.00 5584.50 74.32
678 0.5827 5650.00 5575.18 75.17
679 0.5831 5622.00 5574.15 74.98
680 0.5834 5592.00 5580.20 74.78
681 0.5838 5584.00 5592.83 74.73
682 0.5841 5589.00 5611.98 74.76
683 0.5845 5595.00 5637.94 74.80
684 0.5848 5664.00 5671.33 75.26
685 0.5852 5704.00 5713.14 75.52
686 0.5855 5720.00 5764.89 75.63
687 0.5859 5882.00 5828.92 76.69
688 0.5862 5901.00 5908.98 76.82
689 0.5866 6008.00 6011.26 77.51
690 0.5869 6233.00 6145.79 78.95
691 0.5873 6613.00 6328.37 81.32
692 0.5876 6751.00 6582.11 82.16
693 0.5880 7017.00 6937.98 83.77
694 0.5883 7625.00 7433.23 87.32
695 0.5887 8320.00 8108.62 91.21
696 0.5890 8909.00 9003.75 94.39
697 0.5894 10094.00 10148.00 100.47
698 0.5897 11627.00 11543.30 107.83
699 0.5901 13156.00 13142.30 114.70
700 0.5904 14677.00 14883.70 121.15
701 0.5908 16763.00 16789.90 129.47
702 0.5911 19259.00 18948.00 138.78
703 0.5915 21236.00 21305.60 145.73
704 0.5918 23479.00 23474.20 153.23
705 0.5922 24306.00 24745.40 155.90
706 0.5925 24427.00 24503.00 156.29
707 0.5929 23182.00 22749.50 152.26
708 0.5932 20306.00 20035.20 142.50
709 0.5936 17364.00 17022.70 131.77
710 0.5939 14440.00 14213.00 120.17
711 0.5943 11939.00 11874.20 109.27
712 0.5946 10002.00 10081.80 100.01
713 0.5950 8708.00 8796.25 93.32
714 0.5953 7809.00 7922.09 88.37
715 0.5957 7248.00 7353.22 85.14
716 0.5960 6947.00 6998.39 83.35
717 0.5964 6718.00 6791.99 81.96
718 0.5967 6602.00 6693.41 81.25
719 0.5971 6657.00 6681.58 81.59
720 0.5974 6763.00 6748.07 82.24
721 0.5978 6743.00 6890.70 82.12
722 0.5981 6933.00 7107.34 83.26
723 0.5984 7276.00 7389.38 85.30
724 0.5988 7663.00 7720.93 87.54
725 0.5991 8308.00 8090.22 91.15
726 0.5995 8645.00 8498.08 92.98
727 0.5998 9075.00 8936.00 95.26
728 0.6002 9359.00 9350.63 96.74
729 0.6005 9474.00 9630.86 97.33
730 0.6009 9579.00 9654.77 97.87
731 0.6012 9368.00 9379.52 96.79
732 0.6016 9021.00 8872.04 94.98
733 0.6019 8231.00 8251.12 90.72
734 0.6023 7570.00 7625.24 87.01
735 0.6026 6941.00 7064.65 83.31
736 0.6030 6511.00 6602.14 80.69
737 0.6033 6196.00 6243.20 78.71
738 0.6037 5823.00 5977.57 76.31
739 0.6040 5640.00 5787.36 75.10
740 0.6044 5597.00 5653.29 74.81
741 0.6047 5546.00 5558.42 74.47
742 0.6051 5511.00 5489.76 74.24
743 0.6054 5404.00 5438.26 73.51
744 0.6058 5445.00 5398.09 73.79
745 0.6061 5344.00 5365.68 73.10
746 0.6065 5435.00 5338.90 73.72
747 0.6068 5277.00 5316.48 72.64
748 0.6072 5248.00 5297.60 72.44
749 0.6075 5205.00 5281.80 72.15
750 0.6079 5253.00 5268.81 72.48
751 0.6082 5329.00 5258.60 73.00
752 0.6086 5205.00 5251.35 72.15
753 0.6089 5200.00 5247.53 72.11
754 0.6093 5322.00 5247.87 72.95
755 0.6096 5369.00 5253.45 73.27
756 0.6100 5310.00 5265.56 72.87
757 0.6103 5182.00 5285.68 71.99
758 0.6107 5217.00 5315.29 72.23
759 0.6110 5231.00 5355.51 72.33
760 0.6114 5403.00 5406.15 73.51
761 0.6117 5541.00 5465.38 74.44
762 0.6121 5537.00 5530.73 74.41
763 0.6124 5600.00 5601.58 74.83
764 0.6128 5796.00 5677.57 76.13
765 0.6131 5856.00 5752.36 76.52
766 0.6135 5847.00 5809.20 76.47
767 0.6138 5844.00 5825.87 76.45
768 0.6142 5685.00 5785.70 75.40
769 0.6145 5570.00 5705.61 74.63
770 0.6149 5475.00 5601.20 73.99
771 0.6152 5487.00 5492.61 74.07
772 0.6156 5369.00 5393.69 73.27
773 0.6159 5276.00 5311.18 72.64
774 0.6163 5196.00 5246.72 72.08
775 0.6166 5140.00 5198.75 71.69
776 0.6169 5120.00 5164.24 71.55
777 0.6173 5076.00 5139.73 71.25
778 0.6176 5090.00 5122.19 71.34
779 0.6180 5088.00 5109.27 71.33
780 0.6183 5019.00 5099.33 70.84
781 0.6187 5160.00 5091.33 71.83
782 0.6190 5044.00 5084.63 71.02
783 0.6194 5047.00 5078.85 71.04
784 0.6197 5026.00 5073.76 70.89
785 0.6201 4966.00 5069.21 70.47
786 0.6204 4945.00 5065.09 70.32
787 0.6208 5049.00 5061.35 71.06
788 0.6211 4967.00 5057.91 70.48
789 0.6215 4960.00 5054.73 70.43
790 0.6218 5003.00 5051.77 70.73
791 0.6222 5025.00 5049.01 70.89
792 0.6225 5061.00 5046.43 71.14
793 0.6229 5082.00 5043.99 71.29
794 0.6232 5034.00 5041.69 70.95
795 0.6236 5008.00 5039.50 70.77
796 0.6239 5025.00 5037.42 70.89
797 0.6243 4942.00 5035.43 70.30
798 0.6246 5014.00 5033.54 70.81
799 0.6250 5100.00 5031.71 71.41
800 0.6253 4997.00 5029.96 70.69
801 0.6257 5044.00 5028.28 71.02
802 0.6260 5046.00 5026.70 71.04
803 0.6264 5038.00 5025.13 70.98
804 0.6267 4969.00 5003.12 70.49
805 0.6271 4985.00 5002.06 70.60
806 0.6274 5044.00 5001.03 71.02
807 0.6278 5061.00 5000.02 71.14
808 0.6281 4949.00 4999.05 70.35
809 0.6285 4997.00 4998.10 70.69
810 0.6288 4972.00 4997.17 70.51
811 0.6292 4976.00 4996.27 70.54
812 0.6295 5028.00 4995.38 70.91
813 0.6299 5058.00 4994.51 71.12
814 0.6302 4987.00 4993.66 70.62
815 0.6306 5102.00 4992.83 71.43
816 0.6309 5099.00 4992.01 71.41
817 0.6313 5063.00 4991.21 71.15
818 0.6316 5103.00 4990.42 71.44
819 0.6320 5253.00 4989.65 72.48
820 0.6323 5281.00 4988.88 72.67
821 0.6327 5148.00 4988.13 71.75
822 0.6330 5194.00 4987.39 72.07
823 0.6334 5252.00 4986.67 72.47
824 0.6337 5180.00 4985.95 71.97
825 0.6341 5142.00 4985.24 71.71
826 0.6344 5101.00 4984.54 71.42
827 0.6348 5100.00 4983.85 71.41
828 0.6351 5148.00 4983.17 71.75
829 0.6354 5127.00 4982.49 71.60
830 0.6358 5137.00 4981.83 71.67
831 0.6361 5060.00 4981.17 71.13
832 0.6365 5041.00 4980.53 71.00
833 0.6368 5085.00 4979.89 71.31
834 0.6372 5067.00 4979.26 71.18
835 0.6375 5057.00 4978.63 71.11
836 0.6379 4991.00 4973.55 70.65
837 0.6382 5022.00 4973.03 70.87
838 0.6386 4963.00 4972.51 70.45
839 0.6389 4911.00 4972.00 70.08
840 0.6393 4944.00 4971.50 70.31
841 0.6396 4913.00 4971.00 70.09
842 0.6400 4934.00 4970.52 70.24
843 0.6403 4940.00 4970.04 70.29
844 0.6407 4882.00 4969.57 69.87
845 0.6410 4870.00 4969.12 69.79
846 0.6414 5039.00 4968.68 70.99
847 0.6417 4873.00 4968.25 69.81
848 0.6421 4919.00 4967.85 70.14
849 0.6424 4891.00 4967.46 69.94
850 0.6428 4880.00 4967.11 69.86
851 0.6431 4882.00 4966.79 69.87
852 0.6435 4907.00 4966.57 70.05
853 0.6438 4953.00 4966.37 70.38
854 0.6442 4938.00 4966.27 70.27
855 0.6445 4861.00 4966.31 69.72
856 0.6449 4833.00 4966.56 69.52
857 0.6452 4973.00 4967.09 70.52
858 0.6456 4933.00 4968.03 70.24
859 0.6459 4991.00 4969.48 70.65
860 0.6463 4955.00 4971.57 70.39
861 0.6466 4887.00 4974.41 69.91
862 0.6470 4840.00 4978.04 69.57
863 0.6473 4977.00 4982.34 70.55
864 0.6477 4902.00 4987.11 70.01
865 0.6480 4842.00 4992.16 69.58
866 0.6484 4956.00 4997.31 70.40
867 0.6487 5004.00 5002.07 70.74
868 0.6491 5074.00 5005.34 71.23
869 0.6494 4936.00 5005.78 70.26
870 0.6498 4962.00 5002.73 70.44
871 0.6501 4963.00 4996.83 70.45
872 0.6505 4991.00 4988.69 70.65
873 0.6508 4941.00 4981.10 70.29
874 0.6512 4899.00 4974.18 69.99
875 0.6515 4899.00 4968.35 69.99
876 0.6519 5002.00 4963.72 70.72
877 0.6522 4973.00 4960.18 70.52
878 0.6526 4952.00 4957.53 70.37
879 0.6529 4978.00 4955.57 70.55
880 0.6533 4889.00 4954.07 69.92
881 0.6536 4910.00 4952.89 70.07
882 0.6540 4862.00 4951.92 69.73
883 0.6543 4869.00 4951.07 69.78
884 0.6546 4865.00 4950.32 69.75
885 0.6550 4878.00 4949.63 69.84
886 0.6553 4909.00 4948.99 70.06
887 0.6557 4869.00 4948.39 69.78
888 0.6560 4934.00 4947.82 70.24
889 0.6564 4934.00 4947.29 70.24
890 0.6567 4929.00 4946.77 70.21
891 0.6571 4900.00 4946.28 70.00
892 0.6574 4936.00 4945.82 70.26
893 0.6578 4884.00 4945.97 69.89
894 0.6581 4888.00 4945.57 69.91
895 0.6585 4961.00 4945.20 70.43
896 0.6588 4909.00 4944.87 70.06
897 0.6592 4929.00 4944.59 70.21
898 0.6595 4940.00 4944.37 70.29
899 0.6599 4822.00 4944.23 69.44
900 0.6602 5005.00 4944.23 70.75
901 0.6606 4965.00 4944.40 70.46
902 0.6609 4957.00 4944.82 70.41
903 0.6613 4889.00 4945.58 69.92
904 0.6616 4879.00 4946.79 69.85
905 0.6620 4947.00 4948.56 70.33
906 0.6623 4998.00 4950.98 70.70
907 0.6627 4953.00 4954.09 70.38
908 0.6630 4982.00 4957.82 70.58
909 0.6634 5073.00 4961.96 71.22
910 0.6637 4951.00 4966.32 70.36
911 0.6641 4985.00 4970.69 70.60
912 0.6644 4998.00 4974.63 70.70
913 0.6648 4995.00 4977.25 70.68
914 0.6651 4981.00 4977.50 70.58
915 0.6655 4939.00 4974.88 70.28
916 0.6658 5072.00 4969.89 71.22
917 0.6662 4995.00 4963.66 70.68
918 0.6665 4906.00 4957.23 70.04
919 0.6669 4958.00 4951.35 70.41
920 0.6672 4938.00 4946.36 70.27
921 0.6676 4925.00 4942.35 70.18
922 0.6679 4901.00 4939.27 70.01
923 0.6683 4867.00 4936.95 69.76
924 0.6686 4846.00 4935.21 69.61
925 0.6690 4820.00 4933.89 69.43
926 0.6693 4908.00 4932.85 70.06
927 0.6697 4857.00 4931.99 69.69
928 0.6700 4856.00 4931.25 69.68
929 0.6704 4875.00 4930.60 69.82
930 0.6707 4882.00 4930.00 69.87
931 0.6711 4923.00 4929.44 70.16
932 0.6714 4884.00 4928.93 69.89
933 0.6718 4830.00 4928.44 69.50
934 0.6721 4832.00 4927.98 69.51
935 0.6725 4856.00 4927.54 69.68
936 0.6728 4905.00 4927.12 70.04
937 0.6731 4958.00 4926.73 70.41
938 0.6735 4867.00 4926.36 69.76
939 0.6738 4941.00 4926.01 70.29
940 0.6742 4882.00 4925.69 69.87
941 0.6745 4892.00 4925.39 69.94
942 0.6749 4867.00 4925.13 69.76
943 0.6752 4912.00 4924.90 70.09
944 0.6756 4862.00 4924.72 69.73
945 0.6759 4909.00 4924.59 70.06
946 0.6763 4815.00 4924.51 69.39
947 0.6766 4842.00 4924.54 69.58
948 0.6770 4871.00 4924.70 69.79
949 0.6773 4774.00 4925.06 69.09
950 0.6777 4885.00 4925.70 69.89
951 0.6780 4874.00 4926.75 69.81
952 0.6784 4934.00 4928.33 70.24
953 0.6787 4895.00 4930.61 69.96
954 0.6791 4917.00 4933.76 70.12
955 0.6794 5003.00 4937.91 70.73
956 0.6798 5037.00 4943.07 70.97
957 0.6801 4928.00 4949.05 70.20
958 0.6805 4914.00 4955.54 70.10
959 0.6808 5020.00 4962.21 70.85
960 0.6812 4903.00 4968.62 70.02
961 0.6815 4953.00 4973.87 70.38
962 0.6819 5015.00 4976.50 70.82
963 0.6822 4942.00 4975.25 70.30
964 0.6826 4887.00 4970.11 69.91
965 0.6829 4797.00 4962.34 69.26
966 0.6833 4990.00 4953.62 70.64
967 0.6836 5010.00 4945.24 70.78
968 0.6840 4811.00 4937.97 69.36
969 0.6843 4921.00 4932.11 70.15
970 0.6847 4860.00 4927.65 69.71
971 0.6850 4862.00 4924.41 69.73
972 0.6854 4830.00 4922.16 69.50
973 0.6857 4835.00 4920.63 69.53
974 0.6861 4881.00 4919.61 69.86
975 0.6864 4831.00 4918.95 69.51
976 0.6868 4853.00 4918.49 69.66
977 0.6871 4989.00 4918.27 70.63
978 0.6875 4904.00 4918.20 70.03
979 0.6878 4803.00 4918.28 69.30
980 0.6882 4900.00 4918.48 70.00
981 0.6885 4916.00 4918.83 70.11
982 0.6889 4940.00 4919.34 70.29
983 0.6892 4844.00 4920.01 69.60
984 0.6896 4917.00 4920.88 70.12
985 0.6899 5061.00 4921.98 71.14
986 0.6903 4925.00 4923.36 70.18
987 0.6906 4883.00 4925.09 69.88
988 0.6910 4919.00 4927.30 70.14
989 0.6913 4928.00 4930.14 70.20
990 0.6916 4950.00 4933.89 70.36
991 0.6920 4857.00 4938.94 69.69
992 0.6923 4847.00 4945.86 69.62
993 0.6927 4849.00 4955.61 69.63
994 0.6930 4925.00 4968.92 70.18
995 0.6934 5044.00 4987.23 71.02
996 0.6937 5138.00 5012.00 71.68
997 0.6941 5040.00 5044.69 70.99
998 0.6944 5137.00 5086.45 71.67
999 0.6948 5076.00 5137.46 71.25
1000 0.6951 5133.00 5196.30 71.64
1001 0.6955 5161.00 5259.95 71.84
1002 0.6958 5332.00 5324.66 73.02
1003 0.6962 5507.00 5386.08 74.21
1004 0.6965 5608.00 5436.96 74.89
1005 0.6969 5485.00 5466.03 74.06
1006 0.6972 5472.00 5462.69 73.97
1007 0.6976 5480.00 5425.04 74.03
1008 0.6979 5318.00 5361.77 72.92
1009 0.6983 5320.00 5286.25 72.94
1010 0.6986 5156.00 5210.21 71.81
1011 0.6990 5080.00 5141.30 71.27
1012 0.6993 5090.00 5083.21 71.34
1013 0.6997 4975.00 5036.94 70.53
1014 0.7000 4940.00 5001.69 70.29
1015 0.7004 4958.00 4975.74 70.41
1016 0.7007 4895.00 4957.04 69.96
1017 0.7011 4825.00 4943.67 69.46
1018 0.7014 4878.00 4934.03 69.84
1019 0.7018 4913.00 4926.91 70.09
1020 0.7021 4961.00 4921.49 70.43
1021 0.7025 4852.00 4917.20 69.66
1022 0.7028 4889.00 4913.70 69.92
1023 0.7032 4952.00 4910.71 70.37
1024 0.7035 4854.00 4908.18 69.67
1025 0.7039 4796.00 4905.98 69.25
1026 0.7042 4818.00 4904.04 69.41
1027 0.7046 4883.00 4902.31 69.88
1028 0.7049 4847.00 4900.77 69.62
1029 0.7053 4929.00 4899.38 70.21
1030 0.7056 4914.00 4898.12 70.10
1031 0.7060 4895.00 4896.99 69.96
1032 0.7063 4925.00 4895.96 70.18
1033 0.7067 4859.00 4895.04 69.71
1034 0.7070 4844.00 4894.22 69.60
1035 0.7074 4802.00 4893.52 69.30
1036 0.7077 4969.00 4892.95 70.49
1037 0.7081 4874.00 4892.55 69.81
1038 0.7084 4815.00 4892.37 69.39
1039 0.7088 4863.00 4892.47 69.74
1040 0.7091 4864.00 4892.93 69.74
1041 0.7095 4847.00 4894.33 69.62
1042 0.7098 4778.00 4895.70 69.12
1043 0.7101 4914.00 4897.53 70.10
1044 0.7105 4837.00 4899.71 69.55
1045 0.7108 4834.00 4902.07 69.53
1046 0.7112 4787.00 4904.42 69.19
1047 0.7115 4832.00 4906.46 69.51
1048 0.7119 4889.00 4907.59 69.92
1049 0.7122 4919.00 4907.15 70.14
1050 0.7126 4919.00 4904.95 70.14
1051 0.7129 4853.00 4901.46 69.66
1052 0.7133 4904.00 4897.43 70.03
1053 0.7136 4836.00 4893.51 69.54
1054 0.7140 4814.00 4890.07 69.38
1055 0.7143 5028.00 4887.25 70.91
1056 0.7147 4907.00 4885.06 70.05
1057 0.7150 4921.00 4883.40 70.15
1058 0.7154 4960.00 4882.15 70.43
1059 0.7157 4883.00 4881.19 69.88
1060 0.7161 4929.00 4880.43 70.21
1061 0.7164 4919.00 4879.78 70.14
1062 0.7168 4885.00 4879.23 69.89
1063 0.7171 4830.00 4878.72 69.50
1064 0.7175 4862.00 4878.25 69.73
1065 0.7178 4875.00 4877.82 69.82
1066 0.7182 4904.00 4877.41 70.03
1067 0.7185 4901.00 4877.02 70.01
1068 0.7189 4956.00 4876.65 70.40
1069 0.7192 4909.00 4876.30 70.06
1070 0.7196 4898.00 4875.97 69.99
1071 0.7199 4836.00 4875.60 69.54
1072 0.7203 4919.00 4875.30 70.14
1073 0.7206 4907.00 4875.03 70.05
1074 0.7210 4901.00 4874.77 70.01
1075 0.7213 4891.00 4874.53 69.94
1076 0.7217 4821.00 4874.32 69.43
1077 0.7220 4825.00 4874.13 69.46
1078 0.7224 4799.00 4873.97 69.27
1079 0.7227 4930.00 4873.83 70.21
1080 0.7231 4892.00 4873.73 69.94
1081 0.7234 4860.00 4873.67 69.71
1082 0.7238 4831.00 4873.66 69.51
1083 0.7241 4902.00 4873.70 70.01
1084 0.7245 4893.00 4873.80 69.95
1085 0.7248 4943.00 4873.98 70.31
1086 0.7252 4910.00 4874.26 70.07
1087 0.7255 4809.00 4874.68 69.35
1088 0.7259 4839.00 4875.28 69.56
1089 0.7262 4975.00 4876.15 70.53
1090 0.7266 4936.00 4877.41 70.26
1091 0.7269 4945.00 4879.26 70.32
1092 0.7273 4968.00 4881.98 70.48
1093 0.7276 4945.00 4885.92 70.32
1094 0.7280 5053.00 4891.54 71.08
1095 0.7283 5008.00 4899.37 70.77
1096 0.7287 5095.00 4909.91 71.38
1097 0.7290 5137.00 4923.49 71.67
1098 0.7293 5219.00 4940.05 72.24
1099 0.7297 5260.00 4958.86 72.53
1100 0.7300 5327.00 4978.70 72.99
1101 0.7304 5247.00 4998.10 72.44
1102 0.7307 5189.00 5015.07 72.03
1103 0.7311 5333.00 5026.31 73.03
1104 0.7314 5299.00 5027.94 72.79
1105 0.7318 5188.00 5018.32 72.03
1106 0.7321 5240.00 4999.68 72.39
1107 0.7325 5182.00 4976.45 71.99
1108 0.7328 5143.00 4952.81 71.71
1109 0.7332 5176.00 4931.45 71.94
1110 0.7335 5000.00 4913.69 70.71
1111 0.7339 4978.00 4899.83 70.55
1112 0.7342 4962.00 4889.74 70.44
1113 0.7346 4962.00 4882.41 70.44
1114 0.7349 4984.00 4877.29 70.60
1115 0.7353 4916.00 4873.73 70.11
1116 0.7356 4868.00 4870.81 69.77
1117 0.7360 4869.00 4868.95 69.78
1118 0.7363 4870.00 4867.52 69.79
1119 0.7367 4924.00 4866.36 70.17
1120 0.7370 4926.00 4865.41 70.19
1121 0.7374 4854.00 4864.59 69.67
1122 0.7377 4869.00 4863.89 69.78
1123 0.7381 4940.00 4863.28 70.29
1124 0.7384 4842.00 4862.75 69.58
1125 0.7388 4795.00 4862.28 69.25
1126 0.7391 4890.00 4861.88 69.93
1127 0.7395 4909.00 4861.53 70.06
1128 0.7398 4963.00 4861.22 70.45
1129 0.7402 4869.00 4860.97 69.78
1130 0.7405 4873.00 4860.76 69.81
1131 0.7409 4918.00 4860.42 70.13
1132 0.7412 4865.00 4860.30 69.75
1133 0.7416 4905.00 4860.22 70.04
1134 0.7419 4829.00 4860.19 69.49
1135 0.7423 4755.00 4860.20 68.96
1136 0.7426 4817.00 4860.26 69.40
1137 0.7430 4886.00 4860.38 69.90
1138 0.7433 4783.00 4860.55 69.16
1139 0.7437 4832.00 4860.79 69.51
1140 0.7440 4947.00 4861.10 70.33
1141 0.7444 4904.00 4861.48 70.03
1142 0.7447 4781.00 4861.96 69.14
1143 0.7451 4838.00 4862.54 69.56
1144 0.7454 4816.00 4863.23 69.40
1145 0.7458 4848.00 4864.06 69.63
1146 0.7461 4791.00 4865.05 69.22
1147 0.7465 4961.00 4866.26 70.43
1148 0.7468 4925.00 4867.67 70.18
1149 0.7472 4876.00 4869.37 69.83
1150 0.7475 4788.00 4871.44 69.20
1151 0.7478 4869.00 4873.98 69.78
1152 0.7482 4877.00 4877.23 69.84
1153 0.7485 4785.00 4881.46 69.17
1154 0.7489 4880.00 4887.08 69.86
1155 0.7492 5026.00 4894.67 70.89
1156 0.7496 4958.00 4905.03 70.41
1157 0.7499 4917.00 4919.18 70.12
1158 0.7503 5032.00 4938.33 70.94
1159 0.7506 5018.00 4963.82 70.84
1160 0.7510 5087.00 4996.92 71.32
1161 0.7513 5087.00 5038.52 71.32
1162 0.7517 5080.00 5088.72 71.27
1163 0.7520 5105.00 5146.29 71.45
1164 0.7524 5127.00 5208.37 71.60
1165 0.7527 5274.00 5270.70 72.62
1166 0.7531 5398.00 5328.10 73.47
1167 0.7534 5457.00 5374.05 73.87
1168 0.7538 5444.00 5400.46 73.78
1169 0.7541 5492.00 5399.93 74.11
1170 0.7545 5365.00 5370.48 73.25
1171 0.7548 5351.00 5317.70 73.15
1172 0.7552 5296.00 5251.59 72.77
1173 0.7555 5173.00 5181.98 71.92
1174 0.7559 5069.00 5116.01 71.20
1175 0.7562 5046.00 5057.82 71.04
1176 0.7566 5063.00 5009.23 71.15
1177 0.7569 4957.00 4970.44 70.41
1178 0.7573 4893.00 4940.64 69.95
1179 0.7576 4911.00 4918.40 70.08
1180 0.7580 4870.00 4902.15 69.79
1181 0.7583 4880.00 4890.37 69.86
1182 0.7587 4932.00 4881.78 70.23
1183 0.7590 4818.00 4875.41 69.41
1184 0.7594 4737.00 4870.54 68.83
1185 0.7597 4830.00 4866.69 69.50
1186 0.7601 4836.00 4863.56 69.54
1187 0.7604 4851.00 4860.94 69.65
1188 0.7608 4871.00 4858.71 69.79
1189 0.7611 4796.00 4856.78 69.25
1190 0.7615 4880.00 4855.10 69.86
1191 0.7618 4799.00 4853.62 69.27
1192 0.7622 4786.00 4852.33 69.18
1193 0.7625 4836.00 4851.19 69.54
1194 0.7629 4779.00 4850.19 69.13
1195 0.7632 4860.00 4849.32 69.71
1196 0.7636 4878.00 4848.56 69.84
1197 0.7639 4832.00 4847.91 69.51
1198 0.7643 4834.00 4847.36 69.53
1199 0.7646 4812.00 4846.92 69.37
1200 0.7650 4836.00 4846.58 69.54
1201 0.7653 4800.00 4846.35 69.28
1202 0.7657 4859.00 4846.23 69.71
1203 0.7660 4822.00 4846.25 69.44
1204 0.7663 4828.00 4846.41 69.48
1205 0.7667 4784.00 4846.77 69.17
1206 0.7670 4883.00 4847.37 69.88
1207 0.7674 4741.00 4848.32 68.85
1208 0.7677 4819.00 4849.77 69.42
1209 0.7681 4923.00 4851.98 70.16
1210 0.7684 4947.00 4855.30 70.33
1211 0.7688 4811.00 4860.24 69.36
1212 0.7691 4760.00 4867.30 68.99
1213 0.7695 4859.00 4877.53 69.71
1214 0.7698 4885.00 4891.54 69.89
1215 0.7702 4897.00 4909.90 69.98
1216 0.7705 4965.00 4932.60 70.46
1217 0.7709 4880.00 4958.74 69.86
1218 0.7712 4996.00 4986.45 70.68
1219 0.7716 4990.00 5013.30 70.64
1220 0.7719 5008.00 5036.14 70.77
1221 0.7723 5094.00 5050.43 71.37
1222 0.7726 5118.00 5051.24 71.54
1223 0.7730 5089.00 5036.91 71.34
1224 0.7733 4951.00 5010.89 70.36
1225 0.7737 4903.00 4979.30 70.02
1226 0.7740 4958.00 4947.64 70.41
1227 0.7744 4941.00 4919.35 70.29
1228 0.7747 4800.00 4896.06 69.28
1229 0.7751 4865.00 4878.07 69.75
1230 0.7754 4849.00 4864.88 69.63
1231 0.7758 4887.00 4855.59 69.91
1232 0.7761 4849.00 4849.17 69.63
1233 0.7765 4861.00 4844.75 69.72
1234 0.7768 4912.00 4841.63 70.09
1235 0.7772 4791.00 4839.34 69.22
1236 0.7775 4736.00 4837.58 68.82
1237 0.7779 4876.00 4836.16 69.83
1238 0.7782 4841.00 4834.99 69.58
1239 0.7786 4862.00 4834.00 69.73
1240 0.7789 4842.00 4833.14 69.58
1241 0.7793 4826.00 4832.41 69.47
1242 0.7796 4755.00 4831.79 68.96
1243 0.7800 4821.00 4831.26 69.43
1244 0.7803 4787.00 4830.82 69.19
1245 0.7807 4865.00 4830.49 69.75
1246 0.7810 4828.00 4830.29 69.48
1247 0.7814 4861.00 4830.24 69.72
1248 0.7817 4981.00 4830.40 70.58
1249 0.7821 4880.00 4830.84 69.86
1250 0.7824 4885.00 4831.69 69.89
1251 0.7828 4753.00 4833.07 68.94
1252 0.7831 4751.00 4835.12 68.93
1253 0.7835 4759.00 4837.98 68.99
1254 0.7838 4811.00 4841.72 69.36
1255 0.7842 4791.00 4846.28 69.22
1256 0.7845 4849.00 4851.40 69.63
1257 0.7848 4873.00 4856.68 69.81
1258 0.7852 4911.00 4861.57 70.08
1259 0.7855 4949.00 4865.39 70.35
1260 0.7859 4924.00 4867.24 70.17
1261 0.7862 4834.00 4866.33 69.53
1262 0.7866 4858.00 4862.63 69.70
1263 0.7869 4866.00 4856.96 69.76
1264 0.7873 4959.00 4850.46 70.42
1265 0.7876 4874.00 4844.09 69.81
1266 0.7880 4891.00 4843.91 69.94
1267 0.7883 4852.00 4839.29 69.66
1268 0.7887 4907.00 4835.66 70.05
1269 0.7890 4927.00 4832.95 70.19
1270 0.7894 4844.00 4830.97 69.60
1271 0.7897 4783.00 4829.56 69.16
1272 0.7901 4826.00 4828.54 69.47
1273 0.7904 4769.00 4827.78 69.06
1274 0.7908 4813.00 4827.20 69.38
1275 0.7911 4802.00 4826.74 69.30
1276 0.7915 4799.00 4826.35 69.27
1277 0.7918 4888.00 4826.01 69.91
1278 0.7922 4857.00 4825.71 69.69
1279 0.7925 4720.00 4825.44 68.70
1280 0.7929 4719.00 4825.20 68.69
1281 0.7932 4844.00 4824.98 69.60
1282 0.7936 4841.00 4824.78 69.58
1283 0.7939 4792.00 4824.60 69.22
1284 0.7943 4774.00 4824.43 69.09
1285 0.7946 4854.00 4824.27 69.67
1286 0.7950 4891.00 4824.13 69.94
1287 0.7953 4868.00 4824.00 69.77
1288 0.7957 4744.00 4823.88 68.88
1289 0.7960 4780.00 4823.77 69.14
1290 0.7964 4798.00 4823.66 69.27
1291 0.7967 4797.00 4823.57 69.26
1292 0.7971 4763.00 4823.49 69.01
1293 0.7974 4811.00 4823.42 69.36
1294 0.7978 4818.00 4823.35 69.41
1295 0.7981 4867.00 4822.78 69.76
1296 0.7985 4844.00 4822.74 69.60
1297 0.7988 4890.00 4822.71 69.93
1298 0.7992 4830.00 4822.68 69.50
1299 0.7995 4926.00 4822.67 70.19
1300 0.7999 4881.00 4822.66 69.86
1301 0.8002 4942.00 4822.66 70.30
1302 0.8006 4818.00 4822.67 69.41
1303 0.8009 4799.00 4822.69 69.27
1304 0.8013 4819.00 4822.72 69.42
1305 0.8016 4764.00 4822.75 69.02
1306 0.8020 4836.00 4822.80 69.54
1307 0.8023 4818.00 4822.85 69.41
1308 0.8027 4805.00 4822.92 69.32
1309 0.8030 4790.00 4823.00 69.21
1310 0.8034 4863.00 4823.09 69.74
1311 0.8037 4865.00 4823.18 69.75
1312 0.8040 4866.00 4823.30 69.76
1313 0.8044 4825.00 4823.42 69.46
1314 0.8047 4838.00 4823.56 69.56
1315 0.8051 4864.00 4823.70 69.74
1316 0.8054 4802.00 4823.87 69.30
1317 0.8058 4877.00 4824.05 69.84
1318 0.8061 4894.00 4824.24 69.96
1319 0.8065 4927.00 4824.45 70.19
1320 0.8068 4805.00 4824.68 69.32
1321 0.8072 4824.00 4824.92 69.46
1322 0.8075 4826.00 4825.18 69.47
1323 0.8079 4865.00 4825.46 69.75
1324 0.8082 4879.00 4825.77 69.85
1325 0.8086 4942.00 4826.09 70.30
1326 0.8089 4801.00 4826.44 69.29
1327 0.8093 4809.00 4827.29 69.35
1328 0.8096 4836.00 4827.70 69.54
1329 0.8100 4878.00 4828.13 69.84
1330 0.8103 4803.00 4828.40 69.30
1331 0.8107 4821.00 4828.90 69.43
1332 0.8110 4762.00 4829.43 69.01
1333 0.8114 4835.00 4830.00 69.53
1334 0.8117 4901.00 4830.60 70.01
1335 0.8121 4798.00 4831.25 69.27
1336 0.8124 4772.00 4831.94 69.08
1337 0.8128 4763.00 4832.67 69.01
1338 0.8131 4797.00 4833.45 69.26
1339 0.8135 4941.00 4834.29 70.29
1340 0.8138 4827.00 4835.18 69.48
1341 0.8142 4789.00 4836.90 69.20
1342 0.8145 4800.00 4837.93 69.28
1343 0.8149 4796.00 4839.04 69.25
1344 0.8152 4809.00 4840.22 69.35
1345 0.8156 4889.00 4841.49 69.92
1346 0.8159 4868.00 4842.85 69.77
1347 0.8163 4815.00 4844.31 69.39
1348 0.8166 4858.00 4845.88 69.70
1349 0.8170 4811.00 4847.57 69.36
1350 0.8173 4891.00 4849.40 69.94
1351 0.8177 4826.00 4851.36 69.47
1352 0.8180 4826.00 4853.48 69.47
1353 0.8184 4817.00 4855.78 69.40
1354 0.8187 4894.00 4858.27 69.96
1355 0.8191 4824.00 4860.97 69.46
1356 0.8194 4797.00 4863.92 69.26
1357 0.8198 4794.00 4867.12 69.24
1358 0.8201 4918.00 4870.63 70.13
1359 0.8205 4902.00 4874.47 70.01
1360 0.8208 4842.00 4878.69 69.58
1361 0.8212 4903.00 4883.34 70.02
1362 0.8215 4868.00 4888.47 69.77
1363 0.8219 4850.00 4894.15 69.64
1364 0.8222 4813.00 4900.47 69.38
1365 0.8225 4886.00 4907.53 69.90
1366 0.8229 4890.00 4915.44 69.93
1367 0.8232 4929.00 4924.35 70.21
1368 0.8236 4989.00 4934.44 70.63
1369 0.8239 4958.00 4945.93 70.41
1370 0.8243 4821.00 4959.14 69.43
1371 0.8246 4904.00 4974.51 70.03
1372 0.8250 4858.00 4992.68 69.70
1373 0.8253 4960.00 5014.58 70.43
1374 0.8257 4951.00 5041.82 70.36
1375 0.8260 5170.00 5076.69 71.90
1376 0.8264 5171.00 5122.70 71.91
1377 0.8267 5143.00 5184.98 71.71
1378 0.8271 5133.00 5270.54 71.64
1379 0.8274 5227.00 5388.53 72.30
1380 0.8278 5462.00 5549.78 73.91
1381 0.8281 5809.00 5765.93 76.22
1382 0.8285 5939.00 6047.66 77.06
1383 0.8288 6343.00 6401.23 79.64
1384 0.8292 6903.00 6824.77 83.08
1385 0.8295 7361.00 7303.23 85.80
1386 0.8299 7702.00 7806.24 87.76
1387 0.8302 8232.00 8289.33 90.73
1388 0.8306 8727.00 8697.96 93.42
1389 0.8309 8993.00 8967.69 94.83
1390 0.8313 9049.00 9035.56 95.13
1391 0.8316 8903.00 8872.46 94.36
1392 0.8320 8592.00 8509.96 92.69
1393 0.8323 7913.00 8024.98 88.96
1394 0.8327 7212.00 7499.92 84.92
1395 0.8330 6808.00 6997.49 82.51
1396 0.8334 6279.00 6555.32 79.24
1397 0.8337 6028.00 6191.58 77.64
1398 0.8341 5758.00 5910.08 75.88
1399 0.8344 5853.00 5705.99 76.50
1400 0.8348 5681.00 5569.77 75.37
1401 0.8351 5482.00 5490.42 74.04
1402 0.8355 5529.00 5458.04 74.36
1403 0.8358 5675.00 5464.88 75.33
1404 0.8362 5739.00 5505.70 75.76
1405 0.8365 5733.00 5577.21 75.72
1406 0.8369 5763.00 5677.10 75.91
1407 0.8372 5901.00 5803.20 76.82
1408 0.8376 5937.00 5952.08 77.05
1409 0.8379 6260.00 6118.37 79.12
1410 0.8383 6220.00 6293.80 78.87
1411 0.8386 6434.00 6467.13 80.21
1412 0.8390 6636.00 6624.25 81.46
1413 0.8393 6760.00 6749.31 82.22
1414 0.8397 6848.00 6826.18 82.75
1415 0.8400 6909.00 6841.87 83.12
1416 0.8404 6750.00 6790.96 82.16
1417 0.8407 6600.00 6678.81 81.24
1418 0.8410 6570.00 6520.04 81.06
1419 0.8414 6318.00 6333.44 79.49
1420 0.8417 6054.00 6136.62 77.81
1421 0.8421 5742.00 5943.47 75.78
1422 0.8424 5699.00 5763.47 75.49
1423 0.8428 5471.00 5602.37 73.97
1424 0.8431 5390.00 5462.94 73.42
1425 0.8435 5295.00 5345.81 72.77
1426 0.8438 5186.00 5249.92 72.01
1427 0.8442 5082.00 5173.19 71.29
1428 0.8445 5065.00 5112.95 71.17
1429 0.8449 5011.00 5066.35 70.79
1430 0.8452 5091.00 5030.64 71.35
1431 0.8456 5136.00 5003.42 71.67
1432 0.8459 5033.00 4982.65 70.94
1433 0.8463 4899.00 4966.75 69.99
1434 0.8466 4907.00 4954.53 70.05
1435 0.8470 4919.00 4945.13 70.14
1436 0.8473 5025.00 4937.99 70.89
1437 0.8477 5026.00 4932.78 70.89
1438 0.8480 4943.00 4929.35 70.31
1439 0.8484 4936.00 4927.76 70.26
1440 0.8487 4956.00 4928.25 70.40
1441 0.8491 4946.00 4931.30 70.33
1442 0.8494 5007.00 4937.64 70.76
1443 0.8498 4878.00 4948.29 69.84
1444 0.8501 4906.00 4964.50 70.04
1445 0.8505 5012.00 4987.74 70.80
1446 0.8508 5136.00 5019.46 71.67
1447 0.8512 5075.00 5060.80 71.24
1448 0.8515 5045.00 5112.22 71.03
1449 0.8519 5126.00 5172.95 71.60
1450 0.8522 5313.00 5240.50 72.89
1451 0.8526 5314.00 5310.63 72.90
1452 0.8529 5387.00 5377.57 73.40
1453 0.8533 5436.00 5434.67 73.73
1454 0.8536 5427.00 5475.00 73.67
1455 0.8540 5419.00 5493.77 73.61
1456 0.8543 5480.00 5492.37 74.03
1457 0.8547 5371.00 5479.58 73.29
1458 0.8550 5510.00 5467.92 74.23
1459 0.8554 5490.00 5468.60 74.09
1460 0.8557 5491.00 5488.54 74.10
1461 0.8561 5516.00 5529.27 74.27
1462 0.8564 5480.00 5586.88 74.03
1463 0.8568 5658.00 5652.58 75.22
1464 0.8571 5683.00 5713.99 75.39
1465 0.8575 5702.00 5756.27 75.51
1466 0.8578 5831.00 5764.23 76.36
1467 0.8582 5748.00 5728.24 75.82
1468 0.8585 5676.00 5650.64 75.34
1469 0.8589 5560.00 5544.79 74.57
1470 0.8592 5349.00 5427.40 73.14
1471 0.8595 5257.00 5312.24 72.51
1472 0.8599 5207.00 5208.12 72.16
1473 0.8602 5053.00 5119.49 71.08
1474 0.8606 5014.00 5047.71 70.81
1475 0.8609 5027.00 4991.91 70.90
1476 0.8613 4956.00 4950.00 70.40
1477 0.8616 4991.00 4919.20 70.65
1478 0.8620 4954.00 4896.84 70.38
1479 0.8623 4850.00 4880.56 69.64
1480 0.8627 4796.00 4868.48 69.25
1481 0.8630 4864.00 4859.26 69.74
1482 0.8634 4897.00 4851.97 69.98
1483 0.8637 4931.00 4845.99 70.22
1484 0.8641 4879.00 4840.96 69.85
1485 0.8644 4882.00 4836.62 69.87
1486 0.8648 4895.00 4832.82 69.96
1487 0.8651 4904.00 4829.46 70.03
1488 0.8655 4853.00 4826.46 69.66
1489 0.8658 4965.00 4823.76 70.46
1490 0.8662 4842.00 4821.32 69.58
1491 0.8665 4796.00 4819.10 69.25
1492 0.8669 4783.00 4817.08 69.16
1493 0.8672 4758.00 4815.22 68.98
1494 0.8676 4800.00 4813.82 69.28
1495 0.8679 4806.00 4812.25 69.33
1496 0.8683 4838.00 4810.79 69.56
1497 0.8686 4858.00 4809.43 69.70
1498 0.8690 4908.00 4808.17 70.06
1499 0.8693 4740.00 4806.99 68.85
1500 0.8697 4846.00 4805.88 69.61
1501 0.8700 4904.00 4804.84 70.03
1502 0.8704 4799.00 4803.86 69.27
1503 0.8707 4792.00 4802.93 69.22
1504 0.8711 4793.00 4802.05 69.23
1505 0.8714 4961.00 4801.22 70.43
1506 0.8718 4873.00 4800.43 69.81
1507 0.8721 4806.00 4799.67 69.33
1508 0.8725 4863.00 4798.95 69.74
1509 0.8728 4800.00 4798.27 69.28
1510 0.8732 4798.00 4797.61 69.27
1511 0.8735 4818.00 4796.98 69.41
1512 0.8739 4840.00 4792.74 69.57
1513 0.8742 4830.00 4792.29 69.50
1514 0.8746 4872.00 4791.79 69.80
1515 0.8749 4883.00 4791.31 69.88
1516 0.8753 4759.00 4790.85 68.99
1517 0.8756 4736.00 4790.40 68.82
1518 0.8760 4860.00 4789.97 69.71
1519 0.8763 4734.00 4789.56 68.80
1520 0.8767 4793.00 4789.15 69.23
1521 0.8770 4792.00 4788.77 69.22
1522 0.8774 4785.00 4788.39 69.17
1523 0.8777 4858.00 4788.02 69.70
1524 0.8781 4890.00 4787.67 69.93
1525 0.8784 4719.00 4787.32 68.69
1526 0.8787 4733.00 4786.99 68.80
1527 0.8791 4872.00 4786.66 69.80
1528 0.8794 4818.00 4786.34 69.41
1529 0.8798 4818.00 4786.03 69.41
1530 0.8801 4781.00 4785.73 69.14
1531 0.8805 4924.00 4785.44 70.17
1532 0.8808 4850.00 4785.15 69.64
1533 0.8812 4756.00 4784.87 68.96
1534 0.8815 4764.00 4784.59 69.02
1535 0.8819 4851.00 4784.33 69.65
1536 0.8822 4735.00 4784.06 68.81
1537 0.8826 4770.00 4783.81 69.07
1538 0.8829 4768.00 4783.55 69.05
1539 0.8833 4854.00 4783.31 69.67
1540 0.8836 4762.00 4783.07 69.01
1541 0.8840 4832.00 4782.83 69.51
1542 0.8843 4835.00 4782.60 69.53
1543 0.8847 4773.00 4782.37 69.09
1544 0.8850 4833.00 4782.15 69.52
1545 0.8854 4724.00 4781.93 68.73
1546 0.8857 4846.00 4781.72 69.61
1547 0.8861 4797.00 4781.51 69.26
1548 0.8864 4809.00 4781.30 69.35
1549 0.8868 4790.00 4781.10 69.21
1550 0.8871 4844.00 4780.90 69.60
1551 0.8875 4828.00 4780.71 69.48
1552 0.8878 4813.00 4780.52 69.38
1553 0.8882 4749.00 4780.33 68.91
1554 0.8885 4691.00 4780.15 68.49
1555 0.8889 4743.00 4779.97 68.87
1556 0.8892 4787.00 4779.80 69.19
1557 0.8896 4804.00 4779.87 69.31
1558 0.8899 4723.00 4779.71 68.72
1559 0.8903 4762.00 4779.55 69.01
1560 0.8906 4778.00 4779.40 69.12
1561 0.8910 4724.00 4779.24 68.73
1562 0.8913 4778.00 4779.10 69.12
1563 0.8917 4691.00 4778.95 68.49
1564 0.8920 4627.00 4779.79 68.02
1565 0.8924 4770.00 4779.67 69.07
1566 0.8927 4786.00 4779.56 69.18
1567 0.8931 4780.00 4779.45 69.14
1568 0.8934 4819.00 4779.35 69.42
1569 0.8938 4640.00 4779.25 68.12
1570 0.8941 4693.00 4779.16 68.51
1571 0.8945 4768.00 4779.07 69.05
1572 0.8948 4721.00 4779.00 68.71
1573 0.8952 4710.00 4778.92 68.63
1574 0.8955 4778.00 4777.18 69.12
1575 0.8959 4722.00 4777.15 68.72
1576 0.8962 4786.00 4777.13 69.18
1577 0.8966 4757.00 4777.11 68.97
1578 0.8969 4783.00 4777.11 69.16
1579 0.8972 4783.00 4777.12 69.16
1580 0.8976 4698.00 4777.16 68.54
1581 0.8979 4722.00 4776.72 68.72
1582 0.8983 4716.00 4776.79 68.67
1583 0.8986 4826.00 4776.87 69.47
1584 0.8990 4840.00 4776.97 69.57
1585 0.8993 4876.00 4777.11 69.83
1586 0.8997 4764.00 4777.27 69.02
1587 0.9000 4736.00 4777.48 68.82
1588 0.9004 4742.00 4777.73 68.86
1589 0.9007 4804.00 4778.06 69.31
1590 0.9011 4757.00 4777.72 68.97
1591 0.9014 4776.00 4778.31 69.11
1592 0.9018 4813.00 4779.09 69.38
1593 0.9021 4774.00 4780.16 69.09
1594 0.9025 4760.00 4781.61 68.99
1595 0.9028 4761.00 4783.58 69.00
1596 0.9032 4673.00 4786.18 68.36
1597 0.9035 4670.00 4789.54 68.34
1598 0.9039 4786.00 4793.72 69.18
1599 0.9042 4731.00 4798.71 68.78
1600 0.9046 4800.00 4804.34 69.28
1601 0.9049 4815.00 4810.31 69.39
1602 0.9053 4809.00 4816.12 69.35
1603 0.9056 4792.00 4821.14 69.22
1604 0.9060 4708.00 4824.65 68.61
1605 0.9063 4820.00 4826.00 69.43
1606 0.9067 4834.00 4824.90 69.53
1607 0.9070 4783.00 4821.63 69.16
1608 0.9074 4806.00 4816.96 69.33
1609 0.9077 4794.00 4811.77 69.24
1610 0.9081 4774.00 4806.75 69.09
1611 0.9084 4738.00 4802.37 68.83
1612 0.9088 4763.00 4798.89 69.01
1613 0.9091 4877.00 4796.42 69.84
1614 0.9095 4826.00 4794.97 69.47
1615 0.9098 4856.00 4794.51 69.68
1616 0.9102 4753.00 4795.00 68.94
1617 0.9105 4786.00 4796.44 69.18
1618 0.9109 4815.00 4798.95 69.39
1619 0.9112 4808.00 4802.71 69.34
1620 0.9116 4875.00 4808.08 69.82
1621 0.9119 4829.00 4815.54 69.49
1622 0.9123 4845.00 4825.75 69.61
1623 0.9126 4874.00 4839.47 69.81
1624 0.9130 4952.00 4857.51 70.37
1625 0.9133 4864.00 4880.61 69.74
1626 0.9137 4932.00 4909.31 70.23
1627 0.9140 4974.00 4943.72 70.53
1628 0.9144 4950.00 4983.32 70.36
1629 0.9147 5015.00 5026.74 70.82
1630 0.9151 4986.00 5071.53 70.61
1631 0.9154 5139.00 5114.23 71.69
1632 0.9157 5153.00 5150.58 71.78
1633 0.9161 5236.00 5176.08 72.36
1634 0.9164 5293.00 5187.03 72.75
1635 0.9168 5196.00 5182.18 72.08
1636 0.9171 5135.00 5163.33 71.66
1637 0.9175 5051.00 5134.26 71.07
1638 0.9178 5076.00 5098.85 71.25
1639 0.9182 4958.00 5059.92 70.41
1640 0.9185 4922.00 5019.51 70.16
1641 0.9189 4950.00 4979.56 70.36
1642 0.9192 4839.00 4942.09 69.56
1643 0.9196 4862.00 4908.76 69.73
1644 0.9199 4867.00 4880.45 69.76
1645 0.9203 4814.00 4857.34 69.38
1646 0.9206 4861.00 4839.09 69.72
1647 0.9210 4823.00 4825.08 69.45
1648 0.9213 4856.00 4814.70 69.68
1649 0.9217 4783.00 4806.95 69.16
1650 0.9220 4787.00 4801.30 69.19
1651 0.9224 4790.00 4797.19 69.21
1652 0.9227 4812.00 4794.20 69.37
1653 0.9231 4784.00 4792.02 69.17
1654 0.9234 4764.00 4790.43 69.02
1655 0.9238 4776.00 4789.29 69.11
1656 0.9241 4734.00 4788.48 68.80
1657 0.9245 4734.00 4787.93 68.80
1658 0.9248 4824.00 4787.60 69.46
1659 0.9252 4887.00 4787.43 69.91
1660 0.9255 4745.00 4787.38 68.88
1661 0.9259 4754.00 4787.42 68.95
1662 0.9262 4787.00 4787.52 69.19
1663 0.9266 4811.00 4787.71 69.36
1664 0.9269 4805.00 4787.99 69.32
1665 0.9273 4774.00 4788.43 69.09
1666 0.9276 4789.00 4789.06 69.20
1667 0.9280 4778.00 4789.97 69.12
1668 0.9283 4802.00 4791.22 69.30
1669 0.9287 4784.00 4792.92 69.17
1670 0.9290 4813.00 4795.23 69.38
1671 0.9294 4884.00 4798.40 69.89
1672 0.9297 4760.00 4802.74 68.99
1673 0.9301 4798.00 4808.70 69.27
1674 0.9304 4772.00 4816.85 69.08
1675 0.9308 4793.00 4827.82 69.23
1676 0.9311 4799.00 4842.25 69.27
1677 0.9315 4973.00 4860.67 70.52
1678 0.9318 5084.00 4883.32 71.30
1679 0.9322 5024.00 4909.90 70.88
1680 0.9325 4916.00 4939.42 70.11
1681 0.9329 4959.00 4969.96 70.42
1682 0.9332 5076.00 4998.78 71.25
1683 0.9336 4994.00 5022.50 70.67
1684 0.9339 5058.00 5037.63 71.12
1685 0.9342 5165.00 5041.68 71.87
1686 0.9346 5108.00 5034.66 71.47
1687 0.9349 5030.00 5019.61 70.92
1688 0.9353 4959.00 5001.29 70.42
1689 0.9356 4963.00 4984.48 70.45
1690 0.9360 4950.00 4973.12 70.36
1691 0.9363 5029.00 4970.40 70.92
1692 0.9367 5209.00 4978.95 72.17
1693 0.9370 5106.00 5001.09 71.46
1694 0.9374 5214.00 5038.93 72.21
1695 0.9377 5175.00 5094.24 71.94
1696 0.9381 5222.00 5168.30 72.26
1697 0.9384 5308.00 5261.33 72.86
1698 0.9388 5494.00 5372.08 74.12
1699 0.9391 5623.00 5497.02 74.99
1700 0.9395 5682.00 5629.62 75.38
1701 0.9398 5939.00 5760.13 77.06
1702 0.9402 5937.00 5875.70 77.05
1703 0.9405 5932.00 5961.74 77.02
1704 0.9409 6082.00 6004.19 77.99
1705 0.9412 6049.00 5993.74 77.78
1706 0.9416 5812.00 5930.54 76.24
1707 0.9419 5609.00 5825.14 74.89
1708 0.9423 5529.00 5694.20 74.36
1709 0.9426 5385.00 5554.13 73.38
1710 0.9430 5243.00 5417.68 72.41
1711 0.9433 5182.00 5293.13 71.99
1712 0.9437 5249.00 5185.11 72.45
1713 0.9440 5134.00 5095.35 71.65
1714 0.9444 5158.00 5023.60 71.82
1715 0.9447 5098.00 4968.15 71.40
1716 0.9451 4956.00 4926.58 70.40
1717 0.9454 4904.00 4896.22 70.03
1718 0.9458 4996.00 4874.45 70.68
1719 0.9461 4882.00 4858.94 69.87
1720 0.9465 4863.00 4847.78 69.74
1721 0.9468 4786.00 4839.44 69.18
1722 0.9472 4824.00 4832.71 69.46
1723 0.9475 4841.00 4826.73 69.58
1724 0.9479 4846.00 4820.94 69.61
1725 0.9482 4835.00 4815.09 69.53
1726 0.9486 4776.00 4809.20 69.11
1727 0.9489 4777.00 4803.42 69.12
1728 0.9493 4762.00 4797.92 69.01
1729 0.9496 4832.00 4792.82 69.51
1730 0.9500 4826.00 4788.21 69.47
1731 0.9503 4688.00 4784.11 68.47
1732 0.9507 4721.00 4780.53 68.71
1733 0.9510 4859.00 4777.38 69.71
1734 0.9514 4755.00 4774.69 68.96
1735 0.9517 4830.00 4772.37 69.50
1736 0.9521 4809.00 4770.36 69.35
1737 0.9524 4789.00 4768.60 69.20
1738 0.9528 4790.00 4767.04 69.21
1739 0.9531 4736.00 4765.65 68.82
1740 0.9534 4832.00 4764.39 69.51
1741 0.9538 4786.00 4763.25 69.18
1742 0.9541 4685.00 4762.19 68.45
1743 0.9545 4676.00 4761.21 68.38
1744 0.9548 4725.00 4760.31 68.74
1745 0.9552 4767.00 4759.46 69.04
1746 0.9555 4803.00 4758.67 69.30
1747 0.9559 4839.00 4757.93 69.56
1748 0.9562 4747.00 4757.23 68.90
1749 0.9566 4674.00 4756.58 68.37
1750 0.9569 4744.00 4755.96 68.88
1751 0.9573 4757.00 4755.39 68.97
1752 0.9576 4843.00 4754.84 69.59
1753 0.9580 4843.00 4754.33 69.59
1754 0.9583 4844.00 4753.85 69.60
1755 0.9587 4770.00 4753.40 69.07
1756 0.9590 4731.00 4752.97 68.78
1757 0.9594 4753.00 4752.58 68.94
1758 0.9597 4681.00 4752.21 68.42
1759 0.9601 4778.00 4751.87 69.12
1760 0.9604 4713.00 4751.56 68.65
1761 0.9608 4792.00 4751.28 69.22
1762 0.9611 4786.00 4751.03 69.18
1763 0.9615 4775.00 4750.80 69.10
1764 0.9618 4701.00 4750.54 68.56
1765 0.9622 4795.00 4750.39 69.25
1766 0.9625 4707.00 4750.27 68.61
1767 0.9629 4713.00 4751.68 68.65
1768 0.9632 4747.00 4751.68 68.90
1769 0.9636 4815.00 4751.72 69.39
1770 0.9639 4825.00 4751.83 69.46
1771 0.9643 4757.00 4752.01 68.97
1772 0.9646 4805.00 4752.27 69.32
1773 0.9650 4747.00 4752.35 68.90
1774 0.9653 4694.00 4752.88 68.51
1775 0.9657 4747.00 4753.62 68.90
1776 0.9660 4803.00 4754.64 69.30
1777 0.9664 4724.00 4756.06 68.73
1778 0.9667 4824.00 4758.04 69.46
1779 0.9671 4806.00 4760.79 69.33
1780 0.9674 4764.00 4764.58 69.02
1781 0.9678 4815.00 4769.71 69.39
1782 0.9681 4799.00 4776.53 69.27
1783 0.9685 4753.00 4785.35 68.94
1784 0.9688 4740.00 4796.43 68.85
1785 0.9692 4792.00 4809.88 69.22
1786 0.9695 4807.00 4825.57 69.33
1787 0.9699 4866.00 4844.17 69.76
1788 0.9702 4949.00 4862.66 70.35
1789 0.9706 5009.00 4880.81 70.77
1790 0.9709 4884.00 4896.89 69.89
1791 0.9713 4868.00 4908.88 69.77
1792 0.9716 4988.00 4914.84 70.63
1793 0.9719 4943.00 4913.56 70.31
1794 0.9723 4916.00 4905.08 70.11
1795 0.9726 4987.00 4890.83 70.62
1796 0.9730 4868.00 4872.99 69.77
1797 0.9733 4852.00 4853.74 69.66
1798 0.9737 4938.00 4834.77 70.27
1799 0.9740 4836.00 4817.23 69.54
1800 0.9744 4768.00 4801.78 69.05
1801 0.9747 4761.00 4788.71 69.00
1802 0.9751 4837.00 4778.02 69.55
1803 0.9754 4792.00 4769.55 69.22
1804 0.9758 4791.00 4762.98 69.22
1805 0.9761 4827.00 4757.98 69.48
1806 0.9765 4777.00 4754.21 69.12
1807 0.9768 4812.00 4751.37 69.37
1808 0.9772 4711.00 4749.20 68.64
1809 0.9775 4790.00 4747.51 69.21
1810 0.9779 4725.00 4746.16 68.74
1811 0.9782 4678.00 4744.86 68.40
1812 0.9786 4746.00 4743.92 68.89
1813 0.9789 4774.00 4743.11 69.09
1814 0.9793 4659.00 4742.39 68.26
1815 0.9796 4684.00 4741.75 68.44
1816 0.9800 4831.00 4741.17 69.51
1817 0.9803 4856.00 4740.64 69.68
1818 0.9807 4809.00 4740.16 69.35
1819 0.9810 4754.00 4739.72 68.95
1820 0.9814 4790.00 4739.31 69.21
1821 0.9817 4774.00 4738.93 69.09
1822 0.9821 4773.00 4738.58 69.09
1823 0.9824 4786.00 4738.25 69.18
1824 0.9828 4688.00 4737.95 68.47
1825 0.9831 4675.00 4737.66 68.37
1826 0.9835 4700.00 4737.39 68.56
1827 0.9838 4665.00 4737.15 68.30
1828 0.9842 4682.00 4736.91 68.43
1829 0.9845 4584.00 4736.69 67.71
1830 0.9849 4673.00 4736.49 68.36
1831 0.9852 4754.00 4736.30 68.95
1832 0.9856 4816.00 4737.37 69.40
1833 0.9859 4728.00 4737.23 68.76
1834 0.9863 4673.00 4737.09 68.36
1835 0.9866 4675.00 4736.97 68.37
1836 0.9870 4693.00 4736.86 68.51
1837 0.9873 4673.00 4736.76 68.36
1838 0.9877 4711.00 4736.67 68.64
1839 0.9880 4827.00 4736.60 69.48
1840 0.9884 4699.00 4736.54 68.55
1841 0.9887 4761.00 4736.49 69.00
1842 0.9891 4768.00 4736.46 69.05
1843 0.9894 4719.00 4736.43 68.69
1844 0.9898 4667.00 4735.44 68.32
1845 0.9901 4715.00 4738.06 68.67
1846 0.9904 4672.00 4738.13 68.35
1847 0.9908 4762.00 4738.21 69.01
1848 0.9911 4728.00 4738.31 68.76
1849 0.9915 4708.00 4738.43 68.61
1850 0.9918 4672.00 4738.56 68.35
1851 0.9922 4686.00 4738.71 68.45
1852 0.9925 4712.00 4738.89 68.64
1853 0.9929 4683.00 4739.08 68.43
1854 0.9932 4805.00 4739.30 69.32
1855 0.9936 4720.00 4739.54 68.70
1856 0.9939 4688.00 4739.80 68.47
1857 0.9943 4696.00 4740.09 68.53
1858 0.9946 4734.00 4740.41 68.80
1859 0.9950 4636.00 4740.75 68.09
1860 0.9953 4675.00 4741.08 68.37
1861 0.9957 4696.00 4741.50 68.53
1862 0.9960 4729.00 4741.95 68.77
1863 0.9964 4709.00 4742.44 68.62
1864 0.9967 4723.00 4742.97 68.72
1865 0.9971 4723.00 4743.56 68.72
1866 0.9974 4690.00 4744.17 68.48
1867 0.9978 4814.00 4744.86 69.38
1868 0.9981 4720.00 4745.60 68.70
1869 0.9985 4760.00 4746.42 68.99
1870 0.9988 4761.00 4747.30 69.00
1871 0.9992 4726.00 4748.26 68.75
1872 0.9995 4646.00 4749.31 68.16
1873 0.9999 4722.00 4750.45 68.72
1874 1.0002 4775.00 4751.69 69.10
1875 1.0006 4772.00 4753.06 69.08
1876 1.0009 4742.00 4754.55 68.86
1877 1.0013 4724.00 4756.18 68.73
1878 1.0016 4716.00 4757.97 68.67
1879 1.0020 4775.00 4759.95 69.10
1880 1.0023 4651.00 4762.12 68.20
1881 1.0027 4747.00 4764.53 68.90
1882 1.0030 4753.00 4767.19 68.94
1883 1.0034 4723.00 4770.15 68.72
1884 1.0037 4752.00 4773.45 68.93
1885 1.0041 4708.00 4777.15 68.61
1886 1.0044 4765.00 4781.30 69.03
1887 1.0048 4789.00 4786.00 69.20
1888 1.0051 4688.00 4791.37 68.47
1889 1.0055 4698.00 4797.55 68.54
1890 1.0058 4815.00 4804.79 69.39
1891 1.0062 4766.00 4813.60 69.04
1892 1.0065 4788.00 4824.20 69.20
1893 1.0069 4827.00 4837.54 69.48
1894 1.0072 4869.00 4854.79 69.78
1895 1.0076 4797.00 4877.62 69.26
1896 1.0079 4775.00 4908.28 69.10
1897 1.0083 4813.00 4949.69 69.38
1898 1.0086 4911.00 5005.33 70.08
1899 1.0089 5101.00 5079.07 71.42
1900 1.0093 5106.00 5174.74 71.46
1901 1.0096 5227.00 5295.47 72.30
1902 1.0100 5390.00 5442.92 73.42
1903 1.0103 5608.00 5616.22 74.89
1904 1.0107 5749.00 5811.05 75.82
1905 1.0110 5985.00 6018.39 77.36
1906 1.0114 6225.00 6223.87 78.90
1907 1.0117 6589.00 6407.76 81.17
1908 1.0121 6709.00 6546.77 81.91
1909 1.0124 6749.00 6618.46 82.15
1910 1.0128 6695.00 6608.57 81.82
1911 1.0131 6485.00 6517.91 80.53
1912 1.0135 6332.00 6363.00 79.57
1913 1.0138 6101.00 6168.93 78.11
1914 1.0142 5902.00 5960.18 76.82
1915 1.0145 5824.00 5755.78 76.32
1916 1.0149 5546.00 5568.34 74.47
1917 1.0152 5401.00 5405.12 73.49
1918 1.0156 5230.00 5269.00 72.32
1919 1.0159 5159.00 5159.87 71.83
1920 1.0163 5059.00 5075.40 71.13
1921 1.0166 5127.00 5012.07 71.60
1922 1.0170 4995.00 4965.97 70.68
1923 1.0173 5059.00 4933.27 71.13
1924 1.0177 4925.00 4910.71 70.18
1925 1.0180 4871.00 4895.70 69.79
1926 1.0184 4888.00 4886.36 69.91
1927 1.0187 4919.00 4881.48 70.14
1928 1.0191 4980.00 4880.44 70.57
1929 1.0194 4815.00 4883.09 69.39
1930 1.0198 4784.00 4889.76 69.17
1931 1.0201 4913.00 4901.17 70.09
1932 1.0205 4921.00 4918.40 70.15
1933 1.0208 4972.00 4942.92 70.51
1934 1.0212 4957.00 4976.47 70.41
1935 1.0215 4910.00 5020.98 70.07
1936 1.0219 4947.00 5078.33 70.33
1937 1.0222 5162.00 5150.01 71.85
1938 1.0226 5199.00 5237.29 72.10
1939 1.0229 5301.00 5340.06 72.81
1940 1.0233 5436.00 5457.00 73.73
1941 1.0236 5448.00 5584.86 73.81
1942 1.0240 5724.00 5718.20 75.66
1943 1.0243 5949.00 5848.87 77.13
1944 1.0247 5936.00 5966.22 77.05
1945 1.0250 6045.00 6057.79 77.75
1946 1.0254 6226.00 6111.59 78.90
1947 1.0257 6370.00 6119.06 79.81
1948 1.0261 6238.00 6078.59 78.98
1949 1.0264 5976.00 5996.39 77.30
1950 1.0268 5944.00 5884.21 77.10
1951 1.0271 5737.00 5755.42 75.74
1952 1.0275 5549.00 5621.81 74.49
1953 1.0278 5393.00 5492.37 73.44
1954 1.0281 5212.00 5373.13 72.19
1955 1.0285 5160.00 5267.76 71.83
1956 1.0288 5119.00 5177.94 71.55
1957 1.0292 4989.00 5103.86 70.63
1958 1.0295 4977.00 5044.71 70.55
1959 1.0299 4883.00 4998.93 69.88
1960 1.0302 4877.00 4964.64 69.84
1961 1.0306 4923.00 4939.85 70.16
1962 1.0309 4827.00 4922.72 69.48
1963 1.0313 4820.00 4911.65 69.43
1964 1.0316 4828.00 4905.37 69.48
1965 1.0320 4790.00 4902.93 69.21
1966 1.0323 4918.00 4903.69 70.13
1967 1.0327 4902.00 4907.28 70.01
1968 1.0330 4972.00 4913.59 70.51
1969 1.0334 4970.00 4922.75 70.50
1970 1.0337 5011.00 4935.17 70.79
1971 1.0341 4898.00 4951.54 69.99
1972 1.0344 5087.00 4972.95 71.32
1973 1.0348 5134.00 5000.94 71.65
1974 1.0351 5116.00 5037.60 71.53
1975 1.0355 5135.00 5085.71 71.66
1976 1.0358 5308.00 5148.76 72.86
1977 1.0362 5299.00 5231.01 72.79
1978 1.0365 5510.00 5337.34 74.23
1979 1.0369 5589.00 5473.17 74.76
1980 1.0372 5767.00 5644.06 75.94
1981 1.0376 5921.00 5855.19 76.95
1982 1.0379 6247.00 6110.51 79.04
1983 1.0383 6412.00 6411.78 80.07
1984 1.0386 6754.00 6756.73 82.18
1985 1.0390 7218.00 7138.23 84.96
1986 1.0393 7617.00 7542.76 87.28
1987 1.0397 7975.00 7950.65 89.30
1988 1.0400 8187.00 8337.08 90.48
1989 1.0404 8494.00 8675.86 92.16
1990 1.0407 8704.00 8941.52 93.30
1991 1.0411 8900.00 9110.30 94.34
1992 1.0414 9061.00 9160.39 95.19
1993 1.0418 8981.00 9075.82 94.77
1994 1.0421 8938.00 8854.76 94.54
1995 1.0425 8637.00 8516.71 92.94
1996 1.0428 8140.00 8098.79 90.22
1997 1.0432 7460.00 7644.08 86.37
1998 1.0435 7152.00 7190.26 84.57
1999 1.0439 6688.00 6764.60 81.78
2000 1.0442 6368.00 6383.81 79.80
2001 1.0446 6008.00 6056.48 77.51
2002 1.0449 5830.00 5784.37 76.35
2003 1.0453 5627.00 5564.84 75.01
2004 1.0456 5505.00 5392.23 74.20
2005 1.0460 5341.00 5259.52 73.08
2006 1.0463 5216.00 5159.14 72.22
2007 1.0466 5200.00 5084.04 72.11
2008 1.0470 5132.00 5028.22 71.64
2009 1.0473 5185.00 4986.81 72.01
2010 1.0477 4966.00 4956.31 70.47
2011 1.0480 4962.00 4934.32 70.44
2012 1.0484 4964.00 4919.38 70.46
2013 1.0487 4917.00 4910.66 70.12
2014 1.0491 4865.00 4907.77 69.75
2015 1.0494 4916.00 4910.44 70.11
2016 1.0498 4877.00 4918.29 69.84
2017 1.0501 4954.00 4930.55 70.38
2018 1.0505 4954.00 4945.91 70.38
2019 1.0508 4900.00 4962.28 70.00
2020 1.0512 4972.00 4976.85 70.51
2021 1.0515 5044.00 4986.27 71.02
2022 1.0519 4975.00 4987.38 70.53
2023 1.0522 5047.00 4978.35 71.04
2024 1.0526 4973.00 4959.63 70.52
2025 1.0529 4940.00 4933.81 70.29
2026 1.0533 4894.00 4904.38 69.96
2027 1.0536 4874.00 4874.45 69.81
2028 1.0540 4840.00 4846.28 69.57
2029 1.0543 4783.00 4821.21 69.16
2030 1.0547 4800.00 4799.88 69.28
2031 1.0550 4832.00 4782.39 69.51
2032 1.0554 4852.00 4768.45 69.66
2033 1.0557 4781.00 4757.53 69.14
2034 1.0561 4777.00 4749.06 69.12
2035 1.0564 4812.00 4742.46 69.37
2036 1.0568 4752.00 4737.24 68.93
2037 1.0571 4714.00 4733.03 68.66
2038 1.0575 4649.00 4729.54 68.18
2039 1.0578 4747.00 4726.58 68.90
2040 1.0582 4777.00 4724.04 69.12
2041 1.0585 4659.00 4721.81 68.26
2042 1.0589 4669.00 4719.85 68.33
2043 1.0592 4709.00 4718.10 68.62
2044 1.0596 4746.00 4716.51 68.89
2045 1.0599 4653.00 4715.03 68.21
2046 1.0603 4753.00 4713.62 68.94
2047 1.0606 4713.00 4712.18 68.65
2048 1.0610 4665.00 4710.67 68.30
2049 1.0613 4774.00 4709.08 69.09
2050 1.0617 4739.00 4707.39 68.84
2051 1.0620 4660.00 4704.15 68.26
2052 1.0624 4731.00 4702.42 68.78
2053 1.0627 4701.00 4700.72 68.56
2054 1.0631 4635.00 4699.08 68.08
2055 1.0634 4692.00 4697.53 68.50
2056 1.0638 4731.00 4696.08 68.78
2057 1.0641 4767.00 4694.73 69.04
2058 1.0645 4768.00 4693.48 69.05
2059 1.0648 4644.00 4692.31 68.15
2060 1.0651 4544.00 4691.24 67.41
2061 1.0655 4570.00 4690.23 67.60
2062 1.0658 4681.00 4689.29 68.42
2063 1.0662 4717.00 4688.41 68.68
2064 1.0665 4669.00 4687.58 68.33
2065 1.0669 4672.00 4686.79 68.35
2066 1.0672 4694.00 4686.05 68.51
2067 1.0676 4773.00 4685.35 69.09
2068 1.0679 4656.00 4684.69 68.23
2069 1.0683 4634.00 4684.08 68.07
2070 1.0686 4598.00 4683.50 67.81
2071 1.0690 4685.00 4682.97 68.45
2072 1.0693 4652.00 4682.48 68.21
2073 1.0697 4642.00 4682.02 68.13
2074 1.0700 4670.00 4681.60 68.34
2075 1.0704 4671.00 4681.22 68.34
2076 1.0707 4684.00 4680.86 68.44
2077 1.0711 4623.00 4680.51 67.99
2078 1.0714 4637.00 4680.17 68.10
2079 1.0718 4613.00 4679.83 67.92
2080 1.0721 4589.00 4679.49 67.74
2081 1.0725 4743.00 4679.18 68.87
2082 1.0728 4696.00 4678.91 68.53
2083 1.0732 4565.00 4678.74 67.56
2084 1.0735 4700.00 4678.72 68.56
2085 1.0739 4772.00 4678.91 69.08
2086 1.0742 4677.00 4679.40 68.39
2087 1.0746 4657.00 4680.27 68.24
2088 1.0749 4603.00 4681.61 67.85
2089 1.0753 4700.00 4683.50 68.56
2090 1.0756 4605.00 4686.46 67.86
2091 1.0760 4682.00 4689.66 68.43
2092 1.0763 4659.00 4693.52 68.26
2093 1.0767 4651.00 4697.96 68.20
2094 1.0770 4695.00 4702.84 68.52
2095 1.0774 4709.00 4707.82 68.62
2096 1.0777 4705.00 4712.53 68.59
2097 1.0781 4684.00 4716.47 68.44
2098 1.0784 4705.00 4719.10 68.59
2099 1.0788 4704.00 4719.97 68.59
2100 1.0791 4774.00 4718.91 69.09
2101 1.0795 4767.00 4716.09 69.04
2102 1.0798 4692.00 4711.98 68.50
2103 1.0802 4732.00 4707.18 68.79
2104 1.0805 4736.00 4702.24 68.82
2105 1.0809 4695.00 4697.56 68.52
2106 1.0812 4742.00 4692.33 68.86
2107 1.0816 4676.00 4688.86 68.38
2108 1.0819 4676.00 4686.09 68.38
2109 1.0823 4690.00 4683.91 68.48
2110 1.0826 4664.00 4682.18 68.29
2111 1.0830 4618.00 4680.68 67.96
2112 1.0833 4624.00 4679.21 68.00
2113 1.0837 4682.00 4677.61 68.43
2114 1.0840 4589.00 4675.81 67.74
2115 1.0843 4592.00 4673.85 67.76
2116 1.0847 4653.00 4671.81 68.21
2117 1.0850 4679.00 4669.78 68.40
2118 1.0854 4629.00 4667.85 68.04
2119 1.0857 4645.00 4666.05 68.15
2120 1.0861 4655.00 4664.43 68.23
2121 1.0864 4600.00 4663.00 67.82
2122 1.0868 4641.00 4661.76 68.12
2123 1.0871 4620.00 4660.69 67.97
2124 1.0875 4724.00 4659.77 68.73
2125 1.0878 4808.00 4658.98 69.34
2126 1.0882 4692.00 4658.30 68.50
2127 1.0885 4664.00 4657.70 68.29
2128 1.0889 4666.00 4657.17 68.31
2129 1.0892 4631.00 4656.68 68.05
2130 1.0896 4653.00 4656.23 68.21
2131 1.0899 4586.00 4655.81 67.72
2132 1.0903 4679.00 4655.41 68.40
2133 1.0906 4629.00 4655.03 68.04
2134 1.0910 4562.00 4654.67 67.54
2135 1.0913 4649.00 4654.32 68.18
2136 1.0917 4714.00 4653.99 68.66
2137 1.0920 4632.00 4653.66 68.06
2138 1.0924 4702.00 4653.35 68.57
2139 1.0927 4622.00 4653.04 67.99
2140 1.0931 4656.00 4652.75 68.23
2141 1.0934 4672.00 4649.87 68.35
2142 1.0938 4744.00 4649.64 68.88
2143 1.0941 4671.00 4649.42 68.34
2144 1.0945 4661.00 4649.21 68.27
2145 1.0948 4751.00 4647.78 68.93
2146 1.0952 4711.00 4647.62 68.64
2147 1.0955 4648.00 4647.50 68.18
2148 1.0959 4684.00 4647.40 68.44
2149 1.0962 4759.00 4647.35 68.99
2150 1.0966 4651.00 4647.36 68.20
2151 1.0969 4718.00 4647.44 68.69
2152 1.0973 4582.00 4647.60 67.69
2153 1.0976 4597.00 4647.70 67.80
2154 1.0980 4655.00 4648.08 68.23
2155 1.0983 4612.00 4648.59 67.91
2156 1.0987 4604.00 4649.23 67.85
2157 1.0990 4583.00 4650.01 67.70
2158 1.0994 4661.00 4650.91 68.27
2159 1.0997 4601.00 4651.94 67.83
2160 1.1001 4533.00 4653.01 67.33
2161 1.1004 4692.00 4654.10 68.50
2162 1.1008 4730.00 4655.16 68.78
2163 1.1011 4695.00 4656.16 68.52
2164 1.1015 4720.00 4657.09 68.70
2165 1.1018 4679.00 4657.97 68.40
2166 1.1022 4613.00 4658.85 67.92
2167 1.1025 4697.00 4659.76 68.53
2168 1.1028 4653.00 4660.69 68.21
2169 1.1032 4704.00 4661.62 68.59
2170 1.1035 4658.00 4662.47 68.25
2171 1.1039 4704.00 4663.16 68.59
2172 1.1042 4653.00 4663.59 68.21
2173 1.1046 4618.00 4663.65 67.96
2174 1.1049 4726.00 4663.30 68.75
2175 1.1053 4649.00 4662.52 68.18
2176 1.1056 4584.00 4661.39 67.71
2177 1.1060 4613.00 4660.00 67.92
2178 1.1063 4666.00 4658.49 68.31
2179 1.1067 4725.00 4656.98 68.74
2180 1.1070 4622.00 4655.59 67.99
2181 1.1074 4647.00 4654.45 68.17
2182 1.1077 4602.00 4653.64 67.84
2183 1.1081 4575.00 4653.26 67.64
2184 1.1084 4740.00 4653.36 68.85
2185 1.1088 4705.00 4653.96 68.59
2186 1.1091 4718.00 4655.08 68.69
2187 1.1095 4731.00 4656.66 68.78
2188 1.1098 4764.00 4658.59 69.02
2189 1.1102 4594.00 4660.69 67.78
2190 1.1105 4654.00 4662.89 68.22
2191 1.1109 4661.00 4664.58 68.27
2192 1.1112 4657.00 4665.60 68.24
2193 1.1116 4683.00 4665.71 68.43
2194 1.1119 4698.00 4664.83 68.54
2195 1.1123 4639.00 4663.09 68.11
2196 1.1126 4642.00 4660.75 68.13
2197 1.1130 4724.00 4658.13 68.73
2198 1.1133 4656.00 4655.48 68.23
2199 1.1137 4642.00 4653.01 68.13
2200 1.1140 4629.00 4650.85 68.04
2201 1.1144 4594.00 4649.06 67.78
2202 1.1147 4653.00 4647.68 68.21
2203 1.1151 4642.00 4646.70 68.13
2204 1.1154 4765.00 4646.10 69.03
2205 1.1158 4748.00 4645.85 68.91
2206 1.1161 4763.00 4645.90 69.01
2207 1.1165 4764.00 4646.22 69.02
2208 1.1168 4700.00 4646.80 68.56
2209 1.1172 4673.00 4647.62 68.36
2210 1.1175 4639.00 4648.70 68.11
2211 1.1179 4597.00 4650.07 67.80
2212 1.1182 4665.00 4651.78 68.30
2213 1.1186 4635.00 4653.96 68.08
2214 1.1189 4572.00 4656.77 67.62
2215 1.1193 4674.00 4660.48 68.37
2216 1.1196 4685.00 4665.50 68.45
2217 1.1200 4706.00 4672.41 68.60
2218 1.1203 4709.00 4682.00 68.62
2219 1.1207 4757.00 4695.30 68.97
2220 1.1210 4730.00 4713.52 68.78
2221 1.1213 4670.00 4737.98 68.34
2222 1.1217 4734.00 4769.94 68.80
2223 1.1220 4837.00 4810.36 69.55
2224 1.1224 4861.00 4859.60 69.72
2225 1.1227 4842.00 4917.10 69.58
2226 1.1231 4898.00 4981.07 69.99
2227 1.1234 4951.00 5048.06 70.36
2228 1.1238 5006.00 5112.86 70.75
2229 1.1241 5133.00 5168.51 71.64
2230 1.1245 5134.00 5207.12 71.65
2231 1.1248 5161.00 5221.82 71.84
2232 1.1252 5204.00 5209.48 72.14
2233 1.1255 5192.00 5172.33 72.06
2234 1.1259 5089.00 5117.02 71.34
2235 1.1262 5045.00 5051.75 71.03
2236 1.1266 4988.00 4983.86 70.63
2237 1.1269 4942.00 4918.77 70.30
2238 1.1273 4940.00 4860.04 70.29
2239 1.1276 4954.00 4809.57 70.38
2240 1.1280 4811.00 4767.98 69.36
2241 1.1283 4784.00 4734.95 69.17
2242 1.1287 4728.00 4709.55 68.76
2243 1.1290 4701.00 4690.51 68.56
2244 1.1294 4802.00 4676.65 69.30
2245 1.1297 4782.00 4666.43 69.15
2246 1.1301 4759.00 4658.94 68.99
2247 1.1304 4729.00 4653.38 68.77
2248 1.1308 4605.00 4649.14 67.86
2249 1.1311 4711.00 4645.80 68.64
2250 1.1315 4799.00 4643.09 69.27
2251 1.1318 4672.00 4640.82 68.35
2252 1.1322 4635.00 4638.83 68.08
2253 1.1325 4544.00 4637.14 67.41
2254 1.1329 4678.00 4635.64 68.40
2255 1.1332 4625.00 4634.31 68.01
2256 1.1336 4676.00 4633.12 68.38
2257 1.1339 4642.00 4632.05 68.13
2258 1.1343 4605.00 4631.08 67.86
2259 1.1346 4668.00 4630.20 68.32
2260 1.1350 4633.00 4629.40 68.07
2261 1.1353 4615.00 4628.68 67.93
2262 1.1357 4689.00 4628.03 68.48
2263 1.1360 4629.00 4627.44 68.04
2264 1.1364 4658.00 4626.90 68.25
2265 1.1367 4703.00 4626.43 68.58
2266 1.1371 4734.00 4626.02 68.80
2267 1.1374 4701.00 4625.66 68.56
2268 1.1378 4677.00 4625.38 68.39
2269 1.1381 4656.00 4625.17 68.23
2270 1.1385 4632.00 4625.06 68.06
2271 1.1388 4572.00 4625.04 67.62
2272 1.1392 4619.00 4625.15 67.96
2273 1.1395 4610.00 4625.42 67.90
2274 1.1398 4562.00 4625.87 67.54
2275 1.1402 4611.00 4626.53 67.90
2276 1.1405 4610.00 4627.46 67.90
2277 1.1409 4644.00 4628.67 68.15
2278 1.1412 4573.00 4630.21 67.62
2279 1.1416 4588.00 4632.11 67.73
2280 1.1419 4582.00 4634.37 67.69
2281 1.1423 4685.00 4637.00 68.45
2282 1.1426 4584.00 4639.99 67.71
2283 1.1430 4648.00 4643.27 68.18
2284 1.1433 4587.00 4646.77 67.73
2285 1.1437 4600.00 4650.39 67.82
2286 1.1440 4629.00 4653.95 68.04
2287 1.1444 4634.00 4657.26 68.07
2288 1.1447 4696.00 4660.08 68.53
2289 1.1451 4682.00 4662.17 68.43
2290 1.1454 4707.00 4663.30 68.61
2291 1.1458 4581.00 4663.35 67.68
2292 1.1461 4682.00 4662.30 68.43
2293 1.1465 4601.00 4660.27 67.83
2294 1.1468 4646.00 4658.67 68.16
2295 1.1472 4601.00 4655.43 67.83
2296 1.1475 4652.00 4651.98 68.21
2297 1.1479 4588.00 4648.58 67.73
2298 1.1482 4569.00 4645.41 67.59
2299 1.1486 4667.00 4642.65 68.32
2300 1.1489 4604.00 4640.40 67.85
2301 1.1493 4559.00 4638.76 67.52
2302 1.1496 4551.00 4637.76 67.46
2303 1.1500 4685.00 4637.38 68.45
2304 1.1503 4717.00 4637.58 68.68
2305 1.1507 4591.00 4638.26 67.76
2306 1.1510 4597.00 4639.18 67.80
2307 1.1514 4619.00 4640.12 67.96
2308 1.1517 4635.00 4640.79 68.08
2309 1.1521 4725.00 4640.88 68.74
2310 1.1524 4662.00 4640.23 68.28
2311 1.1528 4658.00 4638.74 68.25
2312 1.1531 4589.00 4636.56 67.74
2313 1.1535 4620.00 4633.93 67.97
2314 1.1538 4663.00 4631.10 68.29
2315 1.1542 4619.00 4628.28 67.96
2316 1.1545 4676.00 4625.64 68.38
2317 1.1549 4739.00 4623.25 68.84
2318 1.1552 4628.00 4621.19 68.03
2319 1.1556 4644.00 4619.46 68.15
2320 1.1559 4756.00 4618.05 68.96
2321 1.1563 4608.00 4616.94 67.88
2322 1.1566 4559.00 4616.07 67.52
2323 1.1570 4573.00 4615.42 67.62
2324 1.1573 4624.00 4614.93 68.00
2325 1.1577 4575.00 4614.57 67.64
2326 1.1580 4513.00 4614.31 67.18
2327 1.1584 4607.00 4614.13 67.87
2328 1.1587 4638.00 4614.01 68.10
2329 1.1590 4526.00 4613.95 67.28
2330 1.1594 4710.00 4614.25 68.63
2331 1.1597 4646.00 4614.30 68.16
2332 1.1601 4557.00 4614.39 67.51
2333 1.1604 4597.00 4614.54 67.80
2334 1.1608 4537.00 4614.76 67.36
2335 1.1611 4648.00 4615.05 68.18
2336 1.1615 4658.00 4615.44 68.25
2337 1.1618 4579.00 4615.92 67.67
2338 1.1622 4606.00 4616.54 67.87
2339 1.1625 4570.00 4617.31 67.60
2340 1.1629 4649.00 4618.25 68.18
2341 1.1632 4597.00 4619.44 67.80
2342 1.1636 4609.00 4620.89 67.89
2343 1.1639 4538.00 4622.67 67.36
2344 1.1643 4598.00 4624.84 67.81
2345 1.1646 4641.00 4627.49 68.12
2346 1.1650 4629.00 4630.72 68.04
2347 1.1653 4652.00 4634.64 68.21
2348 1.1657 4623.00 4639.38 67.99
2349 1.1660 4611.00 4645.10 67.90
2350 1.1664 4620.00 4651.99 67.97
2351 1.1667 4651.00 4660.22 68.20
2352 1.1671 4724.00 4669.95 68.73
2353 1.1674 4721.00 4681.26 68.71
2354 1.1678 4716.00 4694.10 68.67
2355 1.1681 4782.00 4708.28 69.15
2356 1.1685 4729.00 4723.41 68.77
2357 1.1688 4647.00 4738.84 68.17
2358 1.1692 4695.00 4753.72 68.52
2359 1.1695 4783.00 4766.93 69.16
2360 1.1699 4748.00 4777.20 68.91
2361 1.1702 4669.00 4783.32 68.33
2362 1.1706 4823.00 4784.43 69.45
2363 1.1709 4773.00 4780.33 69.09
2364 1.1713 4786.00 4771.54 69.18
2365 1.1716 4716.00 4759.12 68.67
2366 1.1720 4705.00 4744.37 68.59
2367 1.1723 4731.00 4728.49 68.78
2368 1.1727 4700.00 4712.50 68.56
2369 1.1730 4703.00 4697.14 68.58
2370 1.1734 4712.00 4682.94 68.64
2371 1.1737 4701.00 4670.23 68.56
2372 1.1741 4578.00 4658.72 67.66
2373 1.1744 4614.00 4649.33 67.93
2374 1.1748 4624.00 4641.52 68.00
2375 1.1751 4715.00 4635.18 68.67
2376 1.1755 4678.00 4630.12 68.40
2377 1.1758 4624.00 4626.15 68.00
2378 1.1762 4580.00 4623.07 67.68
2379 1.1765 4640.00 4620.70 68.12
2380 1.1769 4636.00 4618.88 68.09
2381 1.1772 4695.00 4617.50 68.52
2382 1.1775 4689.00 4616.44 68.48
2383 1.1779 4684.00 4615.63 68.44
2384 1.1782 4643.00 4615.02 68.14
2385 1.1786 4719.00 4614.55 68.69
2386 1.1789 4654.00 4614.20 68.22
2387 1.1793 4644.00 4613.95 68.15
2388 1.1796 4632.00 4613.78 68.06
2389 1.1800 4589.00 4613.69 67.74
2390 1.1803 4689.00 4613.67 68.48
2391 1.1807 4686.00 4613.72 68.45
2392 1.1810 4548.00 4613.84 67.44
2393 1.1814 4566.00 4614.02 67.57
2394 1.1817 4678.00 4614.27 68.40
2395 1.1821 4575.00 4614.59 67.64
2396 1.1824 4674.00 4614.98 68.37
2397 1.1828 4568.00 4615.46 67.59
2398 1.1831 4779.00 4616.04 69.13
2399 1.1835 4573.00 4616.73 67.62
2400 1.1838 4606.00 4617.56 67.87
2401 1.1842 4670.00 4618.56 68.34
2402 1.1845 4588.00 4619.78 67.73
2403 1.1849 4573.00 4621.28 67.62
2404 1.1852 4668.00 4623.15 68.32
2405 1.1856 4602.00 4625.51 67.84
2406 1.1859 4607.00 4628.51 67.87
2407 1.1863 4650.00 4632.29 68.19
2408 1.1866 4645.00 4637.09 68.15
2409 1.1870 4687.00 4643.09 68.46
2410 1.1873 4666.00 4650.53 68.31
2411 1.1877 4582.00 4659.60 67.69
2412 1.1880 4649.00 4670.47 68.18
2413 1.1884 4701.00 4683.22 68.56
2414 1.1887 4624.00 4697.82 68.00
2415 1.1891 4615.00 4714.12 67.93
2416 1.1894 4794.00 4731.79 69.24
2417 1.1898 4757.00 4750.27 68.97
2418 1.1901 4833.00 4768.76 69.52
2419 1.1905 4735.00 4786.20 68.81
2420 1.1908 4857.00 4801.30 69.69
2421 1.1912 4849.00 4812.63 69.63
2422 1.1915 4815.00 4818.99 69.39
2423 1.1919 4820.00 4819.66 69.43
2424 1.1922 4809.00 4814.72 69.35
2425 1.1926 4737.00 4805.00 68.83
2426 1.1929 4715.00 4791.82 68.67
2427 1.1933 4840.00 4776.63 69.57
2428 1.1936 4639.00 4760.72 68.11
2429 1.1940 4674.00 4745.14 68.37
2430 1.1943 4701.00 4730.68 68.56
2431 1.1947 4729.00 4717.87 68.77
2432 1.1950 4758.00 4707.06 68.98
2433 1.1954 4779.00 4698.42 69.13
2434 1.1957 4737.00 4692.03 68.83
2435 1.1960 4725.00 4687.87 68.74
2436 1.1964 4675.00 4685.92 68.37
2437 1.1967 4749.00 4686.16 68.91
2438 1.1971 4731.00 4688.64 68.78
2439 1.1974 4751.00 4693.55 68.93
2440 1.1978 4726.00 4701.26 68.75
2441 1.1981 4656.00 4712.39 68.23
2442 1.1985 4768.00 4727.87 69.05
2443 1.1988 4646.00 4748.93 68.16
2444 1.1992 4835.00 4777.38 69.53
2445 1.1995 4947.00 4814.76 70.33
2446 1.1999 4927.00 4863.37 70.19
2447 1.2002 5007.00 4925.39 70.76
2448 1.2006 5001.00 5002.70 70.72
2449 1.2009 5068.00 5096.70 71.19
2450 1.2013 5146.00 5207.83 71.74
2451 1.2016 5232.00 5335.25 72.33
2452 1.2020 5357.00 5476.26 73.19
2453 1.2023 5616.00 5626.09 74.94
2454 1.2027 5738.00 5777.58 75.75
2455 1.2030 5754.00 5920.39 75.86
2456 1.2034 5968.00 6041.83 77.25
2457 1.2037 6074.00 6127.87 77.94
2458 1.2041 6215.00 6166.62 78.84
2459 1.2044 6095.00 6151.87 78.07
2460 1.2048 6109.00 6085.85 78.16
2461 1.2051 5971.00 5978.26 77.27
2462 1.2055 5764.00 5842.87 75.92
2463 1.2058 5721.00 5693.36 75.64
2464 1.2062 5562.00 5541.43 74.58
2465 1.2065 5266.00 5395.48 72.57
2466 1.2069 5197.00 5261.52 72.09
2467 1.2072 5072.00 5142.94 71.22
2468 1.2076 4956.00 5041.48 70.40
2469 1.2079 5019.00 4957.12 70.84
2470 1.2083 4848.00 4888.89 69.63
2471 1.2086 4834.00 4835.12 69.53
2472 1.2090 4854.00 4793.69 69.67
2473 1.2093 4816.00 4762.44 69.40
2474 1.2097 4784.00 4739.31 69.17
2475 1.2100 4836.00 4722.51 69.54
2476 1.2104 4719.00 4710.52 68.69
2477 1.2107 4706.00 4702.14 68.60
2478 1.2111 4762.00 4696.42 69.01
2479 1.2114 4760.00 4692.63 68.99
2480 1.2118 4688.00 4690.19 68.47
2481 1.2121 4755.00 4688.61 68.96
2482 1.2125 4733.00 4687.44 68.80
2483 1.2128 4723.00 4686.30 68.72
2484 1.2132 4680.00 4684.85 68.41
2485 1.2135 4707.00 4682.87 68.61
2486 1.2139 4707.00 4680.24 68.61
2487 1.2142 4670.00 4677.19 68.34
2488 1.2145 4822.00 4673.63 69.44
2489 1.2149 4706.00 4669.96 68.60
2490 1.2152 4655.00 4666.43 68.23
2491 1.2156 4519.00 4663.29 67.22
2492 1.2159 4574.00 4660.75 67.63
2493 1.2163 4589.00 4659.00 67.74
2494 1.2166 4628.00 4658.24 68.03
2495 1.2170 4684.00 4658.70 68.44
2496 1.2173 4678.00 4660.49 68.40
2497 1.2177 4708.00 4663.89 68.61
2498 1.2180 4678.00 4669.17 68.40
2499 1.2184 4712.00 4676.62 68.64
2500 1.2187 4663.00 4686.56 68.29
2501 1.2191 4648.00 4699.32 68.18
2502 1.2194 4659.00 4715.19 68.26
2503 1.2198 4692.00 4734.43 68.50
2504 1.2201 4681.00 4757.15 68.42
2505 1.2205 4778.00 4783.30 69.12
2506 1.2208 4735.00 4812.63 68.81
2507 1.2212 4765.00 4844.61 69.03
2508 1.2215 4864.00 4878.41 69.74
2509 1.2219 4893.00 4912.86 69.95
2510 1.2222 4978.00 4946.42 70.55
2511 1.2226 4947.00 4977.19 70.33
2512 1.2229 4982.00 5002.86 70.58
2513 1.2233 4987.00 5021.02 70.62
2514 1.2236 5003.00 5029.51 70.73
2515 1.2240 5130.00 5027.04 71.62
2516 1.2243 5097.00 5013.67 71.39
2517 1.2247 4999.00 4990.78 70.70
2518 1.2250 4920.00 4960.73 70.14
2519 1.2254 4891.00 4926.14 69.94
2520 1.2257 5019.00 4889.47 70.84
2521 1.2261 4804.00 4852.77 69.31
2522 1.2264 4741.00 4817.54 68.85
2523 1.2268 4775.00 4784.86 69.10
2524 1.2271 4838.00 4755.38 69.56
2525 1.2275 4751.00 4729.49 68.93
2526 1.2278 4705.00 4707.22 68.59
2527 1.2282 4696.00 4688.48 68.53
2528 1.2285 4703.00 4673.00 68.58
2529 1.2289 4677.00 4660.40 68.39
2530 1.2292 4624.00 4650.29 68.00
2531 1.2296 4609.00 4642.25 67.89
2532 1.2299 4539.00 4635.90 67.37
2533 1.2303 4586.00 4630.88 67.72
2534 1.2306 4589.00 4626.90 67.74
2535 1.2310 4653.00 4623.71 68.21
2536 1.2313 4643.00 4621.13 68.14
2537 1.2317 4759.00 4619.01 68.99
2538 1.2320 4581.00 4617.24 67.68
2539 1.2324 4652.00 4615.59 68.21
2540 1.2327 4579.00 4614.29 67.67
2541 1.2331 4534.00 4613.15 67.33
2542 1.2334 4564.00 4612.14 67.56
2543 1.2337 4523.00 4611.24 67.25
2544 1.2341 4558.00 4610.42 67.51
2545 1.2344 4541.00 4609.68 67.39
2546 1.2348 4658.00 4609.00 68.25
2547 1.2351 4707.00 4608.38 68.61
2548 1.2355 4665.00 4607.81 68.30
2549 1.2358 4742.00 4607.28 68.86
2550 1.2362 4686.00 4606.81 68.45
2551 1.2365 4598.00 4606.38 67.81
2552 1.2369 4653.00 4605.99 68.21
2553 1.2372 4616.00 4605.64 67.94
2554 1.2376 4576.00 4605.32 67.65
2555 1.2379 4635.00 4605.05 68.08
2556 1.2383 4700.00 4604.80 68.56
2557 1.2386 4575.00 4604.59 67.64
2558 1.2390 4623.00 4604.41 67.99
2559 1.2393 4690.00 4604.26 68.48
2560 1.2397 4673.00 4604.13 68.36
2561 1.2400 4590.00 4604.04 67.75
2562 1.2404 4586.00 4603.97 67.72
2563 1.2407 4615.00 4603.92 67.93
2564 1.2411 4634.00 4603.90 68.07
2565 1.2414 4670.00 4603.91 68.34
2566 1.2418 4725.00 4603.94 68.74
2567 1.2421 4670.00 4604.21 68.34
2568 1.2425 4606.00 4604.30 67.87
2569 1.2428 4580.00 4604.42 67.68
2570 1.2432 4556.00 4604.57 67.50
2571 1.2435 4671.00 4604.74 68.34
2572 1.2439 4603.00 4604.96 67.85
2573 1.2442 4647.00 4605.21 68.17
2574 1.2446 4648.00 4605.50 68.18
2575 1.2449 4588.00 4605.84 67.73
2576 1.2453 4662.00 4606.24 68.28
2577 1.2456 4581.00 4606.71 67.68
2578 1.2460 4679.00 4607.26 68.40
2579 1.2463 4569.00 4607.92 67.59
2580 1.2467 4557.00 4608.71 67.51
2581 1.2470 4557.00 4609.68 67.51
2582 1.2474 4558.00 4610.89 67.51
2583 1.2477 4698.00 4612.42 68.54
2584 1.2481 4630.00 4614.38 68.04
2585 1.2484 4623.00 4616.88 67.99
2586 1.2488 4686.00 4620.08 68.45
2587 1.2491 4660.00 4624.16 68.26
2588 1.2495 4658.00 4629.32 68.25
2589 1.2498 4604.00 4635.73 67.85
2590 1.2502 4692.00 4643.59 68.50
2591 1.2505 4637.00 4653.02 68.10
2592 1.2509 4705.00 4664.08 68.59
2593 1.2512 4637.00 4676.73 68.10
2594 1.2516 4724.00 4690.80 68.73
2595 1.2519 4680.00 4705.97 68.41
2596 1.2522 4709.00 4721.68 68.62
2597 1.2526 4836.00 4737.18 69.54
2598 1.2529 4844.00 4751.47 69.60
2599 1.2533 4780.00 4763.34 69.14
2600 1.2536 4791.00 4771.55 69.22
2601 1.2540 4809.00 4774.94 69.35
2602 1.2543 4802.00 4773.34 69.30
2603 1.2547 4762.00 4766.88 69.01
2604 1.2550 4714.00 4756.42 68.66
2605 1.2554 4778.00 4743.20 69.12
2606 1.2557 4784.00 4728.45 69.17
2607 1.2561 4778.00 4713.27 69.12
2608 1.2564 4733.00 4698.48 68.80
2609 1.2568 4680.00 4684.71 68.41
2610 1.2571 4657.00 4672.35 68.24
2611 1.2575 4738.00 4661.65 68.83
2612 1.2578 4708.00 4652.71 68.61
2613 1.2582 4604.00 4645.52 67.85
2614 1.2585 4636.00 4639.99 68.09
2615 1.2589 4626.00 4635.97 68.01
2616 1.2592 4584.00 4633.31 67.71
2617 1.2596 4629.00 4631.82 68.04
2618 1.2599 4698.00 4631.31 68.54
2619 1.2603 4679.00 4631.62 68.40
2620 1.2606 4668.00 4632.56 68.32
2621 1.2610 4665.00 4633.96 68.30
2622 1.2613 4683.00 4635.67 68.43
2623 1.2617 4669.00 4636.34 68.33
2624 1.2620 4685.00 4638.13 68.45
2625 1.2624 4715.00 4639.70 68.67
2626 1.2627 4693.00 4640.91 68.51
2627 1.2631 4675.00 4641.66 68.37
2628 1.2634 4713.00 4641.91 68.65
2629 1.2638 4625.00 4641.66 68.01
2630 1.2641 4637.00 4640.98 68.10
2631 1.2645 4678.00 4639.99 68.40
2632 1.2648 4636.00 4638.82 68.09
2633 1.2652 4589.00 4637.66 67.74
2634 1.2655 4548.00 4636.70 67.44
2635 1.2659 4656.00 4636.12 68.23
2636 1.2662 4694.00 4636.14 68.51
2637 1.2666 4737.00 4636.99 68.83
2638 1.2669 4542.00 4638.89 67.39
2639 1.2673 4624.00 4642.12 68.00
2640 1.2676 4672.00 4646.96 68.35
2641 1.2680 4641.00 4653.66 68.12
2642 1.2683 4614.00 4662.49 67.93
2643 1.2687 4673.00 4673.63 68.36
2644 1.2690 4719.00 4687.16 68.69
2645 1.2694 4667.00 4703.03 68.32
2646 1.2697 4680.00 4720.97 68.41
2647 1.2701 4718.00 4740.50 68.69
2648 1.2704 4817.00 4760.85 69.40
2649 1.2707 4763.00 4780.98 69.01
2650 1.2711 4807.00 4799.50 69.33
2651 1.2714 4841.00 4814.79 69.58
2652 1.2718 4835.00 4825.34 69.53
2653 1.2721 4762.00 4829.63 69.01
2654 1.2725 5004.00 4827.38 70.74
2655 1.2728 5009.00 4819.15 70.77
2656 1.2732 5006.00 4806.20 70.75
2657 1.2735 4855.00 4790.16 69.68
2658 1.2739 4730.00 4772.52 68.78
2659 1.2742 4722.00 4754.60 68.72
2660 1.2746 4742.00 4737.43 68.86
2661 1.2749 4749.00 4721.77 68.91
2662 1.2753 4717.00 4708.14 68.68
2663 1.2756 4698.00 4696.80 68.54
2664 1.2760 4649.00 4687.81 68.18
2665 1.2763 4655.00 4681.02 68.23
2666 1.2767 4699.00 4676.22 68.55
2667 1.2770 4626.00 4673.01 68.01
2668 1.2774 4736.00 4670.97 68.82
2669 1.2777 4691.00 4669.66 68.49
2670 1.2781 4760.00 4668.64 68.99
2671 1.2784 4602.00 4667.60 67.84
2672 1.2788 4652.00 4666.38 68.21
2673 1.2791 4687.00 4664.98 68.46
2674 1.2795 4774.00 4663.53 69.09
2675 1.2798 4807.00 4662.21 69.33
2676 1.2802 4753.00 4661.19 68.94
2677 1.2805 4643.00 4660.56 68.14
2678 1.2809 4635.00 4660.38 68.08
2679 1.2812 4714.00 4660.58 68.66
2680 1.2816 4679.00 4661.08 68.40
2681 1.2819 4696.00 4661.66 68.53
2682 1.2823 4626.00 4662.11 68.01
2683 1.2826 4665.00 4662.15 68.30
2684 1.2830 4734.00 4661.57 68.80
2685 1.2833 4652.00 4660.23 68.21
2686 1.2837 4662.00 4658.12 68.28
2687 1.2840 4716.00 4655.37 68.67
2688 1.2844 4605.00 4652.16 67.86
2689 1.2847 4674.00 4648.70 68.37
2690 1.2851 4689.00 4645.17 68.48
2691 1.2854 4761.00 4641.75 69.00
2692 1.2858 4547.00 4638.54 67.43
2693 1.2861 4635.00 4635.63 68.08
2694 1.2865 4575.00 4633.07 67.64
2695 1.2868 4575.00 4630.89 67.64
2696 1.2872 4621.00 4629.10 67.98
2697 1.2875 4585.00 4627.68 67.71
2698 1.2879 4703.00 4626.63 68.58
2699 1.2882 4648.00 4625.58 68.18
2700 1.2886 4636.00 4625.14 68.09
2701 1.2889 4714.00 4624.97 68.66
2702 1.2892 4664.00 4625.02 68.29
2703 1.2896 4652.00 4625.28 68.21
2704 1.2899 4645.00 4625.73 68.15
2705 1.2903 4572.00 4626.37 67.62
2706 1.2906 4550.00 4627.19 67.45
2707 1.2910 4623.00 4628.39 67.99
2708 1.2913 4650.00 4629.63 68.19
2709 1.2917 4581.00 4631.18 67.68
2710 1.2920 4718.00 4633.09 68.69
2711 1.2924 4631.00 4635.48 68.05
2712 1.2927 4637.00 4638.47 68.10
2713 1.2931 4581.00 4642.25 67.68
2714 1.2934 4603.00 4647.03 67.85
2715 1.2938 4601.00 4653.06 67.83
2716 1.2941 4696.00 4660.59 68.53
2717 1.2945 4684.00 4669.88 68.44
2718 1.2948 4671.00 4681.13 68.34
2719 1.2952 4697.00 4695.49 68.53
2720 1.2955 4659.00 4711.01 68.26
2721 1.2959 4659.00 4728.54 68.26
2722 1.2962 4729.00 4747.78 68.77
2723 1.2966 4744.00 4768.20 68.88
2724 1.2969 4836.00 4788.99 69.54
2725 1.2973 4774.00 4809.04 69.09
2726 1.2976 4872.00 4826.95 69.80
2727 1.2980 4907.00 4841.11 70.05
2728 1.2983 4887.00 4849.99 69.91
2729 1.2987 4852.00 4852.47 69.66
2730 1.2990 4890.00 4848.23 69.93
2731 1.2994 4879.00 4837.85 69.85
2732 1.2997 4790.00 4822.64 69.21
2733 1.3001 4867.00 4804.24 69.76
2734 1.3004 4915.00 4784.28 70.11
2735 1.3008 4895.00 4764.09 69.96
2736 1.3011 4773.00 4744.72 69.09
2737 1.3015 4630.00 4726.91 68.04
2738 1.3018 4750.00 4711.13 68.92
2739 1.3022 4796.00 4697.63 69.25
2740 1.3025 4762.00 4686.47 69.01
2741 1.3029 4658.00 4677.57 68.25
2742 1.3032 4758.00 4670.73 68.98
2743 1.3036 4665.00 4665.69 68.30
2744 1.3039 4598.00 4662.12 67.81
2745 1.3043 4664.00 4659.70 68.29
2746 1.3046 4711.00 4658.09 68.64
2747 1.3050 4701.00 4656.95 68.56
2748 1.3053 4699.00 4656.01 68.55
2749 1.3057 4685.00 4655.02 68.45
2750 1.3060 4653.00 4653.83 68.21
2751 1.3064 4613.00 4652.37 67.92
2752 1.3067 4724.00 4650.66 68.73
2753 1.3071 4810.00 4648.76 69.35
2754 1.3074 4597.00 4646.97 67.80
2755 1.3078 4556.00 4644.96 67.50
2756 1.3081 4606.00 4643.00 67.87
2757 1.3084 4697.00 4641.16 68.53
2758 1.3088 4618.00 4639.48 67.96
2759 1.3091 4614.00 4637.95 67.93
2760 1.3095 4635.00 4636.64 68.08
2761 1.3098 4667.00 4635.51 68.32
2762 1.3102 4675.00 4634.58 68.37
2763 1.3105 4609.00 4633.82 67.89
2764 1.3109 4595.00 4633.22 67.79
2765 1.3112 4597.00 4632.76 67.80
2766 1.3116 4620.00 4632.42 67.97
2767 1.3119 4580.00 4632.17 67.68
2768 1.3123 4604.00 4632.01 67.85
2769 1.3126 4565.00 4631.91 67.56
2770 1.3130 4608.00 4631.87 67.88
2771 1.3133 4511.00 4631.87 67.16
2772 1.3137 4552.00 4631.90 67.47
2773 1.3140 4543.00 4631.97 67.40
2774 1.3144 4561.00 4632.05 67.54
2775 1.3147 4580.00 4632.16 67.68
2776 1.3151 4568.00 4632.29 67.59
2777 1.3154 4624.00 4632.53 68.00
2778 1.3158 4635.00 4632.69 68.08
2779 1.3161 4657.00 4632.86 68.24
2780 1.3165 4567.00 4633.04 67.58
2781 1.3168 4589.00 4633.23 67.74
2782 1.3172 4620.00 4633.43 67.97
2783 1.3175 4644.00 4633.53 68.15
2784 1.3179 4545.00 4633.75 67.42
2785 1.3182 4527.00 4633.98 67.28
2786 1.3186 4697.00 4634.22 68.53
2787 1.3189 4685.00 4634.47 68.45
2788 1.3193 4618.00 4634.73 67.96
2789 1.3196 4581.00 4635.00 67.68
2790 1.3200 4528.00 4635.27 67.29
2791 1.3203 4587.00 4635.55 67.73
2792 1.3207 4678.00 4635.85 68.40
2793 1.3210 4670.00 4636.15 68.34
2794 1.3214 4658.00 4636.46 68.25
2795 1.3217 4498.00 4636.78 67.07
2796 1.3221 4612.00 4637.11 67.91
2797 1.3224 4661.00 4637.44 68.27
2798 1.3228 4602.00 4637.79 67.84
2799 1.3231 4657.00 4638.15 68.24
2800 1.3235 4633.00 4638.52 68.07
2801 1.3238 4668.00 4638.91 68.32
2802 1.3242 4674.00 4639.30 68.37
2803 1.3245 4585.00 4639.71 67.71
2804 1.3249 4719.00 4640.14 68.69
2805 1.3252 4647.00 4640.57 68.17
2806 1.3256 4636.00 4641.03 68.09
2807 1.3259 4606.00 4641.50 67.87
2808 1.3263 4619.00 4642.00 67.96
2809 1.3266 4566.00 4642.51 67.57
2810 1.3269 4626.00 4643.05 68.01
2811 1.3273 4581.00 4643.61 67.68
2812 1.3276 4627.00 4644.20 68.02
2813 1.3280 4549.00 4644.82 67.45
2814 1.3283 4581.00 4645.48 67.68
2815 1.3287 4643.00 4646.19 68.14
2816 1.3290 4480.00 4646.96 66.93
2817 1.3294 4533.00 4647.78 67.33
2818 1.3297 4544.00 4648.69 67.41
2819 1.3301 4569.00 4649.56 67.59
2820 1.3304 4553.00 4650.71 67.48
2821 1.3308 4708.00 4652.03 68.61
2822 1.3311 4588.00 4653.59 67.73
2823 1.3315 4578.00 4655.44 67.66
2824 1.3318 4604.00 4657.70 67.85
2825 1.3322 4628.00 4660.45 68.03
2826 1.3325 4746.00 4663.84 68.89
2827 1.3329 4634.00 4668.03 68.07
2828 1.3332 4616.00 4673.16 67.94
2829 1.3336 4747.00 4679.40 68.90
2830 1.3339 4744.00 4686.89 68.88
2831 1.3343 4738.00 4695.88 68.83
2832 1.3346 4719.00 4706.23 68.69
2833 1.3350 4676.00 4718.06 68.38
2834 1.3353 4619.00 4731.27 67.96
2835 1.3357 4666.00 4745.66 68.31
2836 1.3360 4741.00 4760.90 68.85
2837 1.3364 4684.00 4776.51 68.44
2838 1.3367 4749.00 4791.82 68.91
2839 1.3371 4751.00 4805.97 68.93
2840 1.3374 4792.00 4817.97 69.22
2841 1.3378 4905.00 4826.77 70.04
2842 1.3381 4820.00 4831.49 69.43
2843 1.3385 4783.00 4831.63 69.16
2844 1.3388 4780.00 4827.24 69.14
2845 1.3392 4840.00 4818.91 69.57
2846 1.3395 4787.00 4807.59 69.19
2847 1.3399 4788.00 4794.29 69.20
2848 1.3402 4728.00 4780.07 68.76
2849 1.3406 4620.00 4765.70 67.97
2850 1.3409 4675.00 4751.82 68.37
2851 1.3413 4762.00 4738.89 69.01
2852 1.3416 4783.00 4727.22 69.16
2853 1.3420 4651.00 4716.95 68.20
2854 1.3423 4743.00 4708.17 68.87
2855 1.3427 4640.00 4700.83 68.12
2856 1.3430 4672.00 4694.83 68.35
2857 1.3434 4591.00 4690.06 67.76
2858 1.3437 4668.00 4686.36 68.32
2859 1.3441 4705.00 4683.55 68.59
2860 1.3444 4704.00 4681.50 68.59
2861 1.3448 4661.00 4680.06 68.27
2862 1.3451 4626.00 4679.13 68.01
2863 1.3454 4679.00 4678.61 68.40
2864 1.3458 4695.00 4678.44 68.52
2865 1.3461 4564.00 4678.55 67.56
2866 1.3465 4613.00 4678.92 67.92
2867 1.3468 4675.00 4679.52 68.37
2868 1.3472 4625.00 4680.33 68.01
2869 1.3475 4641.00 4681.36 68.12
2870 1.3479 4670.00 4682.62 68.34
2871 1.3482 4568.00 4684.13 67.59
2872 1.3486 4619.00 4685.91 67.96
2873 1.3489 4604.00 4688.02 67.85
2874 1.3493 4648.00 4690.48 68.18
2875 1.3496 4744.00 4693.44 68.88
2876 1.3500 4616.00 4696.96 67.94
2877 1.3503 4678.00 4701.17 68.40
2878 1.3507 4603.00 4706.21 67.85
2879 1.3510 4628.00 4712.26 68.03
2880 1.3514 4670.00 4719.69 68.34
2881 1.3517 4634.00 4728.44 68.07
2882 1.3521 4679.00 4738.94 68.40
2883 1.3524 4730.00 4751.54 68.78
2884 1.3528 4702.00 4766.60 68.57
2885 1.3531 4785.00 4784.52 69.17
2886 1.3535 4728.00 4805.72 68.76
2887 1.3538 4745.00 4830.58 68.88
2888 1.3542 4877.00 4859.45 69.84
2889 1.3545 4903.00 4892.53 70.02
2890 1.3549 4923.00 4929.98 70.16
2891 1.3552 4962.00 4971.79 70.44
2892 1.3556 4999.00 5017.87 70.70
2893 1.3559 5070.00 5067.84 71.20
2894 1.3563 5028.00 5121.09 70.91
2895 1.3566 5187.00 5176.44 72.02
2896 1.3570 5116.00 5231.95 71.53
2897 1.3573 5220.00 5284.97 72.25
2898 1.3577 5291.00 5332.07 72.74
2899 1.3580 5325.00 5369.35 72.97
2900 1.3584 5362.00 5392.93 73.23
2901 1.3587 5460.00 5399.89 73.89
2902 1.3591 5460.00 5389.00 73.89
2903 1.3594 5441.00 5361.24 73.76
2904 1.3598 5305.00 5319.50 72.84
2905 1.3601 5306.00 5267.84 72.84
2906 1.3605 5149.00 5210.43 71.76
2907 1.3608 5174.00 5150.95 71.93
2908 1.3612 5032.00 5092.76 70.94
2909 1.3615 5023.00 5037.99 70.87
2910 1.3619 4922.00 4988.24 70.16
2911 1.3622 4935.00 4944.52 70.25
2912 1.3626 4956.00 4907.41 70.40
2913 1.3629 4869.00 4877.00 69.78
2914 1.3633 4874.00 4853.17 69.81
2915 1.3636 4875.00 4835.58 69.82
2916 1.3639 4840.00 4823.79 69.57
2917 1.3643 4808.00 4817.34 69.34
2918 1.3646 4853.00 4815.78 69.66
2919 1.3650 4792.00 4818.78 69.22
2920 1.3653 4727.00 4826.06 68.75
2921 1.3657 4772.00 4837.47 69.08
2922 1.3660 4756.00 4852.90 68.96
2923 1.3664 4888.00 4872.33 69.91
2924 1.3667 4804.00 4895.77 69.31
2925 1.3671 4956.00 4923.18 70.40
2926 1.3674 4904.00 4954.51 70.03
2927 1.3678 4933.00 4989.61 70.24
2928 1.3681 5070.00 5028.26 71.20
2929 1.3685 5099.00 5070.08 71.41
2930 1.3688 5072.00 5114.53 71.22
2931 1.3692 5070.00 5160.88 71.20
2932 1.3695 5144.00 5208.22 71.72
2933 1.3699 5206.00 5255.38 72.15
2934 1.3702 5220.00 5300.94 72.25
2935 1.3706 5223.00 5343.28 72.27
2936 1.3709 5473.00 5380.74 73.98
2937 1.3713 5510.00 5411.62 74.23
2938 1.3716 5488.00 5434.64 74.08
2939 1.3720 5343.00 5449.04 73.10
2940 1.3723 5334.00 5454.75 73.03
2941 1.3727 5422.00 5452.50 73.63
2942 1.3730 5497.00 5443.60 74.14
2943 1.3734 5398.00 5429.58 73.47
2944 1.3737 5348.00 5411.94 73.13
2945 1.3741 5403.00 5391.92 73.51
2946 1.3744 5409.00 5370.32 73.55
2947 1.3748 5496.00 5347.37 74.14
2948 1.3751 5295.00 5322.84 72.77
2949 1.3755 5365.00 5296.08 73.25
2950 1.3758 5261.00 5266.34 72.53
2951 1.3762 5247.00 5233.00 72.44
2952 1.3765 5154.00 5196.02 71.79
2953 1.3769 5189.00 5155.95 72.03
2954 1.3772 5190.00 5113.90 72.04
2955 1.3776 5060.00 5071.26 71.13
2956 1.3779 5041.00 5029.32 71.00
2957 1.3783 5049.00 4989.41 71.06
2958 1.3786 4974.00 4952.08 70.53
2959 1.3790 4836.00 4918.06 69.54
2960 1.3793 4871.00 4887.70 69.79
2961 1.3797 4824.00 4861.18 69.46
2962 1.3800 4817.00 4838.53 69.40
2963 1.3804 4804.00 4819.65 69.31
2964 1.3807 4800.00 4804.40 69.28
2965 1.3811 4772.00 4792.56 69.08
2966 1.3814 4866.00 4783.89 69.76
2967 1.3818 4770.00 4778.14 69.07
2968 1.3821 4790.00 4775.07 69.21
2969 1.3825 4831.00 4774.44 69.51
2970 1.3828 4762.00 4776.03 69.01
2971 1.3831 4731.00 4779.63 68.78
2972 1.3835 4740.00 4784.97 68.85
2973 1.3838 4797.00 4791.79 69.26
2974 1.3842 4789.00 4799.81 69.20
2975 1.3845 4731.00 4808.67 68.78
2976 1.3849 4740.00 4817.94 68.85
2977 1.3852 4733.00 4827.10 68.80
2978 1.3856 4781.00 4835.53 69.14
2979 1.3859 4798.00 4842.57 69.27
2980 1.3863 4821.00 4847.51 69.43
2981 1.3866 4836.00 4849.78 69.54
2982 1.3870 4856.00 4849.05 69.68
2983 1.3873 4726.00 4845.31 68.75
2984 1.3877 4811.00 4838.90 69.36
2985 1.3880 4791.00 4830.39 69.22
2986 1.3884 4786.00 4820.45 69.18
2987 1.3887 4768.00 4809.77 69.05
2988 1.3891 4736.00 4798.95 68.82
2989 1.3894 4802.00 4788.51 69.30
2990 1.3898 4747.00 4778.85 68.90
2991 1.3901 4738.00 4770.30 68.83
2992 1.3905 4754.00 4763.08 68.95
2993 1.3908 4846.00 4757.37 69.61
2994 1.3912 4822.00 4753.40 69.44
2995 1.3915 4771.00 4750.98 69.07
2996 1.3919 4744.00 4750.21 68.88
2997 1.3922 4811.00 4751.03 69.36
2998 1.3926 4808.00 4753.34 69.34
2999 1.3929 4722.00 4756.96 68.72
3000 1.3933 4792.00 4761.69 69.22
3001 1.3936 4782.00 4767.26 69.15
3002 1.3940 4756.00 4773.33 68.96
3003 1.3943 4802.00 4779.50 69.30
3004 1.3947 4789.00 4785.31 69.20
3005 1.3950 4781.00 4790.25 69.14
3006 1.3954 4826.00 4793.80 69.47
3007 1.3957 4837.00 4795.51 69.55
3008 1.3961 4827.00 4795.12 69.48
3009 1.3964 4744.00 4792.59 68.88
3010 1.3968 4794.00 4788.13 69.24
3011 1.3971 4867.00 4782.14 69.76
3012 1.3975 4762.00 4775.08 69.01
3013 1.3978 4846.00 4767.43 69.61
3014 1.3982 4806.00 4759.59 69.33
3015 1.3985 4803.00 4751.87 69.30
3016 1.3989 4786.00 4744.54 69.18
3017 1.3992 4717.00 4737.75 68.68
3018 1.3996 4770.00 4731.63 69.07
3019 1.3999 4638.00 4726.23 68.10
3020 1.4003 4739.00 4721.56 68.84
3021 1.4006 4722.00 4717.60 68.72
3022 1.4010 4658.00 4714.31 68.25
3023 1.4013 4784.00 4711.63 69.17
3024 1.4016 4685.00 4709.48 68.45
3025 1.4020 4753.00 4707.79 68.94
3026 1.4023 4745.00 4706.48 68.88
3027 1.4027 4729.00 4705.48 68.77
3028 1.4030 4634.00 4704.75 68.07
3029 1.4034 4727.00 4704.23 68.75
3030 1.4037 4781.00 4703.90 69.14
3031 1.4041 4737.00 4703.72 68.83
3032 1.4044 4732.00 4703.68 68.79
3033 1.4048 4765.00 4703.81 69.03
3034 1.4051 4677.00 4703.91 68.39
3035 1.4055 4669.00 4704.29 68.33
3036 1.4058 4722.00 4704.84 68.72
3037 1.4062 4840.00 4705.56 69.57
3038 1.4065 4689.00 4706.49 68.48
3039 1.4069 4721.00 4707.63 68.71
3040 1.4072 4813.00 4709.00 69.38
3041 1.4076 4780.00 4710.58 69.14
3042 1.4079 4749.00 4712.38 68.91
3043 1.4083 4665.00 4714.34 68.30
3044 1.4086 4798.00 4716.44 69.27
3045 1.4090 4704.00 4718.59 68.59
3046 1.4093 4795.00 4720.72 69.25
3047 1.4097 4789.00 4722.74 69.20
3048 1.4100 4787.00 4724.56 69.19
3049 1.4104 4691.00 4726.16 68.49
3050 1.4107 4646.00 4727.59 68.16
3051 1.4111 4777.00 4728.99 69.12
3052 1.4114 4762.00 4730.57 69.01
3053 1.4118 4658.00 4732.60 68.25
3054 1.4121 4636.00 4735.35 68.09
3055 1.4125 4712.00 4739.08 68.64
3056 1.4128 4776.00 4744.01 69.11
3057 1.4132 4803.00 4750.34 69.30
3058 1.4135 4777.00 4758.20 69.12
3059 1.4139 4739.00 4767.67 68.84
3060 1.4142 4797.00 4778.71 69.26
3061 1.4146 4903.00 4791.24 70.02
3062 1.4149 4788.00 4805.00 69.20
3063 1.4153 4865.00 4819.66 69.75
3064 1.4156 4846.00 4834.69 69.61
3065 1.4160 4897.00 4849.46 69.98
3066 1.4163 4889.00 4863.13 69.92
3067 1.4167 4980.00 4874.74 70.57
3068 1.4170 4989.00 4883.30 70.63
3069 1.4174 4924.00 4887.96 70.17
3070 1.4177 4843.00 4888.20 69.59
3071 1.4181 4973.00 4883.99 70.52
3072 1.4184 4995.00 4875.81 70.68
3073 1.4188 4894.00 4864.48 69.96
3074 1.4191 4900.00 4850.98 70.00
3075 1.4195 4880.00 4836.27 69.86
3076 1.4198 4765.00 4821.09 69.03
3077 1.4201 4868.00 4806.21 69.77
3078 1.4205 4767.00 4792.07 69.04
3079 1.4208 4767.00 4779.00 69.04
3080 1.4212 4798.00 4767.24 69.27
3081 1.4215 4792.00 4756.88 69.22
3082 1.4219 4819.00 4747.96 69.42
3083 1.4222 4700.00 4740.42 68.56
3084 1.4226 4741.00 4734.17 68.85
3085 1.4229 4719.00 4728.71 68.69
3086 1.4233 4716.00 4724.61 68.67
3087 1.4236 4710.00 4721.37 68.63
3088 1.4240 4741.00 4718.82 68.85
3089 1.4243 4755.00 4716.84 68.96
3090 1.4247 4797.00 4715.31 69.26
3091 1.4250 4873.00 4714.12 69.81
3092 1.4254 4776.00 4713.19 69.11
3093 1.4257 4751.00 4712.35 68.93
3094 1.4261 4676.00 4711.79 68.38
3095 1.4264 4722.00 4711.36 68.72
3096 1.4268 4706.00 4711.02 68.60
3097 1.4271 4782.00 4710.76 69.15
3098 1.4275 4659.00 4710.55 68.26
3099 1.4278 4700.00 4710.40 68.56
3100 1.4282 4797.00 4710.40 69.26
3101 1.4285 4717.00 4710.33 68.68
3102 1.4289 4680.00 4710.29 68.41
3103 1.4292 4723.00 4710.29 68.72
3104 1.4296 4744.00 4710.31 68.88
3105 1.4299 4764.00 4710.36 69.02
3106 1.4303 4739.00 4710.44 68.84
3107 1.4306 4806.00 4710.54 69.33
3108 1.4310 4720.00 4710.67 68.70
3109 1.4313 4679.00 4710.82 68.40
3110 1.4317 4720.00 4711.00 68.70
3111 1.4320 4738.00 4711.20 68.83
3112 1.4324 4791.00 4711.44 69.22
3113 1.4327 4761.00 4711.71 69.00
3114 1.4331 4771.00 4712.01 69.07
3115 1.4334 4752.00 4712.36 68.93
3116 1.4338 4649.00 4712.75 68.18
3117 1.4341 4731.00 4713.21 68.78
3118 1.4345 4686.00 4713.74 68.45
3119 1.4348 4690.00 4714.35 68.48
3120 1.4352 4726.00 4715.07 68.75
3121 1.4355 4671.00 4715.92 68.34
3122 1.4359 4680.00 4716.92 68.41
3123 1.4362 4689.00 4718.10 68.48
3124 1.4366 4668.00 4719.49 68.32
3125 1.4369 4680.00 4721.12 68.41
3126 1.4373 4721.00 4723.02 68.71
3127 1.4376 4794.00 4725.21 69.24
3128 1.4380 4701.00 4727.72 68.56
3129 1.4383 4762.00 4730.56 69.01
3130 1.4387 4708.00 4733.72 68.61
3131 1.4390 4724.00 4737.18 68.73
3132 1.4393 4755.00 4740.90 68.96
3133 1.4397 4644.00 4744.83 68.15
3134 1.4400 4671.00 4748.90 68.34
3135 1.4404 4694.00 4752.99 68.51
3136 1.4407 4673.00 4756.98 68.36
3137 1.4411 4670.00 4760.69 68.34
3138 1.4414 4817.00 4763.95 69.40
3139 1.4418 4737.00 4766.55 68.83
3140 1.4421 4746.00 4768.33 68.89
3141 1.4425 4684.00 4769.21 68.44
3142 1.4428 4741.00 4769.20 68.85
3143 1.4432 4855.00 4768.45 69.68
3144 1.4435 4755.00 4767.17 68.96
3145 1.4439 4754.00 4765.79 68.95
3146 1.4442 4674.00 4764.27 68.37
3147 1.4446 4783.00 4763.05 69.16
3148 1.4449 4795.00 4762.37 69.25
3149 1.4453 4818.00 4762.26 69.41
3150 1.4456 4782.00 4763.36 69.15
3151 1.4460 4721.00 4765.64 68.71
3152 1.4463 4688.00 4769.28 68.47
3153 1.4467 4823.00 4774.41 69.45
3154 1.4470 4774.00 4781.12 69.09
3155 1.4474 4773.00 4789.46 69.09
3156 1.4477 4780.00 4799.43 69.14
3157 1.4481 4866.00 4810.94 69.76
3158 1.4484 4815.00 4823.85 69.39
3159 1.4488 4750.00 4837.89 68.92
3160 1.4491 4901.00 4852.76 70.01
3161 1.4495 4872.00 4867.98 69.80
3162 1.4498 4848.00 4883.00 69.63
3163 1.4502 4969.00 4897.15 70.49
3164 1.4505 4924.00 4909.66 70.17
3165 1.4509 4919.00 4919.83 70.14
3166 1.4512 4821.00 4927.09 69.43
3167 1.4516 5011.00 4931.21 70.79
3168 1.4519 5054.00 4932.34 71.09
3169 1.4523 4957.00 4931.04 70.41
3170 1.4526 4964.00 4928.12 70.46
3171 1.4530 5066.00 4924.47 71.18
3172 1.4533 5042.00 4920.93 71.01
3173 1.4537 4965.00 4918.15 70.46
3174 1.4540 4966.00 4916.60 70.47
3175 1.4544 4883.00 4916.51 69.88
3176 1.4547 4891.00 4917.93 69.94
3177 1.4551 4960.00 4920.70 70.43
3178 1.4554 5023.00 4924.49 70.87
3179 1.4558 5031.00 4928.81 70.93
3180 1.4561 4902.00 4932.94 70.01
3181 1.4565 4892.00 4936.00 69.94
3182 1.4568 4952.00 4936.99 70.37
3183 1.4572 4983.00 4934.49 70.59
3184 1.4575 5002.00 4928.92 70.72
3185 1.4578 5012.00 4919.65 70.80
3186 1.4582 4928.00 4907.10 70.20
3187 1.4585 4925.00 4891.95 70.18
3188 1.4589 5009.00 4875.34 70.77
3189 1.4592 4984.00 4858.09 70.60
3190 1.4596 4844.00 4840.94 69.60
3191 1.4599 4832.00 4824.50 69.51
3192 1.4603 4778.00 4809.20 69.12
3193 1.4606 4875.00 4795.34 69.82
3194 1.4610 4767.00 4783.05 69.04
3195 1.4613 4798.00 4772.40 69.27
3196 1.4617 4762.00 4763.36 69.01
3197 1.4620 4770.00 4755.82 69.07
3198 1.4624 4836.00 4749.64 69.54
3199 1.4627 4748.00 4744.63 68.91
3200 1.4631 4778.00 4740.64 69.12
3201 1.4634 4877.00 4737.47 69.84
3202 1.4638 4763.00 4734.98 69.01
3203 1.4641 4770.00 4733.02 69.07
3204 1.4645 4734.00 4731.47 68.80
3205 1.4648 4752.00 4730.24 68.93
3206 1.4652 4722.00 4729.26 68.72
3207 1.4655 4687.00 4728.47 68.46
3208 1.4659 4671.00 4727.76 68.34
3209 1.4662 4654.00 4727.24 68.22
3210 1.4666 4755.00 4726.82 68.96
3211 1.4669 4755.00 4726.48 68.96
3212 1.4673 4793.00 4726.22 69.23
3213 1.4676 4766.00 4726.03 69.04
3214 1.4680 4803.00 4725.92 69.30
3215 1.4683 4777.00 4725.90 69.12
3216 1.4687 4687.00 4725.96 68.46
3217 1.4690 4787.00 4726.14 69.19
3218 1.4694 4689.00 4726.44 68.48
3219 1.4697 4697.00 4726.88 68.53
3220 1.4701 4763.00 4727.50 69.01
3221 1.4704 4700.00 4728.66 68.56
3222 1.4708 4737.00 4729.74 68.83
3223 1.4711 4780.00 4731.09 69.14
3224 1.4715 4793.00 4732.76 69.23
3225 1.4718 4798.00 4734.74 69.27
3226 1.4722 4795.00 4737.07 69.25
3227 1.4725 4749.00 4739.74 68.91
3228 1.4729 4778.00 4742.74 69.12
3229 1.4732 4820.00 4746.02 69.43
3230 1.4736 4710.00 4749.52 68.63
3231 1.4739 4672.00 4753.15 68.35
3232 1.4743 4697.00 4756.78 68.53
3233 1.4746 4823.00 4760.25 69.45
3234 1.4750 4822.00 4763.36 69.44
3235 1.4753 4732.00 4765.90 68.79
3236 1.4757 4699.00 4767.66 68.55
3237 1.4760 4715.00 4768.47 68.67
3238 1.4763 4832.00 4768.25 69.51
3239 1.4767 4704.00 4767.09 68.59
3240 1.4770 4773.00 4764.99 69.09
3241 1.4774 4770.00 4762.21 69.07
3242 1.4777 4707.00 4758.98 68.61
3243 1.4781 4711.00 4755.49 68.64
3244 1.4784 4722.00 4751.93 68.72
3245 1.4788 4751.00 4748.44 68.93
3246 1.4791 4704.00 4745.13 68.59
3247 1.4795 4776.00 4742.08 69.11
3248 1.4798 4823.00 4739.33 69.45
3249 1.4802 4711.00 4736.92 68.64
3250 1.4805 4735.00 4734.85 68.81
3251 1.4809 4730.00 4733.12 68.78
3252 1.4812 4676.00 4731.71 68.38
3253 1.4816 4753.00 4730.59 68.94
3254 1.4819 4718.00 4729.74 68.69
3255 1.4823 4744.00 4729.10 68.88
3256 1.4826 4795.00 4728.67 69.25
3257 1.4830 4759.00 4728.41 68.99
3258 1.4833 4736.00 4728.29 68.82
3259 1.4837 4683.00 4728.30 68.43
3260 1.4840 4757.00 4728.44 68.97
3261 1.4844 4772.00 4728.69 69.08
3262 1.4847 4723.00 4729.08 68.72
3263 1.4851 4795.00 4729.61 69.25
3264 1.4854 4757.00 4730.44 68.97
3265 1.4858 4695.00 4731.39 68.52
3266 1.4861 4679.00 4732.65 68.40
3267 1.4865 4758.00 4734.16 68.98
3268 1.4868 4788.00 4736.31 69.20
3269 1.4872 4698.00 4739.09 68.54
3270 1.4875 4731.00 4742.66 68.78
3271 1.4879 4775.00 4747.17 69.10
3272 1.4882 4769.00 4752.79 69.06
3273 1.4886 4688.00 4759.64 68.47
3274 1.4889 4806.00 4767.85 69.33
3275 1.4893 4870.00 4777.43 69.79
3276 1.4896 4783.00 4788.36 69.16
3277 1.4900 4712.00 4800.50 68.64
3278 1.4903 4720.00 4813.59 68.70
3279 1.4907 4793.00 4827.23 69.23
3280 1.4910 4840.00 4840.84 69.57
3281 1.4914 4865.00 4853.72 69.75
3282 1.4917 4954.00 4864.99 70.38
3283 1.4921 4928.00 4873.68 70.20
3284 1.4924 4889.00 4878.91 69.92
3285 1.4928 4857.00 4880.07 69.69
3286 1.4931 4829.00 4877.01 69.49
3287 1.4935 4925.00 4870.13 70.18
3288 1.4938 4908.00 4860.18 70.06
3289 1.4942 4891.00 4848.12 69.94
3290 1.4945 4871.00 4834.87 69.79
3291 1.4948 4819.00 4821.26 69.42
3292 1.4952 4853.00 4807.92 69.66
3293 1.4955 4872.00 4795.33 69.80
3294 1.4959 4883.00 4783.83 69.88
3295 1.4962 4792.00 4773.61 69.22
3296 1.4966 4708.00 4764.78 68.61
3297 1.4969 4773.00 4757.32 69.09
3298 1.4973 4721.00 4751.16 68.71
3299 1.4976 4764.00 4746.17 69.02
3300 1.4980 4745.00 4742.22 68.88
3301 1.4983 4656.00 4739.13 68.23
3302 1.4987 4749.00 4736.75 68.91
3303 1.4990 4725.00 4734.94 68.74
3304 1.4994 4731.00 4733.57 68.78
3305 1.4997 4787.00 4732.54 69.19
3306 1.5001 4716.00 4731.77 68.67
3307 1.5004 4731.00 4731.19 68.78
3308 1.5008 4698.00 4730.76 68.54
3309 1.5011 4702.00 4730.45 68.57
3310 1.5015 4730.00 4730.22 68.78
3311 1.5018 4776.00 4730.06 69.11
3312 1.5022 4713.00 4729.97 68.65
3313 1.5025 4664.00 4729.94 68.29
3314 1.5029 4738.00 4729.95 68.83
3315 1.5032 4743.00 4730.01 68.87
3316 1.5036 4856.00 4730.12 69.68
3317 1.5039 4750.00 4730.27 68.92
3318 1.5043 4685.00 4730.47 68.45
3319 1.5046 4727.00 4730.73 68.75
3320 1.5050 4718.00 4731.05 68.69
3321 1.5053 4682.00 4731.43 68.43
3322 1.5057 4653.00 4731.89 68.21
3323 1.5060 4768.00 4732.45 69.05
3324 1.5064 4745.00 4733.12 68.88
3325 1.5067 4721.00 4733.95 68.71
3326 1.5071 4735.00 4734.97 68.81
3327 1.5074 4748.00 4736.24 68.91
3328 1.5078 4640.00 4737.83 68.12
3329 1.5081 4655.00 4739.84 68.23
3330 1.5085 4715.00 4742.37 68.67
3331 1.5088 4727.00 4745.55 68.75
3332 1.5092 4764.00 4749.54 69.02
3333 1.5095 4783.00 4754.49 69.16
3334 1.5099 4777.00 4760.58 69.12
3335 1.5102 4804.00 4767.95 69.31
3336 1.5106 4800.00 4776.75 69.28
3337 1.5109 4848.00 4787.08 69.63
3338 1.5113 4787.00 4799.01 69.19
3339 1.5116 4826.00 4812.49 69.47
3340 1.5120 4888.00 4827.41 69.91
3341 1.5123 4779.00 4843.55 69.13
3342 1.5127 4763.00 4860.57 69.01
3343 1.5130 4839.00 4877.93 69.56
3344 1.5134 4884.00 4895.05 69.89
3345 1.5137 4970.00 4911.06 70.50
3346 1.5140 4910.00 4925.01 70.07
3347 1.5144 5014.00 4935.86 70.81
3348 1.5147 5050.00 4942.67 71.06
3349 1.5151 5020.00 4944.75 70.85
3350 1.5154 5025.00 4941.90 70.89
3351 1.5158 4897.00 4934.40 69.98
3352 1.5161 4926.00 4923.01 70.19
3353 1.5165 4888.00 4908.68 69.91
3354 1.5168 4934.00 4892.46 70.24
3355 1.5172 4891.00 4875.29 69.94
3356 1.5175 4954.00 4857.96 70.38
3357 1.5179 4803.00 4841.10 69.30
3358 1.5182 4838.00 4825.17 69.56
3359 1.5186 4854.00 4810.51 69.67
3360 1.5189 4900.00 4797.33 70.00
3361 1.5193 4721.00 4785.71 68.71
3362 1.5196 4882.00 4775.68 69.87
3363 1.5200 4805.00 4767.17 69.32
3364 1.5203 4820.00 4760.07 69.43
3365 1.5207 4826.00 4754.23 69.47
3366 1.5210 4721.00 4749.50 68.71
3367 1.5214 4641.00 4745.70 68.12
3368 1.5217 4747.00 4742.69 68.90
3369 1.5221 4789.00 4740.30 69.20
3370 1.5224 4741.00 4738.43 68.85
3371 1.5228 4768.00 4736.95 69.05
3372 1.5231 4707.00 4735.78 68.61
3373 1.5235 4777.00 4734.86 69.12
3374 1.5238 4735.00 4734.01 68.81
3375 1.5242 4680.00 4733.42 68.41
3376 1.5245 4725.00 4732.83 68.74
3377 1.5249 4685.00 4732.47 68.45
3378 1.5252 4703.00 4732.25 68.58
3379 1.5256 4676.00 4732.05 68.38
3380 1.5259 4713.00 4731.93 68.65
3381 1.5263 4675.00 4731.87 68.37
3382 1.5266 4815.00 4731.90 69.39
3383 1.5270 4746.00 4731.98 68.89
3384 1.5273 4677.00 4732.15 68.39
3385 1.5277 4789.00 4732.42 69.20
3386 1.5280 4748.00 4732.78 68.91
3387 1.5284 4744.00 4733.23 68.88
3388 1.5287 4741.00 4733.78 68.85
3389 1.5291 4760.00 4734.43 68.99
3390 1.5294 4645.00 4735.17 68.15
3391 1.5298 4681.00 4735.99 68.42
3392 1.5301 4681.00 4736.88 68.42
3393 1.5305 4635.00 4737.83 68.08
3394 1.5308 4642.00 4738.81 68.13
3395 1.5312 4712.00 4739.80 68.64
3396 1.5315 4936.00 4740.75 70.26
3397 1.5319 4826.00 4741.66 69.47
3398 1.5322 4793.00 4742.51 69.23
3399 1.5325 4846.00 4743.30 69.61
3400 1.5329 4826.00 4744.09 69.47
3401 1.5332 4749.00 4744.93 68.91
3402 1.5336 4705.00 4745.92 68.59
3403 1.5339 4761.00 4747.17 69.00
3404 1.5343 4779.00 4748.80 69.13
3405 1.5346 4715.00 4750.95 68.67
3406 1.5350 4759.00 4753.79 68.99
3407 1.5353 4803.00 4757.51 69.30
3408 1.5357 4823.00 4762.32 69.45
3409 1.5360 4728.00 4768.43 68.76
3410 1.5364 4789.00 4776.12 69.20
3411 1.5367 4746.00 4785.55 68.89
3412 1.5371 4791.00 4796.98 69.22
3413 1.5374 4793.00 4810.57 69.23
3414 1.5378 4858.00 4826.44 69.70
3415 1.5381 4864.00 4844.64 69.74
3416 1.5385 4834.00 4865.06 69.53
3417 1.5388 4934.00 4887.50 70.24
3418 1.5392 4818.00 4911.58 69.41
3419 1.5395 4966.00 4936.74 70.47
3420 1.5399 5054.00 4962.22 71.09
3421 1.5402 5074.00 4986.99 71.23
3422 1.5406 4994.00 5009.87 70.67
3423 1.5409 5078.00 5029.44 71.26
3424 1.5413 5046.00 5044.32 71.04
3425 1.5416 5048.00 5053.17 71.05
3426 1.5420 5034.00 5055.29 70.95
3427 1.5423 5015.00 5050.62 70.82
3428 1.5427 4968.00 5039.84 70.48
3429 1.5430 4953.00 5024.17 70.38
3430 1.5434 4971.00 5005.13 70.51
3431 1.5437 4991.00 4984.24 70.65
3432 1.5441 4918.00 4962.89 70.13
3433 1.5444 4883.00 4942.21 69.88
3434 1.5448 4848.00 4923.16 69.63
3435 1.5451 4949.00 4906.43 70.35
3436 1.5455 4886.00 4892.51 69.90
3437 1.5458 4889.00 4881.71 69.92
3438 1.5462 4860.00 4874.18 69.71
3439 1.5465 4940.00 4869.91 70.29
3440 1.5469 4879.00 4868.74 69.85
3441 1.5472 4829.00 4870.43 69.49
3442 1.5476 4952.00 4874.58 70.37
3443 1.5479 4867.00 4880.80 69.76
3444 1.5483 4897.00 4888.53 69.98
3445 1.5486 4815.00 4897.17 69.39
3446 1.5490 4821.00 4906.08 69.43
3447 1.5493 4836.00 4914.60 69.54
3448 1.5497 4917.00 4922.08 70.12
3449 1.5500 4834.00 4927.96 69.53
3450 1.5504 4984.00 4931.80 70.60
3451 1.5507 5002.00 4933.28 70.72
3452 1.5510 5002.00 4932.21 70.72
3453 1.5514 4907.00 4928.52 70.05
3454 1.5517 4943.00 4922.27 70.31
3455 1.5521 5021.00 4913.64 70.86
3456 1.5524 4869.00 4902.94 69.78
3457 1.5528 4959.00 4890.63 70.42
3458 1.5531 4813.00 4877.22 69.38
3459 1.5535 4847.00 4863.25 69.62
3460 1.5538 4783.00 4849.19 69.16
3461 1.5542 4818.00 4835.44 69.41
3462 1.5545 4761.00 4822.34 69.00
3463 1.5549 4686.00 4810.11 68.45
3464 1.5552 4717.00 4798.93 68.68
3465 1.5556 4714.00 4788.88 68.66
3466 1.5559 4769.00 4779.99 69.06
3467 1.5563 4685.00 4772.25 68.45
3468 1.5566 4760.00 4765.61 68.99
3469 1.5570 4756.00 4760.00 68.96
3470 1.5573 4832.00 4755.32 69.51
3471 1.5577 4772.00 4751.36 69.08
3472 1.5580 4764.00 4748.22 69.02
3473 1.5584 4697.00 4745.70 68.53
3474 1.5587 4796.00 4743.71 69.25
3475 1.5591 4742.00 4742.16 68.86
3476 1.5594 4716.00 4740.99 68.67
3477 1.5598 4742.00 4740.16 68.86
3478 1.5601 4766.00 4739.62 69.04
3479 1.5605 4660.00 4739.38 68.26
3480 1.5608 4695.00 4739.42 68.52
3481 1.5612 4671.00 4739.77 68.34
3482 1.5615 4763.00 4740.45 69.01
3483 1.5619 4798.00 4741.51 69.27
3484 1.5622 4739.00 4743.00 68.84
3485 1.5626 4774.00 4744.97 69.09
3486 1.5629 4741.00 4747.49 68.85
3487 1.5633 4708.00 4750.62 68.61
3488 1.5636 4771.00 4754.43 69.07
3489 1.5640 4702.00 4758.96 68.57
3490 1.5643 4749.00 4764.26 68.91
3491 1.5647 4781.00 4770.34 69.14
3492 1.5650 4749.00 4777.23 68.91
3493 1.5654 4847.00 4784.87 69.62
3494 1.5657 4894.00 4793.22 69.96
3495 1.5661 4837.00 4802.18 69.55
3496 1.5664 4902.00 4811.59 70.01
3497 1.5668 4859.00 4821.26 69.71
3498 1.5671 4735.00 4830.95 68.81
3499 1.5675 4705.00 4840.34 68.59
3500 1.5678 4795.00 4849.05 69.25
3501 1.5682 4956.00 4856.69 70.40
3502 1.5685 4792.00 4862.81 69.22
3503 1.5689 4931.00 4867.00 70.22
3504 1.5692 4964.00 4868.97 70.46
3505 1.5695 4857.00 4868.53 69.69
3506 1.5699 4900.00 4865.73 70.00
3507 1.5702 4834.00 4860.77 69.53
3508 1.5706 4827.00 4853.99 69.48
3509 1.5709 4785.00 4845.81 69.17
3510 1.5713 4798.00 4836.67 69.27
3511 1.5716 4757.00 4826.98 68.97
3512 1.5720 4851.00 4817.10 69.65
3513 1.5723 4793.00 4807.32 69.23
3514 1.5727 4832.00 4797.90 69.51
3515 1.5730 4838.00 4789.01 69.56
3516 1.5734 4803.00 4780.81 69.30
3517 1.5737 4755.00 4773.37 68.96
3518 1.5741 4824.00 4766.76 69.46
3519 1.5744 4785.00 4761.00 69.17
3520 1.5748 4747.00 4756.08 68.90
3521 1.5751 4756.00 4751.96 68.96
3522 1.5755 4670.00 4748.58 68.34
3523 1.5758 4740.00 4745.89 68.85
3524 1.5762 4741.00 4743.79 68.85
3525 1.5765 4778.00 4742.49 69.12
3526 1.5769 4780.00 4741.31 69.14
3527 1.5772 4747.00 4740.44 68.90
3528 1.5776 4658.00 4739.78 68.25
3529 1.5779 4621.00 4739.24 67.98
3530 1.5783 4744.00 4738.73 68.88
3531 1.5786 4674.00 4738.20 68.37
3532 1.5790 4711.00 4737.58 68.64
3533 1.5793 4725.00 4736.87 68.74
3534 1.5797 4722.00 4736.06 68.72
3535 1.5800 4759.00 4735.19 68.99
3536 1.5804 4849.00 4734.27 69.63
3537 1.5807 4798.00 4733.36 69.27
3538 1.5811 4779.00 4732.49 69.13
3539 1.5814 4716.00 4731.68 68.67
3540 1.5818 4765.00 4730.96 69.03
3541 1.5821 4714.00 4730.35 68.66
3542 1.5825 4715.00 4729.86 68.67
3543 1.5828 4796.00 4729.49 69.25
3544 1.5832 4782.00 4729.23 69.15
3545 1.5835 4713.00 4729.07 68.65
3546 1.5839 4722.00 4728.99 68.72
3547 1.5842 4705.00 4728.98 68.59
3548 1.5846 4747.00 4729.00 68.90
3549 1.5849 4740.00 4729.04 68.85
3550 1.5853 4724.00 4729.08 68.73
3551 1.5856 4766.00 4729.12 69.04
3552 1.5860 4781.00 4729.17 69.14
3553 1.5863 4710.00 4729.27 68.63
3554 1.5867 4786.00 4729.32 69.18
3555 1.5870 4669.00 4729.66 68.33
3556 1.5874 4699.00 4730.22 68.55
3557 1.5877 4693.00 4731.05 68.51
3558 1.5881 4669.00 4732.23 68.33
3559 1.5884 4680.00 4733.82 68.41
3560 1.5887 4724.00 4735.86 68.73
3561 1.5891 4714.00 4738.46 68.66
3562 1.5894 4713.00 4741.52 68.65
3563 1.5898 4737.00 4745.08 68.83
3564 1.5901 4689.00 4749.11 68.48
3565 1.5905 4656.00 4753.53 68.23
3566 1.5908 4761.00 4758.20 69.00
3567 1.5912 4720.00 4762.95 68.70
3568 1.5915 4845.00 4767.56 69.61
3569 1.5919 4736.00 4771.76 68.82
3570 1.5922 4745.00 4775.25 68.88
3571 1.5926 4772.00 4777.70 69.08
3572 1.5929 4695.00 4778.87 68.52
3573 1.5933 4677.00 4778.63 68.39
3574 1.5936 4708.00 4776.98 68.61
3575 1.5940 4764.00 4774.11 69.02
3576 1.5943 4837.00 4770.29 69.55
3577 1.5947 4782.00 4765.84 69.15
3578 1.5950 4769.00 4761.05 69.06
3579 1.5954 4725.00 4756.18 68.74
3580 1.5957 4728.00 4751.46 68.76
3581 1.5961 4726.00 4747.04 68.75
3582 1.5964 4713.00 4743.04 68.65
3583 1.5968 4692.00 4739.53 68.50
3584 1.5971 4706.00 4736.54 68.60
3585 1.5975 4698.00 4734.09 68.54
3586 1.5978 4598.00 4732.13 67.81
3587 1.5982 4640.00 4730.63 68.12
3588 1.5985 4722.00 4729.53 68.72
3589 1.5989 4731.00 4728.78 68.78
3590 1.5992 4811.00 4728.29 69.36
3591 1.5996 4699.00 4728.02 68.55
3592 1.5999 4677.00 4727.89 68.39
3593 1.6003 4797.00 4727.86 69.26
3594 1.6006 4738.00 4727.88 68.83
3595 1.6010 4736.00 4727.92 68.82
3596 1.6013 4718.00 4727.95 68.69
3597 1.6017 4666.00 4727.97 68.31
3598 1.6020 4622.00 4727.97 67.99
3599 1.6024 4762.00 4727.96 69.01
3600 1.6027 4748.00 4727.96 68.91
3601 1.6031 4713.00 4727.96 68.65
3602 1.6034 4787.00 4727.98 69.19
3603 1.6038 4727.00 4728.02 68.75
3604 1.6041 4718.00 4728.07 68.69
3605 1.6045 4725.00 4728.15 68.74
3606 1.6048 4673.00 4728.22 68.36
3607 1.6052 4737.00 4728.29 68.83
3608 1.6055 4813.00 4728.33 69.38
3609 1.6059 4769.00 4728.34 69.06
3610 1.6062 4729.00 4728.29 68.77
3611 1.6066 4753.00 4728.18 68.94
3612 1.6069 4787.00 4728.01 69.19
3613 1.6072 4769.00 4727.80 69.06
3614 1.6076 4718.00 4727.56 68.69
3615 1.6079 4646.00 4727.94 68.16
3616 1.6083 4720.00 4728.03 68.70
3617 1.6086 4705.00 4727.89 68.59
3618 1.6090 4724.00 4727.86 68.73
3619 1.6093 4768.00 4727.95 69.05
3620 1.6097 4771.00 4728.21 69.07
3621 1.6100 4700.00 4728.64 68.56
3622 1.6104 4695.00 4729.29 68.52
3623 1.6107 4659.00 4730.16 68.26
3624 1.6111 4710.00 4731.26 68.63
3625 1.6114 4700.00 4732.60 68.56
3626 1.6118 4651.00 4734.16 68.20
3627 1.6121 4718.00 4735.94 68.69
3628 1.6125 4708.00 4737.90 68.61
3629 1.6128 4675.00 4740.00 68.37
3630 1.6132 4652.00 4742.18 68.21
3631 1.6135 4628.00 4744.15 68.03
3632 1.6139 4689.00 4746.27 68.48
3633 1.6142 4707.00 4748.22 68.61
3634 1.6146 4695.00 4749.88 68.52
3635 1.6149 4755.00 4751.17 68.96
3636 1.6153 4743.00 4751.98 68.87
3637 1.6156 4760.00 4752.28 68.99
3638 1.6160 4742.00 4752.07 68.86
3639 1.6163 4736.00 4751.40 68.82
3640 1.6167 4695.00 4750.36 68.52
3641 1.6170 4754.00 4749.06 68.95
3642 1.6174 4668.00 4747.61 68.32
3643 1.6177 4671.00 4746.14 68.34
3644 1.6181 4802.00 4744.73 69.30
3645 1.6184 4630.00 4743.47 68.04
3646 1.6188 4664.00 4742.43 68.29
3647 1.6191 4708.00 4741.68 68.61
3648 1.6195 4678.00 4741.25 68.40
3649 1.6198 4680.00 4741.20 68.41
3650 1.6202 4747.00 4741.54 68.90
3651 1.6205 4696.00 4742.32 68.53
3652 1.6209 4721.00 4743.52 68.71
3653 1.6212 4744.00 4745.17 68.88
3654 1.6216 4804.00 4747.26 69.31
3655 1.6219 4717.00 4749.79 68.68
3656 1.6223 4767.00 4752.73 69.04
3657 1.6226 4755.00 4756.06 68.96
3658 1.6230 4818.00 4759.74 69.41
3659 1.6233 4712.00 4763.72 68.64
3660 1.6237 4753.00 4767.93 68.94
3661 1.6240 4737.00 4772.29 68.83
3662 1.6244 4841.00 4776.71 69.58
3663 1.6247 4819.00 4781.08 69.42
3664 1.6251 4758.00 4785.29 68.98
3665 1.6254 4798.00 4789.20 69.27
3666 1.6257 4752.00 4792.66 68.93
3667 1.6261 4812.00 4795.52 69.37
3668 1.6264 4830.00 4797.61 69.50
3669 1.6268 4858.00 4798.81 69.70
3670 1.6271 4882.00 4798.95 69.87
3671 1.6275 4772.00 4798.12 69.08
3672 1.6278 4736.00 4796.29 68.82
3673 1.6282 4799.00 4793.55 69.27
3674 1.6285 4786.00 4790.06 69.18
3675 1.6289 4852.00 4786.01 69.66
3676 1.6292 4756.00 4781.57 68.96
3677 1.6296 4732.00 4776.92 68.79
3678 1.6299 4750.00 4772.23 68.92
3679 1.6303 4683.00 4767.62 68.43
3680 1.6306 4737.00 4763.20 68.83
3681 1.6310 4741.00 4759.06 68.85
3682 1.6313 4773.00 4755.27 69.09
3683 1.6317 4780.00 4751.86 69.14
3684 1.6320 4740.00 4748.87 68.85
3685 1.6324 4707.00 4746.30 68.61
3686 1.6327 4768.00 4744.16 69.05
3687 1.6331 4711.00 4742.43 68.64
3688 1.6334 4732.00 4741.00 68.79
3689 1.6338 4760.00 4740.02 68.99
3690 1.6341 4650.00 4739.43 68.19
3691 1.6345 4713.00 4739.05 68.65
3692 1.6348 4729.00 4738.89 68.77
3693 1.6352 4831.00 4738.92 69.51
3694 1.6355 4742.00 4739.06 68.86
3695 1.6359 4740.00 4739.29 68.85
3696 1.6362 4765.00 4739.53 69.03
3697 1.6366 4723.00 4739.75 68.72
3698 1.6369 4751.00 4739.93 68.93
3699 1.6373 4820.00 4740.03 69.43
3700 1.6376 4765.00 4740.07 69.03
3701 1.6380 4762.00 4740.05 69.01
3702 1.6383 4799.00 4740.00 69.27
3703 1.6387 4784.00 4739.94 69.17
3704 1.6390 4693.00 4739.90 68.51
3705 1.6394 4806.00 4739.91 69.33
3706 1.6397 4777.00 4739.97 69.12
3707 1.6401 4729.00 4740.12 68.77
3708 1.6404 4726.00 4740.36 68.75
3709 1.6408 4698.00 4740.70 68.54
3710 1.6411 4745.00 4741.16 68.88
3711 1.6415 4755.00 4741.74 68.96
3712 1.6418 4792.00 4742.45 69.22
3713 1.6422 4768.00 4743.34 69.05
3714 1.6425 4726.00 4744.42 68.75
3715 1.6429 4691.00 4745.74 68.49
3716 1.6432 4754.00 4747.38 68.95
3717 1.6436 4758.00 4749.44 68.98
3718 1.6439 4759.00 4752.01 68.99
3719 1.6442 4696.00 4755.24 68.53
3720 1.6446 4683.00 4759.26 68.43
3721 1.6449 4805.00 4764.23 69.32
3722 1.6453 4812.00 4770.29 69.37
3723 1.6456 4675.00 4777.56 68.37
3724 1.6460 4780.00 4786.15 69.14
3725 1.6463 4772.00 4796.11 69.08
3726 1.6467 4753.00 4807.43 68.94
3727 1.6470 4746.00 4820.04 68.89
3728 1.6474 4853.00 4833.78 69.66
3729 1.6477 4883.00 4848.40 69.88
3730 1.6481 4897.00 4863.54 69.98
3731 1.6484 4862.00 4878.70 69.73
3732 1.6488 4837.00 4893.28 69.55
3733 1.6491 4870.00 4906.59 69.79
3734 1.6495 4992.00 4917.80 70.65
3735 1.6498 4947.00 4926.13 70.33
3736 1.6502 4888.00 4930.90 69.91
3737 1.6505 4859.00 4931.70 69.71
3738 1.6509 4924.00 4928.48 70.17
3739 1.6512 4881.00 4921.60 69.86
3740 1.6516 5014.00 4911.68 70.81
3741 1.6519 4918.00 4899.52 70.13
3742 1.6523 4900.00 4885.93 70.00
3743 1.6526 4815.00 4871.65 69.39
3744 1.6530 4764.00 4857.32 69.02
3745 1.6533 4801.00 4843.45 69.29
3746 1.6537 4748.00 4830.35 68.91
3747 1.6540 4854.00 4818.54 69.67
3748 1.6544 4776.00 4808.10 69.11
3749 1.6547 4841.00 4799.16 69.58
3750 1.6551 4843.00 4791.80 69.59
3751 1.6554 4821.00 4786.01 69.43
3752 1.6558 4817.00 4781.76 69.40
3753 1.6561 4853.00 4779.00 69.66
3754 1.6565 4839.00 4777.67 69.56
3755 1.6568 4838.00 4777.69 69.56
3756 1.6572 4782.00 4779.01 69.15
3757 1.6575 4732.00 4781.59 68.79
3758 1.6579 4788.00 4785.39 69.20
3759 1.6582 4834.00 4790.40 69.53
3760 1.6586 4764.00 4796.60 69.02
3761 1.6589 4811.00 4804.02 69.36
3762 1.6593 4818.00 4812.62 69.41
3763 1.6596 4827.00 4822.43 69.48
3764 1.6600 4823.00 4833.41 69.45
3765 1.6603 4904.00 4845.53 70.03
3766 1.6607 4826.00 4858.71 69.47
3767 1.6610 4833.00 4872.87 69.52
3768 1.6614 4881.00 4887.82 69.86
3769 1.6617 4816.00 4903.45 69.40
3770 1.6621 4854.00 4919.44 69.67
3771 1.6624 4894.00 4935.48 69.96
3772 1.6628 4984.00 4951.18 70.60
3773 1.6631 5026.00 4966.08 70.89
3774 1.6634 5036.00 4979.66 70.96
3775 1.6638 4967.00 4991.45 70.48
3776 1.6641 5033.00 5000.97 70.94
3777 1.6645 4994.00 5007.85 70.67
3778 1.6648 5003.00 5011.85 70.73
3779 1.6652 5049.00 5012.88 71.06
3780 1.6655 5147.00 5010.95 71.74
3781 1.6659 5122.00 5006.16 71.57
3782 1.6662 5156.00 4998.68 71.81
3783 1.6666 5043.00 4988.73 71.01
3784 1.6669 4974.00 4976.60 70.53
3785 1.6673 5104.00 4962.69 71.44
3786 1.6676 5028.00 4947.41 70.91
3787 1.6680 5018.00 4931.27 70.84
3788 1.6683 5039.00 4914.75 70.99
3789 1.6687 4921.00 4898.31 70.15
3790 1.6690 4956.00 4882.32 70.40
3791 1.6694 4846.00 4867.10 69.61
3792 1.6697 4814.00 4852.87 69.38
3793 1.6701 4841.00 4839.81 69.58
3794 1.6704 4849.00 4828.00 69.63
3795 1.6708 4751.00 4817.49 68.93
3796 1.6711 4824.00 4808.30 69.46
3797 1.6715 4798.00 4800.36 69.27
3798 1.6718 4807.00 4793.62 69.33
3799 1.6722 4853.00 4787.98 69.66
3800 1.6725 4867.00 4783.36 69.76
3801 1.6729 4842.00 4779.64 69.58
3802 1.6732 4768.00 4776.70 69.05
3803 1.6736 4751.00 4774.45 68.93
3804 1.6739 4729.00 4772.80 68.77
3805 1.6743 4717.00 4771.65 68.68
3806 1.6746 4753.00 4770.93 68.94
3807 1.6750 4773.00 4770.60 69.09
3808 1.6753 4796.00 4770.58 69.25
3809 1.6757 4707.00 4770.86 68.61
3810 1.6760 4753.00 4771.41 68.94
3811 1.6764 4727.00 4772.22 68.75
3812 1.6767 4696.00 4773.29 68.53
3813 1.6771 4789.00 4774.66 69.20
3814 1.6774 4766.00 4776.31 69.04
3815 1.6778 4715.00 4778.33 68.67
3816 1.6781 4772.00 4780.76 69.08
3817 1.6785 4814.00 4783.70 69.38
3818 1.6788 4871.00 4787.25 69.79
3819 1.6792 4735.00 4791.57 68.81
3820 1.6795 4822.00 4796.82 69.44
3821 1.6799 4737.00 4803.21 68.83
3822 1.6802 4871.00 4810.98 69.79
3823 1.6806 4914.00 4820.39 70.10
3824 1.6809 4857.00 4831.76 69.69
3825 1.6813 4852.00 4845.39 69.66
3826 1.6816 4897.00 4861.62 69.98
3827 1.6819 4912.00 4880.75 70.09
3828 1.6823 4988.00 4903.08 70.63
3829 1.6826 4973.00 4928.86 70.52
3830 1.6830 5045.00 4958.23 71.03
3831 1.6833 4981.00 4991.25 70.58
3832 1.6837 5036.00 5027.85 70.96
3833 1.6840 5139.00 5067.84 71.69
3834 1.6844 5175.00 5110.83 71.94
3835 1.6847 5097.00 5156.13 71.39
3836 1.6851 5193.00 5203.01 72.06
3837 1.6854 5195.00 5250.36 72.08
3838 1.6858 5291.00 5296.90 72.74
3839 1.6861 5301.00 5341.10 72.81
3840 1.6865 5337.00 5381.32 73.05
3841 1.6868 5329.00 5415.87 73.00
3842 1.6872 5422.00 5443.29 73.63
3843 1.6875 5434.00 5462.44 73.72
3844 1.6879 5357.00 5472.66 73.19
3845 1.6882 5388.00 5473.79 73.40
3846 1.6886 5522.00 5466.07 74.31
3847 1.6889 5483.00 5450.11 74.05
3848 1.6893 5483.00 5426.84 74.05
3849 1.6896 5491.00 5397.41 74.10
3850 1.6900 5606.00 5363.19 74.87
3851 1.6903 5361.00 5325.59 73.22
3852 1.6907 5342.00 5286.05 73.09
3853 1.6910 5364.00 5245.93 73.24
3854 1.6914 5340.00 5206.35 73.08
3855 1.6917 5187.00 5168.34 72.02
3856 1.6921 5228.00 5132.67 72.30
3857 1.6924 5196.00 5099.97 72.08
3858 1.6928 5074.00 5070.63 71.23
3859 1.6931 5128.00 5044.98 71.61
3860 1.6935 5123.00 5023.20 71.58
3861 1.6938 5128.00 5005.38 71.61
3862 1.6942 5042.00 4991.55 71.01
3863 1.6945 5004.00 4981.66 70.74
3864 1.6949 4940.00 4975.64 70.29
3865 1.6952 4954.00 4973.39 70.38
3866 1.6956 4945.00 4974.76 70.32
3867 1.6959 5014.00 4979.56 70.81
3868 1.6963 5066.00 4987.56 71.18
3869 1.6966 4967.00 4998.50 70.48
3870 1.6970 4924.00 5012.07 70.17
3871 1.6973 5039.00 5027.89 70.99
3872 1.6977 5030.00 5045.53 70.92
3873 1.6980 4985.00 5064.46 70.60
3874 1.6984 5126.00 5084.10 71.60
3875 1.6987 5165.00 5103.75 71.87
3876 1.6991 5198.00 5122.64 72.10
3877 1.6994 5109.00 5139.89 71.48
3878 1.6998 5156.00 5154.61 71.81
3879 1.7001 5225.00 5165.90 72.28
3880 1.7004 5262.00 5172.97 72.54
3881 1.7008 5207.00 5175.20 72.16
3882 1.7011 5303.00 5172.32 72.82
3883 1.7015 5291.00 5164.34 72.74
3884 1.7018 5211.00 5151.67 72.19
3885 1.7022 5199.00 5134.90 72.10
3886 1.7025 5127.00 5114.84 71.60
3887 1.7029 5164.00 5092.34 71.86
3888 1.7032 5085.00 5068.22 71.31
3889 1.7036 5123.00 5043.24 71.58
3890 1.7039 5087.00 5018.04 71.32
3891 1.7043 5044.00 4993.20 71.02
3892 1.7046 5063.00 4969.12 71.15
3893 1.7050 4999.00 4946.18 70.70
3894 1.7053 4882.00 4924.64 69.87
3895 1.7057 4921.00 4904.67 70.15
3896 1.7060 4902.00 4886.39 70.01
3897 1.7064 4823.00 4869.85 69.45
3898 1.7067 4923.00 4855.04 70.16
3899 1.7071 4847.00 4841.92 69.62
3900 1.7074 4812.00 4830.41 69.37
3901 1.7078 4774.00 4820.40 69.09
3902 1.7081 4731.00 4811.76 68.78
3903 1.7085 4795.00 4804.36 69.25
3904 1.7088 4957.00 4798.05 70.41
3905 1.7092 4732.00 4792.71 68.79
3906 1.7095 4803.00 4788.20 69.30
3907 1.7099 4811.00 4784.41 69.36
3908 1.7102 4820.00 4781.21 69.43
3909 1.7106 4720.00 4778.52 68.70
3910 1.7109 4675.00 4776.26 68.37
3911 1.7113 4729.00 4774.34 68.77
3912 1.7116 4753.00 4772.73 68.94
3913 1.7120 4812.00 4771.35 69.37
3914 1.7123 4799.00 4770.18 69.27
3915 1.7127 4806.00 4769.18 69.33
3916 1.7130 4756.00 4768.35 68.96
3917 1.7134 4679.00 4767.66 68.40
3918 1.7137 4794.00 4767.06 69.24
3919 1.7141 4717.00 4766.64 68.68
3920 1.7144 4746.00 4766.36 68.89
3921 1.7148 4715.00 4766.22 68.67
3922 1.7151 4850.00 4766.25 69.64
3923 1.7155 4844.00 4766.47 69.60
3924 1.7158 4762.00 4766.89 69.01
3925 1.7162 4734.00 4767.54 68.80
3926 1.7165 4709.00 4768.46 68.62
3927 1.7169 4788.00 4769.68 69.20
3928 1.7172 4811.00 4771.25 69.36
3929 1.7176 4693.00 4773.19 68.51
3930 1.7179 4692.00 4775.55 68.50
3931 1.7183 4827.00 4778.36 69.48
3932 1.7186 4743.00 4781.64 68.87
3933 1.7189 4795.00 4785.42 69.25
3934 1.7193 4895.00 4789.70 69.96
3935 1.7196 4784.00 4794.47 69.17
3936 1.7200 4789.00 4799.71 69.20
3937 1.7203 4803.00 4805.41 69.30
3938 1.7207 4857.00 4811.42 69.69
3939 1.7210 4757.00 4817.70 68.97
3940 1.7214 4895.00 4824.11 69.96
3941 1.7217 4812.00 4830.51 69.37
3942 1.7221 4880.00 4836.72 69.86
3943 1.7224 4888.00 4842.52 69.91
3944 1.7228 4895.00 4847.68 69.96
3945 1.7231 4837.00 4851.94 69.55
3946 1.7235 4940.00 4855.06 70.29
3947 1.7238 4942.00 4856.85 70.30
3948 1.7242 4896.00 4857.17 69.97
3949 1.7245 4884.00 4855.86 69.89
3950 1.7249 4796.00 4853.24 69.25
3951 1.7252 4934.00 4849.33 70.24
3952 1.7256 4889.00 4844.36 69.92
3953 1.7259 4833.00 4838.57 69.52
3954 1.7263 4873.00 4832.21 69.81
3955 1.7266 4852.00 4825.51 69.66
3956 1.7270 4740.00 4818.67 68.85
3957 1.7273 4725.00 4811.87 68.74
3958 1.7277 4801.00 4805.26 69.29
3959 1.7280 4810.00 4798.93 69.35
3960 1.7284 4643.00 4792.99 68.14
3961 1.7287 4725.00 4787.48 68.74
3962 1.7291 4799.00 4782.45 69.27
3963 1.7294 4765.00 4777.90 69.03
3964 1.7298 4839.00 4773.85 69.56
3965 1.7301 4789.00 4770.28 69.20
3966 1.7305 4795.00 4767.16 69.25
3967 1.7308 4780.00 4764.45 69.14
3968 1.7312 4747.00 4762.12 68.90
3969 1.7315 4721.00 4760.13 68.71
3970 1.7319 4761.00 4758.41 69.00
3971 1.7322 4668.00 4756.93 68.32
3972 1.7326 4668.00 4755.65 68.32
3973 1.7329 4728.00 4754.52 68.76
3974 1.7333 4769.00 4753.52 69.06
3975 1.7336 4725.00 4752.62 68.74
3976 1.7340 4664.00 4751.79 68.29
3977 1.7343 4705.00 4751.03 68.59
3978 1.7347 4759.00 4750.30 68.99
3979 1.7350 4696.00 4749.62 68.53
3980 1.7354 4800.00 4748.96 69.28
3981 1.7357 4739.00 4748.34 68.84
3982 1.7361 4703.00 4747.75 68.58
3983 1.7364 4727.00 4747.18 68.75
3984 1.7368 4772.00 4746.64 69.08
3985 1.7371 4781.00 4746.14 69.14
3986 1.7375 4768.00 4745.66 69.05
3987 1.7378 4675.00 4745.21 68.37
3988 1.7381 4789.00 4744.80 69.20
3989 1.7385 4719.00 4744.41 68.69
3990 1.7388 4705.00 4744.05 68.59
3991 1.7392 4606.00 4743.71 67.87
3992 1.7395 4689.00 4743.41 68.48
3993 1.7399 4772.00 4743.12 69.08
3994 1.7402 4693.00 4742.85 68.51
3995 1.7406 4707.00 4742.77 68.61
3996 1.7409 4689.00 4742.53 68.48
3997 1.7413 4642.00 4742.29 68.13
3998 1.7416 4733.00 4742.05 68.80
3999 1.7420 4693.00 4741.80 68.51
4000 1.7423 4800.00 4741.55 69.28
4001 1.7427 4703.00 4741.28 68.58
4002 1.7430 4637.00 4740.99 68.10
4003 1.7434 4739.00 4740.68 68.84
4004 1.7437 4725.00 4740.35 68.74
4005 1.7441 4648.00 4740.01 68.18
4006 1.7444 4732.00 4739.65 68.79
4007 1.7448 4685.00 4739.22 68.45
4008 1.7451 4666.00 4738.85 68.31
4009 1.7455 4653.00 4738.49 68.21
4010 1.7458 4704.00 4738.16 68.59
4011 1.7462 4774.00 4737.86 69.09
4012 1.7465 4748.00 4737.60 68.91
4013 1.7469 4705.00 4737.40 68.59
4014 1.7472 4730.00 4737.27 68.78
4015 1.7476 4715.00 4737.22 68.67
4016 1.7479 4677.00 4737.25 68.39
4017 1.7483 4692.00 4737.38 68.50
4018 1.7486 4655.00 4737.59 68.23
4019 1.7490 4755.00 4737.88 68.96
4020 1.7493 4728.00 4738.26 68.76
4021 1.7497 4716.00 4738.69 68.67
4022 1.7500 4655.00 4739.16 68.23
4023 1.7504 4658.00 4739.63 68.25
4024 1.7507 4738.00 4740.07 68.83
4025 1.7511 4760.00 4740.44 68.99
4026 1.7514 4731.00 4740.70 68.78
4027 1.7518 4727.00 4740.79 68.75
4028 1.7521 4691.00 4740.66 68.49
4029 1.7525 4722.00 4740.29 68.72
4030 1.7528 4687.00 4739.67 68.46
4031 1.7532 4699.00 4738.79 68.55
4032 1.7535 4667.00 4737.69 68.32
4033 1.7539 4720.00 4736.41 68.70
4034 1.7542 4682.00 4734.99 68.43
4035 1.7546 4669.00 4733.49 68.33
4036 1.7549 4705.00 4731.96 68.59
4037 1.7553 4743.00 4730.42 68.87
4038 1.7556 4721.00 4728.92 68.71
4039 1.7560 4698.00 4727.48 68.54
4040 1.7563 4696.00 4726.13 68.53
4041 1.7566 4787.00 4724.87 69.19
4042 1.7570 4708.00 4723.73 68.61
4043 1.7573 4651.00 4722.70 68.20
4044 1.7577 4739.00 4721.79 68.84
4045 1.7580 4685.00 4720.85 68.45
4046 1.7584 4698.00 4720.18 68.54
4047 1.7587 4722.00 4719.64 68.72
4048 1.7591 4691.00 4719.22 68.49
4049 1.7594 4691.00 4718.94 68.49
4050 1.7598 4674.00 4718.79 68.37
4051 1.7601 4726.00 4718.79 68.75
4052 1.7605 4740.00 4718.98 68.85
4053 1.7608 4673.00 4719.32 68.36
4054 1.7612 4692.00 4719.87 68.50
4055 1.7615 4778.00 4720.63 69.12
4056 1.7619 4719.00 4721.64 68.69
4057 1.7622 4731.00 4722.92 68.78
4058 1.7626 4768.00 4724.49 69.05
4059 1.7629 4741.00 4726.36 68.85
4060 1.7633 4757.00 4728.54 68.97
4061 1.7636 4762.00 4731.03 69.01
4062 1.7640 4742.00 4733.80 68.86
4063 1.7643 4745.00 4736.80 68.88
4064 1.7647 4818.00 4739.99 69.41
4065 1.7650 4804.00 4743.28 69.31
4066 1.7654 4811.00 4746.56 69.36
4067 1.7657 4692.00 4749.70 68.50
4068 1.7661 4724.00 4752.66 68.73
4069 1.7664 4783.00 4755.04 69.16
4070 1.7668 4718.00 4756.54 68.69
4071 1.7671 4807.00 4757.45 69.33
4072 1.7675 4796.00 4757.40 69.25
4073 1.7678 4760.00 4756.33 68.99
4074 1.7682 4722.00 4754.23 68.72
4075 1.7685 4758.00 4751.19 68.98
4076 1.7689 4820.00 4747.34 69.43
4077 1.7692 4737.00 4742.86 68.83
4078 1.7696 4721.00 4737.92 68.71
4079 1.7699 4796.00 4732.70 69.25
4080 1.7703 4748.00 4727.35 68.91
4081 1.7706 4723.00 4722.01 68.72
4082 1.7710 4735.00 4716.77 68.81
4083 1.7713 4712.00 4711.73 68.64
4084 1.7717 4788.00 4706.94 69.20
4085 1.7720 4748.00 4702.45 68.91
4086 1.7724 4786.00 4698.27 69.18
4087 1.7727 4737.00 4694.43 68.83
4088 1.7731 4658.00 4690.92 68.25
4089 1.7734 4645.00 4687.72 68.15
4090 1.7738 4723.00 4684.81 68.72
4091 1.7741 4700.00 4682.17 68.56
4092 1.7745 4735.00 4679.77 68.81
4093 1.7748 4740.00 4677.58 68.85
4094 1.7751 4628.00 4675.56 68.03
4095 1.7755 4653.00 4673.68 68.21
4096 1.7758 4731.00 4671.93 68.78
4097 1.7762 4780.00 4670.27 69.14
4098 1.7765 4749.00 4668.69 68.91
4099 1.7769 4630.00 4667.17 68.04
4100 1.7772 4698.00 4665.70 68.54
