#------------------------------------------------------------------------------
#$Date: 2016-03-26 17:32:41 +0200 (Sat, 26 Mar 2016) $
#$Revision: 180399 $
#$URL: svn://www.crystallography.net/cod/cif/7/20/68/7206886.cif $
#------------------------------------------------------------------------------
#
# This file is available in the Crystallography Open Database (COD),
# http://www.crystallography.net/
#
# All data on this site have been placed in the public domain by the
# contributors.
#
data_7206886
loop_
_publ_author_name
'Wang, De-Yin'
'Wu, Yun-Chen'
'Chen, Teng-Ming'
_publ_section_title
;
 Synthesis, crystal structure, and photoluminescence of a novel blue-green
 emitting phosphor: BaHfSi3O9:Eu2+
;
_journal_issue                   45
_journal_name_full               'Journal of Materials Chemistry'
_journal_page_first              18261
_journal_paper_doi               10.1039/c1jm13438h
_journal_volume                  21
_journal_year                    2011
_chemical_formula_sum            'Ba Hf O9 Si3'
_chemical_formula_weight         544.07
_chemical_name_systematic        ' ?'
_space_group_IT_number           188
_symmetry_cell_setting           hexagonal
_symmetry_space_group_name_Hall  'P -6c 2'
_symmetry_space_group_name_H-M   'P -6 c 2'
_audit_creation_date             2011-06-27T22:16
_audit_creation_method           'from EXP file using GSAS2CIF'
_audit_update_record
' 2011-06-27T22:16 Initial CIF as created by GSAS2CIF'
_cell_angle_alpha                90.0
_cell_angle_beta                 90.0
_cell_angle_gamma                120.0
_cell_formula_units_Z            2
_cell_length_a                   6.77318(8)
_cell_length_b                   6.77318
_cell_length_c                   10.00456(20)
_cell_volume                     397.479(9)
_computing_structure_refinement  GSAS
_diffrn_radiation_polarisn_ratio 0.7
_diffrn_radiation_probe          x-ray
_exptl_absorpt_correction_T_max  1.00000
_exptl_absorpt_correction_T_min  1.00000
_exptl_absorpt_process_details
; GSAS Absorption/surface roughness correction: function number 0
No correction is applied.
;
_pd_block_id                     2011-06-27T22:16|BHS|D.Y.Wang|D8
_pd_calc_method                  'Rietveld Refinement'
_pd_instr_location               ' ?'
_pd_meas_2theta_range_inc        0.0167
_pd_meas_2theta_range_max        119.719
_pd_meas_2theta_range_min        10.0
_pd_meas_number_of_points        6571
_pd_phase_name                   'from D:/BHS/BaZrSi3O9.cif'
_pd_proc_2theta_range_inc        0.0167
_pd_proc_2theta_range_max        119.719
_pd_proc_2theta_range_min        10.0
_pd_proc_info_datetime           2011-06-27T22:16:52
_pd_proc_info_excluded_regions   ' ?'
_pd_proc_ls_background_function
; GSAS Background function number 1 with 6 terms.
Shifted Chebyshev function of 1st kind
1: 184.514 2: -26.0141 3: 17.1603 4: 4.24306
5: -2.86347 6: 0.188043
;
_pd_proc_ls_peak_cutoff          0.01000
_pd_proc_ls_profile_function
;
CW Profile function number 2 with 18 terms
Profile coefficients for Simpson's rule integration of pseudovoigt function
C.J. Howard (1982). J. Appl. Cryst.,15,615-620.
P. Thompson, D.E. Cox & J.B. Hastings (1987). J. Appl. Cryst.,20,79-83.
Peak tails are ignored where the intensity is below 0.0100 times the peak
Aniso. broadening axis 0.0 0.0 1.0
;
_pd_proc_ls_prof_R_factor        0.0779
_pd_proc_ls_prof_wR_expected     0.0560
_pd_proc_ls_prof_wR_factor       0.1185
_pd_proc_number_of_points        6571
_pd_spec_mounting                ' ?'
_refine_ls_goodness_of_fit_all   2.12
_refine_ls_matrix_type           full
_refine_ls_number_parameters     16
_refine_ls_number_restraints     0
_refine_ls_R_Fsqd_factor         0.08928
_refine_ls_shift/su_max          0.06
_refine_ls_shift/su_mean         0.01
_reflns_d_resolution_high        0.891
_reflns_d_resolution_low         5.866
_reflns_limit_h_max              6
_reflns_limit_h_min              0
_reflns_limit_k_max              3
_reflns_limit_k_min              0
_reflns_limit_l_max              10
_reflns_limit_l_min              0
_reflns_number_total             249
_cod_data_source_file            c1jm13438h.txt
_cod_data_source_block           BHS_publ
_cod_original_cell_volume        397.479(7)
_cod_database_code               7206886
#BEGIN Tags that were not found in dictionaries:
_gsas_exptl_extinct_corr_t_min   1.00000
_gsas_exptl_extinct_corr_t_max   1.00000
#END Tags that were not found in dictionaries
loop_
_symmetry_equiv_pos_site_id
_symmetry_equiv_pos_as_xyz
1 +x,+y,+z
2 y-x,-x,-z+1/2
3 -y,x-y,+z
4 +x,+y,-z+1/2
5 y-x,-x,+z
6 -y,x-y,-z+1/2
7 y-x,+y,+z+1/2
8 +x,x-y,-z
9 -y,-x,+z+1/2
10 y-x,+y,-z
11 +x,x-y,+z+1/2
12 -y,-x,-z
loop_
_atom_site_type_symbol
_atom_site_label
_atom_site_fract_x
_atom_site_fract_y
_atom_site_fract_z
_atom_site_occupancy
_atom_site_thermal_displace_type
_atom_site_U_iso_or_equiv
_atom_site_symmetry_multiplicity
Ba Ba 0.66667 0.33333 0.0 1.0 Uiso 0.0150(14) 2
Hf Hf 0.33333 0.66667 0.0 1.0 Uiso 0.0108(9) 2
Si Si 0.04979 0.27375 0.25 1.0 Uiso 0.0059(17) 6
O O1 0.25194 0.17981 0.25 1.0 Uiso 0.023(5) 6
O O2 0.07434 0.42128 0.12342 1.0 Uiso 0.0096(26) 12
loop_
_atom_type_symbol
_atom_type_number_in_cell
_atom_type_scat_dispersion_real
_atom_type_scat_dispersion_imag
_atom_type_scat_Cromer_Mann_a1
_atom_type_scat_Cromer_Mann_a2
_atom_type_scat_Cromer_Mann_a3
_atom_type_scat_Cromer_Mann_a4
_atom_type_scat_Cromer_Mann_b1
_atom_type_scat_Cromer_Mann_b2
_atom_type_scat_Cromer_Mann_b3
_atom_type_scat_Cromer_Mann_b4
_atom_type_scat_Cromer_Mann_c
_atom_type_scat_source
Ba 2.0 0.000 0.000 20.3361 3.21600 19.2970 0.27560 10.8880 20.2073 2.69590
167.202 2.77310 International_Tables_Vol_C
Hf 2.0 0.000 0.000 29.1440 1.83262 15.1726 9.59990 14.7586 0.27512 4.30013
72.0290 8.58154 International_Tables_Vol_C
Si 6.0 0.000 0.000 6.29150 2.43860 3.03530 32.3337 1.98910 0.67850 1.54100
81.6937 1.14070 International_Tables_Vol_C
O 18.0 0.000 0.000 3.04850 13.2771 2.28680 5.70110 1.54630 0.32390 0.86700
32.9089 0.25080 International_Tables_Vol_C
loop_
_diffrn_radiation_wavelength
_diffrn_radiation_wavelength_wt
_diffrn_radiation_type
_diffrn_radiation_wavelength_id
1.540500 1.000 K\a~1~ 1
1.544300 0.508 K\a~2~ 2
loop_
_pd_meas_counts_total
_pd_proc_ls_weight
_pd_proc_intensity_bkg_calc
_pd_calc_intensity_total
226.0 0.00442 220.39383 220.39526
251.0 0.00398 220.39200 220.39343
238.0 0.00420 220.39015 220.39157
257.0 0.00389 220.38828 220.38966
259.0 0.00386 220.38637 220.38777
244.0 0.00410 220.38445 220.38582
249.0 0.00402 220.38246 220.38385
231.0 0.00433 220.38046 220.38185
239.0 0.00418 220.37845 220.37984
238.0 0.00420 220.37639 220.37778
242.0 0.00413 220.37433 220.37569
226.0 0.00442 220.37221 220.37358
245.0 0.00408 220.37010 220.37144
266.0 0.00376 220.36794 220.36931
244.0 0.00410 220.36575 220.36710
238.0 0.00420 220.36354 220.36488
264.0 0.00379 220.36130 220.36263
249.0 0.00402 220.35902 220.36037
227.0 0.00441 220.35674 220.35806
239.0 0.00418 220.35443 220.35573
261.0 0.00383 220.35208 220.35339
251.0 0.00398 220.34970 220.35101
252.0 0.00397 220.34729 220.34859
261.0 0.00383 220.34486 220.34613
236.0 0.00424 220.34239 220.34369
229.0 0.00437 220.33990 220.34119
233.0 0.00429 220.33739 220.33868
227.0 0.00441 220.33485 220.33614
265.0 0.00377 220.33228 220.33356
234.0 0.00427 220.32968 220.33096
226.0 0.00442 220.32707 220.32832
266.0 0.00376 220.32442 220.32570
218.0 0.00459 220.32176 220.32300
206.0 0.00485 220.31903 220.32030
250.0 0.00400 220.31631 220.31755
266.0 0.00376 220.31357 220.31479
200.0 0.00500 220.31078 220.31201
253.0 0.00395 220.30797 220.30920
249.0 0.00402 220.30511 220.30637
222.0 0.00450 220.30228 220.30348
249.0 0.00402 220.29936 220.30057
246.0 0.00407 220.29643 220.29765
232.0 0.00431 220.29349 220.29469
253.0 0.00395 220.29051 220.29173
237.0 0.00422 220.28752 220.28871
220.0 0.00455 220.28450 220.28569
232.0 0.00431 220.28143 220.28262
229.0 0.00437 220.27837 220.27954
226.0 0.00442 220.27527 220.27643
215.0 0.00465 220.27213 220.27328
209.0 0.00478 220.26895 220.27014
243.0 0.00412 220.26579 220.26697
246.0 0.00407 220.26257 220.26375
239.0 0.00418 220.25934 220.26047
204.0 0.00490 220.25607 220.25720
235.0 0.00426 220.25278 220.25391
234.0 0.00427 220.24944 220.25058
249.0 0.00402 220.24608 220.24725
233.0 0.00429 220.24272 220.24387
255.0 0.00392 220.23932 220.24045
238.0 0.00420 220.23592 220.23700
238.0 0.00420 220.23244 220.23355
235.0 0.00426 220.22896 220.23007
236.0 0.00424 220.22546 220.22659
201.0 0.00498 220.22194 220.22305
247.0 0.00405 220.21838 220.21947
232.0 0.00431 220.21481 220.21588
224.0 0.00446 220.21120 220.21228
209.0 0.00478 220.20755 220.20862
250.0 0.00400 220.20389 220.20497
208.0 0.00481 220.20020 220.20126
235.0 0.00426 220.19650 220.19757
236.0 0.00424 220.19273 220.19380
227.0 0.00441 220.18896 220.19002
224.0 0.00446 220.18518 220.18623
221.0 0.00452 220.18135 220.18242
228.0 0.00439 220.17752 220.17856
226.0 0.00442 220.17363 220.17470
224.0 0.00446 220.16975 220.17078
233.0 0.00429 220.16582 220.16685
217.0 0.00461 220.16187 220.16290
232.0 0.00431 220.15788 220.15892
230.0 0.00435 220.15388 220.15491
215.0 0.00465 220.14987 220.15089
232.0 0.00431 220.14581 220.14682
239.0 0.00418 220.14174 220.14275
245.0 0.00408 220.13762 220.13863
226.0 0.00442 220.13350 220.13448
235.0 0.00426 220.12932 220.13033
232.0 0.00431 220.12515 220.12613
217.0 0.00461 220.12094 220.12193
226.0 0.00442 220.11668 220.11768
254.0 0.00394 220.11244 220.11343
224.0 0.00446 220.10814 220.10915
232.0 0.00431 220.10384 220.10480
225.0 0.00444 220.09952 220.10048
232.0 0.00431 220.09514 220.09612
249.0 0.00402 220.09074 220.09171
226.0 0.00442 220.08633 220.08730
245.0 0.00408 220.08191 220.08284
232.0 0.00431 220.07744 220.07838
210.0 0.00476 220.07294 220.07388
210.0 0.00476 220.06842 220.06937
232.0 0.00431 220.06389 220.06480
232.0 0.00431 220.05930 220.06024
219.0 0.00457 220.05473 220.05565
227.0 0.00441 220.05011 220.05103
226.0 0.00442 220.04547 220.04639
220.0 0.00455 220.04079 220.04170
227.0 0.00441 220.03607 220.03700
212.0 0.00472 220.03139 220.03227
217.0 0.00461 220.02661 220.02753
223.0 0.00448 220.02185 220.02275
190.0 0.00526 220.01704 220.01796
210.0 0.00476 220.01224 220.01314
232.0 0.00431 220.00739 220.00827
232.0 0.00431 220.00253 220.00339
202.0 0.00495 219.99763 219.99850
228.0 0.00439 219.99271 219.99356
225.0 0.00444 219.98776 219.98862
222.0 0.00450 219.98277 219.98364
223.0 0.00448 219.97778 219.97862
212.0 0.00472 219.97275 219.97360
234.0 0.00427 219.96770 219.96858
204.0 0.00490 219.96263 219.96349
226.0 0.00442 219.95753 219.95839
234.0 0.00427 219.95241 219.95326
207.0 0.00483 219.94725 219.94812
226.0 0.00442 219.94209 219.94292
235.0 0.00426 219.93690 219.93773
223.0 0.00448 219.93167 219.93251
233.0 0.00429 219.92642 219.92725
244.0 0.00410 219.92114 219.92198
205.0 0.00488 219.91586 219.91667
209.0 0.00478 219.91054 219.91135
226.0 0.00442 219.90520 219.90599
242.0 0.00413 219.89981 219.90062
207.0 0.00483 219.89441 219.89522
251.0 0.00398 219.88898 219.88980
242.0 0.00413 219.88354 219.88435
217.0 0.00461 219.87807 219.87886
234.0 0.00427 219.87257 219.87337
195.0 0.00513 219.86707 219.86784
199.0 0.00503 219.86151 219.86230
215.0 0.00465 219.85596 219.85674
218.0 0.00459 219.85036 219.85114
220.0 0.00455 219.84473 219.84552
192.0 0.00521 219.83910 219.83986
238.0 0.00420 219.83344 219.83420
219.0 0.00457 219.82774 219.82849
221.0 0.00452 219.82202 219.82278
192.0 0.00521 219.81628 219.81703
228.0 0.00439 219.81050 219.81125
236.0 0.00424 219.80470 219.80547
229.0 0.00437 219.79890 219.79965
222.0 0.00450 219.79306 219.79381
223.0 0.00448 219.78719 219.78793
222.0 0.00450 219.78133 219.78204
234.0 0.00427 219.77541 219.77614
233.0 0.00429 219.76947 219.77017
223.0 0.00448 219.76350 219.76422
219.0 0.00457 219.75752 219.75824
218.0 0.00459 219.75151 219.75223
226.0 0.00442 219.74548 219.74620
219.0 0.00457 219.73943 219.74014
235.0 0.00426 219.73335 219.73404
217.0 0.00461 219.72723 219.72794
213.0 0.00469 219.72112 219.72180
224.0 0.00446 219.71495 219.71565
234.0 0.00427 219.70877 219.70946
204.0 0.00490 219.70256 219.70325
238.0 0.00420 219.69633 219.69704
224.0 0.00446 219.69009 219.69078
203.0 0.00493 219.68384 219.68451
233.0 0.00429 219.67752 219.67821
222.0 0.00450 219.67120 219.67188
234.0 0.00427 219.66486 219.66554
215.0 0.00465 219.65848 219.65915
220.0 0.00455 219.65210 219.65276
245.0 0.00408 219.64568 219.64636
221.0 0.00452 219.63925 219.63988
204.0 0.00490 219.63278 219.63344
198.0 0.00505 219.62630 219.62694
230.0 0.00435 219.61977 219.62041
224.0 0.00446 219.61324 219.61388
204.0 0.00490 219.60667 219.60733
224.0 0.00446 219.60008 219.60072
203.0 0.00493 219.59348 219.59412
224.0 0.00446 219.58685 219.58749
204.0 0.00490 219.58020 219.58083
249.0 0.00402 219.57352 219.57414
227.0 0.00441 219.56682 219.56744
195.0 0.00513 219.56009 219.56071
212.0 0.00472 219.55334 219.55399
196.0 0.00510 219.54659 219.54718
215.0 0.00465 219.53978 219.54039
226.0 0.00442 219.53296 219.53358
218.0 0.00459 219.52614 219.52672
203.0 0.00493 219.51926 219.51985
238.0 0.00420 219.51237 219.51297
227.0 0.00441 219.50545 219.50604
213.0 0.00469 219.49850 219.49911
217.0 0.00461 219.49155 219.49214
224.0 0.00446 219.48457 219.48515
200.0 0.00500 219.47757 219.47815
244.0 0.00410 219.47052 219.47113
255.0 0.00392 219.46347 219.46407
232.0 0.00431 219.45641 219.45697
209.0 0.00478 219.44931 219.44987
216.0 0.00463 219.44218 219.44273
208.0 0.00481 219.43504 219.43561
216.0 0.00463 219.42786 219.42844
222.0 0.00450 219.42068 219.42123
221.0 0.00452 219.41347 219.41402
220.0 0.00455 219.40623 219.40675
218.0 0.00459 219.39896 219.39951
221.0 0.00452 219.39168 219.39223
234.0 0.00427 219.38438 219.38490
211.0 0.00474 219.37703 219.37758
211.0 0.00474 219.36967 219.37022
226.0 0.00442 219.36229 219.36284
207.0 0.00483 219.35492 219.35544
239.0 0.00418 219.34747 219.34802
239.0 0.00418 219.34004 219.34056
213.0 0.00469 219.33255 219.33310
197.0 0.00508 219.32507 219.32561
212.0 0.00472 219.31758 219.31808
215.0 0.00465 219.31003 219.31053
199.0 0.00503 219.30246 219.30298
230.0 0.00435 219.29488 219.29539
217.0 0.00461 219.28729 219.28780
208.0 0.00481 219.27965 219.28015
212.0 0.00472 219.27202 219.27251
247.0 0.00405 219.26433 219.26483
196.0 0.00510 219.25662 219.25713
199.0 0.00503 219.24889 219.24942
204.0 0.00490 219.24115 219.24167
199.0 0.00503 219.23340 219.23392
209.0 0.00478 219.22562 219.22612
211.0 0.00474 219.21779 219.21829
206.0 0.00485 219.20998 219.21045
230.0 0.00435 219.20212 219.20261
213.0 0.00469 219.19424 219.19472
195.0 0.00513 219.18636 219.18683
232.0 0.00431 219.17844 219.17891
207.0 0.00483 219.17049 219.17094
258.0 0.00388 219.16252 219.16296
229.0 0.00437 219.15454 219.15500
202.0 0.00495 219.14651 219.14697
221.0 0.00452 219.13850 219.13895
222.0 0.00450 219.13040 219.13089
200.0 0.00500 219.12233 219.12282
234.0 0.00427 219.11423 219.11469
218.0 0.00459 219.10611 219.10657
217.0 0.00461 219.09796 219.09840
238.0 0.00420 219.08980 219.09026
207.0 0.00483 219.08160 219.08208
226.0 0.00442 219.07339 219.07385
218.0 0.00459 219.06517 219.06561
206.0 0.00485 219.05692 219.05734
221.0 0.00452 219.04861 219.04907
225.0 0.00444 219.04034 219.04076
226.0 0.00442 219.03201 219.03244
251.0 0.00398 219.02367 219.02409
212.0 0.00472 219.01532 219.01572
207.0 0.00483 219.00693 219.00732
223.0 0.00448 218.99849 218.99892
238.0 0.00420 218.99005 218.99049
244.0 0.00410 218.98161 218.98203
245.0 0.00408 218.97313 218.97354
236.0 0.00424 218.96463 218.96504
254.0 0.00394 218.95610 218.95653
244.0 0.00410 218.94756 218.94797
256.0 0.00391 218.93901 218.93941
233.0 0.00429 218.93042 243.38223
237.0 0.00422 218.92181 244.95978
249.0 0.00402 218.91318 258.88290
254.0 0.00394 218.90451 261.58209
237.0 0.00422 218.89586 264.56424
283.0 0.00353 218.88716 267.86877
266.0 0.00376 218.87843 271.54294
268.0 0.00373 218.86971 275.64481
251.0 0.00398 218.86093 280.24072
280.0 0.00357 218.85214 285.41318
279.0 0.00358 218.84334 291.26331
306.0 0.003268 218.83452 297.91440
306.0 0.003268 218.82567 305.52875
300.0 0.003333 218.81683 314.32745
341.0 0.002933 218.80791 324.62958
385.0 0.002597 218.79901 336.94449
399.0 0.002506 218.79007 352.12796
463.0 0.002160 218.78113 371.65002
522.0 0.001916 218.77216 398.04776
521.0 0.001919 218.76315 435.54593
586.0 0.001706 218.75414 490.78879
728.0 0.001374 218.74509 573.57947
911.0 0.001098 218.73604 697.12280
1066.0 0.000938 218.72696 877.54999
1271.0 0.000787 218.71783 1131.81055
1521.0 0.000657 218.70871 1474.22180
1912.0 0.000523 218.69955 1911.75220
2263.0 0.000442 218.69040 2438.00879
2888.0 0.0003463 218.68121 3028.08838
3486.0 0.0002869 218.67201 3634.45728
3903.0 0.0002562 218.66278 4185.56689
4213.0 0.0002374 218.65352 4596.14258
4437.0 0.0002254 218.64424 4792.34814
4530.0 0.0002208 218.63495 4739.50928
4312.0 0.0002319 218.62563 4452.40186
3882.0 0.0002576 218.61630 3985.93945
3584.0 0.0002790 218.60693 3416.49365
2937.0 0.0003405 218.59755 2819.86816
2319.0 0.000431 218.58815 2256.25391
1719.0 0.000582 218.57874 1764.54639
1157.0 0.000864 218.56927 1362.62012
825.0 0.001212 218.55983 1051.95532
607.0 0.001647 218.55034 823.26642
499.0 0.002004 218.54082 661.57135
408.0 0.002451 218.53130 550.64886
363.0 0.002755 218.52176 475.85657
334.0 0.002994 218.51218 425.40753
334.0 0.002994 218.50259 390.72095
294.0 0.003401 218.49298 365.97305
285.0 0.00351 218.48335 347.47708
289.0 0.003460 218.47369 332.98996
272.0 0.00368 218.46404 321.18256
288.0 0.003472 218.45433 311.27899
255.0 0.00392 218.44463 302.80698
276.0 0.00362 218.43486 295.46060
266.0 0.00376 218.42513 289.03387
279.0 0.00358 218.41533 283.37369
244.0 0.00410 218.40553 278.35928
245.0 0.00408 218.39572 273.89734
238.0 0.00420 218.38589 269.90930
244.0 0.00410 218.37602 266.33023
223.0 0.00448 218.36615 263.10721
238.0 0.00420 218.35625 260.19437
230.0 0.00435 218.34631 257.55289
255.0 0.00392 218.33638 231.87808
254.0 0.00394 218.32642 231.03250
224.0 0.00446 218.31644 218.31671
201.0 0.00498 218.30644 218.30670
229.0 0.00437 218.29642 218.29669
226.0 0.00442 218.28638 218.28664
195.0 0.00513 218.27632 218.27658
210.0 0.00476 218.26624 218.26648
197.0 0.00508 218.25612 218.25636
199.0 0.00503 218.24599 218.24625
190.0 0.00526 218.23582 218.23610
192.0 0.00521 218.22566 218.22594
206.0 0.00485 218.21548 218.21574
235.0 0.00426 218.20528 218.20554
229.0 0.00437 218.19507 218.19531
215.0 0.00465 218.18481 218.18506
197.0 0.00508 218.17453 218.17477
226.0 0.00442 218.16425 218.16452
220.0 0.00455 218.15396 218.15417
197.0 0.00508 218.14362 218.14388
198.0 0.00505 218.13326 218.13350
212.0 0.00472 218.12291 218.12315
210.0 0.00476 218.11252 218.11275
212.0 0.00472 218.10210 218.10234
209.0 0.00478 218.09166 218.09193
204.0 0.00490 218.08122 218.08145
200.0 0.00500 218.07074 218.07098
227.0 0.00441 218.06026 218.06050
202.0 0.00495 218.04976 218.04999
204.0 0.00490 218.03922 218.03946
217.0 0.00461 218.02869 218.02892
192.0 0.00521 218.01813 218.01836
189.0 0.00529 218.00751 218.00774
207.0 0.00483 217.99692 217.99715
209.0 0.00478 217.98628 217.98651
212.0 0.00472 217.97562 217.97586
209.0 0.00478 217.96498 217.96519
219.0 0.00457 217.95430 217.95451
197.0 0.00508 217.94357 217.94380
196.0 0.00510 217.93285 217.93304
193.0 0.00518 217.92209 217.92232
196.0 0.00510 217.91132 217.91154
212.0 0.00472 217.90054 217.90076
192.0 0.00521 217.88974 217.88995
192.0 0.00521 217.87891 217.87912
209.0 0.00478 217.86806 217.86829
183.0 0.00546 217.85722 217.85741
194.0 0.00515 217.84633 217.84653
192.0 0.00521 217.83542 217.83562
182.0 0.00549 217.82449 217.82471
192.0 0.00521 217.81355 217.81375
170.0 0.00588 217.80260 217.80280
196.0 0.00510 217.79161 217.79179
198.0 0.00505 217.78061 217.78081
205.0 0.00488 217.76958 217.76979
219.0 0.00457 217.75854 217.75874
216.0 0.00463 217.74748 217.74768
186.0 0.00538 217.73640 217.73659
195.0 0.00513 217.72530 217.72549
201.0 0.00498 217.71417 217.71439
187.0 0.00535 217.70303 217.70325
192.0 0.00521 217.69189 217.69209
199.0 0.00503 217.68071 217.68091
194.0 0.00515 217.66954 217.66971
197.0 0.00508 217.65829 217.65849
183.0 0.00546 217.64708 217.64725
206.0 0.00485 217.63582 217.63600
200.0 0.00500 217.62457 217.62473
196.0 0.00510 217.61327 217.61345
174.0 0.00575 217.60196 217.60213
204.0 0.00490 217.59062 217.59077
205.0 0.00488 217.57928 217.57944
212.0 0.00472 217.56789 217.56807
179.0 0.00559 217.55652 217.55670
188.0 0.00532 217.54510 217.54530
197.0 0.00508 217.53368 217.53384
209.0 0.00478 217.52223 217.52238
225.0 0.00444 217.51077 217.51094
218.0 0.00459 217.49930 217.49948
198.0 0.00505 217.48779 217.48798
203.0 0.00493 217.47627 217.47646
207.0 0.00483 217.46474 217.46490
204.0 0.00490 217.45319 217.45334
194.0 0.00515 217.44160 217.44177
183.0 0.00546 217.43001 217.43018
204.0 0.00490 217.41838 217.41855
195.0 0.00513 217.40675 217.40692
215.0 0.00465 217.39511 217.39526
205.0 0.00488 217.38341 217.38359
200.0 0.00500 217.37175 217.37190
186.0 0.00538 217.36003 217.36018
202.0 0.00495 217.34831 217.34846
201.0 0.00498 217.33656 224.56087
202.0 0.00495 217.32480 225.00327
221.0 0.00452 217.31302 225.48938
230.0 0.00435 217.30122 229.76161
201.0 0.00498 217.28940 230.59125
193.0 0.00518 217.27754 231.50815
160.0 0.00625 217.26572 232.52483
239.0 0.00418 217.25385 233.65617
212.0 0.00472 217.24194 234.91925
226.0 0.00442 217.23003 236.33519
200.0 0.00500 217.21811 237.92940
209.0 0.00478 217.20616 239.73232
232.0 0.00431 217.19417 241.78284
244.0 0.00410 217.18217 244.13127
228.0 0.00439 217.17017 246.84555
254.0 0.00394 217.15814 250.02670
266.0 0.00376 217.14609 253.83218
279.0 0.00358 217.13405 258.52698
284.0 0.00352 217.12196 264.55847
269.0 0.00372 217.10986 272.68311
350.0 0.002857 217.09776 284.14053
375.0 0.002667 217.08562 300.84201
408.0 0.002451 217.07346 325.54883
403.0 0.002481 217.06131 361.94247
480.0 0.002083 217.04912 414.40784
540.0 0.001852 217.03693 487.50766
612.0 0.001634 217.02469 585.07935
738.0 0.001355 217.01245 708.84918
892.0 0.001121 217.00018 857.07782
1004.0 0.000996 216.98787 1023.06995
1152.0 0.000868 216.97560 1193.83545
1337.0 0.000748 216.96329 1349.92444
1429.0 0.000700 216.95094 1467.94495
1428.0 0.000700 216.93858 1527.52576
1474.0 0.000678 216.92622 1519.09009
1458.0 0.000686 216.91383 1445.92920
1404.0 0.000712 216.90143 1321.53894
1222.0 0.000818 216.88901 1165.42065
1051.0 0.000951 216.87656 998.19379
886.0 0.001129 216.86411 837.24652
709.0 0.001410 216.85164 694.27283
553.0 0.001808 216.83913 575.27795
402.0 0.002488 216.82663 481.51340
334.0 0.002994 216.81409 411.08325
290.0 0.003448 216.80154 360.26584
261.0 0.00383 216.78896 324.71576
257.0 0.00389 216.77638 300.33682
221.0 0.00452 216.76379 283.69601
245.0 0.00408 216.75117 272.18570
203.0 0.00493 216.73853 263.98557
240.0 0.00417 216.72588 257.89548
221.0 0.00452 216.71321 253.16333
235.0 0.00426 216.70050 249.33765
236.0 0.00424 216.68781 246.14696
203.0 0.00493 216.67508 243.42671
209.0 0.00478 216.66232 241.07359
229.0 0.00437 216.64958 239.01691
211.0 0.00474 216.63678 237.20569
196.0 0.00510 216.62401 235.60173
220.0 0.00455 216.61118 234.17398
197.0 0.00508 216.59833 232.89725
216.0 0.00463 216.58548 231.75125
205.0 0.00488 216.57263 230.71857
193.0 0.00518 216.55974 229.78447
226.0 0.00442 216.54683 228.93704
193.0 0.00518 216.53392 220.88211
203.0 0.00493 216.52098 220.59819
204.0 0.00490 216.50803 216.50812
180.0 0.00556 216.49506 216.49515
185.0 0.00541 216.48206 216.48218
203.0 0.00493 216.46904 216.46915
233.0 0.00429 216.45602 216.45612
190.0 0.00526 216.44299 216.44308
193.0 0.00518 216.42993 216.43002
192.0 0.00521 216.41687 216.41695
169.0 0.00592 216.40376 216.40385
192.0 0.00521 216.39066 216.39075
188.0 0.00532 216.37752 216.37761
192.0 0.00521 216.36438 216.36449
176.0 0.00568 216.35120 216.35132
190.0 0.00526 216.33804 216.33813
217.0 0.00461 216.32484 216.32495
197.0 0.00508 216.31163 216.31174
176.0 0.00568 216.29840 216.29848
226.0 0.00442 216.28516 216.28523
185.0 0.00541 216.27190 216.27199
192.0 0.00521 216.25861 216.25870
171.0 0.00585 216.24532 216.24539
187.0 0.00535 216.23201 216.23206
203.0 0.00493 216.21867 216.21873
185.0 0.00541 216.20532 216.20538
183.0 0.00546 216.19196 216.19203
201.0 0.00498 216.17857 216.17865
195.0 0.00513 216.16516 216.16524
194.0 0.00515 216.15173 216.15184
192.0 0.00521 216.13831 216.13838
190.0 0.00526 216.12485 216.12495
157.0 0.00637 216.11139 216.11148
158.0 0.00633 216.09790 216.09799
181.0 0.00552 216.08441 216.08449
182.0 0.00549 216.07089 216.07097
171.0 0.00585 216.05736 216.05743
187.0 0.00535 216.04379 216.04387
195.0 0.00513 216.03024 216.03032
198.0 0.00505 216.01665 216.01672
172.0 0.00581 216.00305 216.00313
231.0 0.00433 215.98943 215.98950
199.0 0.00503 215.97581 215.97585
208.0 0.00481 215.96214 215.96222
179.0 0.00559 215.94846 215.94855
170.0 0.00588 215.93478 215.93484
204.0 0.00490 215.92108 215.92116
192.0 0.00521 215.90736 215.90744
187.0 0.00535 215.89363 215.89372
182.0 0.00549 215.87988 215.87994
195.0 0.00513 215.86610 215.86618
225.0 0.00444 215.85233 215.85242
201.0 0.00498 215.83853 215.83859
199.0 0.00503 215.82472 215.82478
157.0 0.00637 215.81088 215.81096
170.0 0.00588 215.79703 215.79709
200.0 0.00500 215.78317 215.78323
177.0 0.00565 215.76929 215.76935
198.0 0.00505 215.75537 215.75545
199.0 0.00503 215.74146 215.74153
218.0 0.00459 215.72751 215.72760
232.0 0.00431 215.71358 215.71364
246.0 0.00407 215.69963 215.69969
237.0 0.00422 215.68562 215.68570
241.0 0.00415 215.67165 215.67171
271.0 0.00369 215.65761 215.65770
289.0 0.003460 215.64360 215.64368
284.0 0.00352 215.62955 215.62962
289.0 0.003460 215.61549 215.61557
269.0 0.00372 215.60139 215.60147
294.0 0.003401 215.58733 215.58740
272.0 0.00368 215.57320 215.57327
255.0 0.00392 215.55910 215.55916
237.0 0.00422 215.54494 215.54501
213.0 0.00469 215.53078 215.53085
227.0 0.00441 215.51659 215.51668
193.0 0.00518 215.50241 215.50249
209.0 0.00478 215.48820 215.48828
204.0 0.00490 215.47398 215.47406
198.0 0.00505 215.45976 215.45984
181.0 0.00552 215.44548 215.44556
193.0 0.00518 215.43121 215.43127
196.0 0.00510 215.41693 215.41701
182.0 0.00549 215.40263 215.40271
211.0 0.00474 215.38834 215.38838
204.0 0.00490 215.37399 215.37405
207.0 0.00483 215.35962 215.35970
185.0 0.00541 215.34526 215.34534
194.0 0.00515 215.33090 215.33095
198.0 0.00505 215.31650 215.31656
186.0 0.00538 215.30208 215.30214
204.0 0.00490 215.28767 215.28773
194.0 0.00515 215.27321 215.27327
188.0 0.00532 215.25874 215.25880
184.0 0.00543 215.24426 215.24432
181.0 0.00552 215.22978 215.22986
180.0 0.00556 215.21527 215.21535
193.0 0.00518 215.20076 215.20082
179.0 0.00559 215.18622 215.18628
193.0 0.00518 215.17166 215.17174
209.0 0.00478 215.15710 215.15715
184.0 0.00543 215.14252 215.14256
201.0 0.00498 215.12791 215.12798
208.0 0.00481 215.11330 215.11336
198.0 0.00505 215.09866 215.09872
164.0 0.00610 215.08401 215.08406
183.0 0.00546 215.06934 215.06941
175.0 0.00571 215.05467 215.05475
221.0 0.00452 215.03998 215.04005
186.0 0.00538 215.02528 215.02536
186.0 0.00538 215.01056 215.01060
177.0 0.00565 214.99580 214.99586
190.0 0.00526 214.98105 214.98111
199.0 0.00503 214.96628 214.96635
176.0 0.00568 214.95152 214.95155
202.0 0.00495 214.93671 214.93677
201.0 0.00498 214.92188 214.92194
184.0 0.00543 214.90706 214.90710
187.0 0.00535 214.89221 214.89227
212.0 0.00472 214.87733 214.87741
187.0 0.00535 214.86246 214.86255
179.0 0.00559 214.84758 214.84764
198.0 0.00505 214.83269 214.83275
206.0 0.00485 214.81776 214.81779
196.0 0.00510 214.80281 214.80287
178.0 0.00562 214.78786 214.78790
182.0 0.00549 214.77289 214.77296
180.0 0.00556 214.75790 214.75797
187.0 0.00535 214.74290 214.74297
187.0 0.00535 214.72791 214.72797
194.0 0.00515 214.71286 214.71294
163.0 0.00613 214.69783 214.69788
181.0 0.00552 214.68279 214.68283
181.0 0.00552 214.66771 214.66776
184.0 0.00543 214.65260 214.65268
190.0 0.00526 214.63750 214.63756
171.0 0.00585 214.62239 214.62245
164.0 0.00610 214.60727 214.60732
199.0 0.00503 214.59212 214.59218
203.0 0.00493 214.57695 214.57701
180.0 0.00556 214.56178 214.56184
187.0 0.00535 214.54657 214.54665
194.0 0.00515 214.53139 214.53142
204.0 0.00490 214.51616 214.51620
170.0 0.00588 214.50090 214.50098
181.0 0.00552 214.48566 214.48573
195.0 0.00513 214.47040 214.47047
183.0 0.00546 214.45512 214.45518
203.0 0.00493 214.43980 214.43987
187.0 0.00535 214.42451 214.42458
171.0 0.00585 214.40919 214.40924
180.0 0.00556 214.39386 214.39392
187.0 0.00535 214.37851 214.37856
196.0 0.00510 214.36313 214.36320
205.0 0.00488 214.34775 214.34779
185.0 0.00541 214.33235 214.33240
186.0 0.00538 214.31694 214.31699
205.0 0.00488 214.30150 214.30157
186.0 0.00538 214.28607 214.28612
189.0 0.00529 214.27061 214.27066
218.0 0.00459 214.25513 214.25520
213.0 0.00469 214.23965 214.23970
195.0 0.00513 214.22415 214.22423
224.0 0.00446 214.20863 214.20871
228.0 0.00439 214.19313 214.19318
221.0 0.00452 214.17757 214.17764
229.0 0.00437 214.16202 214.16208
222.0 0.00450 214.14644 214.14650
239.0 0.00418 214.13086 214.13092
252.0 0.00397 214.11525 214.11531
258.0 0.00388 214.09964 214.09970
301.0 0.003322 214.08401 214.08406
286.0 0.003497 214.06837 214.06845
292.0 0.003425 214.05270 214.05278
365.0 0.002740 214.03705 214.03711
386.0 0.002591 214.02135 214.02142
380.0 0.002632 214.00565 214.00572
420.0 0.002381 213.98996 213.99001
416.0 0.002404 213.97423 213.97429
481.0 0.002079 213.95848 213.95853
452.0 0.002212 213.94272 213.94278
465.0 0.002151 213.92694 213.92700
431.0 0.002320 213.91118 213.91124
422.0 0.002370 213.89537 213.89543
421.0 0.002375 213.87956 213.87962
423.0 0.002364 213.86374 213.86378
344.0 0.002907 213.84790 213.84795
317.0 0.003155 213.83205 213.83211
295.0 0.003390 213.81615 213.81624
270.0 0.00370 213.80028 213.80035
230.0 0.00435 213.78438 213.78447
204.0 0.00490 213.76848 213.76855
207.0 0.00483 213.75255 213.75261
210.0 0.00476 213.73662 213.73666
200.0 0.00500 213.72066 213.72075
205.0 0.00488 213.70470 213.70476
182.0 0.00549 213.68871 213.68880
215.0 0.00465 213.67271 213.67281
215.0 0.00465 213.65671 213.65677
195.0 0.00513 213.64070 213.64078
175.0 0.00571 213.62466 213.62473
191.0 0.00524 213.60863 213.60867
182.0 0.00549 213.59256 213.59261
182.0 0.00549 213.57648 213.57655
209.0 0.00478 213.56038 213.56046
209.0 0.00478 213.54428 213.54433
186.0 0.00538 213.52817 213.52824
206.0 0.00485 213.51204 213.51210
204.0 0.00490 213.49590 213.49596
202.0 0.00495 213.47972 213.47978
178.0 0.00562 213.46356 213.46362
209.0 0.00478 213.44737 213.44743
182.0 0.00549 213.43117 213.43124
215.0 0.00465 213.41498 213.41505
197.0 0.00508 213.39874 213.39882
179.0 0.00559 213.38249 213.38257
214.0 0.00467 213.36626 213.36632
198.0 0.00505 213.34999 213.35005
179.0 0.00559 213.33369 213.33377
208.0 0.00481 213.31741 213.31746
206.0 0.00485 213.30109 213.30118
204.0 0.00490 213.28476 213.28487
188.0 0.00532 213.26845 213.26852
175.0 0.00571 213.25209 213.25217
182.0 0.00549 213.23573 213.23581
214.0 0.00467 213.21936 213.21944
206.0 0.00485 213.20297 213.20305
198.0 0.00505 213.18657 213.18665
197.0 0.00508 213.17017 213.17023
187.0 0.00535 213.15373 213.15379
197.0 0.00508 213.13731 213.13736
193.0 0.00518 213.12085 213.12091
189.0 0.00529 213.10439 213.10445
185.0 0.00541 213.08791 213.08798
213.0 0.00469 213.07141 213.07149
223.0 0.00448 213.05490 213.05498
209.0 0.00478 213.03838 213.03845
216.0 0.00463 213.02184 213.02193
207.0 0.00483 213.00531 213.00539
199.0 0.00503 212.98874 212.98883
207.0 0.00483 212.97217 212.97226
210.0 0.00476 212.95558 212.95566
233.0 0.00429 212.93898 212.93906
226.0 0.00442 212.92238 212.92245
259.0 0.00386 212.90578 212.90582
233.0 0.00429 212.88913 212.88919
238.0 0.00420 212.87245 212.87256
225.0 0.00444 212.85580 212.85590
244.0 0.00410 212.83914 212.83920
230.0 0.00435 212.82245 212.82253
219.0 0.00457 212.80576 212.80582
218.0 0.00459 212.78905 212.78912
216.0 0.00463 212.77229 212.77238
205.0 0.00488 212.75558 212.75566
228.0 0.00439 212.73880 212.73888
237.0 0.00422 212.72203 212.72211
236.0 0.00424 212.70526 212.70534
222.0 0.00450 212.68846 212.68855
212.0 0.00472 212.67166 212.67175
256.0 0.00391 212.65485 212.65497
217.0 0.00461 212.63803 212.63809
214.0 0.00467 212.62117 212.62126
240.0 0.00417 212.60432 212.60440
219.0 0.00457 212.58746 212.58754
203.0 0.00493 212.57059 212.57066
237.0 0.00422 212.55368 212.55377
210.0 0.00476 212.53679 212.53687
225.0 0.00444 212.51987 212.51994
255.0 0.00392 212.50294 212.50302
222.0 0.00450 212.48601 212.48608
243.0 0.00412 212.46902 212.46912
220.0 0.00455 212.45206 212.45216
233.0 0.00429 212.43510 212.43518
259.0 0.00386 212.41809 252.61310
249.0 0.00402 212.40111 255.19073
241.0 0.00415 212.38406 258.02567
264.0 0.00379 212.36705 280.89139
277.0 0.00361 212.34999 285.60611
268.0 0.00373 212.33295 290.82388
272.0 0.00368 212.31587 296.62140
255.0 0.00392 212.29880 303.08188
296.0 0.003378 212.28169 310.31125
303.0 0.003300 212.26460 318.43625
254.0 0.00394 212.24748 327.60703
317.0 0.003155 212.23036 338.01108
311.0 0.003215 212.21320 349.89316
325.0 0.003077 212.19604 363.55893
364.0 0.002747 212.17888 379.45520
367.0 0.002725 212.16170 398.26575
412.0 0.002427 212.14450 421.11890
469.0 0.002132 212.12732 450.00186
530.0 0.001887 212.11009 488.47479
622.0 0.001608 212.09286 542.67548
657.0 0.001522 212.07564 622.84436
873.0 0.001145 212.05838 744.86725
1065.0 0.000939 212.04111 931.47705
1388.0 0.000720 212.02385 1211.94226
1684.0 0.000594 212.00656 1619.53284
2151.0 0.000465 211.98926 2186.06665
2805.0 0.000357 211.97194 2931.99146
3696.0 0.0002706 211.95462 3856.83789
4680.0 0.0002137 211.93726 4927.93848
5805.0 0.0001723 211.91992 6070.71338
6843.0 0.0001461 211.90257 7164.98389
7457.0 0.0001341 211.88519 8056.45654
8215.0 0.0001217 211.86781 8598.10645
8496.0 0.0001177 211.85042 8712.21582
8437.0 0.0001185 211.83301 8408.03320
8062.0 0.0001240 211.81558 7750.66797
7259.0 0.0001378 211.79816 6834.14111
6139.0 0.0001629 211.78072 5774.13086
5014.0 0.0001994 211.76326 4693.17871
3822.0 0.0002616 211.74579 3690.66504
3002.0 0.0003331 211.72830 2828.43042
2138.0 0.000468 211.71083 2132.02271
1479.0 0.000676 211.69331 1599.08496
1099.0 0.000910 211.67580 1209.86914
830.0 0.001205 211.65826 937.03741
643.0 0.001555 211.64073 751.55695
567.0 0.001764 211.62318 627.70709
527.0 0.001898 211.60564 545.04730
455.0 0.002198 211.58804 488.79010
414.0 0.002415 211.57047 448.98663
431.0 0.002320 211.55287 419.36508
407.0 0.002457 211.53525 396.20651
431.0 0.002320 211.51764 377.32843
374.0 0.002674 211.50002 361.47095
390.0 0.002564 211.48238 347.88745
360.0 0.002778 211.46472 336.09943
349.0 0.002865 211.44705 325.77231
321.0 0.003115 211.42937 316.67166
325.0 0.003077 211.41168 308.60571
334.0 0.002994 211.39395 301.42197
335.0 0.002985 211.37627 294.99841
324.0 0.003086 211.35854 289.23175
339.0 0.002950 211.34081 284.03268
350.0 0.002857 211.32306 279.33273
312.0 0.003205 211.30528 236.02992
313.0 0.003195 211.28752 234.41753
306.0 0.003268 211.26973 232.95363
316.0 0.003165 211.25197 211.25209
324.0 0.003086 211.23416 211.23427
308.0 0.003247 211.21635 211.21646
321.0 0.003115 211.19853 211.19862
300.0 0.003333 211.18068 211.18080
278.0 0.00360 211.16283 211.16295
283.0 0.00353 211.14497 211.14510
334.0 0.002994 211.12709 211.12723
326.0 0.003067 211.10922 211.10931
294.0 0.003401 211.09132 211.09142
310.0 0.003226 211.07339 211.07355
327.0 0.003058 211.05548 211.05562
304.0 0.003289 211.03755 211.03770
336.0 0.002976 211.01964 211.01976
313.0 0.003195 211.00168 211.00180
314.0 0.003185 210.98372 210.98384
303.0 0.003300 210.96576 210.96588
311.0 0.003215 210.94777 210.94788
258.0 0.00388 210.92976 210.92990
295.0 0.003390 210.91177 210.91191
265.0 0.00377 210.89375 210.89386
261.0 0.00383 210.87573 210.87585
249.0 0.00402 210.85770 210.85782
228.0 0.00439 210.83963 210.83977
230.0 0.00435 210.82158 210.82170
244.0 0.00410 210.80351 210.80363
242.0 0.00413 210.78542 210.78557
214.0 0.00467 210.76732 210.76744
233.0 0.00429 210.74922 210.74936
232.0 0.00431 210.73109 210.73125
226.0 0.00442 210.71298 210.71310
230.0 0.00435 210.69484 210.69499
230.0 0.00435 210.67668 210.67685
238.0 0.00420 210.65854 210.65868
261.0 0.00383 210.64037 210.64049
291.0 0.003436 210.62221 210.62233
284.0 0.00352 210.60399 210.60414
300.0 0.003333 210.58580 210.58594
282.0 0.00355 210.56760 210.56772
308.0 0.003247 210.54936 210.54950
289.0 0.003460 210.53114 210.53128
311.0 0.003215 210.51289 210.51302
295.0 0.003390 210.49463 210.49477
292.0 0.003425 210.47633 210.47653
284.0 0.00352 210.45807 210.45825
261.0 0.00383 210.43979 210.43994
251.0 0.00398 210.42151 210.42165
268.0 0.00373 210.40320 210.40334
232.0 0.00431 210.38487 210.38504
226.0 0.00442 210.36655 210.36671
199.0 0.00503 210.34821 210.34836
230.0 0.00435 210.32985 210.33000
215.0 0.00465 210.31149 210.31165
208.0 0.00481 210.29312 210.29327
194.0 0.00515 210.27473 210.27489
217.0 0.00461 210.25635 210.25650
223.0 0.00448 210.23795 210.23811
189.0 0.00529 210.21956 210.21970
197.0 0.00508 210.20111 210.20125
226.0 0.00442 210.18268 210.18283
199.0 0.00503 210.16422 210.16438
209.0 0.00478 210.14577 210.14594
203.0 0.00493 210.12730 210.12747
185.0 0.00541 210.10883 210.10899
190.0 0.00526 210.09035 210.09050
216.0 0.00463 210.07185 210.07202
209.0 0.00478 210.05334 210.05351
234.0 0.00427 210.03484 210.03500
232.0 0.00431 210.01628 210.01646
208.0 0.00481 209.99777 209.99794
215.0 0.00465 209.97923 209.97937
203.0 0.00493 209.96066 209.96082
215.0 0.00465 209.94211 209.94226
239.0 0.00418 209.92351 209.92368
215.0 0.00465 209.90492 209.90508
232.0 0.00431 209.88632 209.88651
207.0 0.00483 209.86771 209.86787
235.0 0.00426 209.84909 209.84927
243.0 0.00412 209.83047 209.83063
227.0 0.00441 209.81184 209.81200
221.0 0.00452 209.79320 209.79337
204.0 0.00490 209.77454 209.77469
198.0 0.00505 209.75587 209.75601
217.0 0.00461 209.73718 209.73735
209.0 0.00478 209.71849 209.71866
216.0 0.00463 209.69980 209.69997
198.0 0.00505 209.68109 209.68126
221.0 0.00452 209.66237 209.66254
204.0 0.00490 209.64365 209.64383
201.0 0.00498 209.62489 209.62506
200.0 0.00500 209.60614 209.60631
213.0 0.00469 209.58739 209.58757
226.0 0.00442 209.56862 209.56879
206.0 0.00485 209.54985 209.55003
216.0 0.00463 209.53105 209.53123
226.0 0.00442 209.51225 209.51242
181.0 0.00552 209.49345 209.49362
221.0 0.00452 209.47462 209.47481
180.0 0.00556 209.45580 209.45598
215.0 0.00465 209.43697 209.43715
222.0 0.00450 209.41814 209.41832
204.0 0.00490 209.39926 209.39943
211.0 0.00474 209.38040 209.38055
205.0 0.00488 209.36153 209.36169
216.0 0.00463 209.34265 209.34282
202.0 0.00495 209.32373 209.32393
199.0 0.00503 209.30482 209.30504
206.0 0.00485 209.28592 209.28610
230.0 0.00435 209.26700 209.26718
221.0 0.00452 209.24806 227.58324
212.0 0.00472 209.22911 228.74481
208.0 0.00481 209.21016 230.02333
226.0 0.00442 209.19119 231.43411
215.0 0.00465 209.17224 242.30212
227.0 0.00441 209.15326 244.63747
223.0 0.00448 209.13426 247.23010
232.0 0.00431 209.11526 250.11955
234.0 0.00427 209.09625 253.35254
216.0 0.00463 209.07726 256.98386
259.0 0.00386 209.05820 261.08087
263.0 0.00380 209.03917 265.72983
232.0 0.00431 209.02011 271.03329
261.0 0.00383 209.00105 277.13290
272.0 0.00368 208.98199 284.22855
277.0 0.00361 208.96292 292.62289
283.0 0.00353 208.94383 302.81839
346.0 0.002890 208.92473 315.69128
344.0 0.002907 208.90562 332.74789
347.0 0.002882 208.88651 356.57117
382.0 0.002618 208.86740 391.34860
484.0 0.002066 208.84827 443.45270
523.0 0.001912 208.82913 521.77826
609.0 0.001642 208.80998 637.59888
739.0 0.001353 208.79082 803.59833
1001.0 0.000999 208.77167 1031.36182
1213.0 0.000824 208.75247 1328.46472
1604.0 0.000623 208.73329 1694.47791
2009.0 0.000498 208.71410 2116.88672
2440.0 0.000410 208.69490 2567.84424
2895.0 0.0003454 208.67567 3002.26343
3299.0 0.0003031 208.65645 3360.60498
3554.0 0.0002814 208.63721 3586.33911
3613.0 0.0002768 208.61797 3649.57275
3511.0 0.0002848 208.59872 3555.44165
3521.0 0.0002840 208.57947 3328.91382
3208.0 0.0003117 208.56020 2999.98730
2803.0 0.000357 208.54092 2604.59814
2253.0 0.000444 208.52164 2184.79150
1867.0 0.000536 208.50233 1780.54358
1464.0 0.000683 208.48303 1420.64099
1186.0 0.000843 208.46371 1119.84570
854.0 0.001171 208.44441 881.35889
659.0 0.001517 208.42505 701.00116
502.0 0.001992 208.40572 569.98724
415.0 0.002410 208.38637 477.95792
395.0 0.002532 208.36700 414.82239
305.0 0.003279 208.34764 371.95682
294.0 0.003401 208.32826 342.64020
323.0 0.003096 208.30890 322.05463
334.0 0.002994 208.28947 307.01065
300.0 0.003333 208.27008 295.48285
312.0 0.003205 208.25069 286.25232
214.0 0.00467 208.23128 278.60266
283.0 0.00353 208.21182 272.10562
261.0 0.00383 208.19240 266.49326
271.0 0.00369 208.17294 261.59521
252.0 0.00397 208.15349 257.28586
251.0 0.00398 208.13403 253.47087
247.0 0.00405 208.11456 250.07748
232.0 0.00431 208.09506 247.04543
221.0 0.00452 208.07556 244.32362
243.0 0.00412 208.05608 241.87279
218.0 0.00459 208.03658 239.65749
249.0 0.00402 208.01704 219.72610
221.0 0.00452 207.99753 218.94008
252.0 0.00397 207.97801 218.22641
220.0 0.00455 207.95848 217.57599
241.0 0.00415 207.93892 207.93915
217.0 0.00461 207.91934 207.91959
232.0 0.00431 207.89980 207.90002
212.0 0.00472 207.88023 207.88045
210.0 0.00476 207.86064 207.86086
233.0 0.00429 207.84103 207.84126
229.0 0.00437 207.82147 207.82167
223.0 0.00448 207.80183 207.80206
209.0 0.00478 207.78223 207.78246
244.0 0.00410 207.76257 207.76283
232.0 0.00431 207.74294 207.74318
217.0 0.00461 207.72330 207.72354
205.0 0.00488 207.70366 207.70390
218.0 0.00459 207.68401 207.68423
218.0 0.00459 207.66434 207.66457
239.0 0.00418 207.64464 207.64490
226.0 0.00442 207.62497 207.62520
222.0 0.00450 207.60529 207.60551
222.0 0.00450 207.58557 207.58583
233.0 0.00429 207.56589 207.56612
204.0 0.00490 207.54617 207.54640
213.0 0.00469 207.52643 212.67299
243.0 0.00412 207.50670 212.98019
215.0 0.00465 207.48697 213.31917
234.0 0.00427 207.46721 213.69444
248.0 0.00403 207.44745 216.68640
231.0 0.00433 207.42767 217.31229
251.0 0.00398 207.40790 218.00772
266.0 0.00376 207.38812 218.78317
294.0 0.003401 207.36832 219.65067
325.0 0.003077 207.34853 220.62479
321.0 0.003115 207.32874 221.72394
345.0 0.002899 207.30893 222.96912
419.0 0.002387 207.28911 224.38794
456.0 0.002193 207.26926 226.01617
527.0 0.001898 207.24944 227.90247
562.0 0.001779 207.22958 230.11966
587.0 0.001704 207.20973 232.78624
622.0 0.001608 207.18987 236.09854
688.0 0.001453 207.17000 240.39946
657.0 0.001522 207.15012 246.27313
694.0 0.001441 207.13022 254.67313
662.0 0.001511 207.11032 267.07275
629.0 0.001590 207.09042 285.59332
627.0 0.001595 207.07051 312.98132
616.0 0.001623 207.05060 352.45511
583.0 0.001715 207.03069 407.22891
603.0 0.001658 207.01074 479.73691
681.0 0.001468 206.99080 570.72345
743.0 0.001346 206.97084 678.30145
814.0 0.001229 206.95090 796.79126
837.0 0.001195 206.93095 916.17682
935.0 0.001070 206.91096 1022.05737
969.0 0.001032 206.89099 1098.48987
1018.0 0.000982 206.87100 1134.16589
1080.0 0.000926 206.85100 1127.28040
994.0 0.001006 206.83098 1083.32617
958.0 0.001044 206.81097 1009.77551
868.0 0.001152 206.79097 914.28418
740.0 0.001351 206.77092 806.15515
687.0 0.001456 206.75092 696.04877
584.0 0.001712 206.73087 593.23376
523.0 0.001912 206.71082 503.63791
414.0 0.002415 206.69077 429.93793
374.0 0.002674 206.67070 372.16919
316.0 0.003165 206.65063 328.77313
296.0 0.003378 206.63054 297.36557
283.0 0.00353 206.61044 275.29590
230.0 0.00435 206.59036 260.07330
275.0 0.00364 206.57027 249.63246
267.0 0.00375 206.55016 242.37943
267.0 0.00375 206.53003 237.18895
267.0 0.00375 206.50992 233.31738
266.0 0.00376 206.48979 230.29639
323.0 0.003096 206.46964 227.84132
309.0 0.003236 206.44949 225.78523
338.0 0.002959 206.42935 224.02533
345.0 0.002899 206.40918 222.49689
395.0 0.002532 206.38902 221.15613
406.0 0.002463 206.36885 219.97177
465.0 0.002151 206.34866 218.91951
492.0 0.002033 206.32846 217.97942
556.0 0.001799 206.30827 217.13644
534.0 0.001873 206.28806 216.37720
559.0 0.001789 206.26785 215.69063
533.0 0.001876 206.24763 209.77480
532.0 0.001880 206.22742 209.51898
487.0 0.002053 206.20718 209.28571
509.0 0.001965 206.18692 209.07239
453.0 0.002208 206.16667 206.16698
444.0 0.002252 206.14642 206.14671
395.0 0.002532 206.12616 206.12646
372.0 0.002688 206.10590 206.10617
318.0 0.003145 206.08560 206.08591
312.0 0.003205 206.06534 206.06564
261.0 0.00383 206.04503 206.04530
261.0 0.00383 206.02473 206.02504
254.0 0.00394 206.00443 206.00471
231.0 0.00433 205.98413 205.98441
247.0 0.00405 205.96381 205.96408
215.0 0.00465 205.94350 205.94377
239.0 0.00418 205.92316 205.92345
210.0 0.00476 205.90283 205.90311
223.0 0.00448 205.88246 205.88272
238.0 0.00420 205.86211 205.86238
227.0 0.00441 205.84175 205.84203
243.0 0.00412 205.82137 205.82166
223.0 0.00448 205.80098 205.80130
252.0 0.00397 205.78062 205.78091
226.0 0.00442 205.76022 205.76050
244.0 0.00410 205.73982 205.74013
254.0 0.00394 205.71942 205.71973
243.0 0.00412 205.69902 205.69931
261.0 0.00383 205.67860 205.67889
256.0 0.00391 205.65819 205.65848
284.0 0.00352 205.63774 205.63805
271.0 0.00369 205.61731 205.61761
289.0 0.003460 205.59686 205.59717
331.0 0.003021 205.57645 205.57671
262.0 0.00382 205.55595 205.55626
295.0 0.003390 205.53551 205.53580
289.0 0.003460 205.51501 205.51532
306.0 0.003268 205.49457 205.49486
293.0 0.003413 205.47406 205.47437
283.0 0.00353 205.45357 205.45389
292.0 0.003425 205.43307 205.43338
269.0 0.00372 205.41258 205.41289
305.0 0.003279 205.39207 205.39236
269.0 0.00372 205.37154 205.37186
241.0 0.00415 205.35103 205.35133
229.0 0.00437 205.33051 205.33081
220.0 0.00455 205.30997 205.31026
241.0 0.00415 205.28941 205.28972
201.0 0.00498 205.26886 205.26918
221.0 0.00452 205.24832 205.24861
232.0 0.00431 205.22775 205.22804
216.0 0.00463 205.20718 205.20747
228.0 0.00439 205.18657 205.18689
186.0 0.00538 205.16602 205.16632
198.0 0.00505 205.14543 205.14575
212.0 0.00472 205.12483 205.12517
184.0 0.00543 205.10422 205.10454
187.0 0.00535 205.08362 205.08394
199.0 0.00503 205.06300 205.06331
185.0 0.00541 205.04239 205.04271
181.0 0.00552 205.02176 205.02209
212.0 0.00472 205.00113 205.00145
209.0 0.00478 204.98047 204.98079
183.0 0.00546 204.95982 204.96016
183.0 0.00546 204.93916 204.93950
193.0 0.00518 204.91853 204.91884
202.0 0.00495 204.89787 204.89819
198.0 0.00505 204.87721 204.87752
214.0 0.00467 204.85652 204.85684
186.0 0.00538 204.83582 204.83615
193.0 0.00518 204.81512 204.81548
232.0 0.00431 204.79442 204.79477
192.0 0.00521 204.77373 204.77408
176.0 0.00568 204.75302 204.75336
171.0 0.00585 204.73232 204.73264
191.0 0.00524 204.71159 204.71190
176.0 0.00568 204.69087 204.69118
200.0 0.00500 204.67012 204.67046
176.0 0.00568 204.64940 204.64972
204.0 0.00490 204.62863 204.62897
189.0 0.00529 204.60789 204.60820
209.0 0.00478 204.58714 204.58746
181.0 0.00552 204.56639 204.56670
187.0 0.00535 204.54559 204.54591
187.0 0.00535 204.52483 204.52515
198.0 0.00505 204.50404 204.50438
181.0 0.00552 204.48325 204.48358
201.0 0.00498 204.46245 204.46280
209.0 0.00478 204.44165 204.44199
204.0 0.00490 204.42085 204.42119
203.0 0.00493 204.40004 204.40038
198.0 0.00505 204.37923 204.37958
182.0 0.00549 204.35841 204.35875
181.0 0.00552 204.33757 204.33791
215.0 0.00465 204.31673 204.31708
202.0 0.00495 204.29590 204.29623
207.0 0.00483 204.27505 212.29840
195.0 0.00513 204.25421 212.79558
191.0 0.00524 204.23334 213.34410
215.0 0.00465 204.21248 213.95105
203.0 0.00493 204.19160 218.53775
228.0 0.00439 204.17072 219.53496
166.0 0.00602 204.14984 220.64423
176.0 0.00568 204.12895 221.88159
205.0 0.00488 204.10806 223.26740
175.0 0.00571 204.08716 224.82597
198.0 0.00505 204.06625 226.58629
202.0 0.00495 204.04536 228.58449
210.0 0.00476 204.02443 230.86815
212.0 0.00472 204.00349 233.49734
217.0 0.00461 203.98259 236.56084
214.0 0.00467 203.96164 240.19557
212.0 0.00472 203.94072 244.62659
193.0 0.00518 203.91977 250.24377
284.0 0.00352 203.89882 257.72763
241.0 0.00415 203.87785 268.21396
238.0 0.00420 203.85689 283.53329
326.0 0.003067 203.83592 306.42282
317.0 0.003155 203.81496 340.65317
365.0 0.002740 203.79396 390.88327
442.0 0.002262 203.77299 462.16818
516.0 0.001938 203.75200 559.05688
654.0 0.001529 203.73102 684.06873
817.0 0.001224 203.71001 836.37732
1015.0 0.000985 203.68900 1010.24426
1160.0 0.000862 203.66800 1193.62744
1327.0 0.000754 203.64697 1367.59888
1423.0 0.000703 203.62596 1508.24866
1573.0 0.000636 203.60493 1593.80847
1600.0 0.000625 203.58389 1615.17175
1668.0 0.000600 203.56285 1577.87756
1650.0 0.000606 203.54181 1493.82727
1423.0 0.000703 203.52077 1373.55920
1270.0 0.000787 203.49971 1226.56091
1044.0 0.000958 203.47864 1065.25281
994.0 0.001006 203.45758 904.04932
779.0 0.001284 203.43652 755.32678
658.0 0.001520 203.41545 626.81274
550.0 0.001818 203.39436 521.57690
430.0 0.002326 203.37326 439.28738
363.0 0.002755 203.35217 377.61801
345.0 0.002899 203.33110 333.04987
296.0 0.003378 203.31000 301.77634
263.0 0.00380 203.28889 280.23859
259.0 0.00386 203.26778 265.47034
250.0 0.00400 203.24666 255.20274
244.0 0.00410 203.22554 247.83354
221.0 0.00452 203.20441 242.31610
243.0 0.00412 203.18327 237.99120
221.0 0.00452 203.16212 234.46341
240.0 0.00417 203.14098 231.49925
221.0 0.00452 203.11986 228.95670
240.0 0.00417 203.09868 226.74434
219.0 0.00457 203.07753 224.80251
223.0 0.00448 203.05637 223.08574
210.0 0.00476 203.03520 221.55925
224.0 0.00446 203.01402 220.19583
220.0 0.00455 202.99284 218.97272
244.0 0.00410 202.97166 217.87053
223.0 0.00448 202.95049 216.87430
224.0 0.00446 202.92929 208.22244
218.0 0.00459 202.90810 207.84862
237.0 0.00422 202.88690 207.50865
215.0 0.00465 202.86569 207.19835
210.0 0.00476 202.84448 202.84485
239.0 0.00418 202.82323 202.82362
219.0 0.00457 202.80202 202.80241
216.0 0.00463 202.78079 202.78117
248.0 0.00403 202.75957 202.75993
226.0 0.00442 202.73833 202.73871
262.0 0.00382 202.71709 202.71745
230.0 0.00435 202.69585 202.69621
232.0 0.00431 202.67459 202.67497
244.0 0.00410 202.65334 202.65372
235.0 0.00426 202.63208 202.63243
256.0 0.00391 202.61081 202.61118
256.0 0.00391 202.58954 202.58992
270.0 0.00370 202.56828 202.56863
266.0 0.00376 202.54698 202.54738
261.0 0.00383 202.52570 202.52609
286.0 0.003497 202.50441 202.50478
266.0 0.00376 202.48309 259.47589
313.0 0.003195 202.46181 263.05161
301.0 0.003322 202.44051 266.97748
318.0 0.003145 202.41919 271.29684
338.0 0.002959 202.39789 276.06461
385.0 0.002597 202.37657 310.48682
418.0 0.002392 202.35527 318.20151
442.0 0.002262 202.33392 326.76968
463.0 0.002160 202.31261 336.32660
509.0 0.001965 202.29126 347.02051
499.0 0.002004 202.26991 359.04153
562.0 0.001779 202.24857 372.61917
630.0 0.001587 202.22723 388.04309
641.0 0.001560 202.20589 405.68207
669.0 0.001495 202.18454 426.04758
697.0 0.001435 202.16316 449.90903
729.0 0.001372 202.14178 478.44720
751.0 0.001332 202.12042 513.66479
824.0 0.001214 202.09903 558.96429
862.0 0.001160 202.07767 620.03552
896.0 0.001116 202.05626 706.09369
1046.0 0.000956 202.03490 831.29810
1107.0 0.000903 202.01350 1015.58215
1362.0 0.000734 201.99210 1284.96887
1632.0 0.000613 201.97070 1669.73364
2133.0 0.000469 201.94930 2199.97095
2733.0 0.000366 201.92789 2899.08838
3618.0 0.0002764 201.90648 3775.86621
5108.0 0.0001958 201.88506 4813.82324
6172.0 0.0001620 201.86363 5964.40283
7493.0 0.0001335 201.84219 7138.13721
8364.0 0.0001196 201.82077 8202.31738
9045.0 0.0001106 201.79935 9003.45508
9652.0 0.0001036 201.77788 9425.27246
9857.0 0.0001015 201.75644 9444.49219
9998.0 0.0001000 201.73499 9121.29785
9255.0 0.0001080 201.71355 8534.66016
8503.0 0.0001176 201.69208 7742.99365
7297.0 0.0001370 201.67061 6798.53516
6050.0 0.0001653 201.64915 5773.29053
4953.0 0.0002019 201.62767 4753.30225
3923.0 0.0002549 201.60622 3813.56836
3140.0 0.0003185 201.58473 2999.42798
2328.0 0.000430 201.56325 2328.90308
1686.0 0.000593 201.54176 1800.46729
1203.0 0.000831 201.52029 1399.92822
981.0 0.001019 201.49878 1106.37561
709.0 0.001410 201.47729 897.23041
674.0 0.001484 201.45578 750.78497
590.0 0.001695 201.43425 648.66394
483.0 0.002070 201.41275 576.62024
460.0 0.002174 201.39125 524.36475
455.0 0.002198 201.36971 484.94400
436.0 0.002294 201.34821 453.96042
432.0 0.002315 201.32668 428.67502
380.0 0.002632 201.30515 407.43198
383.0 0.002611 201.28362 389.22244
349.0 0.002865 201.26210 373.39551
365.0 0.002740 201.24052 359.49991
348.0 0.002874 201.21899 347.22388
335.0 0.002985 201.19745 336.31534
339.0 0.002950 201.17589 326.57645
339.0 0.002950 201.15431 317.84402
329.0 0.003040 201.13275 309.98648
312.0 0.003205 201.11121 242.98407
309.0 0.003236 201.08963 240.09044
301.0 0.003322 201.06805 237.48047
266.0 0.00376 201.04649 235.11765
329.0 0.003040 201.02492 232.97144
309.0 0.003236 201.00331 201.00372
335.0 0.002985 200.98174 200.98215
311.0 0.003215 200.96014 200.96054
315.0 0.003175 200.93855 200.93896
301.0 0.003322 200.91696 200.91736
298.0 0.003356 200.89536 200.89574
368.0 0.002717 200.87373 200.87415
341.0 0.002933 200.85213 200.85254
447.0 0.002237 200.83052 200.83092
421.0 0.002375 200.80890 200.80933
494.0 0.002024 200.78728 200.78770
458.0 0.002183 200.76564 200.76605
524.0 0.001908 200.74402 200.74443
535.0 0.001869 200.72238 200.72282
527.0 0.001898 200.70074 200.70116
550.0 0.001818 200.67912 200.67953
563.0 0.001776 200.65747 200.65788
554.0 0.001805 200.63585 200.63626
529.0 0.001890 200.61417 200.61458
495.0 0.002020 200.59253 200.59294
453.0 0.002208 200.57088 200.57129
437.0 0.002288 200.54921 200.54962
354.0 0.002825 200.52756 200.52795
350.0 0.002857 200.50589 200.50630
337.0 0.002967 200.48421 200.48463
278.0 0.00360 200.46255 200.46294
244.0 0.00410 200.44089 200.44128
244.0 0.00410 200.41919 200.41960
209.0 0.00478 200.39751 200.39793
214.0 0.00467 200.37581 200.37624
213.0 0.00469 200.35414 200.35454
229.0 0.00437 200.33243 200.33284
201.0 0.00498 200.31076 200.31114
192.0 0.00521 200.28903 200.28944
187.0 0.00535 200.26733 200.26776
200.0 0.00500 200.24564 200.24606
193.0 0.00518 200.22394 200.22433
184.0 0.00543 200.20221 200.20262
213.0 0.00469 200.18050 200.18091
169.0 0.00592 200.15878 200.15918
205.0 0.00488 200.13705 200.13747
192.0 0.00521 200.11533 200.11574
168.0 0.00595 200.09358 200.09399
184.0 0.00543 200.07184 200.07227
197.0 0.00508 200.05011 200.05054
177.0 0.00565 200.02838 200.02879
197.0 0.00508 200.00662 200.00705
191.0 0.00524 199.98489 199.98532
186.0 0.00538 199.96315 199.96359
187.0 0.00535 199.94139 199.94182
164.0 0.00610 199.91965 199.92004
164.0 0.00610 199.89787 199.89830
165.0 0.00606 199.87611 199.87656
185.0 0.00541 199.85435 199.85478
206.0 0.00485 199.83260 199.83302
166.0 0.00602 199.81082 199.81123
180.0 0.00556 199.78906 199.78946
183.0 0.00546 199.76729 199.76768
175.0 0.00571 199.74547 199.74591
201.0 0.00498 199.72371 199.72415
190.0 0.00526 199.70192 199.70238
181.0 0.00552 199.68013 199.68054
164.0 0.00610 199.65834 199.65877
178.0 0.00562 199.63655 199.63698
187.0 0.00535 199.61475 199.61519
191.0 0.00524 199.59296 199.59340
165.0 0.00606 199.57117 199.57158
168.0 0.00595 199.54936 199.54977
170.0 0.00588 199.52754 199.52795
166.0 0.00602 199.50572 199.50615
181.0 0.00552 199.48392 199.48434
176.0 0.00568 199.46210 199.46252
171.0 0.00585 199.44029 199.44072
151.0 0.00662 199.41846 199.41885
187.0 0.00535 199.39661 199.39706
173.0 0.00578 199.37480 199.37523
202.0 0.00495 199.35298 199.35341
188.0 0.00532 199.33115 199.33157
174.0 0.00575 199.30930 199.30972
183.0 0.00546 199.28745 199.28789
171.0 0.00585 199.26561 199.26602
189.0 0.00529 199.24376 199.24420
183.0 0.00546 199.22194 199.22237
180.0 0.00556 199.20007 199.20052
171.0 0.00585 199.17822 199.17867
206.0 0.00485 199.15637 199.15681
180.0 0.00556 199.13451 199.13493
174.0 0.00575 199.11266 199.11307
198.0 0.00505 199.09079 199.09123
214.0 0.00467 199.06894 199.06935
205.0 0.00488 199.04703 199.04749
206.0 0.00485 199.02519 199.02563
220.0 0.00455 199.00331 199.00372
193.0 0.00518 198.98143 198.98186
210.0 0.00476 198.95955 198.95998
214.0 0.00467 198.93767 198.93811
227.0 0.00441 198.91580 198.91624
254.0 0.00394 198.89389 198.89433
243.0 0.00412 198.87202 198.87244
244.0 0.00410 198.85013 198.85054
221.0 0.00452 198.82825 198.82866
262.0 0.00382 198.80634 198.80678
243.0 0.00412 198.78445 198.78488
243.0 0.00412 198.76256 198.76297
239.0 0.00418 198.74063 198.74104
260.0 0.00385 198.71872 198.71915
247.0 0.00405 198.69682 198.69725
229.0 0.00437 198.67493 198.67535
231.0 0.00433 198.65298 198.65343
210.0 0.00476 198.63106 198.63152
237.0 0.00422 198.60916 198.60960
239.0 0.00418 198.58725 198.58766
188.0 0.00532 198.56534 198.56575
198.0 0.00505 198.54340 198.54384
243.0 0.00412 198.52148 198.52190
191.0 0.00524 198.49956 198.49997
221.0 0.00452 198.47760 198.47806
207.0 0.00483 198.45567 198.45610
213.0 0.00469 198.43373 198.43417
195.0 0.00513 198.41180 198.41223
211.0 0.00474 198.38988 198.39030
227.0 0.00441 198.36792 198.36835
211.0 0.00474 198.34599 198.34642
187.0 0.00535 198.32404 198.32446
221.0 0.00452 198.30208 198.30251
251.0 0.00398 198.28012 198.28056
234.0 0.00427 198.25818 198.25862
252.0 0.00397 198.23624 198.23666
246.0 0.00407 198.21426 198.21471
247.0 0.00405 198.19231 198.19275
255.0 0.00392 198.17033 198.17078
226.0 0.00442 198.14839 198.14880
221.0 0.00452 198.12642 198.12685
206.0 0.00485 198.10445 198.10489
225.0 0.00444 198.08247 198.08290
204.0 0.00490 198.06050 198.06094
204.0 0.00490 198.03854 198.03896
229.0 0.00437 198.01657 198.01698
211.0 0.00474 197.99458 197.99503
195.0 0.00513 197.97261 197.97304
190.0 0.00526 197.95061 197.95105
167.0 0.00599 197.92863 197.92908
196.0 0.00510 197.90665 197.90707
192.0 0.00521 197.88466 197.88512
166.0 0.00602 197.86267 197.86311
186.0 0.00538 197.84068 202.12341
175.0 0.00571 197.81868 202.37733
165.0 0.00606 197.79671 202.65846
167.0 0.00599 197.77469 202.97055
174.0 0.00575 197.75269 203.31795
182.0 0.00549 197.73070 205.82048
186.0 0.00538 197.70869 206.38902
179.0 0.00559 197.68669 207.02449
186.0 0.00538 197.66467 207.73689
210.0 0.00476 197.64268 208.53877
198.0 0.00505 197.62065 209.44553
162.0 0.00617 197.59866 210.47554
182.0 0.00549 197.57661 211.65262
207.0 0.00483 197.55463 213.00948
201.0 0.00498 197.53259 214.59052
190.0 0.00526 197.51059 216.46625
190.0 0.00526 197.48856 218.75288
232.0 0.00431 197.46654 221.64803
196.0 0.00510 197.44453 225.49245
221.0 0.00452 197.42249 230.85936
210.0 0.00476 197.40047 238.65222
244.0 0.00410 197.37845 250.21846
244.0 0.00410 197.35641 267.39374
271.0 0.00369 197.33438 292.43692
295.0 0.003390 197.31236 327.75784
367.0 0.002725 197.29031 383.14755
428.0 0.002336 197.26826 444.90878
561.0 0.001783 197.24622 519.73901
667.0 0.001499 197.22418 604.81836
739.0 0.001353 197.20215 694.39917
868.0 0.001152 197.18010 779.42316
856.0 0.001168 197.15807 852.43604
947.0 0.001056 197.13602 895.33118
1004.0 0.000996 197.11397 907.85016
969.0 0.001032 197.09192 893.83252
948.0 0.001055 197.06987 860.52655
915.0 0.001093 197.04782 813.57520
843.0 0.001186 197.02577 755.81830
715.0 0.001399 197.00369 689.58569
646.0 0.001548 196.98164 619.19226
562.0 0.001779 196.95959 550.31635
465.0 0.002151 196.93750 487.99814
434.0 0.002304 196.91545 435.54733
362.0 0.002762 196.89342 394.66263
358.0 0.002793 196.87135 366.04181
293.0 0.003413 196.84927 350.01520
313.0 0.003195 196.82722 346.95187
316.0 0.003165 196.80516 357.66632
325.0 0.003077 196.78308 383.57422
413.0 0.002421 196.76100 426.54071
463.0 0.002160 196.73892 488.42157
541.0 0.001848 196.71686 570.36298
622.0 0.001608 196.69479 671.73706
703.0 0.001422 196.67273 789.37067
856.0 0.001168 196.65063 916.51007
922.0 0.001085 196.62856 1041.91663
983.0 0.001017 196.60649 1150.17603
1118.0 0.000894 196.58440 1225.20178
1053.0 0.000950 196.56232 1257.25879
1158.0 0.000864 196.54025 1248.03674
1117.0 0.000895 196.51814 1206.98181
1055.0 0.000948 196.49606 1143.47595
960.0 0.001042 196.47398 1062.66846
889.0 0.001125 196.45189 967.20532
760.0 0.001316 196.42982 857.39423
685.0 0.001460 196.40771 749.18170
607.0 0.001647 196.38564 646.01361
516.0 0.001938 196.36353 553.66888
443.0 0.002257 196.34143 475.09735
380.0 0.002632 196.31935 408.83234
348.0 0.002874 196.29726 358.63446
290.0 0.003448 196.27515 320.54263
297.0 0.003367 196.25307 292.46667
269.0 0.00372 196.23094 272.21783
266.0 0.00376 196.20888 257.78391
249.0 0.00402 196.18678 247.47351
215.0 0.00465 196.16466 239.97986
235.0 0.00426 196.14256 234.37437
198.0 0.00505 196.12047 230.02283
180.0 0.00556 196.09834 226.51749
202.0 0.00495 196.07625 223.60437
213.0 0.00469 196.05415 221.12476
190.0 0.00526 196.03203 218.97696
183.0 0.00546 196.00992 217.09604
181.0 0.00552 195.98782 215.43456
181.0 0.00552 195.96570 213.95737
189.0 0.00529 195.94360 212.63763
192.0 0.00521 195.92149 211.45323
174.0 0.00575 195.89938 210.38538
189.0 0.00529 195.87727 201.59227
175.0 0.00571 195.85515 201.17393
153.0 0.00654 195.83302 200.79497
175.0 0.00571 195.81091 200.45047
181.0 0.00552 195.78879 200.13615
164.0 0.00610 195.76666 199.84827
171.0 0.00585 195.74455 195.74500
178.0 0.00562 195.72244 195.72285
135.0 0.00741 195.70032 195.70074
176.0 0.00568 195.67819 195.67862
169.0 0.00592 195.65610 195.65651
165.0 0.00606 195.63397 195.63438
174.0 0.00575 195.61185 195.61229
170.0 0.00588 195.58972 195.59013
158.0 0.00633 195.56760 195.56801
163.0 0.00613 195.54547 195.54590
164.0 0.00610 195.52336 195.52377
168.0 0.00595 195.50124 195.50165
158.0 0.00633 195.47908 195.47954
175.0 0.00571 195.45695 195.45737
157.0 0.00637 195.43483 195.43526
170.0 0.00588 195.41270 195.41312
165.0 0.00606 195.39058 195.39101
173.0 0.00578 195.36844 195.36888
177.0 0.00565 195.34633 195.34674
167.0 0.00599 195.32417 195.32460
164.0 0.00610 195.30206 195.30247
181.0 0.00552 195.27994 195.28033
165.0 0.00606 195.25780 195.25821
171.0 0.00585 195.23566 195.23610
166.0 0.00602 195.21353 195.21396
163.0 0.00613 195.19141 195.19182
157.0 0.00637 195.16927 195.16966
133.0 0.00752 195.14713 195.14754
171.0 0.00585 195.12500 195.12540
167.0 0.00599 195.10284 195.10327
160.0 0.00625 195.08073 195.08115
177.0 0.00565 195.05858 195.05901
153.0 0.00654 195.03644 195.03685
155.0 0.00645 195.01430 195.01472
167.0 0.00599 194.99216 194.99257
179.0 0.00559 194.97005 194.97046
151.0 0.00662 194.94791 194.94832
167.0 0.00599 194.92574 194.92618
147.0 0.00680 194.90361 194.90402
156.0 0.00641 194.88148 194.88191
145.0 0.00690 194.85934 194.85974
168.0 0.00595 194.83722 194.83762
163.0 0.00613 194.81508 194.81548
165.0 0.00606 194.79292 194.79333
164.0 0.00610 194.77078 194.77119
164.0 0.00610 194.74864 194.74904
179.0 0.00559 194.72649 194.72690
173.0 0.00578 194.70436 194.77014
155.0 0.00645 194.68221 194.75214
163.0 0.00613 194.66006 194.73453
150.0 0.00667 194.63792 194.71739
173.0 0.00578 194.61578 194.70078
150.0 0.00667 194.59364 194.68477
138.0 0.00725 194.57149 194.70291
161.0 0.00621 194.54938 194.69048
185.0 0.00541 194.52722 194.67917
160.0 0.00625 194.50508 194.66914
170.0 0.00588 194.48294 194.66061
171.0 0.00585 194.46080 194.65385
157.0 0.00637 194.43863 194.64919
173.0 0.00578 194.41650 194.64709
141.0 0.00709 194.39438 194.64813
141.0 0.00709 194.37219 194.65329
153.0 0.00654 194.35008 194.66400
140.0 0.00714 194.32791 194.68279
162.0 0.00617 194.30577 194.71371
153.0 0.00654 194.28363 194.76344
167.0 0.00599 194.26149 194.84227
161.0 0.00621 194.23935 194.96550
164.0 0.00610 194.21721 195.15346
169.0 0.00592 194.19507 195.43152
164.0 0.00610 194.17293 195.82735
177.0 0.00565 194.15077 196.36629
157.0 0.00637 194.12865 197.06494
190.0 0.00526 194.10651 197.92424
188.0 0.00532 194.08434 198.92035
195.0 0.00513 194.06221 199.99883
175.0 0.00571 194.04005 201.06686
208.0 0.00481 194.01791 201.99466
211.0 0.00474 193.99576 202.64229
212.0 0.00472 193.97363 202.92215
192.0 0.00521 193.95149 202.84612
212.0 0.00472 193.92935 202.50049
195.0 0.00513 193.90721 201.97588
202.0 0.00495 193.88506 201.32224
176.0 0.00568 193.86292 200.55502
181.0 0.00552 193.84077 199.69191
160.0 0.00625 193.81863 198.77882
198.0 0.00505 193.79649 197.88071
154.0 0.00649 193.77435 197.05287
168.0 0.00595 193.75221 196.32901
171.0 0.00585 193.73007 195.72305
171.0 0.00585 193.70796 195.23416
181.0 0.00552 193.68578 194.85199
165.0 0.00606 193.66365 194.56122
157.0 0.00637 193.64151 194.34381
151.0 0.00662 193.61935 194.18213
154.0 0.00649 193.59721 194.06075
165.0 0.00606 193.57510 193.96727
174.0 0.00575 193.55295 193.89259
142.0 0.00704 193.53081 193.83035
160.0 0.00625 193.50867 193.77644
169.0 0.00592 193.48654 193.72826
181.0 0.00552 193.46440 193.68411
157.0 0.00637 193.44228 193.64311
166.0 0.00602 193.42014 193.60452
145.0 0.00690 193.39799 193.56786
165.0 0.00606 193.37587 193.53293
177.0 0.00565 193.35371 193.49936
163.0 0.00613 193.33157 193.46701
170.0 0.00588 193.30945 193.43568
172.0 0.00581 193.28732 193.33804
175.0 0.00571 193.26520 193.31235
173.0 0.00578 193.24304 193.28703
180.0 0.00556 193.22093 193.26204
175.0 0.00571 193.19879 193.23730
174.0 0.00575 193.17665 193.21283
173.0 0.00578 193.15454 193.15492
145.0 0.00690 193.13242 193.13278
174.0 0.00575 193.11028 193.11064
158.0 0.00633 193.08813 193.08853
156.0 0.00641 193.06604 193.06639
162.0 0.00617 193.04390 193.04427
167.0 0.00599 193.02177 193.02217
159.0 0.00629 192.99963 195.08389
147.0 0.00680 192.97751 195.19290
167.0 0.00599 192.95537 195.31462
168.0 0.00595 192.93326 195.45065
169.0 0.00592 192.91113 195.60298
167.0 0.00599 192.88901 195.77386
175.0 0.00571 192.86688 197.02039
172.0 0.00581 192.84477 197.30339
199.0 0.00503 192.82266 197.62099
199.0 0.00503 192.80054 197.97871
192.0 0.00521 192.77841 198.38316
176.0 0.00568 192.75629 198.84227
191.0 0.00524 192.73418 199.36610
196.0 0.00510 192.71208 199.96820
173.0 0.00578 192.68996 200.66646
208.0 0.00481 192.66783 201.48802
187.0 0.00535 192.64571 202.47571
180.0 0.00556 192.62361 203.69949
173.0 0.00578 192.60149 205.27661
201.0 0.00498 192.57936 207.40082
205.0 0.00488 192.55727 210.37485
200.0 0.00500 192.53516 214.65224
201.0 0.00498 192.51306 220.86116
204.0 0.00490 192.49094 229.79329
227.0 0.00441 192.46883 242.34283
251.0 0.00398 192.44673 259.38245
256.0 0.00391 192.42461 281.53006
261.0 0.00383 192.40251 308.94290
305.0 0.003279 192.38040 341.04822
332.0 0.003012 192.35831 376.31177
371.0 0.002695 192.33620 411.98856
384.0 0.002604 192.31410 444.08536
436.0 0.002294 192.29199 468.00446
426.0 0.002347 192.26990 480.31821
410.0 0.002439 192.24779 480.73544
458.0 0.002183 192.22569 471.84369
448.0 0.002232 192.20360 456.92560
400.0 0.002500 192.18152 438.08466
404.0 0.002475 192.15941 415.92639
327.0 0.003058 192.13733 390.59326
338.0 0.002959 192.11522 362.94281
308.0 0.003247 192.09314 334.77307
278.0 0.00360 192.07104 308.03961
266.0 0.00376 192.04895 284.14194
261.0 0.00383 192.02687 263.78848
195.0 0.00513 192.00479 247.18341
220.0 0.00455 191.98271 234.14322
192.0 0.00521 191.96062 224.25394
183.0 0.00546 191.93851 216.97816
198.0 0.00505 191.91644 211.74211
191.0 0.00524 191.89435 208.01198
174.0 0.00575 191.87228 205.34650
178.0 0.00562 191.85019 203.40395
192.0 0.00521 191.82811 201.94197
181.0 0.00552 191.80603 200.79829
162.0 0.00617 191.78397 199.86975
167.0 0.00599 191.76189 199.09200
174.0 0.00575 191.73982 198.42494
175.0 0.00571 191.71774 197.84384
171.0 0.00585 191.69568 197.33182
180.0 0.00556 191.67360 196.87688
192.0 0.00521 191.65154 196.47015
136.0 0.00735 191.62949 196.10464
157.0 0.00637 191.60741 195.77443
156.0 0.00641 191.58533 193.26889
147.0 0.00680 191.56329 193.12668
165.0 0.00606 191.54121 192.99670
164.0 0.00610 191.51917 192.87746
165.0 0.00606 191.49710 192.76753
164.0 0.00610 191.47504 192.66577
170.0 0.00588 191.45299 191.45332
158.0 0.00633 191.43092 191.43127
163.0 0.00613 191.40889 191.40923
164.0 0.00610 191.38684 191.38715
188.0 0.00532 191.36476 191.36511
152.0 0.00658 191.34273 191.34306
168.0 0.00595 191.32068 191.32100
170.0 0.00588 191.29863 191.29895
201.0 0.00498 191.27660 191.27692
170.0 0.00588 191.25455 191.25488
170.0 0.00588 191.23250 191.23285
147.0 0.00680 191.21046 191.21080
175.0 0.00571 191.18840 191.18874
189.0 0.00529 191.16638 191.16672
185.0 0.00541 191.14436 191.14470
188.0 0.00532 191.12230 191.12263
181.0 0.00552 191.10028 191.10060
164.0 0.00610 191.07825 191.07857
161.0 0.00621 191.05621 191.05653
186.0 0.00538 191.03419 191.03450
193.0 0.00518 191.01216 191.01250
192.0 0.00521 190.99013 190.99045
176.0 0.00568 190.96812 190.96841
187.0 0.00535 190.94609 199.93692
148.0 0.00676 190.92407 200.49561
184.0 0.00543 190.90205 201.11172
194.0 0.00515 190.88005 201.79317
171.0 0.00585 190.85800 202.54915
175.0 0.00571 190.83600 203.39027
208.0 0.00481 190.81398 208.80603
221.0 0.00452 190.79198 210.14526
206.0 0.00485 190.76996 211.64371
192.0 0.00521 190.74796 213.32753
223.0 0.00448 190.72597 215.22827
218.0 0.00459 190.70396 217.38562
215.0 0.00465 190.68195 219.84949
251.0 0.00398 190.65996 222.68832
238.0 0.00420 190.63797 226.00365
225.0 0.00444 190.61597 229.94864
249.0 0.00402 190.59396 234.78078
232.0 0.00431 190.57196 240.93500
261.0 0.00383 190.55000 249.13850
289.0 0.003460 190.52800 260.57367
282.0 0.00355 190.50600 277.06934
283.0 0.00353 190.48401 301.22214
351.0 0.002849 190.46204 336.45624
394.0 0.002538 190.44003 386.80255
455.0 0.002198 190.41806 456.32764
528.0 0.001894 190.39609 548.27423
616.0 0.001623 190.37411 664.00226
801.0 0.001248 190.35214 801.59375
924.0 0.001082 190.33017 955.01569
1098.0 0.000911 190.30818 1113.02612
1224.0 0.000817 190.28621 1258.64453
1298.0 0.000770 190.26427 1371.30945
1425.0 0.000702 190.24229 1434.11658
1493.0 0.000670 190.22032 1443.12122
1492.0 0.000670 190.19836 1408.88672
1463.0 0.000684 190.17638 1347.30908
1430.0 0.000699 190.15445 1270.01050
1247.0 0.000802 190.13248 1181.08643
1134.0 0.000882 190.11055 1079.88245
989.0 0.001011 190.08858 966.93689
873.0 0.001145 190.06664 847.78772
768.0 0.001302 190.04468 730.69800
682.0 0.001466 190.02274 622.90900
549.0 0.001821 190.00079 528.95441
489.0 0.002045 189.97885 450.77661
398.0 0.002513 189.95692 388.38992
351.0 0.002849 189.93498 340.56522
295.0 0.003390 189.91304 305.16348
286.0 0.003497 189.89113 279.68942
279.0 0.00358 189.86920 261.69128
255.0 0.00392 189.84724 249.01031
260.0 0.00385 189.82532 239.96307
252.0 0.00397 189.80339 233.31616
221.0 0.00452 189.78146 228.23825
246.0 0.00407 189.75954 224.19730
225.0 0.00444 189.73764 220.86620
228.0 0.00439 189.71570 218.04199
222.0 0.00450 189.69380 215.60551
212.0 0.00472 189.67188 213.47522
198.0 0.00505 189.64998 211.59601
204.0 0.00490 189.62808 209.92732
205.0 0.00488 189.60617 210.21880
188.0 0.00532 189.58427 208.99483
221.0 0.00452 189.56235 207.91499
231.0 0.00433 189.54047 198.33316
189.0 0.00529 189.51857 197.99492
202.0 0.00495 189.49667 197.71951
181.0 0.00552 189.47481 197.50322
180.0 0.00556 189.45288 198.27637
204.0 0.00490 189.43098 198.23235
199.0 0.00503 189.40912 193.80919
207.0 0.00483 189.38724 194.14996
204.0 0.00490 189.36537 194.53734
198.0 0.00505 189.34348 194.97990
192.0 0.00521 189.32161 195.48895
214.0 0.00467 189.29971 196.08022
199.0 0.00503 189.27786 196.77644
225.0 0.00444 189.25600 197.61449
228.0 0.00439 189.23412 198.65495
190.0 0.00526 189.21227 199.99983
196.0 0.00510 189.19041 201.81708
229.0 0.00437 189.16855 204.37721
222.0 0.00450 189.14668 208.07755
208.0 0.00481 189.12482 213.47586
221.0 0.00452 189.10300 221.27675
233.0 0.00429 189.08113 232.27385
247.0 0.00405 189.05928 247.22536
265.0 0.00377 189.03745 266.67465
307.0 0.003257 189.01559 290.70578
336.0 0.002976 188.99376 318.75537
318.0 0.003145 188.97191 349.38629
419.0 0.002387 188.95009 380.10822
419.0 0.002387 188.92827 407.34641
409.0 0.002445 188.90642 427.10327
439.0 0.002278 188.88458 436.53714
465.0 0.002151 188.86276 435.72369
449.0 0.002227 188.84096 427.27908
431.0 0.002320 188.81914 414.35559
380.0 0.002632 188.79733 398.97406
396.0 0.002525 188.77551 381.63495
378.0 0.002646 188.75369 362.00412
323.0 0.003096 188.73186 340.13721
351.0 0.002849 188.71008 317.07938
278.0 0.00360 188.68826 294.42746
295.0 0.003390 188.66649 273.56628
250.0 0.00400 188.64467 255.35764
233.0 0.00429 188.62286 240.15662
198.0 0.00505 188.60107 228.00148
187.0 0.00535 188.57930 218.64351
184.0 0.00543 188.55751 211.68222
172.0 0.00581 188.53572 206.64359
181.0 0.00552 188.51395 203.05743
171.0 0.00585 188.49216 200.51108
175.0 0.00571 188.47040 198.67911
204.0 0.00490 188.44861 197.32210
162.0 0.00617 188.42685 196.27759
159.0 0.00629 188.40508 195.44090
179.0 0.00559 188.38332 194.74713
192.0 0.00521 188.36154 194.15578
157.0 0.00637 188.33978 193.64288
176.0 0.00568 188.31801 193.19199
187.0 0.00535 188.29626 192.79201
172.0 0.00581 188.27451 192.43472
168.0 0.00595 188.25276 192.11374
166.0 0.00602 188.23100 191.82394
178.0 0.00562 188.20929 189.68645
153.0 0.00654 188.18755 189.55779
171.0 0.00585 188.16580 189.44025
181.0 0.00552 188.14407 189.33231
189.0 0.00529 188.12234 189.23276
196.0 0.00510 188.10062 189.14056
167.0 0.00599 188.07887 189.05475
161.0 0.00621 188.05714 188.05734
169.0 0.00592 188.03542 188.03563
165.0 0.00606 188.01373 188.01392
160.0 0.00625 187.99199 187.99219
158.0 0.00633 187.97029 187.97049
158.0 0.00633 187.94858 187.94878
153.0 0.00654 187.92688 187.92705
187.0 0.00535 187.90517 187.90535
175.0 0.00571 187.88348 187.88368
176.0 0.00568 187.86177 187.86197
181.0 0.00552 187.84009 187.84029
171.0 0.00585 187.81839 187.81859
154.0 0.00649 187.79672 187.79688
165.0 0.00606 187.77504 187.77519
154.0 0.00649 187.75336 187.75351
155.0 0.00645 187.73167 187.73184
151.0 0.00662 187.70996 187.71016
179.0 0.00559 187.68832 187.68851
162.0 0.00617 187.66663 187.66682
180.0 0.00556 187.64497 187.64514
147.0 0.00680 187.62331 187.62349
170.0 0.00588 187.60164 187.60184
172.0 0.00581 187.58000 187.58017
173.0 0.00578 187.55835 187.55852
159.0 0.00629 187.53668 187.53687
183.0 0.00546 187.51503 187.51520
165.0 0.00606 187.49339 187.49356
153.0 0.00654 187.47177 187.47192
156.0 0.00641 187.45012 187.45029
152.0 0.00658 187.42850 187.42865
185.0 0.00541 187.40685 187.40701
164.0 0.00610 187.38524 187.38538
180.0 0.00556 187.36359 187.36375
194.0 0.00515 187.34196 187.34213
199.0 0.00503 187.32036 187.32051
158.0 0.00633 187.29875 187.29892
149.0 0.00671 187.27711 187.27730
198.0 0.00505 187.25551 187.25568
176.0 0.00568 187.23392 187.23405
194.0 0.00515 187.21231 187.21248
193.0 0.00518 187.19070 187.19086
193.0 0.00518 187.16911 187.16927
234.0 0.00427 187.14752 187.14769
181.0 0.00552 187.12595 187.12608
175.0 0.00571 187.10434 187.10448
209.0 0.00478 187.08278 187.08292
201.0 0.00498 187.06119 187.06133
187.0 0.00535 187.03963 187.03975
180.0 0.00556 187.01804 187.01819
206.0 0.00485 186.99646 186.99658
234.0 0.00427 186.97488 186.97502
229.0 0.00437 186.95334 186.95346
235.0 0.00426 186.93176 186.93192
249.0 0.00402 186.91023 186.91035
251.0 0.00398 186.88869 186.88882
247.0 0.00405 186.86711 186.86725
255.0 0.00392 186.84558 186.84570
243.0 0.00412 186.82404 186.82414
276.0 0.00362 186.80249 186.80261
264.0 0.00379 186.78098 186.78108
255.0 0.00392 186.75943 186.75955
252.0 0.00397 186.73790 186.73804
272.0 0.00368 186.71635 186.71649
256.0 0.00391 186.69485 186.69496
229.0 0.00437 186.67332 186.67345
237.0 0.00422 186.65181 186.65193
213.0 0.00469 186.63031 186.63042
215.0 0.00465 186.60881 186.60890
180.0 0.00556 186.58730 186.58740
181.0 0.00552 186.56580 186.56589
201.0 0.00498 186.54431 186.54440
193.0 0.00518 186.52280 186.52292
184.0 0.00543 186.50133 186.50143
164.0 0.00610 186.47983 186.47995
187.0 0.00535 186.45834 186.45847
181.0 0.00552 186.43687 186.43697
192.0 0.00521 186.41539 186.41550
150.0 0.00667 186.39392 186.39403
171.0 0.00585 186.37247 186.37256
152.0 0.00658 186.35100 186.35109
174.0 0.00575 186.32953 186.32962
184.0 0.00543 186.30806 186.30814
159.0 0.00629 186.28661 186.28670
178.0 0.00562 186.26517 186.26526
168.0 0.00595 186.24370 186.24380
166.0 0.00602 186.22227 186.22237
173.0 0.00578 186.20082 186.20093
171.0 0.00585 186.17938 186.17949
163.0 0.00613 186.15796 186.15805
173.0 0.00578 186.13654 186.13663
175.0 0.00571 186.11513 186.11520
183.0 0.00546 186.09372 186.09378
159.0 0.00629 186.07228 186.07237
172.0 0.00581 186.05087 186.05095
162.0 0.00617 186.02946 186.02953
182.0 0.00549 186.00806 186.00815
191.0 0.00524 185.98665 185.98674
175.0 0.00571 185.96526 185.96533
175.0 0.00571 185.94386 185.94395
158.0 0.00633 185.92249 185.92255
165.0 0.00606 185.90108 185.90115
153.0 0.00654 185.87970 185.87976
198.0 0.00505 185.85832 185.85838
195.0 0.00513 185.83694 185.83702
175.0 0.00571 185.81558 185.81566
181.0 0.00552 185.79422 185.79428
168.0 0.00595 185.77286 185.77290
172.0 0.00581 185.75148 185.75156
186.0 0.00538 185.73013 191.63174
189.0 0.00529 185.70877 191.99080
215.0 0.00465 185.68745 192.38733
175.0 0.00571 185.66609 192.82693
188.0 0.00532 185.64473 193.31491
204.0 0.00490 185.62340 193.85854
202.0 0.00495 185.60207 194.46606
210.0 0.00476 185.58075 198.14458
215.0 0.00465 185.55943 199.10506
227.0 0.00441 185.53810 200.18474
198.0 0.00505 185.51678 213.03108
232.0 0.00431 185.49548 214.97134
206.0 0.00485 185.47418 217.15027
208.0 0.00481 185.45288 219.61720
209.0 0.00478 185.43159 222.44308
194.0 0.00515 185.41028 225.73555
218.0 0.00459 185.38899 229.67386
204.0 0.00490 185.36771 240.42339
206.0 0.00485 185.34642 246.96429
245.0 0.00408 185.32513 255.64940
236.0 0.00424 185.30386 267.56491
267.0 0.00375 185.28261 284.21597
277.0 0.00361 185.26132 307.52347
323.0 0.003096 185.24005 339.65277
318.0 0.003145 185.21880 382.74335
402.0 0.002488 185.19754 438.40771
453.0 0.002208 185.17628 507.15671
519.0 0.001927 185.15503 587.77509
618.0 0.001618 185.13380 676.90265
721.0 0.001387 185.11256 768.12921
745.0 0.001342 185.09132 852.12805
835.0 0.001198 185.07010 917.57971
883.0 0.001133 185.04887 955.31818
914.0 0.001094 185.02766 963.66583
945.0 0.001058 185.00642 949.34698
869.0 0.001151 184.98520 922.51904
814.0 0.001229 184.96402 891.29541
838.0 0.001193 184.94281 859.38934
786.0 0.001272 184.92160 826.84918
728.0 0.001374 184.90041 792.99896
715.0 0.001399 184.87923 760.08527
664.0 0.001506 184.85802 734.55292
688.0 0.001453 184.83684 725.48480
646.0 0.001548 184.81564 742.28967
773.0 0.001294 184.79449 793.59076
897.0 0.001115 184.77332 886.41132
1018.0 0.000982 184.75215 1025.10205
1286.0 0.000778 184.73099 1210.02417
1592.0 0.000628 184.70984 1435.85950
1805.0 0.000554 184.68867 1690.45056
2030.0 0.000493 184.66753 1953.01843
2203.0 0.000454 184.64639 2193.44409
2452.0 0.000408 184.62526 2376.03979
2440.0 0.000410 184.60408 2472.51465
2520.0 0.000397 184.58296 2477.35059
2597.0 0.000385 184.56183 2410.59497
2519.0 0.000397 184.54071 2302.31226
2399.0 0.000417 184.51958 2175.85156
2220.0 0.000450 184.49849 2040.53564
1912.0 0.000523 184.47737 1893.36682
1763.0 0.000567 184.45625 1727.28223
1554.0 0.000644 184.43517 1541.62146
1327.0 0.000754 184.41408 1345.36389
1208.0 0.000828 184.39297 1151.99756
1053.0 0.000950 184.37189 967.32214
860.0 0.001163 184.35081 810.15564
775.0 0.001290 184.32971 677.48450
599.0 0.001669 184.30865 569.83887
532.0 0.001880 184.28758 485.44171
483.0 0.002070 184.26651 421.28464
440.0 0.002273 184.24545 373.70117
380.0 0.002632 184.22440 336.08597
342.0 0.002924 184.20334 310.95953
306.0 0.003268 184.18228 292.52579
318.0 0.003145 184.16124 278.68716
309.0 0.003236 184.14021 267.96582
290.0 0.003448 184.11919 259.37054
255.0 0.00392 184.09816 252.26326
249.0 0.00402 184.07710 246.23077
232.0 0.00431 184.05611 241.02322
221.0 0.00452 184.03510 236.46638
224.0 0.00446 184.01407 232.44234
233.0 0.00429 183.99307 228.86473
244.0 0.00410 183.97208 225.66699
230.0 0.00435 183.95108 222.79594
249.0 0.00402 183.93007 220.20715
217.0 0.00461 183.90909 217.86584
231.0 0.00433 183.88811 215.74048
228.0 0.00439 183.86711 213.80511
266.0 0.00376 183.84615 212.03749
242.0 0.00413 183.82520 210.41902
247.0 0.00405 183.80421 208.93152
214.0 0.00467 183.78326 207.56302
236.0 0.00424 183.76230 206.30022
246.0 0.00407 183.74135 205.13229
230.0 0.00435 183.72040 192.24884
204.0 0.00490 183.69946 191.77420
202.0 0.00495 183.67851 191.33449
223.0 0.00448 183.65759 190.92645
216.0 0.00463 183.63667 190.54691
214.0 0.00467 183.61575 190.19313
190.0 0.00526 183.59482 189.86269
203.0 0.00493 183.57394 183.57384
207.0 0.00483 183.55299 194.65520
199.0 0.00503 183.53209 195.33736
205.0 0.00488 183.51120 196.08780
212.0 0.00472 183.49030 196.91560
209.0 0.00478 183.46941 197.83133
198.0 0.00505 183.44853 198.84738
211.0 0.00474 183.42766 199.97845
215.0 0.00465 183.40677 201.24232
213.0 0.00469 183.38593 208.54346
199.0 0.00503 183.36505 210.51991
198.0 0.00505 183.34418 212.74318
221.0 0.00452 183.32333 215.25630
198.0 0.00505 183.30249 218.11293
244.0 0.00410 183.28163 221.38887
228.0 0.00439 183.26077 225.18095
260.0 0.00385 183.23994 229.64336
234.0 0.00427 183.21912 235.01987
270.0 0.00370 183.19829 241.71442
248.0 0.00403 183.17747 250.40012
263.0 0.00380 183.15665 262.17737
274.0 0.00365 183.13585 278.74750
295.0 0.003390 183.11505 302.61328
331.0 0.003021 183.09424 337.15802
368.0 0.002717 183.07344 386.53848
437.0 0.002288 183.05266 455.23587
522.0 0.001916 183.03188 547.40491
632.0 0.001582 183.01108 665.40936
815.0 0.001227 182.99031 808.95111
1005.0 0.000995 182.96953 973.62762
1157.0 0.000864 182.94878 1149.85254
1340.0 0.000746 182.92801 1321.90100
1430.0 0.000699 182.90724 1468.21216
1461.0 0.000684 182.88649 1566.09973
1566.0 0.000639 182.86574 1602.23303
1532.0 0.000653 182.84500 1581.38391
1551.0 0.000645 182.82426 1522.32117
1434.0 0.000697 182.80354 1445.49182
1330.0 0.000752 182.78281 1363.99133
1203.0 0.000831 182.76208 1280.93298
1045.0 0.000957 182.74136 1192.02002
985.0 0.001015 182.72067 1091.24927
924.0 0.001082 182.69997 977.91571
798.0 0.001253 182.67928 858.03290
685.0 0.001460 182.65857 740.19336
578.0 0.001730 182.63788 631.50104
512.0 0.001953 182.61720 536.46460
399.0 0.002506 182.59651 457.10257
350.0 0.002857 182.57582 393.60025
272.0 0.00368 182.55518 344.75040
266.0 0.00376 182.53448 308.44952
257.0 0.00389 182.51384 282.14713
245.0 0.00408 182.49319 263.39825
244.0 0.00410 182.47253 250.02464
216.0 0.00463 182.45187 240.32933
232.0 0.00431 182.43124 233.08498
202.0 0.00495 182.41063 227.46190
226.0 0.00442 182.39001 222.92763
226.0 0.00442 182.36938 219.15038
208.0 0.00481 182.34875 215.92853
209.0 0.00478 182.32816 213.13277
218.0 0.00459 182.30756 210.67850
178.0 0.00562 182.28694 208.50639
168.0 0.00595 182.26634 206.57268
182.0 0.00549 182.24574 204.84050
199.0 0.00503 182.22514 191.81834
169.0 0.00592 182.20457 191.08774
179.0 0.00559 182.18399 190.43224
188.0 0.00532 182.16342 189.84172
182.0 0.00549 182.14287 189.30777
191.0 0.00524 182.12230 188.82300
196.0 0.00510 182.10175 188.38165
198.0 0.00505 182.08121 193.85147
209.0 0.00478 182.06065 188.21857
181.0 0.00552 182.04012 188.50429
206.0 0.00485 182.01961 188.81317
172.0 0.00581 181.99905 189.14807
211.0 0.00474 181.97853 189.51118
187.0 0.00535 181.95801 189.90584
200.0 0.00500 181.93750 193.24289
181.0 0.00552 181.91698 193.85110
190.0 0.00526 181.89648 194.51320
188.0 0.00532 181.87601 195.23550
183.0 0.00546 181.85548 196.02554
194.0 0.00515 181.83501 196.89127
192.0 0.00521 181.81454 197.84262
200.0 0.00500 181.79408 198.89095
200.0 0.00500 181.77362 200.04955
177.0 0.00565 181.75314 201.33366
187.0 0.00535 181.73268 202.76338
184.0 0.00543 181.71222 204.35873
208.0 0.00481 181.69179 206.14700
198.0 0.00505 181.67136 208.16037
200.0 0.00500 181.65092 210.43910
179.0 0.00559 181.63049 213.03485
188.0 0.00532 181.61005 216.01865
202.0 0.00495 181.58963 219.48950
229.0 0.00437 181.56923 223.60260
231.0 0.00433 181.54881 228.60500
209.0 0.00478 181.52841 234.90024
254.0 0.00394 181.50801 243.13896
227.0 0.00441 181.48761 254.35852
273.0 0.00366 181.46724 270.07413
243.0 0.00412 181.44687 292.42874
293.0 0.003413 181.42647 324.17502
360.0 0.002778 181.40613 368.51483
396.0 0.002525 181.38576 428.69705
476.0 0.002101 181.36540 507.36887
575.0 0.001739 181.34505 605.77948
723.0 0.001383 181.32472 722.76849
902.0 0.001109 181.30434 854.06732
1027.0 0.000974 181.28403 991.31763
1106.0 0.000904 181.26372 1121.38916
1208.0 0.000828 181.24339 1227.07532
1271.0 0.000787 181.22305 1291.96167
1308.0 0.000765 181.20274 1308.62488
1340.0 0.000746 181.18243 1283.84192
1344.0 0.000744 181.16214 1233.33557
1267.0 0.000789 181.14185 1172.38599
1150.0 0.000870 181.12157 1109.94910
1066.0 0.000938 181.10127 1047.42139
1018.0 0.000982 181.08099 980.66046
932.0 0.001073 181.06070 904.54846
822.0 0.001217 181.04045 818.19177
800.0 0.001250 181.02019 726.03821
674.0 0.001484 180.99994 634.74829
572.0 0.001748 180.97968 549.83679
511.0 0.001957 180.95944 474.97955
432.0 0.002315 180.93919 411.82349
347.0 0.002882 180.91896 360.65244
317.0 0.003155 180.89873 320.70367
293.0 0.003413 180.87852 290.51550
258.0 0.00388 180.85831 268.27808
250.0 0.00400 180.83810 252.14366
228.0 0.00439 180.81790 240.47171
214.0 0.00467 180.79770 231.92143
182.0 0.00549 180.77751 225.49713
217.0 0.00461 180.75732 220.50475
209.0 0.00478 180.73715 216.48647
202.0 0.00495 180.71696 213.14557
186.0 0.00538 180.69681 210.30322
212.0 0.00472 180.67664 207.84032
189.0 0.00529 180.65649 205.67981
186.0 0.00538 180.63634 203.76797
182.0 0.00549 180.61621 202.06517
173.0 0.00578 180.59605 200.54021
166.0 0.00602 180.57590 199.16927
191.0 0.00524 180.55579 197.93149
192.0 0.00521 180.53568 196.80988
177.0 0.00565 180.51555 195.79007
177.0 0.00565 180.49544 194.86012
168.0 0.00595 180.47533 194.00861
181.0 0.00552 180.45523 193.22789
189.0 0.00529 180.43513 192.50970
180.0 0.00556 180.41508 191.84734
165.0 0.00606 180.39499 191.23505
164.0 0.00610 180.37492 190.66771
175.0 0.00571 180.35486 184.51038
204.0 0.00490 180.33476 184.26990
154.0 0.00649 180.31471 184.04648
160.0 0.00625 180.29466 183.83835
174.0 0.00575 180.27461 183.64398
184.0 0.00543 180.25461 183.46211
170.0 0.00588 180.23459 183.29161
166.0 0.00602 180.21452 180.21414
175.0 0.00571 180.19452 180.90082
174.0 0.00575 180.17451 180.91454
184.0 0.00543 180.15451 180.93071
175.0 0.00571 180.13449 180.94957
197.0 0.00508 180.11452 180.97145
177.0 0.00565 180.09453 180.99660
173.0 0.00578 180.07454 181.02538
155.0 0.00645 180.05457 181.05820
176.0 0.00568 180.03459 181.45729
195.0 0.00513 180.01463 181.51701
163.0 0.00613 179.99467 181.58354
165.0 0.00606 179.97472 181.65784
170.0 0.00588 179.95476 181.74074
170.0 0.00588 179.93483 181.83336
170.0 0.00588 179.91490 181.93692
159.0 0.00629 179.89496 182.05293
199.0 0.00503 179.87503 182.18307
157.0 0.00637 179.85512 182.32938
194.0 0.00515 179.83522 182.49432
164.0 0.00610 179.81531 182.68065
168.0 0.00595 179.79544 182.89185
150.0 0.00667 179.77553 183.13217
172.0 0.00581 179.75566 183.40694
172.0 0.00581 179.73578 183.72304
157.0 0.00637 179.71591 184.09052
175.0 0.00571 179.69603 184.52306
184.0 0.00543 179.67616 185.04289
165.0 0.00606 179.65633 185.68536
161.0 0.00621 179.63646 186.50795
153.0 0.00654 179.61661 187.60199
188.0 0.00532 179.59677 189.10835
172.0 0.00581 179.57697 191.22968
170.0 0.00588 179.55714 194.24173
192.0 0.00521 179.53732 198.48619
198.0 0.00505 179.51752 204.34277
213.0 0.00469 179.49773 212.17046
215.0 0.00465 179.47791 222.24109
216.0 0.00463 179.45815 234.60258
252.0 0.00397 179.43834 249.02002
209.0 0.00478 179.41856 264.85095
272.0 0.00368 179.39880 280.94693
271.0 0.00369 179.37904 295.59396
287.0 0.003484 179.35925 306.70404
268.0 0.00373 179.33951 312.54291
276.0 0.00362 179.31975 321.06256
289.0 0.003460 179.30002 317.22528
310.0 0.003226 179.28029 310.99713
311.0 0.003215 179.26056 304.09009
300.0 0.003333 179.24084 297.39630
275.0 0.00364 179.22113 290.92099
278.0 0.00360 179.20142 284.06189
287.0 0.003484 179.18172 276.13312
306.0 0.003268 179.16203 271.22586
312.0 0.003205 179.14235 261.56619
288.0 0.003472 179.12267 251.99440
295.0 0.003390 179.10298 243.19139
262.0 0.00382 179.08331 235.60870
255.0 0.00392 179.06366 229.47453
230.0 0.00435 179.04399 224.85440
280.0 0.00357 179.02435 221.69116
249.0 0.00402 179.00470 219.84613
206.0 0.00485 178.98505 219.13843
222.0 0.00450 178.96541 219.38699
207.0 0.00483 178.94580 220.43414
226.0 0.00442 178.92618 222.16534
225.0 0.00444 178.90657 224.51483
213.0 0.00469 178.88696 227.46645
218.0 0.00459 178.86737 231.05363
244.0 0.00410 178.84778 235.36783
229.0 0.00437 178.82820 240.57246
243.0 0.00412 178.80862 246.95329
251.0 0.00398 178.78903 254.98907
237.0 0.00422 178.76949 265.47238
267.0 0.00375 178.74994 279.67087
277.0 0.00361 178.73036 299.55557
308.0 0.003247 178.71080 327.90909
329.0 0.003040 178.69127 368.48706
368.0 0.002717 178.67175 425.83441
474.0 0.002110 178.65221 504.82639
612.0 0.001634 178.63271 609.81738
709.0 0.001410 178.61319 743.50952
964.0 0.001037 178.59369 905.45331
1186.0 0.000843 178.57417 1090.96558
1411.0 0.000709 178.55469 1289.71667
1461.0 0.000684 178.53520 1484.59802
1693.0 0.000591 178.51573 1650.98816
1736.0 0.000576 178.49625 1764.52905
1777.0 0.000563 178.47678 1807.63416
1804.0 0.000554 178.45734 1783.92041
1763.0 0.000567 178.43788 1714.63367
1698.0 0.000589 178.41844 1625.26453
1616.0 0.000619 178.39897 1534.27991
1435.0 0.000697 178.37955 1449.06641
1286.0 0.000778 178.36011 1366.11804
1214.0 0.000824 178.34070 1276.67749
1103.0 0.000907 178.32127 1172.01660
987.0 0.001013 178.30190 1051.80225
902.0 0.001109 178.28249 923.44281
797.0 0.001255 178.26309 796.68445
687.0 0.001456 178.24370 679.21320
571.0 0.001751 178.22433 576.09735
512.0 0.001953 178.20496 489.59061
436.0 0.002294 178.18558 419.99814
341.0 0.002933 178.16624 366.10822
374.0 0.002674 178.14688 325.72070
311.0 0.003215 178.12755 296.17969
327.0 0.003058 178.10818 274.86890
312.0 0.003205 178.08887 259.47656
295.0 0.003390 178.06952 248.18051
300.0 0.003333 178.05022 239.64970
289.0 0.003460 178.03091 232.97527
274.0 0.00365 178.01160 227.55791
275.0 0.00364 177.99229 223.03224
254.0 0.00394 177.97302 219.16107
249.0 0.00402 177.95372 215.79541
240.0 0.00417 177.93445 212.83611
254.0 0.00394 177.91519 210.21321
261.0 0.00383 177.89592 207.87428
236.0 0.00424 177.87668 205.77773
242.0 0.00413 177.85742 203.89145
206.0 0.00485 177.83817 202.18736
228.0 0.00439 177.81894 200.64233
248.0 0.00403 177.79971 199.23695
220.0 0.00455 177.78050 197.95497
216.0 0.00463 177.76125 196.78081
220.0 0.00455 177.74203 195.70401
215.0 0.00465 177.72284 194.71336
215.0 0.00465 177.70366 193.79973
194.0 0.00515 177.68448 192.95515
206.0 0.00485 177.66528 183.91879
214.0 0.00467 177.64610 183.56125
224.0 0.00446 177.62694 183.23036
197.0 0.00508 177.60780 182.92336
216.0 0.00463 177.58864 182.63783
209.0 0.00478 177.56949 182.37175
176.0 0.00568 177.55037 182.12332
219.0 0.00457 177.53122 181.89064
195.0 0.00513 177.51207 177.51140
194.0 0.00515 177.49300 177.49229
180.0 0.00556 177.47386 177.47318
190.0 0.00526 177.45476 177.45407
190.0 0.00526 177.43565 177.43495
178.0 0.00562 177.41656 177.41586
194.0 0.00515 177.39748 177.39679
180.0 0.00556 177.37840 177.37770
182.0 0.00549 177.35934 177.35863
173.0 0.00578 177.34029 177.33957
179.0 0.00559 177.32123 177.32053
183.0 0.00546 177.30219 177.30148
189.0 0.00529 177.28313 177.28241
175.0 0.00571 177.26410 177.26338
204.0 0.00490 177.24509 177.24435
182.0 0.00549 177.22606 177.22534
191.0 0.00524 177.20705 177.20633
164.0 0.00610 177.18806 177.18729
184.0 0.00543 177.16904 177.16829
188.0 0.00532 177.15005 177.14932
177.0 0.00565 177.13107 177.13033
175.0 0.00571 177.11208 177.11134
198.0 0.00505 177.09312 177.09238
197.0 0.00508 177.07416 177.07343
203.0 0.00493 177.05521 177.05446
190.0 0.00526 177.03625 177.03549
199.0 0.00503 177.01732 177.01656
195.0 0.00513 176.99838 176.99763
206.0 0.00485 176.97945 176.97870
172.0 0.00581 176.96054 176.95976
183.0 0.00546 176.94164 176.94086
198.0 0.00505 176.92271 176.92192
210.0 0.00476 176.90381 176.90306
191.0 0.00524 176.88492 176.88416
200.0 0.00500 176.86604 176.86526
178.0 0.00562 176.84717 176.84639
164.0 0.00610 176.82831 176.82753
170.0 0.00588 176.80943 176.80865
179.0 0.00559 176.79057 176.78981
179.0 0.00559 176.77173 176.77095
182.0 0.00549 176.75288 176.75212
165.0 0.00606 176.73407 176.73325
183.0 0.00546 176.71523 176.71443
192.0 0.00521 176.69641 176.69562
193.0 0.00518 176.67760 176.67682
170.0 0.00588 176.65880 176.65800
162.0 0.00617 176.64000 176.63921
167.0 0.00599 176.62123 176.62041
152.0 0.00658 176.60242 176.60162
190.0 0.00526 176.58363 176.58286
167.0 0.00599 176.56487 176.56406
150.0 0.00667 176.54611 176.54532
158.0 0.00633 176.52736 176.52657
147.0 0.00680 176.50862 176.50783
185.0 0.00541 176.48990 176.48906
179.0 0.00559 176.47118 176.47034
153.0 0.00654 176.45244 176.45160
168.0 0.00595 176.43372 176.43289
180.0 0.00556 176.41502 176.41418
170.0 0.00588 176.39632 176.39549
175.0 0.00571 176.37762 176.37677
155.0 0.00645 176.35893 176.35811
158.0 0.00633 176.34024 176.33940
137.0 0.00730 176.32156 176.32072
175.0 0.00571 176.30290 176.30206
178.0 0.00562 176.28427 176.28339
195.0 0.00513 176.26561 176.26474
162.0 0.00617 176.24695 176.24611
181.0 0.00552 176.22832 176.22746
181.0 0.00552 176.20969 176.20885
172.0 0.00581 176.19106 176.19022
146.0 0.00685 176.17245 176.17160
174.0 0.00575 176.15385 176.15302
185.0 0.00541 176.13527 176.13441
170.0 0.00588 176.11665 176.11580
180.0 0.00556 176.09808 176.09721
184.0 0.00543 176.07951 176.07863
188.0 0.00532 176.06094 176.06007
168.0 0.00595 176.04237 176.04152
175.0 0.00571 176.02383 176.02295
165.0 0.00606 176.00529 176.00441
167.0 0.00599 175.98672 175.98587
178.0 0.00562 175.96823 175.96733
160.0 0.00625 175.94968 175.94882
160.0 0.00625 175.93115 175.93028
159.0 0.00629 175.91266 175.91177
157.0 0.00637 175.89417 175.89328
185.0 0.00541 175.87567 175.87477
173.0 0.00578 175.85719 175.85629
176.0 0.00568 175.83871 175.83781
180.0 0.00556 175.82024 175.81934
164.0 0.00610 175.80179 175.80121
153.0 0.00654 175.78333 175.78276
175.0 0.00571 175.76488 175.76433
165.0 0.00606 175.74643 175.74590
166.0 0.00602 175.72801 175.72748
162.0 0.00617 175.70959 175.70911
136.0 0.00735 175.69116 175.69067
164.0 0.00610 175.67276 175.67232
175.0 0.00571 175.65434 175.65408
153.0 0.00654 175.63594 175.63573
169.0 0.00592 175.61754 175.61739
166.0 0.00602 175.59918 175.59906
163.0 0.00613 175.58081 175.58072
156.0 0.00641 175.56245 175.56241
159.0 0.00629 175.54410 175.54411
158.0 0.00633 175.52574 175.52582
154.0 0.00649 175.50742 175.50754
159.0 0.00629 175.48909 175.48927
153.0 0.00654 175.47075 175.47105
180.0 0.00556 175.45244 175.45280
169.0 0.00592 175.43411 175.43463
164.0 0.00610 175.41583 175.41644
184.0 0.00543 175.39752 175.39827
160.0 0.00625 175.37923 175.38014
188.0 0.00532 175.36093 175.36205
186.0 0.00538 175.34268 175.34399
169.0 0.00592 175.32442 175.32600
186.0 0.00538 175.30617 175.30807
187.0 0.00535 175.28790 175.29024
184.0 0.00543 175.26967 175.27257
171.0 0.00585 175.25143 175.25511
181.0 0.00552 175.23322 175.23798
167.0 0.00599 175.21500 175.22122
174.0 0.00575 175.19678 175.20500
166.0 0.00602 175.17859 175.18947
154.0 0.00649 175.16037 175.17473
164.0 0.00610 175.14220 175.16083
156.0 0.00641 175.12401 175.14772
156.0 0.00641 175.10585 175.13525
172.0 0.00581 175.08771 175.12314
170.0 0.00588 175.06953 175.11086
168.0 0.00595 175.05136 175.09773
167.0 0.00599 175.03323 175.08304
173.0 0.00578 175.01511 175.06621
167.0 0.00599 174.99698 175.04735
164.0 0.00610 174.97885 175.02710
177.0 0.00565 174.96077 175.00620
165.0 0.00606 174.94267 174.98529
163.0 0.00613 174.92456 174.96466
161.0 0.00621 174.90648 174.94424
160.0 0.00625 174.88841 174.92383
153.0 0.00654 174.87033 174.90308
158.0 0.00633 174.85228 174.88174
154.0 0.00649 174.83423 174.86000
138.0 0.00725 174.81618 174.83806
152.0 0.00658 174.79813 174.81625
175.0 0.00571 174.78011 174.79475
162.0 0.00617 174.76210 174.77368
140.0 0.00714 174.74405 174.75313
137.0 0.00730 174.72607 174.73303
148.0 0.00676 174.70805 177.64542
158.0 0.00633 174.69006 177.76830
158.0 0.00633 174.67209 177.90207
153.0 0.00654 174.65411 178.04762
173.0 0.00578 174.63615 178.20622
150.0 0.00667 174.61819 178.37909
160.0 0.00625 174.60023 178.56770
158.0 0.00633 174.58231 178.77385
189.0 0.00529 174.56436 180.44061
153.0 0.00654 174.54643 180.75676
165.0 0.00606 174.52852 181.10219
164.0 0.00610 174.51060 181.48090
173.0 0.00578 174.49271 181.89638
170.0 0.00588 174.47481 182.35361
197.0 0.00508 174.45691 182.85811
169.0 0.00592 174.43904 183.41628
156.0 0.00641 174.42117 184.03578
183.0 0.00546 174.40329 184.72575
172.0 0.00581 174.38545 185.49651
196.0 0.00510 174.36760 186.36108
174.0 0.00575 174.34976 187.33511
175.0 0.00571 174.33192 188.43817
208.0 0.00481 174.31412 189.69504
187.0 0.00535 174.29628 191.14151
211.0 0.00474 174.27849 192.82480
204.0 0.00490 174.26070 194.82072
178.0 0.00562 174.24292 197.25037
193.0 0.00518 174.22513 200.30931
209.0 0.00478 174.20734 204.31345
219.0 0.00457 174.18959 209.75580
223.0 0.00448 174.17181 217.37083
224.0 0.00446 174.15407 228.17165
258.0 0.00388 174.13631 243.46338
268.0 0.00373 174.11859 264.75235
284.0 0.00352 174.10088 293.55453
349.0 0.002865 174.08316 331.07083
377.0 0.002653 174.06543 377.86908
453.0 0.002208 174.04773 433.27841
527.0 0.001898 174.03004 495.18143
564.0 0.001773 174.01236 559.49268
618.0 0.001618 173.99466 619.85529
709.0 0.001410 173.97704 667.98053
677.0 0.001477 173.95935 695.88947
713.0 0.001403 173.94170 700.03180
674.0 0.001484 173.92404 683.89349
637.0 0.001570 173.90640 655.74866
661.0 0.001513 173.88878 624.10950
624.0 0.001603 173.87117 594.76898
608.0 0.001645 173.85355 569.92889
562.0 0.001779 173.83595 548.48456
545.0 0.001835 173.81836 526.80341
503.0 0.001988 173.80077 500.77679
471.0 0.002123 173.78317 468.48981
414.0 0.002415 173.76561 431.18466
376.0 0.002660 173.74805 392.32321
391.0 0.002558 173.73051 354.19592
374.0 0.002674 173.71295 319.41644
299.0 0.003344 173.69542 289.27670
299.0 0.003344 173.67787 264.32654
275.0 0.00364 173.66035 244.49673
253.0 0.00395 173.64285 229.30850
218.0 0.00459 173.62532 218.00325
213.0 0.00469 173.60783 209.76886
232.0 0.00431 173.59033 204.01408
211.0 0.00474 173.57288 199.68924
221.0 0.00452 173.55540 196.47993
198.0 0.00505 173.53793 194.02602
218.0 0.00459 173.52049 192.08498
238.0 0.00420 173.50302 190.50229
219.0 0.00457 173.48558 189.17960
214.0 0.00467 173.46815 188.05568
221.0 0.00452 173.45076 187.09122
195.0 0.00513 173.43333 193.41527
231.0 0.00433 173.41592 193.04160
205.0 0.00488 173.39851 192.79503
198.0 0.00505 173.38113 192.66850
236.0 0.00424 173.36374 192.65849
202.0 0.00495 173.34637 192.76514
230.0 0.00435 173.32901 192.99254
221.0 0.00452 173.31165 193.35030
218.0 0.00459 173.29430 193.85547
205.0 0.00488 173.27696 198.18132
212.0 0.00472 173.25963 199.25200
177.0 0.00565 173.24231 200.61124
216.0 0.00463 173.22502 202.34242
209.0 0.00478 173.20770 201.72949
209.0 0.00478 173.19040 204.67648
220.0 0.00455 173.17311 208.36630
204.0 0.00490 173.15584 212.94139
238.0 0.00420 173.13857 218.51495
231.0 0.00433 173.12129 225.14183
246.0 0.00407 173.10403 232.78801
221.0 0.00452 173.08678 241.30937
233.0 0.00429 173.06955 248.94812
228.0 0.00439 173.05232 258.27600
261.0 0.00383 173.03510 267.12698
253.0 0.00395 173.01787 274.81665
272.0 0.00368 173.00067 280.93982
258.0 0.00388 172.98349 285.76999
289.0 0.003460 172.96629 290.30521
323.0 0.003096 172.94913 296.00766
291.0 0.003436 172.93195 304.51807
330.0 0.003030 172.91476 317.60330
337.0 0.002967 172.89761 337.22275
349.0 0.002865 172.88049 365.57898
437.0 0.002288 172.86334 405.12662
462.0 0.002165 172.84622 458.43774
514.0 0.001946 172.82907 527.96997
677.0 0.001477 172.81200 615.36639
828.0 0.001208 172.79489 720.55591
987.0 0.001013 172.77780 840.79437
1112.0 0.000899 172.76068 970.00781
1286.0 0.000778 172.74361 1097.40344
1334.0 0.000750 172.72653 1207.87024
1346.0 0.000743 172.70949 1284.18628
1352.0 0.000740 172.69246 1314.08582
1426.0 0.000701 172.67538 1297.85510
1430.0 0.000699 172.65837 1248.47925
1254.0 0.000797 172.64134 1183.88696
1214.0 0.000824 172.62431 1118.90894
1141.0 0.000876 172.60730 1061.83118
1087.0 0.000920 172.59032 1013.97565
1035.0 0.000966 172.57333 970.60046
964.0 0.001037 172.55632 923.29980
906.0 0.001104 172.53934 864.85345
848.0 0.001179 172.52238 793.50494
780.0 0.001282 172.50543 713.41217
703.0 0.001422 172.48848 631.17017
607.0 0.001647 172.47153 552.59125
522.0 0.001916 172.45461 481.58548
443.0 0.002257 172.43768 420.27460
387.0 0.002584 172.42078 369.44592
371.0 0.002695 172.40387 328.78427
334.0 0.002994 172.38696 297.25931
309.0 0.003236 172.37007 273.41956
243.0 0.00412 172.35320 255.67126
255.0 0.00392 172.33633 242.53061
248.0 0.00403 172.31947 232.73660
224.0 0.00446 172.30261 225.29083
259.0 0.00386 172.28577 219.07797
219.0 0.00457 172.26894 214.40561
247.0 0.00405 172.25208 210.53032
221.0 0.00452 172.23526 207.23645
237.0 0.00422 172.21846 206.01750
223.0 0.00448 172.20164 203.59631
216.0 0.00463 172.18488 201.46733
204.0 0.00490 172.16809 199.58444
187.0 0.00535 172.15131 197.91327
215.0 0.00465 172.13452 196.22632
187.0 0.00535 172.11777 194.90816
220.0 0.00455 172.10101 193.73213
205.0 0.00488 172.08427 192.68298
203.0 0.00493 172.06755 191.74814
198.0 0.00505 172.05083 191.78226
163.0 0.00613 172.03412 191.08846
199.0 0.00503 172.01740 190.48584
204.0 0.00490 172.00073 189.96959
193.0 0.00518 171.98401 182.34515
200.0 0.00500 171.96733 182.31316
197.0 0.00508 171.95067 182.33853
211.0 0.00474 171.93401 182.42303
181.0 0.00552 171.91734 182.56981
188.0 0.00532 171.90070 182.78288
209.0 0.00478 171.88406 183.06813
202.0 0.00495 171.86743 183.43330
209.0 0.00478 171.85081 183.88861
221.0 0.00452 171.83420 180.82677
202.0 0.00495 171.81760 181.67242
219.0 0.00457 171.80101 182.66101
204.0 0.00490 171.78442 183.84003
190.0 0.00526 171.76785 185.28493
200.0 0.00500 171.75130 187.11754
214.0 0.00467 171.73474 189.53069
227.0 0.00441 171.71819 192.82442
211.0 0.00474 171.70163 197.42537
233.0 0.00429 171.68510 203.91994
236.0 0.00424 171.66858 213.03754
240.0 0.00417 171.65207 225.59561
261.0 0.00383 171.63556 242.38278
271.0 0.00369 171.61908 263.98370
297.0 0.003367 171.60257 290.57327
324.0 0.003086 171.58611 321.65985
380.0 0.002632 171.56963 355.90976
402.0 0.002488 171.55318 390.89206
421.0 0.002375 171.53674 422.92682
471.0 0.002123 171.52029 447.37933
483.0 0.002070 171.50385 460.11551
447.0 0.002237 171.48743 459.72971
430.0 0.002326 171.47101 448.69485
437.0 0.002288 171.45457 431.80142
414.0 0.002415 171.43819 413.72098
394.0 0.002538 171.42181 397.57846
415.0 0.002410 171.40544 385.16513
394.0 0.002538 171.38905 374.83719
360.0 0.002778 171.37268 365.12387
332.0 0.003012 171.35634 353.48871
358.0 0.002793 171.34000 347.70163
342.0 0.002924 171.32365 329.49008
304.0 0.003289 171.30734 309.34967
300.0 0.003333 171.29102 289.11829
287.0 0.003484 171.27470 270.22058
253.0 0.00395 171.25841 253.85616
258.0 0.00388 171.24211 239.94759
223.0 0.00448 171.22585 228.87103
243.0 0.00412 171.20956 220.46390
215.0 0.00465 171.19328 214.38559
207.0 0.00483 171.17703 215.16130
209.0 0.00478 171.16077 212.72119
210.0 0.00476 171.14456 211.41658
219.0 0.00457 171.12833 210.95834
238.0 0.00420 171.11212 211.13951
199.0 0.00503 171.09589 211.82607
218.0 0.00459 171.07970 212.93918
223.0 0.00448 171.06351 214.44270
206.0 0.00485 171.04733 216.32996
215.0 0.00465 171.03114 218.61649
241.0 0.00415 171.01498 221.33685
209.0 0.00478 170.99883 224.54643
242.0 0.00413 170.98268 228.32283
236.0 0.00424 170.96655 232.78291
222.0 0.00450 170.95039 238.09937
249.0 0.00402 170.93430 244.53418
248.0 0.00403 170.91818 252.48653
262.0 0.00382 170.90207 262.58118
280.0 0.00357 170.88597 275.72510
293.0 0.003413 170.86989 293.26334
307.0 0.003257 170.85381 317.06546
351.0 0.002849 170.83775 349.60458
383.0 0.002611 170.82170 392.23331
452.0 0.002212 170.80565 451.91623
539.0 0.001855 170.78961 530.38239
632.0 0.001582 170.77361 630.45050
746.0 0.001340 170.75757 753.50281
957.0 0.001045 170.74156 898.45349
1089.0 0.000918 170.72556 1061.02039
1254.0 0.000797 170.70958 1233.25049
1388.0 0.000720 170.69357 1403.30310
1424.0 0.000702 170.67760 1553.94165
1547.0 0.000646 170.66164 1663.62927
1496.0 0.000668 170.64569 1716.13977
1611.0 0.000621 170.62973 1706.07251
1543.0 0.000648 170.61378 1646.39148
1481.0 0.000675 170.59787 1559.87720
1458.0 0.000686 170.58194 1468.01941
1387.0 0.000721 170.56602 1384.75598
1325.0 0.000755 170.55013 1315.54419
1213.0 0.000824 170.53424 1257.99438
1167.0 0.000857 170.51836 1203.26465
1089.0 0.000918 170.50249 1139.67529
936.0 0.001068 170.48662 1059.30469
919.0 0.001088 170.47075 962.33386
833.0 0.001200 170.45490 855.77106
710.0 0.001408 170.43909 748.42499
665.0 0.001504 170.42325 647.39532
530.0 0.001887 170.40742 557.20917
469.0 0.002132 170.39162 480.14844
429.0 0.002331 170.37581 416.84525
341.0 0.002933 170.36002 366.59036
338.0 0.002959 170.34424 327.84775
308.0 0.003247 170.32846 298.63937
291.0 0.003436 170.31270 276.90869
257.0 0.00389 170.29694 260.75018
255.0 0.00392 170.28120 248.62601
255.0 0.00392 170.26546 239.32616
246.0 0.00407 170.24974 231.98737
236.0 0.00424 170.23402 226.01860
218.0 0.00459 170.21832 221.02855
238.0 0.00420 170.20262 216.76151
205.0 0.00488 170.18692 213.05345
194.0 0.00515 170.17122 209.79111
192.0 0.00521 170.15556 206.89592
198.0 0.00505 170.13989 204.30989
204.0 0.00490 170.12425 201.98874
225.0 0.00444 170.10860 199.89394
220.0 0.00455 170.09299 197.99905
227.0 0.00441 170.07735 196.27800
176.0 0.00568 170.06172 194.70984
230.0 0.00435 170.04614 192.71918
198.0 0.00505 170.03053 191.43073
206.0 0.00485 170.01494 190.24721
201.0 0.00498 169.99937 189.15700
203.0 0.00493 169.98380 178.39088
202.0 0.00495 169.96823 177.90051
204.0 0.00490 169.95268 177.44902
207.0 0.00483 169.93716 177.03221
192.0 0.00521 169.92162 176.64670
207.0 0.00483 169.90610 176.00311
226.0 0.00442 169.89056 175.68370
193.0 0.00518 169.87506 175.38632
234.0 0.00427 169.85957 175.10893
207.0 0.00483 169.84410 174.84969
211.0 0.00474 169.82861 169.82680
201.0 0.00498 169.81316 169.81134
232.0 0.00431 169.79768 169.79587
188.0 0.00532 169.78223 169.78043
200.0 0.00500 169.76682 169.76497
222.0 0.00450 169.75136 169.74954
212.0 0.00472 169.73595 169.73413
201.0 0.00498 169.72055 169.71872
225.0 0.00444 169.70511 169.70329
218.0 0.00459 169.68976 169.68791
220.0 0.00455 169.67436 169.67252
237.0 0.00422 169.65898 169.65714
209.0 0.00478 169.64362 169.64178
204.0 0.00490 169.62827 169.62643
209.0 0.00478 169.61293 169.61108
220.0 0.00455 169.59758 169.59575
199.0 0.00503 169.58226 169.58041
208.0 0.00481 169.56694 169.56508
218.0 0.00459 169.55164 169.54977
220.0 0.00455 169.53635 169.53448
190.0 0.00526 169.52106 169.51921
187.0 0.00535 169.50577 169.50392
175.0 0.00571 169.49052 169.48862
175.0 0.00571 169.47527 169.47336
182.0 0.00549 169.46002 169.45811
192.0 0.00521 169.44476 169.44287
187.0 0.00535 169.42950 169.42764
166.0 0.00602 169.41428 169.41243
170.0 0.00588 169.39908 169.39717
207.0 0.00483 169.38387 169.38197
180.0 0.00556 169.36867 169.36679
163.0 0.00613 169.35350 169.35159
161.0 0.00621 169.33833 169.33643
166.0 0.00602 169.32315 169.32126
173.0 0.00578 169.30801 169.30611
164.0 0.00610 169.29288 169.29094
190.0 0.00526 169.27773 169.27582
174.0 0.00575 169.26260 169.26067
163.0 0.00613 169.24748 169.24556
190.0 0.00526 169.23236 169.23044
158.0 0.00633 169.21729 169.21535
176.0 0.00568 169.20219 169.20024
180.0 0.00556 169.18707 169.18518
184.0 0.00543 169.17203 169.17010
157.0 0.00637 169.15697 173.59546
181.0 0.00552 169.14191 173.79341
162.0 0.00617 169.12688 174.00682
170.0 0.00588 169.11183 174.23737
162.0 0.00617 169.09682 174.48682
178.0 0.00562 169.08182 174.75716
189.0 0.00529 169.06680 175.05057
165.0 0.00606 169.05179 175.36969
188.0 0.00532 169.03682 175.71729
187.0 0.00535 169.02185 176.09673
171.0 0.00585 169.00688 178.79155
175.0 0.00571 168.99193 179.35666
182.0 0.00549 168.97699 179.97479
169.0 0.00592 168.96207 180.65341
181.0 0.00552 168.94710 181.39932
165.0 0.00606 168.93217 182.22195
202.0 0.00495 168.91728 183.13203
164.0 0.00610 168.90237 189.22479
181.0 0.00552 168.88750 190.59267
184.0 0.00543 168.87262 192.11111
178.0 0.00562 168.85776 193.80414
209.0 0.00478 168.84290 195.69994
170.0 0.00588 168.82805 197.83615
209.0 0.00478 168.81319 200.26256
206.0 0.00485 168.79837 203.04922
199.0 0.00503 168.78355 206.29939
225.0 0.00444 168.76872 210.17830
226.0 0.00442 168.75394 217.53593
209.0 0.00478 168.73914 223.68724
241.0 0.00415 168.72435 231.71509
232.0 0.00431 168.70958 242.48387
223.0 0.00448 168.69481 257.17349
283.0 0.00353 168.68007 277.28674
319.0 0.003135 168.66531 304.54166
308.0 0.003247 168.65057 340.71051
381.0 0.002625 168.63585 387.28320
459.0 0.002179 168.62114 445.06293
493.0 0.002028 168.60643 513.68628
624.0 0.001603 168.59175 591.28107
699.0 0.001431 168.57704 673.64825
750.0 0.001333 168.56238 754.09546
802.0 0.001247 168.54770 823.16986
835.0 0.001198 168.53305 870.39600
814.0 0.001229 168.51840 888.70654
880.0 0.001136 168.50377 879.08075
907.0 0.001103 168.48914 850.49414
849.0 0.001178 168.47452 815.15021
767.0 0.001304 168.45990 783.71906
745.0 0.001342 168.44530 763.39337
760.0 0.001316 168.43071 757.66724
699.0 0.001431 168.41614 766.54199
783.0 0.001277 168.40158 787.01910
805.0 0.001242 168.38701 814.45172
847.0 0.001181 168.37247 845.20001
879.0 0.001138 168.35793 878.46478
1005.0 0.000995 168.34338 915.33289
1039.0 0.000962 168.32886 955.84552
1036.0 0.000965 168.31436 996.58588
1046.0 0.000956 168.29987 1029.89648
1077.0 0.000929 168.28537 1045.61792
1032.0 0.000969 168.27090 1035.75708
1090.0 0.000917 168.25642 999.87665
942.0 0.001062 168.24196 945.89478
919.0 0.001088 168.22748 885.29938
893.0 0.001120 168.21304 828.19659
818.0 0.001222 168.19861 780.64362
746.0 0.001340 168.18417 744.52045
770.0 0.001299 168.16977 717.81390
740.0 0.001351 168.15538 695.23083
666.0 0.001502 168.14096 669.81757
669.0 0.001495 168.12657 635.98804
581.0 0.001721 168.11221 592.36200
565.0 0.001770 168.09785 541.71027
489.0 0.002045 168.08351 488.56332
509.0 0.001965 168.06917 436.99353
408.0 0.002451 168.05482 389.82983
363.0 0.002755 168.04048 348.63596
328.0 0.003049 168.02617 314.13309
288.0 0.003472 168.01186 286.22556
278.0 0.00360 167.99756 264.32736
255.0 0.00392 167.98326 247.54543
258.0 0.00388 167.96901 234.87323
232.0 0.00431 167.95474 225.33989
221.0 0.00452 167.94049 218.11549
258.0 0.00388 167.92621 212.53523
217.0 0.00461 167.91199 203.66310
216.0 0.00463 167.89777 200.24860
214.0 0.00467 167.88354 197.40289
203.0 0.00493 167.86935 194.97221
203.0 0.00493 167.85515 192.86148
221.0 0.00452 167.84096 191.00327
198.0 0.00505 167.82678 189.35191
209.0 0.00478 167.81261 187.87424
179.0 0.00559 167.79845 186.54471
196.0 0.00510 167.78432 185.34322
218.0 0.00459 167.77014 182.02890
220.0 0.00455 167.75603 181.13548
215.0 0.00465 167.74190 180.32169
199.0 0.00503 167.72778 179.58212
216.0 0.00463 167.71368 178.90089
241.0 0.00415 167.69960 178.27515
208.0 0.00481 167.68555 177.69817
196.0 0.00510 167.67146 172.02565
232.0 0.00431 167.65741 171.76332
207.0 0.00483 167.64336 171.52158
224.0 0.00446 167.62932 171.29820
209.0 0.00478 167.61530 171.09128
219.0 0.00457 167.60129 170.89917
198.0 0.00505 167.58725 170.72247
208.0 0.00481 167.57327 170.55594
190.0 0.00526 167.55927 170.40036
162.0 0.00617 167.54529 170.25475
186.0 0.00538 167.53133 167.54042
185.0 0.00541 167.51733 167.52724
183.0 0.00546 167.50340 167.51411
190.0 0.00526 167.48946 167.50113
178.0 0.00562 167.47552 167.48825
175.0 0.00571 167.46161 167.47549
188.0 0.00532 167.44769 167.46289
188.0 0.00532 167.43381 167.45049
158.0 0.00633 167.41992 167.43829
189.0 0.00529 167.40602 167.42635
176.0 0.00568 167.39215 167.41476
158.0 0.00633 167.37831 167.40361
172.0 0.00581 167.36444 167.39307
192.0 0.00521 167.35062 167.38339
171.0 0.00585 167.33678 167.37497
190.0 0.00526 167.32294 167.36835
168.0 0.00595 167.30911 167.36440
184.0 0.00543 167.29533 167.36409
181.0 0.00552 167.28156 167.36868
166.0 0.00602 167.26776 167.37955
187.0 0.00535 167.25400 167.39795
177.0 0.00565 167.24023 167.42480
198.0 0.00505 167.22649 167.46039
165.0 0.00606 167.21275 167.50389
186.0 0.00538 167.19901 175.33739
198.0 0.00505 167.18529 175.76546
221.0 0.00452 167.17157 176.21741
169.0 0.00592 167.15788 176.68715
179.0 0.00559 167.14420 177.17027
197.0 0.00508 167.13052 177.66644
204.0 0.00490 167.11684 178.18263
208.0 0.00481 167.10318 178.73151
191.0 0.00524 167.08951 179.32744
208.0 0.00481 167.07588 179.98366
216.0 0.00463 167.06226 184.62476
231.0 0.00433 167.04865 185.62021
218.0 0.00459 167.03502 186.71664
225.0 0.00444 167.02144 187.92200
224.0 0.00446 167.00781 189.24496
191.0 0.00524 166.99425 190.70020
234.0 0.00427 166.98068 192.30469
203.0 0.00493 166.96712 194.08492
211.0 0.00474 166.95357 196.07185
217.0 0.00461 166.94003 198.30212
202.0 0.00495 166.92651 200.81961
213.0 0.00469 166.91298 203.68045
226.0 0.00442 166.89948 206.95638
226.0 0.00442 166.88597 210.75081
238.0 0.00420 166.87247 215.21429
237.0 0.00422 166.85899 220.57391
220.0 0.00455 166.84552 227.17299
238.0 0.00420 166.83208 235.54065
237.0 0.00422 166.81862 246.42641
277.0 0.00361 166.80518 261.31732
267.0 0.00375 166.79175 280.81998
292.0 0.003425 166.77834 307.09280
312.0 0.003205 166.76492 342.14978
425.0 0.002353 166.75154 388.05612
453.0 0.002208 166.73814 446.62946
593.0 0.001686 166.72476 518.95129
693.0 0.001443 166.71141 604.98914
826.0 0.001211 166.69804 703.00079
995.0 0.001005 166.68469 808.92554
976.0 0.001025 166.67136 915.81940
1068.0 0.000936 166.65800 1012.67987
1135.0 0.000881 166.64470 1086.18591
1123.0 0.000890 166.63139 1124.43958
974.0 0.001027 166.61810 1123.12585
1095.0 0.000913 166.60481 1088.67517
1085.0 0.000922 166.59154 1034.69043
941.0 0.001063 166.57826 975.36169
916.0 0.001092 166.56500 921.21613
912.0 0.001096 166.55177 877.81342
896.0 0.001116 166.53854 845.97357
875.0 0.001143 166.52531 822.22449
805.0 0.001242 166.51210 799.73840
813.0 0.001230 166.49887 770.61664
730.0 0.001370 166.48569 729.63617
678.0 0.001475 166.47252 676.66620
629.0 0.001590 166.45934 615.89020
527.0 0.001898 166.44615 552.84515
459.0 0.002179 166.43300 492.19061
419.0 0.002387 166.41986 437.06006
416.0 0.002404 166.40672 389.21536
352.0 0.002841 166.39359 349.43860
295.0 0.003390 166.38046 317.71725
277.0 0.00361 166.36739 293.52377
246.0 0.00407 166.35429 275.99860
260.0 0.00385 166.34120 264.12265
246.0 0.00407 166.32816 256.82935
249.0 0.00402 166.31506 253.11105
259.0 0.00386 166.30202 251.99371
248.0 0.00403 166.28896 252.52600
223.0 0.00448 166.27596 253.71568
209.0 0.00478 166.26292 254.51987
204.0 0.00490 166.24989 253.99585
215.0 0.00465 166.23689 251.62593
206.0 0.00485 166.22391 247.55194
210.0 0.00476 166.21092 242.43790
215.0 0.00465 166.19797 237.08490
216.0 0.00463 166.18500 232.13150
209.0 0.00478 166.17206 227.93965
209.0 0.00478 166.15910 224.61180
200.0 0.00500 166.14618 221.99136
186.0 0.00538 166.13327 219.71132
186.0 0.00538 166.12038 217.29211
211.0 0.00474 166.10745 214.33597
170.0 0.00588 166.09457 211.40260
190.0 0.00526 166.08168 207.31975
195.0 0.00513 166.06883 195.62354
196.0 0.00510 166.05597 191.78185
208.0 0.00481 166.04309 188.22321
194.0 0.00515 166.03027 185.06931
184.0 0.00543 166.01743 182.37593
170.0 0.00588 166.00464 180.14549
175.0 0.00571 165.99182 178.35062
175.0 0.00571 165.97903 176.93636
173.0 0.00578 165.96623 176.17860
204.0 0.00490 165.95349 175.34911
178.0 0.00562 165.94070 171.53369
215.0 0.00465 165.92793 171.24493
177.0 0.00565 165.91521 171.05943
188.0 0.00532 165.90247 170.95224
220.0 0.00455 165.88976 170.90704
187.0 0.00535 165.87703 170.91373
183.0 0.00546 165.86435 170.96671
235.0 0.00426 165.85164 171.06389
187.0 0.00535 165.83896 171.20518
192.0 0.00521 165.82626 171.39290
229.0 0.00437 165.81361 171.63133
203.0 0.00493 165.80095 172.24495
227.0 0.00441 165.78833 172.62521
202.0 0.00495 165.77568 173.09280
241.0 0.00415 165.76308 173.67586
196.0 0.00510 165.75046 174.41827
222.0 0.00450 165.73787 175.38895
195.0 0.00513 165.72528 176.69040
237.0 0.00422 165.71271 178.46855
201.0 0.00498 165.70015 180.51141
192.0 0.00521 165.68758 183.89009
222.0 0.00450 165.67505 188.44122
218.0 0.00459 165.66249 194.42339
228.0 0.00439 165.64995 202.03235
209.0 0.00478 165.63744 211.33878
253.0 0.00395 165.62492 222.21982
239.0 0.00418 165.61243 234.29282
247.0 0.00405 165.59995 246.82509
231.0 0.00433 165.58748 258.69186
261.0 0.00383 165.57501 268.21188
263.0 0.00380 165.56256 274.39148
252.0 0.00397 165.55013 276.40494
282.0 0.00355 165.53767 274.98300
289.0 0.003460 165.52527 271.88678
258.0 0.00388 165.51283 269.07547
263.0 0.00380 165.50044 268.08536
264.0 0.00379 165.48805 269.80026
270.0 0.00370 165.47566 275.25067
275.0 0.00364 165.46330 282.28479
321.0 0.003115 165.45093 290.49200
321.0 0.003115 165.43857 298.06375
313.0 0.003195 165.42624 302.98080
329.0 0.003040 165.41389 303.62463
292.0 0.003425 165.40160 299.38623
290.0 0.003448 165.38928 290.92117
310.0 0.003226 165.37698 279.82153
299.0 0.003344 165.36470 267.96405
270.0 0.00370 165.35243 256.87326
268.0 0.00373 165.34016 247.94749
260.0 0.00385 165.32790 240.74107
232.0 0.00431 165.31566 235.56549
238.0 0.00420 165.30341 231.88495
248.0 0.00403 165.29118 228.85330
229.0 0.00437 165.27898 225.56145
223.0 0.00448 165.26675 221.40793
248.0 0.00403 165.25458 216.32527
227.0 0.00441 165.24240 210.66928
164.0 0.00610 165.23019 204.91463
199.0 0.00503 165.21805 199.47441
170.0 0.00588 165.20590 194.61717
194.0 0.00515 165.19376 190.49649
177.0 0.00565 165.18163 187.17519
164.0 0.00610 165.16951 184.65050
191.0 0.00524 165.15739 182.87996
197.0 0.00508 165.14529 181.80791
179.0 0.00559 165.13321 181.39262
158.0 0.00633 165.12112 181.62674
187.0 0.00535 165.10905 182.55434
180.0 0.00556 165.09702 184.27745
187.0 0.00535 165.08493 186.95082
196.0 0.00510 165.07289 190.77115
211.0 0.00474 165.06090 195.93214
215.0 0.00465 165.04887 202.59776
215.0 0.00465 165.03683 210.17593
238.0 0.00420 165.02486 219.95372
276.0 0.00362 165.01288 230.95172
228.0 0.00439 165.00092 242.60617
317.0 0.003155 164.98894 253.97516
275.0 0.00364 164.97699 263.73465
298.0 0.003356 164.96506 270.37140
291.0 0.003436 164.95313 272.76114
283.0 0.00353 164.94121 270.82584
310.0 0.003226 164.92929 265.62955
263.0 0.00380 164.91739 258.46906
274.0 0.00365 164.90549 251.55554
244.0 0.00410 164.89362 244.94789
276.0 0.00362 164.88176 240.41252
292.0 0.003425 164.86992 237.31709
239.0 0.00418 164.85805 235.22633
274.0 0.00365 164.84621 233.34193
259.0 0.00386 164.83438 230.73889
243.0 0.00412 164.82256 226.75635
230.0 0.00435 164.81075 221.30844
230.0 0.00435 164.79895 214.82806
214.0 0.00467 164.78717 207.94427
219.0 0.00457 164.77539 201.19833
208.0 0.00481 164.76363 194.67250
209.0 0.00478 164.75188 189.20453
201.0 0.00498 164.74014 184.56938
206.0 0.00485 164.72841 180.77007
200.0 0.00500 164.71671 177.74460
200.0 0.00500 164.70496 175.39012
178.0 0.00562 164.69330 173.58807
170.0 0.00588 164.68159 172.21799
170.0 0.00588 164.66991 171.17316
175.0 0.00571 164.65823 170.36586
175.0 0.00571 164.64661 169.72894
183.0 0.00546 164.63493 169.21281
173.0 0.00578 164.62329 168.78419
158.0 0.00633 164.61168 168.41956
165.0 0.00606 164.60005 168.10350
170.0 0.00588 164.58847 167.82555
163.0 0.00613 164.57684 167.57838
154.0 0.00649 164.56526 167.35695
164.0 0.00610 164.55371 167.15718
151.0 0.00662 164.54214 166.97617
153.0 0.00654 164.53058 166.81140
170.0 0.00588 164.51904 166.66081
189.0 0.00529 164.50752 166.52271
157.0 0.00637 164.49602 166.39563
165.0 0.00606 164.48448 166.27820
169.0 0.00592 164.47298 166.16954
152.0 0.00658 164.46149 165.21712
161.0 0.00621 164.45001 165.16132
167.0 0.00599 164.43854 165.10930
178.0 0.00562 164.42709 165.06062
161.0 0.00621 164.41563 165.01488
158.0 0.00633 164.40421 164.97186
168.0 0.00595 164.39279 164.93127
167.0 0.00599 164.38136 164.89284
171.0 0.00585 164.36998 164.85638
141.0 0.00709 164.35858 164.82172
177.0 0.00565 164.34718 164.78865
150.0 0.00667 164.33583 164.33296
153.0 0.00654 164.32446 164.32158
126.0 0.00794 164.31313 164.31024
176.0 0.00568 164.30177 164.29890
179.0 0.00559 164.29044 164.28755
164.0 0.00610 164.27914 164.27626
168.0 0.00595 164.26782 164.26494
170.0 0.00588 164.25652 164.25363
149.0 0.00671 164.24524 164.24236
158.0 0.00633 164.23396 164.23106
168.0 0.00595 164.22270 164.21982
169.0 0.00592 164.21146 164.20856
150.0 0.00667 164.20020 164.19728
171.0 0.00585 164.18896 164.18605
161.0 0.00621 164.17775 164.17485
158.0 0.00633 164.16655 164.16364
175.0 0.00571 164.15533 164.15244
144.0 0.00694 164.14415 164.14122
152.0 0.00658 164.13295 164.13004
155.0 0.00645 164.12181 164.11888
163.0 0.00613 164.11064 164.10771
152.0 0.00658 164.09949 164.09657
159.0 0.00629 164.08835 164.08542
150.0 0.00667 164.07721 164.07430
160.0 0.00625 164.06610 164.06317
172.0 0.00581 164.05501 164.05205
185.0 0.00541 164.04391 164.04099
158.0 0.00633 164.03284 164.02989
158.0 0.00633 164.02176 164.01881
165.0 0.00606 164.01070 164.00775
172.0 0.00581 163.99963 163.99670
159.0 0.00629 163.98859 163.98564
158.0 0.00633 163.97758 163.97462
173.0 0.00578 163.96655 163.96359
189.0 0.00529 163.95555 166.42339
171.0 0.00585 163.94453 166.52975
193.0 0.00518 163.93358 166.64462
188.0 0.00532 163.92256 166.76897
187.0 0.00535 163.91162 166.90352
187.0 0.00535 163.90065 167.04945
186.0 0.00538 163.88972 167.20798
196.0 0.00510 163.87878 167.38043
169.0 0.00592 163.86786 167.56836
187.0 0.00535 163.85695 167.77365
180.0 0.00556 163.84605 167.99818
192.0 0.00521 163.83516 169.49277
205.0 0.00488 163.82428 169.82251
191.0 0.00524 163.81342 170.18399
182.0 0.00549 163.80255 170.58122
212.0 0.00472 163.79169 171.01936
198.0 0.00505 163.78087 176.92459
189.0 0.00529 163.77003 177.71786
179.0 0.00559 163.75922 178.59003
195.0 0.00513 163.74843 179.55226
233.0 0.00429 163.73763 180.61784
198.0 0.00505 163.72684 181.80322
197.0 0.00508 163.71608 183.12939
210.0 0.00476 163.70531 184.62296
211.0 0.00474 163.69456 186.32201
192.0 0.00521 163.68382 188.28131
208.0 0.00481 163.67308 190.58324
208.0 0.00481 163.66238 193.35245
218.0 0.00459 163.65166 199.64449
202.0 0.00495 163.64098 204.15341
228.0 0.00439 163.63029 210.01620
227.0 0.00441 163.61960 217.77579
224.0 0.00446 163.60893 228.11578
242.0 0.00413 163.59831 241.82675
296.0 0.003378 163.58763 259.73257
270.0 0.00370 163.57701 282.53833
351.0 0.002849 163.56636 310.68994
351.0 0.002849 163.55577 344.15747
406.0 0.002463 163.54518 382.22876
452.0 0.002212 163.53459 423.26215
522.0 0.001916 163.52400 464.49649
509.0 0.001965 163.51344 501.73251
527.0 0.001898 163.50290 530.01147
545.0 0.001835 163.49234 545.24402
556.0 0.001799 163.48180 546.67914
538.0 0.001859 163.47128 537.86725
544.0 0.001838 163.46075 525.04706
555.0 0.001802 163.45027 514.69141
510.0 0.001961 163.43979 512.07849
543.0 0.001842 163.42928 520.89105
533.0 0.001876 163.41881 543.19904
620.0 0.001613 163.40836 579.36432
689.0 0.001451 163.39790 627.86975
757.0 0.001321 163.38747 685.48303
843.0 0.001186 163.37704 747.65826
903.0 0.001107 163.36661 809.73895
917.0 0.001091 163.35622 866.97095
984.0 0.001016 163.34583 913.50909
1014.0 0.000986 163.33543 941.91162
937.0 0.001067 163.32506 945.32831
933.0 0.001072 163.31470 921.80151
852.0 0.001174 163.30437 876.59338
833.0 0.001200 163.29402 819.80194
713.0 0.001403 163.28369 761.84155
684.0 0.001462 163.27338 710.49780
651.0 0.001536 163.26305 670.10236
683.0 0.001464 163.25275 641.96045
613.0 0.001631 163.24248 624.48010
563.0 0.001776 163.23219 613.56458
598.0 0.001672 163.22192 603.22363
549.0 0.001821 163.21165 587.23175
566.0 0.001767 163.20143 561.65356
488.0 0.002049 163.19119 526.46869
477.0 0.002096 163.18097 484.83823
419.0 0.002387 163.17076 440.85681
384.0 0.002604 163.16055 397.98181
311.0 0.003215 163.15039 358.54709
291.0 0.003436 163.14020 323.88980
280.0 0.00357 163.13004 294.52878
251.0 0.00398 163.11987 270.49127
252.0 0.00397 163.10974 251.33871
219.0 0.00457 163.09958 236.40779
203.0 0.00493 163.08946 224.93349
219.0 0.00457 163.07938 216.16205
211.0 0.00474 163.06924 209.42374
175.0 0.00571 163.05917 201.62224
208.0 0.00481 163.04910 197.56186
184.0 0.00543 163.03900 194.26242
195.0 0.00513 163.02896 191.51314
204.0 0.00490 163.01891 189.17166
202.0 0.00495 163.00885 187.13933
188.0 0.00532 162.99884 185.35400
181.0 0.00552 162.98883 183.76886
175.0 0.00571 162.97884 182.35107
177.0 0.00565 162.96884 181.07565
178.0 0.00562 162.95885 179.92302
175.0 0.00571 162.94890 177.57773
191.0 0.00524 162.93892 176.68402
182.0 0.00549 162.92899 175.86923
187.0 0.00535 162.91902 175.12395
187.0 0.00535 162.90910 174.44028
170.0 0.00588 162.89917 173.81151
166.0 0.00602 162.88927 167.81482
175.0 0.00571 162.87938 167.51817
173.0 0.00578 162.86949 167.24580
151.0 0.00662 162.85960 166.99489
176.0 0.00568 162.84976 166.76321
175.0 0.00571 162.83990 166.54877
173.0 0.00578 162.83006 166.34984
164.0 0.00610 162.82022 166.16483
156.0 0.00641 162.81044 165.99255
175.0 0.00571 162.80061 165.83177
143.0 0.00699 162.79082 165.68141
178.0 0.00562 162.78102 162.77782
159.0 0.00629 162.77127 162.76805
155.0 0.00645 162.76147 162.75827
176.0 0.00568 162.75172 162.74850
158.0 0.00633 162.74199 162.73877
157.0 0.00637 162.73225 162.72903
169.0 0.00592 162.72255 162.71930
143.0 0.00699 162.71283 162.70961
161.0 0.00621 162.70311 162.69989
158.0 0.00633 162.69344 162.69020
168.0 0.00595 162.68376 162.68051
167.0 0.00599 162.67410 162.67084
162.0 0.00617 162.66444 162.66119
146.0 0.00685 162.65480 162.65155
149.0 0.00671 162.64516 162.64192
181.0 0.00552 162.63553 162.63229
144.0 0.00694 162.62593 162.62267
162.0 0.00617 162.61632 162.61307
162.0 0.00617 162.60674 162.60347
172.0 0.00581 162.59714 162.59390
163.0 0.00613 162.58757 162.58432
154.0 0.00649 162.57802 162.57475
166.0 0.00602 162.56848 162.56520
173.0 0.00578 162.55894 162.55568
163.0 0.00613 162.54944 162.54616
151.0 0.00662 162.53992 162.53664
165.0 0.00606 162.53041 162.52715
158.0 0.00633 162.52092 162.51764
158.0 0.00633 162.51144 162.50815
171.0 0.00585 162.50197 162.49870
153.0 0.00654 162.49252 162.48923
159.0 0.00629 162.48308 163.56412
166.0 0.00602 162.47365 163.60612
150.0 0.00667 162.46420 163.65190
153.0 0.00654 162.45477 163.70178
167.0 0.00599 162.44537 163.75620
158.0 0.00633 162.43599 163.81557
146.0 0.00685 162.42659 163.88046
146.0 0.00685 162.41724 163.95145
163.0 0.00613 162.40788 164.02919
162.0 0.00617 162.39853 164.11458
160.0 0.00625 162.38918 164.20836
147.0 0.00680 162.37984 164.31161
159.0 0.00629 162.37054 164.98592
154.0 0.00649 162.36124 165.13866
170.0 0.00588 162.35193 165.30701
164.0 0.00610 162.34264 165.49300
171.0 0.00585 162.33340 165.69897
170.0 0.00588 162.32413 165.92778
157.0 0.00637 162.31488 166.18282
161.0 0.00621 162.30563 166.46808
165.0 0.00606 162.29642 166.78851
137.0 0.00730 162.28719 167.15067
198.0 0.00505 162.27797 167.56221
179.0 0.00559 162.26880 168.03450
159.0 0.00629 162.25960 168.58322
153.0 0.00654 162.25041 169.23181
165.0 0.00606 162.24127 170.01541
162.0 0.00617 162.23212 170.98708
171.0 0.00585 162.22299 172.22618
169.0 0.00592 162.21384 173.84572
175.0 0.00571 162.20473 176.00246
170.0 0.00588 162.19562 178.90021
183.0 0.00546 162.18652 182.78636
170.0 0.00588 162.17744 187.93457
180.0 0.00556 162.16837 194.62495
192.0 0.00521 162.15930 203.07269
208.0 0.00481 162.15025 213.39903
217.0 0.00461 162.14120 225.54895
230.0 0.00435 162.13219 239.22037
286.0 0.003497 162.12314 253.77481
271.0 0.00369 162.11415 268.13776
277.0 0.00361 162.10516 280.72711
261.0 0.00383 162.09616 289.66583
285.0 0.00351 162.08719 293.39551
281.0 0.00356 162.07823 291.52603
249.0 0.00402 162.06927 285.14551
252.0 0.00397 162.06033 276.22537
265.0 0.00377 162.05139 266.78094
278.0 0.00360 162.04248 258.31323
249.0 0.00402 162.03357 251.71332
238.0 0.00420 162.02466 247.30470
220.0 0.00455 162.01578 244.89757
250.0 0.00400 162.00693 243.82463
228.0 0.00439 161.99805 243.01949
221.0 0.00452 161.98918 241.26245
213.0 0.00469 161.98033 237.63118
209.0 0.00478 161.97150 231.90948
209.0 0.00478 161.96269 224.58192
219.0 0.00457 161.95387 216.45490
209.0 0.00478 161.94508 208.26811
186.0 0.00538 161.93628 200.57260
196.0 0.00510 161.92752 193.69135
212.0 0.00472 161.91875 187.78551
167.0 0.00599 161.90999 182.89182
180.0 0.00556 161.90125 179.68816
158.0 0.00633 161.89250 176.63759
168.0 0.00595 161.88379 174.29977
172.0 0.00581 161.87508 172.52872
173.0 0.00578 161.86636 171.19109
179.0 0.00559 161.85768 170.17461
159.0 0.00629 161.84901 169.39163
176.0 0.00568 161.84033 168.77640
169.0 0.00592 161.83170 168.28413
172.0 0.00581 161.82303 167.88335
175.0 0.00571 161.81441 167.55322
152.0 0.00658 161.80579 167.63683
156.0 0.00641 161.79718 167.42865
175.0 0.00571 161.78857 167.26372
175.0 0.00571 161.77998 167.13805
175.0 0.00571 161.77141 167.04918
170.0 0.00588 161.76285 166.99564
170.0 0.00588 161.75429 166.97688
147.0 0.00680 161.74573 166.99319
166.0 0.00602 161.73721 167.04575
160.0 0.00625 161.72868 167.13686
157.0 0.00637 161.72017 166.15030
165.0 0.00606 161.71167 166.38103
165.0 0.00606 161.70317 166.66382
180.0 0.00556 161.69467 167.01157
167.0 0.00599 161.68623 167.44412
163.0 0.00613 161.67776 167.99274
153.0 0.00654 161.66933 168.70486
181.0 0.00552 161.66089 169.65227
166.0 0.00602 161.65247 170.93761
170.0 0.00588 161.64404 172.70053
164.0 0.00610 161.63565 175.11755
181.0 0.00552 161.62724 178.39978
177.0 0.00565 161.61888 182.20361
181.0 0.00552 161.61052 187.86462
208.0 0.00481 161.60214 195.75613
194.0 0.00515 161.59378 204.25723
237.0 0.00422 161.58545 213.99727
229.0 0.00437 161.57715 224.56348
243.0 0.00412 161.56882 235.22952
244.0 0.00410 161.56052 244.88499
270.0 0.00370 161.55223 252.13261
279.0 0.00358 161.54396 255.67249
254.0 0.00394 161.53569 255.04735
238.0 0.00420 161.52744 250.70111
263.0 0.00380 161.51920 244.13109
232.0 0.00431 161.51094 236.91339
247.0 0.00405 161.50273 230.70926
232.0 0.00431 161.49454 225.48048
220.0 0.00455 161.48628 221.98819
240.0 0.00417 161.47812 220.19865
209.0 0.00478 161.46992 219.71736
194.0 0.00515 161.46176 219.82408
202.0 0.00495 161.45361 219.58719
224.0 0.00446 161.44547 218.14333
227.0 0.00441 161.43732 215.10677
198.0 0.00505 161.42918 210.56447
198.0 0.00505 161.42110 205.11067
202.0 0.00495 161.41298 199.37668
160.0 0.00625 161.40489 193.85196
181.0 0.00552 161.39680 188.85966
185.0 0.00541 161.38875 184.57881
162.0 0.00617 161.38068 181.07758
181.0 0.00552 161.37263 178.34215
198.0 0.00505 161.36461 176.30321
178.0 0.00562 161.35657 174.86317
181.0 0.00552 161.34856 173.91460
157.0 0.00637 161.34055 173.35927
179.0 0.00559 161.33255 173.11761
187.0 0.00535 161.32458 173.13393
148.0 0.00676 161.31660 173.37805
159.0 0.00629 161.30865 173.84552
171.0 0.00585 161.30070 174.55928
162.0 0.00617 161.29277 175.57224
168.0 0.00595 161.28485 176.97212
196.0 0.00510 161.27695 178.88673
209.0 0.00478 161.26904 181.48904
189.0 0.00529 161.26112 184.99394
179.0 0.00559 161.25327 189.65462
172.0 0.00581 161.24538 195.74091
218.0 0.00459 161.23753 203.50726
223.0 0.00448 161.22969 213.14299
238.0 0.00420 161.22183 224.73199
260.0 0.00385 161.21402 238.14015
267.0 0.00375 161.20619 253.00063
277.0 0.00361 161.19841 267.93182
297.0 0.003367 161.19061 283.34088
284.0 0.00352 161.18282 297.08170
313.0 0.003195 161.17505 307.42050
324.0 0.003086 161.16730 312.70752
334.0 0.002994 161.15955 312.14999
308.0 0.003247 161.15181 306.39264
306.0 0.003268 161.14409 297.24973
289.0 0.003460 161.13637 287.07040
281.0 0.00356 161.12866 277.22549
264.0 0.00379 161.12097 269.04291
279.0 0.00358 161.11331 262.68762
267.0 0.00375 161.10562 258.90442
230.0 0.00435 161.09795 256.85461
245.0 0.00408 161.09030 255.70148
274.0 0.00365 161.08269 254.31979
241.0 0.00415 161.07506 251.55763
255.0 0.00392 161.06744 246.67972
236.0 0.00424 161.05983 239.68562
238.0 0.00420 161.05225 231.20650
222.0 0.00450 161.04466 222.09929
228.0 0.00439 161.03708 213.21886
197.0 0.00508 161.02953 204.85757
193.0 0.00518 161.02200 197.42972
171.0 0.00585 161.01445 191.06462
192.0 0.00521 161.00694 185.77864
196.0 0.00510 160.99942 181.50592
188.0 0.00532 160.99191 178.12854
176.0 0.00568 160.98444 175.50288
178.0 0.00562 160.97693 173.48085
170.0 0.00588 160.96945 171.92754
170.0 0.00588 160.96198 170.72664
182.0 0.00549 160.95454 169.78625
158.0 0.00633 160.94711 169.03711
161.0 0.00621 160.93968 168.42952
163.0 0.00613 160.93227 167.92799
173.0 0.00578 160.92487 167.50977
179.0 0.00559 160.91750 167.15857
166.0 0.00602 160.91011 166.86368
183.0 0.00546 160.90273 166.61804
183.0 0.00546 160.89537 166.41687
187.0 0.00535 160.88802 166.25735
145.0 0.00690 160.88071 166.13835
179.0 0.00559 160.87337 166.06024
191.0 0.00524 160.86607 166.02554
164.0 0.00610 160.85873 166.03952
165.0 0.00606 160.85147 166.11124
186.0 0.00538 160.84418 166.25517
153.0 0.00654 160.83690 166.49236
171.0 0.00585 160.82965 166.85258
174.0 0.00575 160.82239 167.37537
200.0 0.00500 160.81516 168.10983
173.0 0.00578 160.80794 169.11296
199.0 0.00503 160.80074 170.44519
209.0 0.00478 160.79353 172.16348
190.0 0.00526 160.78633 174.30972
176.0 0.00568 160.77916 176.90123
213.0 0.00469 160.77197 179.91513
190.0 0.00526 160.76483 183.27173
186.0 0.00538 160.75766 185.95480
204.0 0.00490 160.75053 189.44859
209.0 0.00478 160.74341 192.48213
188.0 0.00532 160.73628 194.61491
193.0 0.00518 160.72919 195.48691
183.0 0.00546 160.72211 195.00777
206.0 0.00485 160.71501 193.42351
194.0 0.00515 160.70796 191.19073
204.0 0.00490 160.70091 188.78485
176.0 0.00568 160.69385 186.57268
177.0 0.00565 160.68681 184.78365
195.0 0.00513 160.67979 183.52011
181.0 0.00552 160.67278 182.33826
199.0 0.00503 160.66579 182.00784
166.0 0.00602 160.65880 181.86903
202.0 0.00495 160.65179 181.64474
179.0 0.00559 160.64482 181.06699
180.0 0.00556 160.63789 179.98193
192.0 0.00521 160.63095 178.40952
164.0 0.00610 160.62401 176.50415
154.0 0.00649 160.61707 174.45959
164.0 0.00610 160.61015 172.44133
181.0 0.00552 160.60323 170.56061
183.0 0.00546 160.59636 168.88254
170.0 0.00588 160.58949 167.43694
136.0 0.00735 160.58261 166.22845
153.0 0.00654 160.57576 165.24243
184.0 0.00543 160.56891 166.70108
161.0 0.00621 160.56207 166.18831
148.0 0.00676 160.55525 165.81892
170.0 0.00588 160.54845 165.56389
163.0 0.00613 160.54164 165.39841
165.0 0.00606 160.53487 165.30278
170.0 0.00588 160.52808 165.26237
161.0 0.00621 160.52132 165.26677
156.0 0.00641 160.51453 165.30922
181.0 0.00552 160.50780 165.38550
158.0 0.00633 160.50107 165.49353
150.0 0.00667 160.49432 165.63274
164.0 0.00610 160.48763 165.80339
167.0 0.00599 160.48093 167.17473
163.0 0.00613 160.47423 167.46936
194.0 0.00515 160.46754 167.80728
192.0 0.00521 160.46088 168.19019
162.0 0.00617 160.45422 168.62448
164.0 0.00610 160.44759 169.11664
161.0 0.00621 160.44095 169.67438
163.0 0.00613 160.43433 170.30751
174.0 0.00575 160.42772 171.02866
180.0 0.00556 160.42113 171.85448
184.0 0.00543 160.41452 172.80750
175.0 0.00571 160.40794 173.92177
139.0 0.00719 160.40137 175.24429
201.0 0.00498 160.39481 176.84894
163.0 0.00613 160.38828 178.84566
170.0 0.00588 160.38173 181.39764
185.0 0.00541 160.37521 184.73611
195.0 0.00513 160.36870 189.18076
210.0 0.00476 160.36220 194.92827
193.0 0.00518 160.35573 202.90279
217.0 0.00461 160.34923 213.42990
218.0 0.00459 160.34276 227.04286
234.0 0.00427 160.33632 244.16673
314.0 0.003185 160.32986 265.03842
323.0 0.003096 160.32344 289.49484
344.0 0.002907 160.31702 316.91641
363.0 0.002755 160.31062 345.99576
363.0 0.002755 160.30420 374.54053
389.0 0.002571 160.29781 399.36951
419.0 0.002387 160.29143 416.69891
393.0 0.002545 160.28506 423.40982
434.0 0.002304 160.27870 418.61505
374.0 0.002674 160.27237 404.69281
389.0 0.002571 160.26604 385.49872
353.0 0.002833 160.25972 365.08197
277.0 0.00361 160.25339 346.56409
300.0 0.003333 160.24709 331.88358
277.0 0.00361 160.24081 321.96445
322.0 0.003106 160.23453 316.76718
323.0 0.003096 160.22827 315.40076
311.0 0.003215 160.22202 316.16156
310.0 0.003226 160.21577 316.70636
300.0 0.003333 160.20953 314.58185
302.0 0.003311 160.20331 308.13004
263.0 0.00380 160.19710 297.18805
285.0 0.00351 160.19090 282.92856
253.0 0.00395 160.18471 267.04626
261.0 0.00383 160.17853 251.05861
261.0 0.00383 160.17236 236.01662
214.0 0.00467 160.16621 222.58765
208.0 0.00481 160.16006 211.07593
184.0 0.00543 160.15395 201.54915
201.0 0.00498 160.14783 193.89967
187.0 0.00535 160.14171 187.90738
168.0 0.00595 160.13560 183.29617
202.0 0.00495 160.12952 179.77907
179.0 0.00559 160.12343 177.09503
206.0 0.00485 160.11739 175.02168
172.0 0.00581 160.11133 173.38698
170.0 0.00588 160.10526 172.06548
164.0 0.00610 160.09926 170.97034
171.0 0.00585 160.09323 170.04190
181.0 0.00552 160.08722 169.24234
198.0 0.00505 160.08122 168.54451
184.0 0.00543 160.07524 172.63123
183.0 0.00546 160.06926 172.30812
164.0 0.00610 160.06329 172.05965
167.0 0.00599 160.05733 171.87813
152.0 0.00658 160.05139 171.75737
166.0 0.00602 160.04547 171.69218
186.0 0.00538 160.03955 171.67906
173.0 0.00578 160.03365 171.71654
164.0 0.00610 160.02774 169.48792
173.0 0.00578 160.02182 169.73366
178.0 0.00562 160.01596 170.02795
172.0 0.00581 160.01010 170.37479
170.0 0.00588 160.00424 170.77843
170.0 0.00588 159.99838 173.65575
171.0 0.00585 159.99257 174.30374
164.0 0.00610 159.98676 175.03491
194.0 0.00515 159.98093 175.85875
173.0 0.00578 159.97514 176.78578
167.0 0.00599 159.96936 177.82962
167.0 0.00599 159.96359 179.00656
193.0 0.00518 159.95782 180.33664
167.0 0.00599 159.95209 180.69824
196.0 0.00510 159.94633 182.47052
179.0 0.00559 159.94060 184.49525
195.0 0.00513 159.93489 186.83780
208.0 0.00481 159.92917 189.59299
181.0 0.00552 159.92346 192.90410
204.0 0.00490 159.91779 196.98840
193.0 0.00518 159.91211 202.17317
211.0 0.00474 159.90645 208.92921
226.0 0.00442 159.90079 217.91814
221.0 0.00452 159.89516 230.01146
276.0 0.00362 159.88953 246.28407
283.0 0.00353 159.88390 267.94775
328.0 0.003049 159.87830 296.27026
352.0 0.002841 159.87271 334.47574
374.0 0.002674 159.86710 378.87253
429.0 0.002331 159.86154 431.47601
525.0 0.001905 159.85597 491.11234
581.0 0.001721 159.85042 555.15637
631.0 0.001585 159.84488 619.07288
624.0 0.001603 159.83934 676.11060
649.0 0.001541 159.83383 717.81195
613.0 0.001631 159.82832 737.08569
636.0 0.001572 159.82281 730.09296
643.0 0.001555 159.81734 701.09265
610.0 0.001639 159.81186 658.60565
532.0 0.001880 159.80638 611.87811
522.0 0.001916 159.80095 569.57751
527.0 0.001898 159.79550 534.39777
482.0 0.002075 159.79007 510.06027
443.0 0.002257 159.78467 496.86270
451.0 0.002217 159.77924 493.47974
434.0 0.002304 159.77386 496.71198
474.0 0.002110 159.76846 501.75891
448.0 0.002232 159.76311 502.96323
429.0 0.002331 159.75772 495.74170
395.0 0.002532 159.75240 477.63977
410.0 0.002439 159.74704 450.38977
396.0 0.002525 159.74170 417.54401
340.0 0.002941 159.73639 382.93204
304.0 0.003289 159.73106 349.72513
295.0 0.003390 159.72577 319.31860
256.0 0.00391 159.72050 293.05756
245.0 0.00408 159.71523 271.25674
242.0 0.00413 159.70998 253.89391
204.0 0.00490 159.70471 240.58321
234.0 0.00427 159.69948 230.77568
241.0 0.00415 159.69426 223.85994
204.0 0.00490 159.68903 219.27354
189.0 0.00529 159.68382 216.56189
209.0 0.00478 159.67862 215.41232
226.0 0.00442 159.67343 215.66771
197.0 0.00508 159.66826 217.32910
237.0 0.00422 159.66312 220.68335
225.0 0.00444 159.65796 225.77895
239.0 0.00418 159.65283 233.18452
256.0 0.00391 159.64767 243.45532
266.0 0.00376 159.64258 257.21976
244.0 0.00410 159.63745 275.09222
311.0 0.003215 159.63237 297.59552
325.0 0.003077 159.62729 325.01074
339.0 0.002950 159.62221 357.21561
423.0 0.002364 159.61714 393.49203
408.0 0.002451 159.61209 432.44897
501.0 0.001996 159.60706 471.83057
507.0 0.001972 159.60204 504.06476
512.0 0.001953 159.59702 535.26050
540.0 0.001852 159.59200 556.56750
534.0 0.001873 159.58701 564.60785
527.0 0.001898 159.58202 558.28143
478.0 0.002092 159.57706 539.84436
476.0 0.002101 159.57208 514.08655
454.0 0.002203 159.56712 486.29031
425.0 0.002353 159.56221 460.71796
385.0 0.002597 159.55727 440.08792
404.0 0.002475 159.55237 425.64618
393.0 0.002545 159.54744 417.37152
408.0 0.002451 159.54256 411.77798
427.0 0.002342 159.53769 412.09344
397.0 0.002519 159.53279 413.28989
412.0 0.002427 159.52794 412.55194
407.0 0.002457 159.52309 407.29156
394.0 0.002538 159.51825 396.10522
346.0 0.002890 159.51343 379.37982
361.0 0.002770 159.50861 358.90753
308.0 0.003247 159.50381 336.97592
308.0 0.003247 159.49899 315.62613
287.0 0.003484 159.49422 296.34775
287.0 0.003484 159.48944 280.02286
274.0 0.00365 159.48470 267.07709
271.0 0.00369 159.47993 258.61841
280.0 0.00357 159.47520 252.07756
256.0 0.00391 159.47047 247.89606
257.0 0.00389 159.46576 245.18013
226.0 0.00442 159.46104 242.90034
221.0 0.00452 159.45636 240.11888
250.0 0.00400 159.45168 236.28265
258.0 0.00388 159.44699 231.37033
237.0 0.00422 159.44235 225.78043
237.0 0.00422 159.43770 220.06918
249.0 0.00402 159.43306 214.73784
209.0 0.00478 159.42844 210.59026
201.0 0.00498 159.42381 206.92130
230.0 0.00435 159.41920 204.78423
207.0 0.00483 159.41460 202.97762
223.0 0.00448 159.41000 201.83926
227.0 0.00441 159.40544 201.04567
209.0 0.00478 159.40088 200.20436
198.0 0.00505 159.39632 198.95976
236.0 0.00424 159.39178 197.12540
214.0 0.00467 159.38727 194.74536
203.0 0.00493 159.38275 192.02635
209.0 0.00478 159.37825 189.21452
174.0 0.00575 159.37375 186.50795
181.0 0.00552 159.36926 184.04564
195.0 0.00513 159.36479 182.14268
177.0 0.00565 159.36035 180.36395
175.0 0.00571 159.35590 178.94405
204.0 0.00490 159.35144 177.86557
189.0 0.00529 159.34703 177.09827
187.0 0.00535 159.34261 176.60646
167.0 0.00599 159.33820 176.35567
193.0 0.00518 159.33380 176.31631
189.0 0.00529 159.32942 174.07675
191.0 0.00524 159.32504 174.49274
187.0 0.00535 159.32068 175.08876
185.0 0.00541 159.31633 175.88446
205.0 0.00488 159.31200 176.91606
182.0 0.00549 159.30768 178.24428
202.0 0.00495 159.30336 179.95857
197.0 0.00508 159.29906 182.18318
177.0 0.00565 159.29477 185.08226
180.0 0.00556 159.29048 188.86223
195.0 0.00513 159.28619 193.76192
207.0 0.00483 159.28194 200.04498
220.0 0.00455 159.27768 207.97168
239.0 0.00418 159.27345 220.18378
227.0 0.00441 159.26923 232.15289
255.0 0.00392 159.26501 245.95305
260.0 0.00385 159.26080 261.80417
308.0 0.003247 159.25661 279.04120
295.0 0.003390 159.25241 296.82425
307.0 0.003257 159.24825 313.83170
295.0 0.003390 159.24409 328.29480
300.0 0.003333 159.23993 338.37259
297.0 0.003367 159.23579 342.91031
281.0 0.00356 159.23167 342.13452
256.0 0.00391 159.22757 337.65784
292.0 0.003425 159.22346 331.74716
295.0 0.003390 159.21936 327.99197
287.0 0.003484 159.21529 324.98984
305.0 0.003279 159.21120 324.88513
326.0 0.003067 159.20714 327.85281
312.0 0.003205 159.20308 333.24301
340.0 0.002941 159.19904 339.77380
329.0 0.003040 159.19502 345.59583
337.0 0.002967 159.19101 348.67740
349.0 0.002865 159.18700 347.44992
299.0 0.003344 159.18301 341.38831
298.0 0.003356 159.17902 331.15134
286.0 0.003497 159.17505 318.23535
280.0 0.00357 159.17110 304.39090
274.0 0.00365 159.16714 291.00119
237.0 0.00422 159.16321 279.37729
268.0 0.00373 159.15927 269.96637
244.0 0.00410 159.15535 262.91165
238.0 0.00420 159.15146 258.00903
254.0 0.00394 159.14754 254.75369
250.0 0.00400 159.14368 252.42847
240.0 0.00417 159.13980 250.29218
235.0 0.00426 159.13593 247.85362
244.0 0.00410 159.13206 245.06731
244.0 0.00410 159.12825 242.28320
233.0 0.00429 159.12442 240.04657
264.0 0.00379 159.12059 238.93913
252.0 0.00397 159.11679 239.54451
243.0 0.00412 159.11301 242.49300
244.0 0.00410 159.10922 248.50839
255.0 0.00392 159.10544 258.45407
266.0 0.00376 159.10168 273.32800
314.0 0.003185 159.09793 294.21448
325.0 0.003077 159.09418 322.17593
367.0 0.002725 159.09045 358.09671
443.0 0.002257 159.08672 402.41803
517.0 0.001934 159.08302 454.94067
544.0 0.001838 159.07933 514.48053
591.0 0.001692 159.07565 578.49884
654.0 0.001529 159.07199 642.61920
710.0 0.001408 159.06831 700.38666
746.0 0.001340 159.06467 743.49188
748.0 0.001337 159.06104 764.29626
794.0 0.001259 159.05740 759.29803
704.0 0.001420 159.05376 731.41174
703.0 0.001422 159.05017 688.50604
629.0 0.001590 159.04659 639.75104
554.0 0.001805 159.04300 592.83575
535.0 0.001869 159.03943 553.10278
540.0 0.001852 159.03586 523.58417
544.0 0.001838 159.03230 505.39264
480.0 0.002083 159.02875 496.81018
465.0 0.002151 159.02524 497.95444
475.0 0.002105 159.02170 503.92392
482.0 0.002075 159.01820 509.66211
488.0 0.002049 159.01469 509.70706
491.0 0.002037 159.01122 499.94464
472.0 0.002119 159.00775 479.32059
482.0 0.002075 159.00429 449.95557
403.0 0.002481 159.00082 415.57581
395.0 0.002532 158.99739 379.83862
346.0 0.002890 158.99396 345.44614
313.0 0.003195 158.99054 313.64099
283.0 0.00353 158.98714 286.75937
261.0 0.00383 158.98375 263.17072
239.0 0.00418 158.98035 244.37221
198.0 0.00505 158.97696 229.40887
224.0 0.00446 158.97362 217.72279
225.0 0.00444 158.97025 208.71059
183.0 0.00546 158.96690 201.79031
206.0 0.00485 158.96356 196.45157
192.0 0.00521 158.96025 192.27881
190.0 0.00526 158.95694 188.95213
199.0 0.00503 158.95364 186.24040
202.0 0.00495 158.95036 183.97818
182.0 0.00549 158.94708 182.05249
190.0 0.00526 158.94383 180.15227
190.0 0.00526 158.94058 178.93459
172.0 0.00581 158.93735 177.66013
180.0 0.00556 158.93411 176.52905
196.0 0.00510 158.93088 175.52026
188.0 0.00532 158.92767 174.61789
187.0 0.00535 158.92447 173.80919
166.0 0.00602 158.92128 173.08371
197.0 0.00508 158.91811 172.43260
173.0 0.00578 158.91495 171.84909
193.0 0.00518 158.91179 171.32698
197.0 0.00508 158.90863 170.86116
175.0 0.00571 158.90550 170.44771
185.0 0.00541 158.90237 170.08339
171.0 0.00585 158.89928 169.76527
167.0 0.00599 158.89616 169.49203
177.0 0.00565 158.89308 169.26233
176.0 0.00568 158.89001 169.07574
164.0 0.00610 158.88695 168.93263
173.0 0.00578 158.88388 168.83430
160.0 0.00625 158.88084 168.78339
170.0 0.00588 158.87779 165.37593
192.0 0.00521 158.87479 165.55455
164.0 0.00610 158.87178 165.79567
187.0 0.00535 158.86876 166.11501
174.0 0.00575 158.86578 166.53543
172.0 0.00581 158.86279 167.08923
190.0 0.00526 158.85985 167.82172
178.0 0.00562 158.85687 168.79085
192.0 0.00521 158.85393 170.07123
159.0 0.00629 158.85100 171.75122
184.0 0.00543 158.84808 173.92921
201.0 0.00498 158.84517 176.70535
179.0 0.00559 158.84225 180.17056
197.0 0.00508 158.83939 182.62987
221.0 0.00452 158.83650 187.67795
215.0 0.00465 158.83363 193.44293
246.0 0.00407 158.83078 199.77684
240.0 0.00417 158.82793 206.39153
232.0 0.00431 158.82507 212.82533
216.0 0.00463 158.82227 218.40010
220.0 0.00455 158.81944 222.33836
227.0 0.00441 158.81664 223.99225
206.0 0.00485 158.81386 223.16074
224.0 0.00446 158.81105 220.21989
200.0 0.00500 158.80829 215.94247
215.0 0.00465 158.80556 211.17462
212.0 0.00472 158.80280 206.61542
212.0 0.00472 158.80006 202.73744
204.0 0.00490 158.79733 199.80884
201.0 0.00498 158.79463 197.92534
193.0 0.00518 158.79192 197.03305
202.0 0.00495 158.78923 196.93492
199.0 0.00503 158.78654 197.29283
211.0 0.00474 158.78387 197.64630
207.0 0.00483 158.78122 197.49220
212.0 0.00472 158.77856 196.43768
209.0 0.00478 158.77592 194.35336
187.0 0.00535 158.77330 191.40009
197.0 0.00508 158.77066 187.91237
185.0 0.00541 158.76808 184.23682
181.0 0.00552 158.76549 180.64482
186.0 0.00538 158.76289 177.31416
176.0 0.00568 158.76031 174.34547
185.0 0.00541 158.75775 171.77896
183.0 0.00546 158.75522 169.62169
167.0 0.00599 158.75267 167.84761
176.0 0.00568 158.75014 166.41508
157.0 0.00637 158.74762 165.27348
163.0 0.00613 158.74512 164.37024
150.0 0.00667 158.74261 163.65598
164.0 0.00610 158.74013 163.08751
183.0 0.00546 158.73767 162.62976
168.0 0.00595 158.73518 162.25494
174.0 0.00575 158.73276 161.94218
173.0 0.00578 158.73032 161.67639
164.0 0.00610 158.72789 161.44675
166.0 0.00602 158.72546 161.24530
147.0 0.00680 158.72305 161.06693
147.0 0.00680 158.72066 160.90741
177.0 0.00565 158.71826 160.76392
162.0 0.00617 158.71590 160.63403
141.0 0.00709 158.71355 160.51601
170.0 0.00588 158.71120 160.40834
177.0 0.00565 158.70885 160.30983
148.0 0.00676 158.70650 160.21936
167.0 0.00599 158.70421 160.13612
184.0 0.00543 158.70186 160.05930
172.0 0.00581 158.69957 159.98824
138.0 0.00725 158.69728 160.06599
153.0 0.00654 158.69499 160.01010
153.0 0.00654 158.69275 159.95869
159.0 0.00629 158.69048 159.91145
158.0 0.00633 158.68825 159.86806
153.0 0.00654 158.68602 159.82816
158.0 0.00633 158.68379 159.79156
134.0 0.00746 158.68158 159.28899
137.0 0.00730 158.67938 159.27499
179.0 0.00559 158.67717 159.26294
170.0 0.00588 158.67502 159.25266
155.0 0.00645 158.67285 159.24413
176.0 0.00568 158.67070 159.23730
178.0 0.00562 158.66855 159.23216
154.0 0.00649 158.66643 159.30128
148.0 0.00676 158.66429 159.30219
152.0 0.00658 158.66217 159.30498
170.0 0.00588 158.66006 159.30968
172.0 0.00581 158.65796 159.31642
168.0 0.00595 158.65587 159.32523
157.0 0.00637 158.65381 159.33623
174.0 0.00575 158.65176 159.11378
147.0 0.00680 158.64972 159.13805
167.0 0.00599 158.64767 159.16458
172.0 0.00581 158.64565 159.19374
178.0 0.00562 158.64365 159.22583
178.0 0.00562 158.64162 159.26115
189.0 0.00529 158.63963 159.30017
148.0 0.00676 158.63766 159.34341
164.0 0.00610 158.63568 159.39151
153.0 0.00654 158.63371 159.60175
175.0 0.00571 158.63177 159.66763
181.0 0.00552 158.62982 159.74144
157.0 0.00637 158.62788 159.82468
176.0 0.00568 158.62598 159.91940
165.0 0.00606 158.62408 160.02853
188.0 0.00532 158.62216 160.15608
172.0 0.00581 158.62029 160.30779
167.0 0.00599 158.61841 160.49205
173.0 0.00578 158.61656 160.71999
162.0 0.00617 158.61470 161.00705
177.0 0.00565 158.61287 161.37311
175.0 0.00571 158.61105 161.84270
174.0 0.00575 158.60922 162.44449
174.0 0.00575 158.60739 163.28850
185.0 0.00541 158.60561 164.25017
199.0 0.00503 158.60382 165.43161
173.0 0.00578 158.60204 166.84897
175.0 0.00571 158.60028 168.50240
177.0 0.00565 158.59853 170.36780
177.0 0.00565 158.59677 172.39023
177.0 0.00565 158.59505 174.46246
178.0 0.00562 158.59331 176.42162
192.0 0.00521 158.59161 178.04532
187.0 0.00535 158.58992 179.09389
169.0 0.00592 158.58823 179.39807
189.0 0.00529 158.58655 178.94765
178.0 0.00562 158.58488 177.90340
205.0 0.00488 158.58324 176.52159
176.0 0.00568 158.58157 175.05650
196.0 0.00510 158.57994 173.70636
172.0 0.00581 158.57832 172.60197
178.0 0.00562 158.57671 171.81557
196.0 0.00510 158.57510 171.37006
181.0 0.00552 158.57350 173.38927
174.0 0.00575 158.57193 173.61058
172.0 0.00581 158.57034 174.00153
168.0 0.00595 158.56880 174.42845
171.0 0.00585 158.56723 174.74484
178.0 0.00562 158.56570 174.83630
182.0 0.00549 158.56418 174.67090
161.0 0.00621 158.56267 174.31517
162.0 0.00617 158.56116 173.90144
160.0 0.00625 158.55966 173.57863
178.0 0.00562 158.55818 173.47868
154.0 0.00649 158.55672 173.70534
167.0 0.00599 158.55525 174.33220
163.0 0.00613 158.55379 175.40205
170.0 0.00588 158.55235 177.99483
179.0 0.00559 158.55090 181.25189
175.0 0.00571 158.54950 183.61888
187.0 0.00535 158.54810 186.17981
187.0 0.00535 158.54668 188.70784
184.0 0.00543 158.54530 190.89447
170.0 0.00588 158.54393 192.40685
175.0 0.00571 158.54256 193.00417
182.0 0.00549 158.54120 192.66399
194.0 0.00515 158.53987 191.60081
176.0 0.00568 158.53853 190.15567
195.0 0.00513 158.53720 188.66931
185.0 0.00541 158.53590 187.40457
188.0 0.00532 158.53461 186.53763
176.0 0.00568 158.53329 186.16916
211.0 0.00474 158.53204 186.97455
183.0 0.00546 158.53076 187.68816
183.0 0.00546 158.52950 188.85876
184.0 0.00543 158.52826 190.37215
181.0 0.00552 158.52702 192.07027
212.0 0.00472 158.52580 193.77695
191.0 0.00524 158.52458 195.35754
207.0 0.00483 158.52338 196.79761
196.0 0.00510 158.52220 198.23431
190.0 0.00526 158.52100 199.93402
198.0 0.00505 158.51984 202.23073
200.0 0.00500 158.51868 205.49217
205.0 0.00488 158.51752 210.11497
204.0 0.00490 158.51639 216.52951
246.0 0.00407 158.51526 225.19884
241.0 0.00415 158.51414 236.58655
291.0 0.003436 158.51305 250.98523
257.0 0.00389 158.51195 269.03287
313.0 0.003195 158.51085 290.75372
334.0 0.002994 158.50977 316.05429
361.0 0.002770 158.50870 344.50525
372.0 0.002688 158.50764 375.07126
441.0 0.002268 158.50661 406.04199
453.0 0.002208 158.50558 434.80127
481.0 0.002079 158.50455 457.98178
507.0 0.001972 158.50356 472.25812
489.0 0.002045 158.50255 475.75305
459.0 0.002179 158.50156 469.16324
446.0 0.002242 158.50061 455.58133
429.0 0.002331 158.49962 439.16806
412.0 0.002427 158.49867 423.74826
431.0 0.002320 158.49773 412.45505
395.0 0.002532 158.49677 407.16165
386.0 0.002591 158.49586 408.90808
450.0 0.002222 158.49495 417.86676
436.0 0.002294 158.49403 433.36203
434.0 0.002304 158.49316 453.77759
479.0 0.002088 158.49226 476.41388
489.0 0.002045 158.49141 497.43518
524.0 0.001908 158.49055 512.25793
499.0 0.002004 158.48969 516.71063
467.0 0.002141 158.48886 508.73389
513.0 0.001949 158.48802 489.33115
449.0 0.002227 158.48721 461.93582
437.0 0.002288 158.48640 430.78241
374.0 0.002674 158.48561 399.51538
371.0 0.002695 158.48483 372.20834
320.0 0.003125 158.48405 347.73782
312.0 0.003205 158.48329 328.25238
307.0 0.003257 158.48253 313.92902
314.0 0.003185 158.48180 304.41901
283.0 0.00353 158.48105 298.90924
302.0 0.003311 158.48033 296.16211
295.0 0.003390 158.47961 294.57169
255.0 0.00392 158.47893 292.38168
296.0 0.003378 158.47823 288.12057
262.0 0.00382 158.47754 281.10352
273.0 0.00366 158.47688 271.58478
261.0 0.00383 158.47624 260.47391
256.0 0.00391 158.47557 248.79358
225.0 0.00444 158.47495 238.06709
217.0 0.00461 158.47433 227.51073
202.0 0.00495 158.47372 218.10225
193.0 0.00518 158.47310 209.98405
201.0 0.00498 158.47250 203.16928
198.0 0.00505 158.47195 197.58861
210.0 0.00476 158.47136 193.11023
179.0 0.00559 158.47079 189.57590
186.0 0.00538 158.47025 186.82140
169.0 0.00592 158.46971 184.69353
191.0 0.00524 158.46918 183.05745
203.0 0.00493 158.46866 181.80812
187.0 0.00535 158.46815 180.86191
174.0 0.00575 158.46767 180.15892
177.0 0.00565 158.46716 179.65775
182.0 0.00549 158.46671 179.33173
183.0 0.00546 158.46622 179.16536
174.0 0.00575 158.46577 179.15216
168.0 0.00595 158.46532 179.29340
183.0 0.00546 158.46489 179.59798
196.0 0.00510 158.46446 177.96115
171.0 0.00585 158.46405 178.73260
186.0 0.00538 158.46364 179.75771
184.0 0.00543 158.46326 181.10226
203.0 0.00493 158.46288 182.86247
192.0 0.00521 158.46251 185.16959
186.0 0.00538 158.46216 188.19670
202.0 0.00495 158.46179 192.16200
210.0 0.00476 158.46147 197.32599
221.0 0.00452 158.46114 203.98215
221.0 0.00452 158.46082 213.89421
229.0 0.00437 158.46051 224.45518
232.0 0.00431 158.46024 237.30069
273.0 0.00366 158.45992 252.49301
282.0 0.00355 158.45966 268.83170
298.0 0.003356 158.45941 286.89240
322.0 0.003106 158.45914 307.32101
306.0 0.003268 158.45891 327.49081
348.0 0.002874 158.45866 345.47153
332.0 0.003012 158.45845 358.89557
312.0 0.003205 158.45824 365.59448
331.0 0.003021 158.45802 364.54822
316.0 0.003165 158.45784 356.47119
309.0 0.003236 158.45767 343.47705
312.0 0.003205 158.45749 328.18570
317.0 0.003155 158.45734 313.63516
268.0 0.00373 158.45718 300.02911
279.0 0.00358 158.45706 289.13724
257.0 0.00389 158.45692 281.49182
281.0 0.00356 158.45682 276.54849
265.0 0.00377 158.45671 275.36670
301.0 0.003322 158.45662 276.63577
266.0 0.00376 158.45653 279.34607
282.0 0.00355 158.45647 282.14059
260.0 0.00385 158.45641 283.49167
263.0 0.00380 158.45636 282.10400
238.0 0.00420 158.45630 277.39670
274.0 0.00365 158.45627 269.69235
232.0 0.00431 158.45625 259.96548
239.0 0.00418 158.45625 249.33412
232.0 0.00431 158.45624 238.73708
231.0 0.00433 158.45624 228.82465
226.0 0.00442 158.45628 219.98978
198.0 0.00505 158.45631 212.43430
198.0 0.00505 158.45634 206.22719
206.0 0.00485 158.45641 201.34946
191.0 0.00524 158.45647 197.73088
195.0 0.00513 158.45654 195.28206
197.0 0.00508 158.45662 193.92256
186.0 0.00538 158.45671 193.60776
195.0 0.00513 158.45682 194.34306
198.0 0.00505 158.45692 196.19952
198.0 0.00505 158.45706 199.31647
217.0 0.00461 158.45720 203.89532
186.0 0.00538 158.45735 210.18257
231.0 0.00433 158.45750 218.44025
223.0 0.00448 158.45767 228.90555
259.0 0.00386 158.45786 241.73985
260.0 0.00385 158.45805 256.96829
302.0 0.003311 158.45824 274.40759
312.0 0.003205 158.45847 293.57236
344.0 0.002907 158.45866 313.55038
343.0 0.002915 158.45891 332.87747
330.0 0.003030 158.45915 349.45139
359.0 0.002786 158.45940 360.87900
339.0 0.002950 158.45964 365.18573
320.0 0.003125 158.45992 361.76529
333.0 0.003003 158.46021 351.75769
328.0 0.003049 158.46049 337.50266
278.0 0.00360 158.46082 321.58008
283.0 0.00353 158.46112 306.13614
264.0 0.00379 158.46146 292.67282
294.0 0.003401 158.46178 282.10031
268.0 0.00373 158.46213 274.84537
289.0 0.003460 158.46249 270.94794
280.0 0.00357 158.46289 268.56042
255.0 0.00392 158.46326 270.08817
276.0 0.00362 158.46364 272.91354
269.0 0.00372 158.46405 275.65573
255.0 0.00392 158.46445 276.78568
268.0 0.00373 158.46486 275.04044
249.0 0.00402 158.46529 269.89886
275.0 0.00364 158.46574 261.74673
252.0 0.00397 158.46619 251.57841
245.0 0.00408 158.46664 240.51302
208.0 0.00481 158.46710 230.16418
226.0 0.00442 158.46761 219.79262
204.0 0.00490 158.46809 210.43254
196.0 0.00510 158.46861 202.27312
198.0 0.00505 158.46912 194.56042
204.0 0.00490 158.46964 188.85495
208.0 0.00481 158.47017 184.22459
198.0 0.00505 158.47072 180.52426
200.0 0.00500 158.47128 177.59705
209.0 0.00478 158.47185 175.29108
187.0 0.00535 158.47243 173.47076
175.0 0.00571 158.47301 172.02232
179.0 0.00559 158.47360 170.85522
188.0 0.00532 158.47420 169.89990
171.0 0.00585 158.47481 169.10649
169.0 0.00592 158.47545 168.78775
177.0 0.00565 158.47607 168.23083
186.0 0.00538 158.47673 167.75516
187.0 0.00535 158.47739 167.34769
195.0 0.00513 158.47807 166.99907
194.0 0.00515 158.47876 166.70250
189.0 0.00529 158.47943 166.45290
170.0 0.00588 158.48015 166.24637
155.0 0.00645 158.48087 166.08014
175.0 0.00571 158.48158 165.95216
178.0 0.00562 158.48232 165.86113
164.0 0.00610 158.48305 165.80637
160.0 0.00625 158.48381 165.78795
168.0 0.00595 158.48456 165.80647
181.0 0.00552 158.48532 165.86327
185.0 0.00541 158.48613 165.96069
159.0 0.00629 158.48691 166.10217
164.0 0.00610 158.48772 166.29265
187.0 0.00535 158.48853 166.53912
157.0 0.00637 158.48935 165.34138
176.0 0.00568 158.49020 165.78847
182.0 0.00549 158.49104 166.33437
154.0 0.00649 158.49188 167.00871
163.0 0.00613 158.49278 167.85294
158.0 0.00633 158.49365 168.92097
173.0 0.00578 158.49454 170.28455
164.0 0.00610 158.49544 172.03209
185.0 0.00541 158.49635 174.26791
187.0 0.00535 158.49724 177.10777
205.0 0.00488 158.49818 181.23372
195.0 0.00513 158.49913 185.64761
193.0 0.00518 158.50008 190.97533
192.0 0.00521 158.50104 197.25156
215.0 0.00465 158.50200 204.43860
219.0 0.00457 158.50298 211.62741
224.0 0.00446 158.50397 220.08261
216.0 0.00463 158.50499 228.50935
272.0 0.00368 158.50598 236.16632
244.0 0.00410 158.50702 242.10349
218.0 0.00459 158.50804 245.41237
244.0 0.00410 158.50908 245.57300
220.0 0.00455 158.51013 242.73515
230.0 0.00435 158.51122 237.66119
211.0 0.00474 158.51228 231.38835
215.0 0.00465 158.51337 228.64278
217.0 0.00461 158.51445 223.08501
231.0 0.00433 158.51556 218.25005
214.0 0.00467 158.51668 214.69252
185.0 0.00541 158.51779 212.51427
205.0 0.00488 158.51892 211.67641
206.0 0.00485 158.52007 212.00125
209.0 0.00478 158.52122 213.17427
208.0 0.00481 158.52238 214.73766
246.0 0.00407 158.52356 216.11354
215.0 0.00465 158.52477 216.70088
247.0 0.00405 158.52596 216.05400
187.0 0.00535 158.52718 214.05156
199.0 0.00503 158.52838 210.91931
223.0 0.00448 158.52960 207.08647
208.0 0.00481 158.53085 203.00137
189.0 0.00529 158.53210 200.96147
208.0 0.00481 158.53334 197.39926
164.0 0.00610 158.53461 194.32889
188.0 0.00532 158.53589 191.82794
181.0 0.00552 158.53719 189.92133
192.0 0.00521 158.53850 188.60585
203.0 0.00493 158.53979 187.86316
199.0 0.00503 158.54111 187.67207
198.0 0.00505 158.54243 188.02061
196.0 0.00510 158.54376 188.91594
183.0 0.00546 158.54512 190.39209
217.0 0.00461 158.54649 192.51424
221.0 0.00452 158.54787 195.37859
198.0 0.00505 158.54926 199.10928
193.0 0.00518 158.55063 203.83763
218.0 0.00459 158.55203 209.69775
233.0 0.00429 158.55345 216.79643
245.0 0.00408 158.55487 225.18951
224.0 0.00446 158.55629 234.85324
250.0 0.00400 158.55775 245.64969
249.0 0.00402 158.55919 257.28247
285.0 0.00351 158.56065 269.24976
291.0 0.003436 158.56213 280.83978
279.0 0.00358 158.56360 291.26920
300.0 0.003333 158.56509 300.04263
274.0 0.00365 158.56659 307.39615
325.0 0.003077 158.56812 314.46994
343.0 0.002915 158.56964 323.04050
301.0 0.003322 158.57118 335.02359
350.0 0.002857 158.57272 352.14032
374.0 0.002674 158.57428 375.71619
394.0 0.002538 158.57585 406.58331
442.0 0.002262 158.57742 444.97263
516.0 0.001938 158.57901 490.35629
543.0 0.001842 158.58060 540.52838
600.0 0.001667 158.58220 594.05280
692.0 0.001445 158.58383 645.71851
732.0 0.001366 158.58542 689.34113
724.0 0.001381 158.58705 718.00800
713.0 0.001403 158.58871 726.29559
664.0 0.001506 158.59038 712.95129
670.0 0.001493 158.59203 681.57922
629.0 0.001590 158.59370 638.88037
550.0 0.001818 158.59540 591.97235
550.0 0.001818 158.59709 547.23431
462.0 0.002165 158.59882 507.56161
464.0 0.002155 158.60051 475.95981
455.0 0.002198 158.60225 453.61847
420.0 0.002381 158.60397 440.70200
451.0 0.002217 158.60573 436.12729
452.0 0.002212 158.60747 439.03009
465.0 0.002151 158.60925 446.58472
459.0 0.002179 158.61101 455.45728
443.0 0.002257 158.61279 461.67603
478.0 0.002092 158.61461 461.48074
463.0 0.002160 158.61641 452.56445
425.0 0.002353 158.61824 434.96793
388.0 0.002577 158.62006 410.78360
403.0 0.002481 158.62189 382.96146
326.0 0.003067 158.62375 354.49146
319.0 0.003135 158.62561 326.79227
289.0 0.003460 158.62749 301.38019
283.0 0.00353 158.62936 278.92245
277.0 0.00361 158.63124 259.66266
233.0 0.00429 158.63313 243.58749
243.0 0.00412 158.63506 230.45300
248.0 0.00403 158.63696 219.90897
211.0 0.00474 158.63889 211.55116
178.0 0.00562 158.64082 204.97244
201.0 0.00498 158.64278 199.79839
209.0 0.00478 158.64473 195.70833
187.0 0.00535 158.64671 192.44267
198.0 0.00505 158.64868 189.80121
187.0 0.00535 158.65067 187.63551
194.0 0.00515 158.65266 185.83919
185.0 0.00541 158.65466 184.33795
180.0 0.00556 158.65669 183.08138
170.0 0.00588 158.65872 182.03581
156.0 0.00641 158.66075 180.60336
175.0 0.00571 158.66281 179.95424
180.0 0.00556 158.66489 179.48976
182.0 0.00549 158.66695 179.22427
195.0 0.00513 158.66904 179.18689
175.0 0.00571 158.67108 179.42439
176.0 0.00568 158.67320 180.03360
181.0 0.00552 158.67532 181.04967
207.0 0.00483 158.67743 182.61458
184.0 0.00543 158.67953 184.86104
190.0 0.00526 158.68169 187.93141
177.0 0.00565 158.68384 191.95360
169.0 0.00592 158.68602 197.02866
229.0 0.00437 158.68817 203.19688
206.0 0.00485 158.69037 210.40613
233.0 0.00429 158.69254 214.65321
223.0 0.00448 158.69475 223.05307
242.0 0.00413 158.69696 231.61653
208.0 0.00481 158.69917 239.14478
236.0 0.00424 158.70140 244.54146
262.0 0.00382 158.70364 246.82376
229.0 0.00437 158.70589 245.57558
217.0 0.00461 158.70815 241.20992
237.0 0.00422 158.71040 234.71140
229.0 0.00437 158.71269 227.26952
226.0 0.00442 158.71498 219.90173
210.0 0.00476 158.71729 213.32840
192.0 0.00521 158.71960 208.01089
181.0 0.00552 158.72191 204.19856
202.0 0.00495 158.72424 201.96864
212.0 0.00472 158.72656 201.25110
197.0 0.00508 158.72890 199.93105
195.0 0.00513 158.73128 201.55356
200.0 0.00500 158.73364 203.65524
196.0 0.00510 158.73602 205.61526
225.0 0.00444 158.73840 206.74800
214.0 0.00467 158.74080 206.83836
174.0 0.00575 158.74319 204.96114
215.0 0.00465 158.74562 201.65327
204.0 0.00490 158.74806 197.39021
211.0 0.00474 158.75049 192.69893
178.0 0.00562 158.75293 188.00755
186.0 0.00538 158.75539 183.60629
201.0 0.00498 158.75787 179.66643
187.0 0.00535 158.76035 176.27092
167.0 0.00599 158.76283 173.43945
175.0 0.00571 158.76532 171.14833
190.0 0.00526 158.76782 169.34613
191.0 0.00524 158.77036 167.96768
172.0 0.00581 158.77289 166.94435
162.0 0.00617 158.77542 166.21396
170.0 0.00588 158.77797 165.72169
184.0 0.00543 158.78052 165.60385
177.0 0.00565 158.78307 165.47322
162.0 0.00617 158.78566 165.47594
158.0 0.00633 158.78824 165.58786
153.0 0.00654 158.79083 165.78416
173.0 0.00578 158.79343 166.03496
171.0 0.00585 158.79605 166.30099
164.0 0.00610 158.79869 166.53206
176.0 0.00568 158.80130 166.67294
178.0 0.00562 158.80396 166.68011
162.0 0.00617 158.80664 166.54213
159.0 0.00629 158.80928 166.28584
172.0 0.00581 158.81195 165.96263
168.0 0.00595 158.81464 165.62753
176.0 0.00568 158.81734 165.32611
173.0 0.00578 158.82005 165.09105
163.0 0.00613 158.82275 164.94397
152.0 0.00658 158.82545 164.89821
168.0 0.00595 158.82822 164.96106
159.0 0.00629 158.83095 165.13531
181.0 0.00552 158.83369 165.42099
154.0 0.00649 158.83646 165.81599
175.0 0.00571 158.83925 166.31767
185.0 0.00541 158.84204 166.36507
170.0 0.00588 158.84482 167.09830
155.0 0.00645 158.84761 167.95776
173.0 0.00578 158.85043 168.98761
155.0 0.00645 158.85326 170.25806
156.0 0.00641 158.85609 171.85378
147.0 0.00680 158.85893 173.85710
190.0 0.00526 158.86179 176.33247
181.0 0.00552 158.86464 179.31412
152.0 0.00658 158.86752 183.37056
176.0 0.00568 158.87038 187.30704
197.0 0.00508 158.87326 191.53024
174.0 0.00575 158.87617 195.79034
208.0 0.00481 158.87909 199.70700
162.0 0.00617 158.88199 202.79111
181.0 0.00552 158.88492 204.25946
185.0 0.00541 158.88786 204.40224
203.0 0.00493 158.89081 202.95313
178.0 0.00562 158.89377 200.27977
172.0 0.00581 158.89673 196.91280
181.0 0.00552 158.89972 193.36394
194.0 0.00515 158.90269 190.03041
187.0 0.00535 158.90572 187.18077
173.0 0.00578 158.90869 184.97522
198.0 0.00505 158.91173 183.48853
170.0 0.00588 158.91475 183.01797
194.0 0.00515 158.91779 182.93985
191.0 0.00524 158.92084 183.41934
179.0 0.00559 158.92389 184.27919
183.0 0.00546 158.92696 185.27475
160.0 0.00625 158.93002 186.10535
157.0 0.00637 158.93312 186.46434
207.0 0.00483 158.93622 186.13135
193.0 0.00518 158.93932 185.05769
194.0 0.00515 158.94243 183.37317
176.0 0.00568 158.94557 181.30746
187.0 0.00535 158.94870 179.09937
162.0 0.00617 158.95183 176.93396
175.0 0.00571 158.95499 174.93588
161.0 0.00621 158.95816 173.17888
159.0 0.00629 158.96130 171.67007
171.0 0.00585 158.96449 170.48038
170.0 0.00588 158.96770 169.57390
149.0 0.00671 158.97086 168.93555
162.0 0.00617 158.97409 168.54715
179.0 0.00559 158.97733 168.39333
164.0 0.00610 158.98053 168.46707
147.0 0.00680 158.98378 168.77477
173.0 0.00578 158.98705 169.34103
181.0 0.00552 158.99028 170.21283
179.0 0.00559 158.99358 171.46870
185.0 0.00541 158.99684 173.18600
187.0 0.00535 159.00014 175.48882
191.0 0.00524 159.00343 181.42155
192.0 0.00521 159.00674 185.38515
180.0 0.00556 159.01004 190.30087
200.0 0.00500 159.01338 196.21651
196.0 0.00510 159.01671 203.15320
217.0 0.00461 159.02005 210.98022
213.0 0.00469 159.02341 219.43259
224.0 0.00446 159.02678 228.04373
226.0 0.00442 159.03014 236.07266
234.0 0.00427 159.03354 242.55075
248.0 0.00403 159.03694 246.45250
242.0 0.00413 159.04033 247.08862
267.0 0.00375 159.04373 244.46919
271.0 0.00369 159.04716 239.32051
244.0 0.00410 159.05058 232.71854
239.0 0.00418 159.05403 225.72168
228.0 0.00439 159.05750 219.14906
213.0 0.00469 159.06093 214.71046
226.0 0.00442 159.06441 210.50874
215.0 0.00465 159.06792 207.79759
219.0 0.00457 159.07140 206.60481
192.0 0.00521 159.07487 206.83746
218.0 0.00459 159.07838 208.28864
211.0 0.00474 159.08189 210.63571
235.0 0.00426 159.08542 213.43002
198.0 0.00505 159.08897 216.09914
207.0 0.00483 159.09251 218.01245
233.0 0.00429 159.09605 218.64764
212.0 0.00472 159.09964 217.79729
226.0 0.00442 159.10321 215.64967
212.0 0.00472 159.10680 212.66467
252.0 0.00397 159.11041 209.36136
209.0 0.00478 159.11400 206.17259
210.0 0.00476 159.11761 203.23267
204.0 0.00490 159.12122 201.11497
203.0 0.00493 159.12488 199.76895
211.0 0.00474 159.12849 199.29288
209.0 0.00478 159.13216 199.77386
198.0 0.00505 159.13582 201.31442
220.0 0.00455 159.13948 204.05794
191.0 0.00524 159.14316 208.21187
200.0 0.00500 159.14685 214.06461
215.0 0.00465 159.15056 221.99191
244.0 0.00410 159.15425 232.44849
257.0 0.00389 159.15796 245.94025
272.0 0.00368 159.16170 262.97552
271.0 0.00369 159.16544 284.00934
302.0 0.003311 159.16920 309.30310
340.0 0.002941 159.17294 338.89154
374.0 0.002674 159.17673 372.40543
397.0 0.002519 159.18050 408.91141
452.0 0.002212 159.18427 446.68732
526.0 0.001901 159.18806 482.98233
489.0 0.002045 159.19186 513.95679
550.0 0.001818 159.19565 535.19385
504.0 0.001984 159.19948 543.05487
544.0 0.001838 159.20329 536.35590
539.0 0.001855 159.20717 517.04480
465.0 0.002151 159.21101 489.33008
427.0 0.002342 159.21487 457.89948
428.0 0.002336 159.21875 426.73108
358.0 0.002793 159.22263 398.68326
323.0 0.003096 159.22650 375.58743
333.0 0.003003 159.23041 358.46298
326.0 0.003067 159.23430 347.69095
319.0 0.003135 159.23824 342.54306
355.0 0.002817 159.24214 343.56421
345.0 0.002899 159.24608 349.04938
336.0 0.002976 159.25003 357.37753
382.0 0.002618 159.25398 366.37463
371.0 0.002695 159.25793 373.41931
371.0 0.002695 159.26192 375.89651
353.0 0.002833 159.26590 372.01062
315.0 0.003175 159.26988 361.50684
321.0 0.003115 159.27388 346.95709
328.0 0.003049 159.27788 327.85922
283.0 0.00353 159.28192 307.51517
274.0 0.00365 159.28595 287.49496
278.0 0.00360 159.28998 268.82767
216.0 0.00463 159.29404 252.09987
221.0 0.00452 159.29810 237.57671
193.0 0.00518 159.30215 224.99948
213.0 0.00469 159.30623 214.85355
201.0 0.00498 159.31029 206.62770
190.0 0.00526 159.31441 200.04878
198.0 0.00505 159.31850 194.83521
178.0 0.00562 159.32262 190.71835
165.0 0.00606 159.32674 187.46001
187.0 0.00535 159.33087 184.86142
177.0 0.00565 159.33499 182.76451
194.0 0.00515 159.33914 181.04881
169.0 0.00592 159.34331 180.29198
185.0 0.00541 159.34747 179.12079
168.0 0.00595 159.35167 178.13318
150.0 0.00667 159.35583 177.29700
175.0 0.00571 159.36005 176.58955
180.0 0.00556 159.36426 175.99434
186.0 0.00538 159.36845 175.50043
172.0 0.00581 159.37270 175.09911
164.0 0.00610 159.37692 174.78442
190.0 0.00526 159.38116 174.55255
177.0 0.00565 159.38541 174.40114
175.0 0.00571 159.38966 174.32951
143.0 0.00699 159.39392 174.33841
172.0 0.00581 159.39821 174.43018
165.0 0.00606 159.40251 174.60922
180.0 0.00556 159.40681 174.87335
179.0 0.00559 159.41112 175.25113
171.0 0.00585 159.41542 175.74748
178.0 0.00562 159.41974 173.37764
184.0 0.00543 159.42410 174.29187
170.0 0.00588 159.42844 175.41609
177.0 0.00565 159.43279 176.81274
189.0 0.00529 159.43713 178.56506
205.0 0.00488 159.44153 180.77939
165.0 0.00606 159.44591 183.58508
198.0 0.00505 159.45032 187.13252
196.0 0.00510 159.45471 191.58704
223.0 0.00448 159.45911 197.11838
192.0 0.00521 159.46352 204.50920
232.0 0.00431 159.46794 212.66182
223.0 0.00448 159.47238 222.25383
258.0 0.00388 159.47682 233.24904
279.0 0.00358 159.48128 245.50902
276.0 0.00362 159.48575 258.68234
270.0 0.00370 159.49022 272.15088
294.0 0.003401 159.49471 283.44357
295.0 0.003390 159.49919 294.31781
317.0 0.003155 159.50369 301.75562
315.0 0.003175 159.50819 304.59824
300.0 0.003333 159.51271 302.48895
283.0 0.00353 159.51726 296.06967
250.0 0.00400 159.52177 286.69183
271.0 0.00369 159.52634 275.91962
244.0 0.00410 159.53090 265.09457
252.0 0.00397 159.53546 255.20370
238.0 0.00420 159.54002 247.20593
255.0 0.00392 159.54460 240.85086
256.0 0.00391 159.54919 236.60130
275.0 0.00364 159.55380 234.44493
257.0 0.00389 159.55840 234.21715
281.0 0.00356 159.56303 235.60139
246.0 0.00407 159.56766 238.11371
222.0 0.00450 159.57230 241.08548
246.0 0.00407 159.57695 243.68262
243.0 0.00412 159.58160 245.16084
240.0 0.00417 159.58627 244.54051
233.0 0.00429 159.59094 241.68582
240.0 0.00417 159.59564 236.84114
243.0 0.00412 159.60031 230.61084
247.0 0.00405 159.60501 223.69569
235.0 0.00426 159.60971 216.69630
197.0 0.00508 159.61444 210.04190
214.0 0.00467 159.61916 204.00287
216.0 0.00463 159.62390 198.73096
206.0 0.00485 159.62866 194.29741
199.0 0.00503 159.63341 190.72247
184.0 0.00543 159.63820 187.99637
181.0 0.00552 159.64294 186.10251
223.0 0.00448 159.64774 185.02243
198.0 0.00505 159.65253 184.75296
187.0 0.00535 159.65733 185.30981
193.0 0.00518 159.66212 186.79869
187.0 0.00535 159.66696 189.12878
211.0 0.00474 159.67178 192.41702
202.0 0.00495 159.67664 196.69437
238.0 0.00420 159.68147 201.95921
194.0 0.00515 159.68634 208.14073
192.0 0.00521 159.69118 215.07251
231.0 0.00433 159.69604 222.44554
230.0 0.00435 159.70094 229.75616
251.0 0.00398 159.70583 236.27715
265.0 0.00377 159.71074 241.10246
238.0 0.00420 159.71564 243.39693
232.0 0.00431 159.72055 242.87354
261.0 0.00383 159.72549 239.44145
236.0 0.00424 159.73044 233.98575
238.0 0.00420 159.73537 227.46321
222.0 0.00450 159.74031 220.74734
192.0 0.00521 159.74529 214.49724
205.0 0.00488 159.75024 209.15482
193.0 0.00518 159.75525 204.98796
175.0 0.00571 159.76022 202.12947
198.0 0.00505 159.76521 199.26770
218.0 0.00459 159.77022 199.07996
185.0 0.00541 159.77525 200.02728
203.0 0.00493 159.78027 201.88200
200.0 0.00500 159.78531 204.31895
213.0 0.00469 159.79034 206.90555
219.0 0.00457 159.79541 209.12579
215.0 0.00465 159.80046 210.47917
210.0 0.00476 159.80554 210.64644
187.0 0.00535 159.81061 209.69621
209.0 0.00478 159.81570 207.75412
176.0 0.00568 159.82080 205.29364
210.0 0.00476 159.82591 202.66542
203.0 0.00493 159.83102 200.07887
208.0 0.00481 159.83615 197.59505
222.0 0.00450 159.84126 195.15485
199.0 0.00503 159.84642 192.65646
202.0 0.00495 159.85156 189.35284
201.0 0.00498 159.85674 186.66141
166.0 0.00602 159.86189 183.97643
172.0 0.00581 159.86707 181.42693
190.0 0.00526 159.87225 179.12892
155.0 0.00645 159.87746 177.13818
164.0 0.00610 159.88266 175.49768
192.0 0.00521 159.88786 174.21745
171.0 0.00585 159.89310 173.29329
192.0 0.00521 159.89832 172.70697
166.0 0.00602 159.90356 172.43123
167.0 0.00599 159.90881 172.42900
182.0 0.00549 159.91406 172.65192
178.0 0.00562 159.91934 173.03694
196.0 0.00510 159.92461 173.50447
213.0 0.00469 159.92989 173.96321
177.0 0.00565 159.93517 174.32869
158.0 0.00633 159.94048 174.55350
186.0 0.00538 159.94579 174.65041
158.0 0.00633 159.95110 174.68752
179.0 0.00559 159.95645 174.75804
190.0 0.00526 159.96178 174.95059
167.0 0.00599 159.96710 175.31374
166.0 0.00602 159.97247 175.87027
197.0 0.00508 159.97783 176.59921
168.0 0.00595 159.98322 177.43520
185.0 0.00541 159.98859 178.26454
172.0 0.00581 159.99397 178.93094
187.0 0.00535 159.99937 178.65294
172.0 0.00581 160.00476 178.54729
205.0 0.00488 160.01021 177.94737
173.0 0.00578 160.01563 176.93112
167.0 0.00599 160.02106 175.64732
181.0 0.00552 160.02650 174.26108
164.0 0.00610 160.03195 172.90916
176.0 0.00568 160.03740 171.69000
168.0 0.00595 160.04288 170.66652
182.0 0.00549 160.04836 169.87402
167.0 0.00599 160.05382 169.32660
181.0 0.00552 160.05933 169.02148
191.0 0.00524 160.06483 168.94072
160.0 0.00625 160.07033 169.05167
168.0 0.00595 160.07587 169.30499
163.0 0.00613 160.08139 169.63240
174.0 0.00575 160.08691 169.94659
147.0 0.00680 160.09247 169.83614
182.0 0.00549 160.09802 169.85155
167.0 0.00599 160.10358 169.62117
151.0 0.00662 160.10915 169.15585
155.0 0.00645 160.11473 168.51447
174.0 0.00575 160.12032 167.77586
158.0 0.00633 160.12592 167.01266
154.0 0.00649 160.13153 166.67969
153.0 0.00654 160.13715 166.02293
159.0 0.00629 160.14278 165.30942
179.0 0.00559 160.14841 164.82053
156.0 0.00641 160.15404 164.40829
182.0 0.00549 160.15971 164.05910
151.0 0.00662 160.16534 163.75723
168.0 0.00595 160.17102 163.48853
150.0 0.00667 160.17671 163.24489
144.0 0.00694 160.18237 163.02438
164.0 0.00610 160.18806 162.82840
164.0 0.00610 160.19377 162.65900
171.0 0.00585 160.19948 162.51732
155.0 0.00645 160.20522 162.40353
150.0 0.00667 160.21092 162.31697
162.0 0.00617 160.21667 162.25667
170.0 0.00588 160.22243 162.22110
155.0 0.00645 160.22816 162.20851
148.0 0.00676 160.23393 162.42216
141.0 0.00709 160.23970 162.38597
166.0 0.00602 160.24550 162.43752
165.0 0.00606 160.25127 162.49989
142.0 0.00704 160.25706 162.56779
153.0 0.00654 160.26286 162.63586
158.0 0.00633 160.26868 162.69989
163.0 0.00613 160.27451 162.75864
174.0 0.00575 160.28032 162.81461
153.0 0.00654 160.28618 162.95163
154.0 0.00649 160.29202 163.02025
141.0 0.00709 160.29788 163.10268
141.0 0.00709 160.30376 163.20374
147.0 0.00680 160.30962 163.17709
146.0 0.00685 160.31552 163.33345
142.0 0.00704 160.32138 163.52167
167.0 0.00599 160.32729 163.74803
146.0 0.00685 160.33319 164.02097
142.0 0.00704 160.33913 164.35233
156.0 0.00641 160.34506 164.75835
149.0 0.00671 160.35097 165.26129
150.0 0.00667 160.35692 165.89056
141.0 0.00709 160.36288 166.68375
168.0 0.00595 160.36882 167.68668
158.0 0.00633 160.37480 168.95267
145.0 0.00690 160.38077 170.53952
172.0 0.00581 160.38676 172.50682
162.0 0.00617 160.39276 174.94443
165.0 0.00606 160.39874 179.21646
157.0 0.00637 160.40477 182.60915
175.0 0.00571 160.41077 186.46310
194.0 0.00515 160.41681 190.62622
187.0 0.00535 160.42285 195.09753
191.0 0.00524 160.42886 199.54060
187.0 0.00535 160.43494 203.57336
220.0 0.00455 160.44099 206.71512
222.0 0.00450 160.44707 208.49399
205.0 0.00488 160.45313 208.62480
198.0 0.00505 160.45921 207.15042
184.0 0.00543 160.46535 204.42690
164.0 0.00610 160.47141 200.96582
191.0 0.00524 160.47752 197.77301
176.0 0.00568 160.48364 194.24124
170.0 0.00588 160.48978 191.12427
165.0 0.00606 160.49591 188.60641
188.0 0.00532 160.50206 186.77322
175.0 0.00571 160.50821 186.37119
153.0 0.00654 160.51437 185.98424
185.0 0.00541 160.52054 186.24844
181.0 0.00552 160.52673 187.06691
188.0 0.00532 160.53291 188.29674
153.0 0.00654 160.53911 189.74229
188.0 0.00532 160.54532 191.16013
181.0 0.00552 160.55154 192.23610
171.0 0.00585 160.55777 192.71536
178.0 0.00562 160.56396 192.44594
181.0 0.00552 160.57021 191.45078
200.0 0.00500 160.57648 189.90572
158.0 0.00633 160.58270 188.05447
172.0 0.00581 160.58894 186.38397
191.0 0.00524 160.59525 184.56009
162.0 0.00617 160.60150 182.95695
165.0 0.00606 160.60782 181.64246
181.0 0.00552 160.61411 180.65862
170.0 0.00588 160.62039 180.02350
194.0 0.00515 160.62672 179.74127
191.0 0.00524 160.63304 179.80695
165.0 0.00606 160.63936 180.20992
164.0 0.00610 160.64571 180.93658
185.0 0.00541 160.65205 181.97191
181.0 0.00552 160.65840 183.30568
166.0 0.00602 160.66476 184.90662
184.0 0.00543 160.67113 187.40323
181.0 0.00552 160.67751 189.48575
199.0 0.00503 160.68390 191.73433
176.0 0.00568 160.69028 194.08768
175.0 0.00571 160.69669 196.48715
183.0 0.00546 160.70311 198.90421
189.0 0.00529 160.70953 201.39079
187.0 0.00535 160.71594 204.10211
194.0 0.00515 160.72240 207.29407
196.0 0.00510 160.72882 211.29266
192.0 0.00521 160.73528 216.51115
216.0 0.00463 160.74174 223.23004
187.0 0.00535 160.74821 231.87366
228.0 0.00439 160.75470 242.79866
233.0 0.00429 160.76118 256.31528
261.0 0.00383 160.76765 272.65973
326.0 0.003067 160.77419 291.90515
308.0 0.003247 160.78067 313.95313
351.0 0.002849 160.78719 338.40753
380.0 0.002632 160.79372 364.39560
349.0 0.002865 160.80026 390.68884
391.0 0.002558 160.80679 415.12872
401.0 0.002494 160.81335 435.02496
403.0 0.002481 160.81992 447.55917
398.0 0.002513 160.82648 450.71561
416.0 0.002404 160.83305 444.18530
390.0 0.002564 160.83963 429.54858
379.0 0.002639 160.84622 409.57861
354.0 0.002825 160.85283 387.26804
325.0 0.003077 160.85944 365.04001
308.0 0.003247 160.86604 344.73480
296.0 0.003378 160.87270 327.49866
301.0 0.003322 160.87930 314.00256
303.0 0.003300 160.88596 304.55002
307.0 0.003257 160.89261 299.15814
263.0 0.00380 160.89925 297.60608
302.0 0.003311 160.90591 299.45627
276.0 0.00362 160.91258 303.84024
315.0 0.003175 160.91925 310.23053
314.0 0.003185 160.92595 317.16013
337.0 0.002967 160.93266 323.07922
344.0 0.002907 160.93938 326.34000
313.0 0.003195 160.94609 325.65057
300.0 0.003333 160.95280 320.52823
279.0 0.00358 160.95955 311.46481
278.0 0.00360 160.96628 299.63821
266.0 0.00376 160.97302 286.41498
260.0 0.00385 160.97977 272.97440
254.0 0.00394 160.98656 260.16818
239.0 0.00418 160.99332 248.54065
226.0 0.00442 161.00008 238.40331
253.0 0.00395 161.00685 229.90791
215.0 0.00465 161.01366 223.10278
215.0 0.00465 161.02045 217.97495
184.0 0.00543 161.02727 214.48068
214.0 0.00467 161.03410 212.57535
185.0 0.00541 161.04091 212.21370
204.0 0.00490 161.04774 213.36185
232.0 0.00431 161.05460 215.99016
206.0 0.00485 161.06146 220.06169
231.0 0.00433 161.06830 225.51387
220.0 0.00455 161.07516 232.23373
238.0 0.00420 161.08205 240.02452
247.0 0.00405 161.08893 248.56743
260.0 0.00385 161.09584 257.38010
255.0 0.00392 161.10271 265.78809
293.0 0.003413 161.10963 272.90607
298.0 0.003356 161.11653 277.76047
263.0 0.00380 161.12344 279.50943
283.0 0.00353 161.13039 277.77612
271.0 0.00369 161.13733 272.84735
262.0 0.00382 161.14426 265.56860
229.0 0.00437 161.15123 257.01663
242.0 0.00413 161.15819 248.11034
237.0 0.00422 161.16518 239.77861
228.0 0.00439 161.17212 232.45992
239.0 0.00418 161.17914 226.47203
219.0 0.00457 161.18613 221.98018
244.0 0.00410 161.19313 219.03227
216.0 0.00463 161.20013 217.57990
184.0 0.00543 161.20714 217.48964
222.0 0.00450 161.21416 218.53995
217.0 0.00461 161.22119 220.42030
230.0 0.00435 161.22824 222.72334
223.0 0.00448 161.23531 224.94455
192.0 0.00521 161.24236 226.51146
213.0 0.00469 161.24940 226.87512
246.0 0.00407 161.25648 225.66631
215.0 0.00465 161.26357 222.83424
215.0 0.00465 161.27065 218.65562
199.0 0.00503 161.27777 213.59735
209.0 0.00478 161.28488 208.11395
200.0 0.00500 161.29199 200.97374
192.0 0.00521 161.29910 195.86980
185.0 0.00541 161.30621 191.20621
195.0 0.00513 161.31335 187.06419
192.0 0.00521 161.32050 183.46851
178.0 0.00562 161.32765 180.40576
177.0 0.00565 161.33481 177.83762
164.0 0.00610 161.34198 175.71063
178.0 0.00562 161.34915 173.96405
174.0 0.00575 161.35634 172.53613
161.0 0.00621 161.36354 171.36877
160.0 0.00625 161.37073 170.41003
184.0 0.00543 161.37793 169.61554
155.0 0.00645 161.38513 168.95026
162.0 0.00617 161.39236 168.38530
138.0 0.00725 161.39960 167.89897
162.0 0.00617 161.40683 167.47475
165.0 0.00606 161.41409 167.10046
150.0 0.00667 161.42134 165.88049
164.0 0.00610 161.42859 165.60605
147.0 0.00680 161.43585 165.35931
139.0 0.00719 161.44313 165.13629
165.0 0.00606 161.45042 164.93381
156.0 0.00641 161.45772 164.74925
155.0 0.00645 161.46501 164.58070
160.0 0.00625 161.47232 164.42628
166.0 0.00602 161.47964 164.28448
158.0 0.00633 161.48694 164.15399
150.0 0.00667 161.49429 164.03366
142.0 0.00704 161.50163 163.92253
177.0 0.00565 161.50897 163.81967
168.0 0.00595 161.51633 163.72433
164.0 0.00610 161.52370 163.63589
161.0 0.00621 161.53105 163.55368
149.0 0.00671 161.53844 163.47717
147.0 0.00680 161.54581 163.40585
189.0 0.00529 161.55319 163.33937
172.0 0.00581 161.56061 163.27725
170.0 0.00588 161.56799 163.21921
153.0 0.00654 161.57541 163.16493
158.0 0.00633 161.58287 163.11412
144.0 0.00694 161.59027 163.57446
173.0 0.00578 161.59772 164.50064
162.0 0.00617 161.60516 164.50717
164.0 0.00610 161.61261 163.83562
170.0 0.00588 161.62007 163.87163
179.0 0.00559 161.62755 163.91188
164.0 0.00610 161.63503 163.95642
167.0 0.00599 161.64252 164.00539
153.0 0.00654 161.64999 164.05893
144.0 0.00694 161.65750 164.11725
165.0 0.00606 161.66501 164.18056
144.0 0.00694 161.67250 164.24911
168.0 0.00595 161.68004 164.32320
150.0 0.00667 161.68756 164.40314
158.0 0.00633 161.69508 164.48932
168.0 0.00595 161.70264 164.58218
161.0 0.00621 161.71021 164.68221
153.0 0.00654 161.71776 164.78993
154.0 0.00649 161.72533 164.90598
169.0 0.00592 161.73288 165.28949
162.0 0.00617 161.74048 165.91737
154.0 0.00649 161.74808 166.08768
163.0 0.00613 161.75568 165.92885
152.0 0.00658 161.76326 166.13600
161.0 0.00621 161.77089 166.35847
187.0 0.00535 161.77852 166.59789
151.0 0.00662 161.78615 166.85620
158.0 0.00633 161.79378 167.13565
160.0 0.00625 161.80141 167.43884
161.0 0.00621 161.80905 167.76892
162.0 0.00617 161.81671 168.12965
139.0 0.00719 161.82439 168.52585
166.0 0.00602 161.83205 168.96378
181.0 0.00552 161.83974 169.45091
178.0 0.00562 161.84744 169.99800
151.0 0.00662 161.85512 170.61937
177.0 0.00565 161.86282 171.33403
175.0 0.00571 161.87053 172.16750
178.0 0.00562 161.87825 173.15321
160.0 0.00625 161.88599 174.33365
162.0 0.00617 161.89371 175.76128
174.0 0.00575 161.90144 177.49800
187.0 0.00535 161.90919 179.61346
173.0 0.00578 161.91696 182.18135
165.0 0.00606 161.92471 185.27356
215.0 0.00465 161.93248 188.95294
189.0 0.00529 161.94025 193.26633
208.0 0.00481 161.94804 198.22298
205.0 0.00488 161.95581 203.79482
203.0 0.00493 161.96362 209.88675
210.0 0.00476 161.97144 216.31210
227.0 0.00441 161.97925 222.76454
228.0 0.00439 161.98706 228.81381
234.0 0.00427 161.99490 233.96936
275.0 0.00364 162.00273 237.84282
215.0 0.00465 162.01057 240.35506
275.0 0.00364 162.01843 241.84146
226.0 0.00442 162.02628 242.96318
255.0 0.00392 162.03415 244.49271
249.0 0.00402 162.04205 247.13010
262.0 0.00382 162.04993 251.40710
237.0 0.00422 162.05780 257.66333
270.0 0.00370 162.06570 266.04187
293.0 0.003413 162.07361 276.47339
271.0 0.00369 162.08151 288.63474
300.0 0.003333 162.08943 301.88190
321.0 0.003115 162.09735 315.18201
318.0 0.003145 162.10529 327.11646
339.0 0.002950 162.11322 336.06729
357.0 0.002801 162.12115 340.63986
344.0 0.002907 162.12912 340.15573
334.0 0.002994 162.13710 334.86865
335.0 0.002985 162.14505 325.76306
306.0 0.003268 162.15305 314.10434
287.0 0.003484 162.16103 301.13449
302.0 0.003311 162.16901 287.95242
276.0 0.00362 162.17700 275.48019
282.0 0.00355 162.18501 264.43402
275.0 0.00364 162.19301 255.30574
261.0 0.00383 162.20103 248.37206
236.0 0.00424 162.20906 243.72395
251.0 0.00398 162.21710 241.29726
272.0 0.00368 162.22513 240.89268
238.0 0.00420 162.23320 242.17812
253.0 0.00395 162.24126 244.67288
253.0 0.00395 162.24931 247.72737
266.0 0.00376 162.25739 250.52589
256.0 0.00391 162.26544 252.17146
266.0 0.00376 162.27353 251.88934
235.0 0.00426 162.28165 249.28288
244.0 0.00410 162.28973 244.47182
286.0 0.003497 162.29784 237.99605
236.0 0.00424 162.30594 230.56549
256.0 0.00391 162.31407 222.83340
214.0 0.00467 162.32219 215.28894
199.0 0.00503 162.33031 208.24902
210.0 0.00476 162.33849 201.88922
229.0 0.00437 162.34663 196.29715
212.0 0.00472 162.35478 191.48099
173.0 0.00578 162.36296 187.40639
199.0 0.00503 162.37112 184.00922
179.0 0.00559 162.37929 181.20816
151.0 0.00662 162.38748 178.91522
181.0 0.00552 162.39568 177.04350
180.0 0.00556 162.40387 175.51297
183.0 0.00546 162.41208 175.93825
179.0 0.00559 162.42030 174.94177
151.0 0.00662 162.42851 174.11313
164.0 0.00610 162.43674 173.41698
181.0 0.00552 162.44498 172.33278
166.0 0.00602 162.45322 171.84152
182.0 0.00549 162.46147 171.41754
180.0 0.00556 162.46971 171.04950
158.0 0.00633 162.47798 170.72899
138.0 0.00725 162.48625 170.44960
143.0 0.00699 162.49452 170.20636
159.0 0.00629 162.50281 169.99539
180.0 0.00556 162.51112 169.81355
172.0 0.00581 162.51941 169.65834
166.0 0.00602 162.52771 169.52763
158.0 0.00633 162.53603 170.30232
162.0 0.00617 162.54434 170.24185
167.0 0.00599 162.55269 170.20287
170.0 0.00588 162.56102 170.18445
150.0 0.00667 162.56935 170.18600
173.0 0.00578 162.57771 171.07297
175.0 0.00571 162.58604 171.13895
166.0 0.00602 162.59439 171.22534
161.0 0.00621 162.60277 171.33226
162.0 0.00617 162.61116 171.45999
158.0 0.00633 162.61954 171.60916
163.0 0.00613 162.62793 171.78041
156.0 0.00641 162.63632 171.97478
150.0 0.00667 162.64473 172.19304
166.0 0.00602 162.65315 172.43674
182.0 0.00549 162.66158 172.70734
167.0 0.00599 162.67000 173.00665
170.0 0.00588 162.67844 172.20032
172.0 0.00581 162.68686 172.59642
156.0 0.00641 162.69531 173.02722
175.0 0.00571 162.70375 173.94853
183.0 0.00546 162.71220 174.47249
165.0 0.00606 162.72069 175.04324
170.0 0.00588 162.72917 175.66580
180.0 0.00556 162.73764 176.34621
185.0 0.00541 162.74611 177.09131
191.0 0.00524 162.75461 177.90984
171.0 0.00585 162.76311 178.81075
174.0 0.00575 162.77164 179.80661
170.0 0.00588 162.78014 180.91251
170.0 0.00588 162.78865 182.14786
175.0 0.00571 162.79721 183.53786
183.0 0.00546 162.80573 185.11583
186.0 0.00538 162.81429 186.92641
181.0 0.00552 162.82283 189.02908
198.0 0.00505 162.83139 191.50276
191.0 0.00524 162.83994 193.96425
187.0 0.00535 162.84851 197.53426
193.0 0.00518 162.85709 201.87175
209.0 0.00478 162.86568 207.17526
229.0 0.00437 162.87427 213.67151
226.0 0.00442 162.88284 221.60951
221.0 0.00452 162.89148 231.24673
235.0 0.00426 162.90007 242.82919
217.0 0.00461 162.90869 256.56519
277.0 0.00361 162.91731 272.59213
286.0 0.003497 162.92595 290.93423
311.0 0.003215 162.93459 311.44617
349.0 0.002865 162.94325 333.73401
377.0 0.002653 162.95187 357.04742
391.0 0.002558 162.96056 380.16040
431.0 0.002320 162.96921 401.32373
444.0 0.002252 162.97787 418.35992
429.0 0.002331 162.98657 429.22253
413.0 0.002421 162.99524 432.68668
451.0 0.002217 163.00395 428.95004
401.0 0.002494 163.01263 419.61737
409.0 0.002445 163.02133 407.09235
367.0 0.002725 163.03008 393.83173
368.0 0.002717 163.03877 381.86334
357.0 0.002801 163.04750 373.52832
361.0 0.002770 163.05623 367.97372
380.0 0.002632 163.06499 366.51352
370.0 0.002703 163.07372 369.18765
347.0 0.002882 163.08247 375.62759
373.0 0.002681 163.09123 385.03146
348.0 0.002874 163.09999 396.14523
402.0 0.002488 163.10876 407.34656
425.0 0.002353 163.11755 416.90915
467.0 0.002141 163.12636 423.39700
423.0 0.002364 163.13512 425.95395
425.0 0.002353 163.14392 424.27298
440.0 0.002273 163.15276 418.38654
417.0 0.002398 163.16153 408.37390
371.0 0.002695 163.17036 394.71140
384.0 0.002604 163.17917 378.28415
377.0 0.002653 163.18802 360.35638
351.0 0.002849 163.19687 342.33221
313.0 0.003195 163.20573 325.39633
278.0 0.00360 163.21458 310.40152
298.0 0.003356 163.22342 297.84570
282.0 0.00355 163.23230 288.39392
270.0 0.00370 163.24118 281.08853
247.0 0.00405 163.25005 276.14798
288.0 0.003472 163.25893 273.15646
282.0 0.00355 163.26784 271.51611
278.0 0.00360 163.27673 270.45956
265.0 0.00377 163.28561 269.12225
272.0 0.00368 163.29454 266.71628
271.0 0.00369 163.30345 262.75131
252.0 0.00397 163.31238 257.18250
267.0 0.00375 163.32132 250.36096
221.0 0.00452 163.33026 242.85408
250.0 0.00400 163.33922 235.16150
249.0 0.00402 163.34814 227.72046
221.0 0.00452 163.35712 220.80635
223.0 0.00448 163.36609 214.57599
219.0 0.00457 163.37508 209.10027
204.0 0.00490 163.38403 204.39101
193.0 0.00518 163.39302 200.42015
176.0 0.00568 163.40201 197.13420
191.0 0.00524 163.41101 194.46312
203.0 0.00493 163.42000 192.33565
174.0 0.00575 163.42902 190.67690
169.0 0.00592 163.43803 189.42043
197.0 0.00508 163.44707 188.51057
174.0 0.00575 163.45610 187.97307
177.0 0.00565 163.46513 187.64445
159.0 0.00629 163.47417 187.57797
190.0 0.00526 163.48322 187.77585
182.0 0.00549 163.49228 188.25594
187.0 0.00535 163.50134 189.05260
175.0 0.00571 163.51041 190.21712
203.0 0.00493 163.51947 191.81494
191.0 0.00524 163.52856 193.92830
200.0 0.00500 163.53766 196.65103
170.0 0.00588 163.54674 200.08485
234.0 0.00427 163.55583 204.33237
204.0 0.00490 163.56494 209.48843
215.0 0.00465 163.57407 215.62852
209.0 0.00478 163.58319 222.79422
260.0 0.00385 163.59232 229.24158
252.0 0.00397 163.60146 238.39400
266.0 0.00376 163.61058 248.25932
266.0 0.00376 163.61972 258.46347
275.0 0.00364 163.62888 268.41599
291.0 0.003436 163.63805 277.33301
266.0 0.00376 163.64720 284.15839
308.0 0.003247 163.65637 288.01749
274.0 0.00365 163.66557 288.37119
277.0 0.00361 163.67474 285.28522
258.0 0.00388 163.68391 279.41199
275.0 0.00364 163.69312 271.73773
237.0 0.00422 163.70233 263.27585
271.0 0.00369 163.71152 254.86539
219.0 0.00457 163.72075 247.10567
247.0 0.00405 163.72997 239.47037
238.0 0.00420 163.73920 233.99741
234.0 0.00427 163.74843 229.83749
232.0 0.00431 163.75769 226.97607
227.0 0.00441 163.76692 225.35155
255.0 0.00392 163.77618 224.00069
248.0 0.00403 163.78543 224.59637
232.0 0.00431 163.79471 226.08911
205.0 0.00488 163.80397 228.25781
242.0 0.00413 163.81325 230.77379
223.0 0.00448 163.82254 233.18736
274.0 0.00365 163.83182 234.95929
258.0 0.00388 163.84113 235.56058
266.0 0.00376 163.85043 234.62558
238.0 0.00420 163.85974 232.08231
225.0 0.00444 163.86903 228.16521
211.0 0.00474 163.87839 223.31448
209.0 0.00478 163.88770 218.00542
209.0 0.00478 163.89703 212.64246
204.0 0.00490 163.90637 207.51302
186.0 0.00538 163.91574 202.33235
207.0 0.00483 163.92508 198.11774
186.0 0.00538 163.93443 194.41667
200.0 0.00500 163.94382 191.20830
209.0 0.00478 163.95317 188.45166
171.0 0.00585 163.96257 186.10420
190.0 0.00526 163.97194 184.19910
174.0 0.00575 163.98131 182.57994
194.0 0.00515 163.99074 181.28967
177.0 0.00565 164.00014 180.30402
184.0 0.00543 164.00952 179.59412
177.0 0.00565 164.01895 179.12582
175.0 0.00571 164.02838 178.85907
176.0 0.00568 164.03780 178.74574
189.0 0.00529 164.04723 178.72699
158.0 0.00633 164.05667 178.73199
156.0 0.00641 164.06610 178.68239
196.0 0.00510 164.07555 178.50485
184.0 0.00543 164.08501 178.15027
196.0 0.00510 164.09448 177.60873
204.0 0.00490 164.10394 176.91003
206.0 0.00485 164.11345 176.11075
192.0 0.00521 164.12292 175.27245
186.0 0.00538 164.13242 174.44885
169.0 0.00592 164.14191 173.67993
184.0 0.00543 164.15140 173.50795
170.0 0.00588 164.16090 172.93256
186.0 0.00538 164.17039 172.49812
166.0 0.00602 164.17993 172.13846
180.0 0.00556 164.18945 171.88589
178.0 0.00562 164.19897 171.73520
174.0 0.00575 164.20851 171.67770
154.0 0.00649 164.21806 171.70119
167.0 0.00599 164.22762 171.78841
170.0 0.00588 164.23718 171.91640
158.0 0.00633 164.24673 172.05518
159.0 0.00629 164.25629 172.16908
168.0 0.00595 164.26588 172.22093
158.0 0.00633 164.27544 172.18094
163.0 0.00613 164.28505 172.03600
173.0 0.00578 164.29462 170.87782
158.0 0.00633 164.30421 170.58809
204.0 0.00490 164.31383 170.25479
170.0 0.00588 164.32341 169.90758
164.0 0.00610 164.33304 169.56961
160.0 0.00625 164.34267 169.25662
140.0 0.00714 164.35229 169.24269
179.0 0.00559 164.36192 169.01257
168.0 0.00595 164.37155 168.82497
153.0 0.00654 164.38121 168.67998
176.0 0.00568 164.39085 168.57657
151.0 0.00662 164.40051 168.51295
181.0 0.00552 164.41016 168.44881
152.0 0.00658 164.41983 168.46043
185.0 0.00541 164.42949 168.50711
165.0 0.00606 164.43919 168.58867
182.0 0.00549 164.44887 168.70599
183.0 0.00546 164.45857 168.86104
161.0 0.00621 164.46826 169.05737
179.0 0.00559 164.47794 169.29965
173.0 0.00578 164.48766 169.59383
173.0 0.00578 164.49738 169.49040
209.0 0.00478 164.50708 169.92261
209.0 0.00478 164.51683 170.42810
318.0 0.003145 164.52655 171.01395
328.0 0.003049 164.53629 171.68600
375.0 0.002667 164.54602 172.44766
402.0 0.002488 164.55579 173.29880
348.0 0.002874 164.56555 174.23378
246.0 0.00407 164.57530 175.23895
233.0 0.00429 164.58508 176.76178
204.0 0.00490 164.59485 177.83394
203.0 0.00493 164.60460 178.84532
172.0 0.00581 164.61440 179.78522
201.0 0.00498 164.62419 180.59892
160.0 0.00625 164.63399 181.28909
185.0 0.00541 164.64378 181.90584
187.0 0.00535 164.65359 182.53975
182.0 0.00549 164.66341 183.30348
173.0 0.00578 164.67323 184.31235
211.0 0.00474 164.68304 185.67290
188.0 0.00532 164.69289 187.47903
202.0 0.00495 164.70273 189.80579
181.0 0.00552 164.71255 192.71359
205.0 0.00488 164.72243 196.24037
201.0 0.00498 164.73227 200.39545
201.0 0.00498 164.74213 205.08199
203.0 0.00493 164.75198 210.34966
218.0 0.00459 164.76184 215.96487
222.0 0.00450 164.77174 221.65623
247.0 0.00405 164.78160 227.02512
244.0 0.00410 164.79150 231.55812
255.0 0.00392 164.80141 234.95079
243.0 0.00412 164.81128 236.27495
221.0 0.00452 164.82118 235.59430
199.0 0.00503 164.83110 233.06944
226.0 0.00442 164.84103 229.13853
214.0 0.00467 164.85094 224.35828
203.0 0.00493 164.86086 219.25221
212.0 0.00472 164.87080 214.24915
207.0 0.00483 164.88074 209.65306
193.0 0.00518 164.89067 205.66249
201.0 0.00498 164.90063 202.39604
209.0 0.00478 164.91057 199.91397
217.0 0.00461 164.92053 198.23386
191.0 0.00524 164.93051 197.33998
201.0 0.00498 164.94048 197.15393
206.0 0.00485 164.95045 197.67493
200.0 0.00500 164.96043 198.76585
201.0 0.00498 164.97043 200.28758
207.0 0.00483 164.98042 202.05255
206.0 0.00485 164.99042 203.81793
210.0 0.00476 165.00041 205.29568
190.0 0.00526 165.01044 206.19456
193.0 0.00518 165.02045 206.29407
202.0 0.00495 165.03047 205.51833
209.0 0.00478 165.04050 203.96085
204.0 0.00490 165.05054 201.84190
197.0 0.00508 165.06058 199.43080
200.0 0.00500 165.07062 196.97243
165.0 0.00606 165.08064 194.66298
172.0 0.00581 165.09071 192.64641
175.0 0.00571 165.10077 191.01903
205.0 0.00488 165.11082 189.84842
187.0 0.00535 165.12091 189.18243
220.0 0.00455 165.13098 189.05588
189.0 0.00529 165.14105 189.49426
187.0 0.00535 165.15115 190.54337
198.0 0.00505 165.16124 192.15662
198.0 0.00505 165.17133 194.35982
202.0 0.00495 165.18144 197.13629
211.0 0.00474 165.19156 200.44937
190.0 0.00526 165.20169 204.22290
194.0 0.00515 165.21178 208.33659
231.0 0.00433 165.22192 212.59773
225.0 0.00444 165.23206 216.72404
232.0 0.00431 165.24217 220.34286
238.0 0.00420 165.25232 223.03070
206.0 0.00485 165.26247 224.40680
198.0 0.00505 165.27260 224.25520
197.0 0.00508 165.28276 222.60924
208.0 0.00481 165.29295 219.73959
207.0 0.00483 165.30312 215.98668
198.0 0.00505 165.31328 211.91473
193.0 0.00518 165.32346 207.81508
196.0 0.00510 165.33366 203.95305
197.0 0.00508 165.34384 200.80646
193.0 0.00518 165.35405 197.90643
172.0 0.00581 165.36424 195.59987
175.0 0.00571 165.37444 193.92752
164.0 0.00610 165.38466 192.86008
189.0 0.00529 165.39488 192.38934
191.0 0.00524 165.40509 192.47281
197.0 0.00508 165.41531 193.04677
181.0 0.00552 165.42555 194.02191
208.0 0.00481 165.43579 195.27542
172.0 0.00581 165.44603 196.64368
181.0 0.00552 165.45627 197.91711
189.0 0.00529 165.46654 198.86037
176.0 0.00568 165.47678 199.25067
215.0 0.00465 165.48705 198.93817
183.0 0.00546 165.49730 197.37996
189.0 0.00529 165.50760 195.71564
181.0 0.00552 165.51787 193.55989
183.0 0.00546 165.52817 191.18282
202.0 0.00495 165.53845 188.72398
185.0 0.00541 165.54874 186.31467
181.0 0.00552 165.55905 184.04280
180.0 0.00556 165.56937 182.11256
158.0 0.00633 165.57965 180.25349
163.0 0.00613 165.58998 178.62076
180.0 0.00556 165.60030 177.21255
151.0 0.00662 165.61063 176.01570
174.0 0.00575 165.62094 175.01271
154.0 0.00649 165.63130 174.18343
171.0 0.00585 165.64163 173.50679
176.0 0.00568 165.65198 172.96246
177.0 0.00565 165.66234 172.53201
152.0 0.00658 165.67270 172.19936
155.0 0.00645 165.68306 171.95125
175.0 0.00571 165.69342 171.77724
183.0 0.00546 165.70381 171.66933
167.0 0.00599 165.71417 171.35985
164.0 0.00610 165.72456 171.37596
166.0 0.00602 165.73495 171.44485
145.0 0.00690 165.74535 171.56422
170.0 0.00588 165.75572 171.73230
156.0 0.00641 165.76614 171.94801
177.0 0.00565 165.77654 172.21040
162.0 0.00617 165.78694 172.51791
195.0 0.00513 165.79736 172.86674
173.0 0.00578 165.80780 173.24901
170.0 0.00588 165.81824 173.65157
170.0 0.00588 165.82864 174.05614
169.0 0.00592 165.83911 174.44273
153.0 0.00654 165.84956 174.79735
174.0 0.00575 165.86000 175.12012
167.0 0.00599 165.87044 175.43362
202.0 0.00495 165.88094 175.78110
180.0 0.00556 165.89139 176.22029
190.0 0.00526 165.90184 176.81569
187.0 0.00535 165.91232 177.63254
234.0 0.00427 165.92281 178.73375
246.0 0.00407 165.93327 180.17781
322.0 0.003106 165.94377 182.01602
414.0 0.002415 165.95425 184.28838
467.0 0.002141 165.96475 186.53722
484.0 0.002066 165.97527 190.65746
581.0 0.001721 165.98578 194.29955
629.0 0.001590 165.99628 198.27026
589.0 0.001698 166.00682 202.40858
578.0 0.001730 166.01733 206.45927
666.0 0.001502 166.02786 210.06419
515.0 0.001942 166.03838 212.79524
446.0 0.002242 166.04895 214.25319
368.0 0.002717 166.05948 214.20874
299.0 0.003344 166.07002 212.70178
266.0 0.00376 166.08057 210.02206
239.0 0.00418 166.09114 206.58887
201.0 0.00498 166.10168 202.82765
221.0 0.00452 166.11227 199.06378
161.0 0.00621 166.12285 195.55367
187.0 0.00535 166.13341 192.45667
198.0 0.00505 166.14400 189.87120
187.0 0.00535 166.15459 187.85025
192.0 0.00521 166.16518 186.41382
160.0 0.00625 166.17577 185.55791
180.0 0.00556 166.18637 185.25945
178.0 0.00562 166.19698 185.23895
169.0 0.00592 166.20760 185.93082
180.0 0.00556 166.21822 187.49959
185.0 0.00541 166.22885 188.89798
187.0 0.00535 166.23946 190.46599
195.0 0.00513 166.25011 192.03001
178.0 0.00562 166.26074 193.38295
189.0 0.00529 166.27138 194.29094
192.0 0.00521 166.28201 194.56467
200.0 0.00500 166.29266 194.12347
191.0 0.00524 166.30333 193.02745
226.0 0.00442 166.31396 191.44589
190.0 0.00526 166.32465 189.58855
194.0 0.00515 166.33533 187.64925
195.0 0.00513 166.34599 185.76410
203.0 0.00493 166.35667 184.03084
205.0 0.00488 166.36736 182.50496
165.0 0.00606 166.37805 181.21332
172.0 0.00581 166.38873 180.16591
175.0 0.00571 166.39944 179.35751
177.0 0.00565 166.41014 178.77580
184.0 0.00543 166.42085 178.40414
157.0 0.00637 166.43155 178.22491
159.0 0.00629 166.44226 178.22234
186.0 0.00538 166.45299 178.38441
171.0 0.00585 166.46371 178.70531
195.0 0.00513 166.47444 179.18488
210.0 0.00476 166.48517 179.83710
183.0 0.00546 166.49593 180.68210
194.0 0.00515 166.50667 181.75217
173.0 0.00578 166.51741 183.09441
172.0 0.00581 166.52817 184.76997
190.0 0.00526 166.53894 186.85483
193.0 0.00518 166.54970 189.43883
180.0 0.00556 166.56046 192.62326
181.0 0.00552 166.57123 196.48749
206.0 0.00485 166.58200 201.19791
208.0 0.00481 166.59279 206.82362
245.0 0.00408 166.60358 213.44197
207.0 0.00483 166.61436 221.09366
226.0 0.00442 166.62517 229.76329
231.0 0.00433 166.63596 239.63889
231.0 0.00433 166.64676 249.93904
235.0 0.00426 166.65758 260.53690
262.0 0.00382 166.66840 270.82175
272.0 0.00368 166.67920 279.93869
291.0 0.003436 166.69002 286.87610
297.0 0.003367 166.70087 290.68906
278.0 0.00360 166.71170 290.81668
290.0 0.003448 166.72253 287.31577
273.0 0.00366 166.73335 280.84259
277.0 0.00361 166.74422 272.39642
255.0 0.00392 166.75507 263.00870
232.0 0.00431 166.76590 253.53365
221.0 0.00452 166.77678 244.30830
228.0 0.00439 166.78764 236.34482
230.0 0.00435 166.79849 229.58537
232.0 0.00431 166.80937 224.15071
210.0 0.00476 166.82027 220.12524
201.0 0.00498 166.83113 217.49239
207.0 0.00483 166.84203 216.20929
213.0 0.00469 166.85291 216.19965
227.0 0.00441 166.86380 217.35484
197.0 0.00508 166.87471 219.67215
218.0 0.00459 166.88562 222.66565
203.0 0.00493 166.89653 226.20110
225.0 0.00444 166.90744 229.90495
232.0 0.00431 166.91835 233.29749
229.0 0.00437 166.92928 235.81868
232.0 0.00431 166.94020 236.94463
214.0 0.00467 166.95111 236.33345
232.0 0.00431 166.96207 233.95082
210.0 0.00476 166.97299 230.07333
223.0 0.00448 166.98392 225.16792
203.0 0.00493 166.99489 219.73331
235.0 0.00426 167.00583 214.18947
208.0 0.00481 167.01680 208.68646
215.0 0.00465 167.02776 203.72176
186.0 0.00538 167.03873 199.24181
189.0 0.00529 167.04970 195.29572
181.0 0.00552 167.06067 191.88306
180.0 0.00556 167.07164 188.97920
188.0 0.00532 167.08263 186.54355
204.0 0.00490 167.09363 184.57158
185.0 0.00541 167.10460 182.92535
177.0 0.00565 167.11560 181.59814
196.0 0.00510 167.12660 180.54440
164.0 0.00610 167.13759 182.84192
180.0 0.00556 167.14861 182.31624
170.0 0.00588 167.15962 181.97284
184.0 0.00543 167.17062 181.79723
182.0 0.00549 167.18164 181.78418
185.0 0.00541 167.19267 181.93753
171.0 0.00585 167.20372 182.26973
157.0 0.00637 167.21474 182.80154
179.0 0.00559 167.22580 184.03537
153.0 0.00654 167.23680 185.06721
197.0 0.00508 167.24788 186.39685
170.0 0.00588 167.25891 188.06044
187.0 0.00535 167.26997 190.08946
187.0 0.00535 167.28102 192.50557
197.0 0.00508 167.29210 195.31400
191.0 0.00524 167.30316 198.49486
187.0 0.00535 167.31424 201.99377
201.0 0.00498 167.32530 205.69727
204.0 0.00490 167.33640 209.42564
205.0 0.00488 167.34747 212.93347
216.0 0.00463 167.35855 215.83128
194.0 0.00515 167.36964 217.77826
218.0 0.00459 167.38074 218.50220
214.0 0.00467 167.39185 218.83063
221.0 0.00452 167.40294 217.15599
209.0 0.00478 167.41406 214.68079
213.0 0.00469 167.42517 211.78210
231.0 0.00433 167.43628 208.79224
183.0 0.00546 167.44742 205.01575
209.0 0.00478 167.45854 202.53963
205.0 0.00488 167.46965 200.49643
181.0 0.00552 167.48079 198.95154
221.0 0.00452 167.49193 197.93604
191.0 0.00524 167.50307 197.46124
204.0 0.00490 167.51422 197.52280
205.0 0.00488 167.52536 198.10474
202.0 0.00495 167.53651 199.18159
183.0 0.00546 167.54768 200.71832
187.0 0.00535 167.55884 202.66850
221.0 0.00452 167.57001 204.96922
216.0 0.00463 167.58118 207.52666
203.0 0.00493 167.59235 210.23669
192.0 0.00521 167.60355 212.93469
199.0 0.00503 167.61472 215.44914
221.0 0.00452 167.62590 217.63246
233.0 0.00429 167.63708 219.42288
209.0 0.00478 167.64828 220.88788
234.0 0.00427 167.65945 222.21825
218.0 0.00459 167.67068 223.68053
241.0 0.00415 167.68185 225.56509
218.0 0.00459 167.69307 227.67175
237.0 0.00422 167.70430 231.25858
230.0 0.00435 167.71552 236.09869
230.0 0.00435 167.72673 242.47121
231.0 0.00433 167.73796 250.66536
272.0 0.00368 167.74918 260.98373
258.0 0.00388 167.76042 273.70505
303.0 0.003300 167.77167 289.10175
314.0 0.003185 167.78291 307.52374
330.0 0.003030 167.79414 328.83795
357.0 0.002801 167.80540 353.17004
386.0 0.002591 167.81665 380.31668
459.0 0.002179 167.82791 409.78323
449.0 0.002227 167.83917 440.68204
473.0 0.002114 167.85043 471.58145
497.0 0.002012 167.86169 500.42798
559.0 0.001789 167.87297 524.61707
536.0 0.001866 167.88425 541.30652
554.0 0.001805 167.89552 548.21979
499.0 0.002004 167.90683 544.39911
523.0 0.001912 167.91811 530.63123
564.0 0.001773 167.92938 509.15421
516.0 0.001938 167.94069 482.87225
453.0 0.002208 167.95198 454.58279
424.0 0.002358 167.96329 426.53842
419.0 0.002387 167.97458 400.34772
407.0 0.002457 167.98590 377.06430
394.0 0.002538 167.99721 357.32663
343.0 0.002915 168.00853 341.72504
374.0 0.002674 168.01985 329.91714
356.0 0.002809 168.03119 322.12936
329.0 0.003040 168.04250 318.31619
340.0 0.002941 168.05383 318.12012
334.0 0.002994 168.06516 321.29663
336.0 0.002976 168.07651 327.43008
375.0 0.002667 168.08784 335.96918
376.0 0.002660 168.09920 346.17636
355.0 0.002817 168.11055 357.06943
368.0 0.002717 168.12190 367.38428
374.0 0.002674 168.13327 375.62570
408.0 0.002451 168.14464 379.99298
413.0 0.002421 168.15601 379.89746
381.0 0.002625 168.16737 374.61923
397.0 0.002519 168.17874 364.61664
377.0 0.002653 168.19012 351.02661
352.0 0.002841 168.20149 335.25580
325.0 0.003077 168.21288 318.61130
310.0 0.003226 168.22426 302.10803
319.0 0.003135 168.23564 286.43683
316.0 0.003165 168.24704 272.01529
280.0 0.00357 168.25845 259.05872
289.0 0.003460 168.26985 247.76511
249.0 0.00402 168.28125 237.86908
266.0 0.00376 168.29266 229.40660
261.0 0.00383 168.30408 222.25433
235.0 0.00426 168.31551 216.26489
222.0 0.00450 168.32692 211.29407
221.0 0.00452 168.33835 207.19124
223.0 0.00448 168.34976 203.82132
215.0 0.00465 168.36121 201.18735
196.0 0.00510 168.37265 198.94939
213.0 0.00469 168.38408 197.14566
194.0 0.00515 168.39551 195.56586
214.0 0.00467 168.40695 194.46236
186.0 0.00538 168.41841 193.64857
190.0 0.00526 168.42984 193.09978
184.0 0.00543 168.44131 192.79736
207.0 0.00483 168.45277 192.72673
208.0 0.00481 168.46425 192.87277
204.0 0.00490 168.47571 193.21713
190.0 0.00526 168.48718 193.73416
191.0 0.00524 168.49866 194.38521
182.0 0.00549 168.51013 195.11356
181.0 0.00552 168.52162 195.83983
198.0 0.00505 168.53310 196.98694
195.0 0.00513 168.54457 197.41872
167.0 0.00599 168.55608 197.55609
187.0 0.00535 168.56757 197.36208
189.0 0.00529 168.57906 196.86667
183.0 0.00546 168.59056 196.15895
185.0 0.00541 168.60207 195.35907
180.0 0.00556 168.61357 194.59090
216.0 0.00463 168.62508 193.91518
175.0 0.00571 168.63660 193.56789
198.0 0.00505 168.64810 193.43950
210.0 0.00476 168.65962 193.63274
191.0 0.00524 168.67116 191.03748
199.0 0.00503 168.68268 192.02594
189.0 0.00529 168.69421 193.36400
220.0 0.00455 168.70576 195.02716
208.0 0.00481 168.71729 196.96516
221.0 0.00452 168.72884 199.09477
202.0 0.00495 168.74039 201.28632
193.0 0.00518 168.75192 203.36880
203.0 0.00493 168.76346 205.13702
202.0 0.00495 168.77502 206.38612
226.0 0.00442 168.78659 206.96002
211.0 0.00474 168.79816 206.79300
205.0 0.00488 168.80972 206.18985
192.0 0.00521 168.82129 204.73303
211.0 0.00474 168.83286 202.84116
196.0 0.00510 168.84444 200.68358
210.0 0.00476 168.85600 198.42210
184.0 0.00543 168.86760 196.19795
193.0 0.00518 168.87917 194.12331
181.0 0.00552 168.89076 192.27815
186.0 0.00538 168.90236 190.71725
191.0 0.00524 168.91396 189.46898
181.0 0.00552 168.92554 188.54529
175.0 0.00571 168.93715 187.94514
191.0 0.00524 168.94873 187.65755
183.0 0.00546 168.96037 187.66322
171.0 0.00585 168.97195 187.93449
178.0 0.00562 168.98357 188.43414
185.0 0.00541 168.99519 189.11259
201.0 0.00498 169.00681 189.90427
182.0 0.00549 169.01845 190.72638
185.0 0.00541 169.03006 191.48071
184.0 0.00543 169.04170 192.07071
170.0 0.00588 169.05333 192.42293
170.0 0.00588 169.06497 192.51207
193.0 0.00518 169.07660 192.37215
219.0 0.00457 169.08824 192.08690
213.0 0.00469 169.09987 191.76709
207.0 0.00483 169.11154 190.43663
212.0 0.00472 169.12320 190.40852
190.0 0.00526 169.13483 190.65865
194.0 0.00515 169.14650 191.26993
192.0 0.00521 169.15816 192.31874
191.0 0.00524 169.16982 193.87675
190.0 0.00526 169.18149 196.01279
198.0 0.00505 169.19315 198.78508
199.0 0.00503 169.20483 202.24445
220.0 0.00455 169.21651 206.42329
211.0 0.00474 169.22820 211.32819
187.0 0.00535 169.23987 216.92723
205.0 0.00488 169.25156 223.13252
229.0 0.00437 169.26324 229.77547
233.0 0.00429 169.27492 236.57561
214.0 0.00467 169.28662 243.11296
254.0 0.00394 169.29831 248.82652
236.0 0.00424 169.31001 253.07704
226.0 0.00442 169.32170 255.28069
248.0 0.00403 169.33344 255.11246
251.0 0.00398 169.34512 252.48871
246.0 0.00407 169.35684 248.09468
246.0 0.00407 169.36856 242.40933
269.0 0.00372 169.38026 236.07373
244.0 0.00410 169.39201 229.62892
237.0 0.00422 169.40373 223.47385
221.0 0.00452 169.41544 217.87599
211.0 0.00474 169.42719 213.00160
216.0 0.00463 169.43890 208.94508
204.0 0.00490 169.45064 206.62979
187.0 0.00535 169.46239 204.33594
199.0 0.00503 169.47412 202.90204
189.0 0.00529 169.48590 202.29700
202.0 0.00495 169.49762 202.47125
194.0 0.00515 169.50935 203.36069
197.0 0.00508 169.52113 204.88284
226.0 0.00442 169.53287 206.92940
195.0 0.00513 169.54463 209.35403
203.0 0.00493 169.55638 211.95741
220.0 0.00455 169.56818 214.47507
207.0 0.00483 169.57991 216.34348
238.0 0.00420 169.59169 217.70601
218.0 0.00459 169.60347 218.03401
209.0 0.00478 169.61523 217.12671
212.0 0.00472 169.62704 215.19232
226.0 0.00442 169.63881 212.39079
214.0 0.00467 169.65059 209.03239
230.0 0.00435 169.66238 205.41850
202.0 0.00495 169.67416 201.79109
195.0 0.00513 169.68596 198.31924
210.0 0.00476 169.69775 195.10849
202.0 0.00495 169.70955 192.21620
203.0 0.00493 169.72136 189.66576
192.0 0.00521 169.73314 187.90335
209.0 0.00478 169.74495 186.03519
173.0 0.00578 169.75677 184.46931
165.0 0.00606 169.76859 183.17432
166.0 0.00602 169.78040 182.11835
183.0 0.00546 169.79222 181.26756
189.0 0.00529 169.80403 180.59090
175.0 0.00571 169.81586 180.06038
172.0 0.00581 169.82770 179.65224
175.0 0.00571 169.83949 179.34654
180.0 0.00556 169.85135 179.00343
169.0 0.00592 169.86317 178.86246
192.0 0.00521 169.87502 178.78683
180.0 0.00556 169.88686 178.77028
178.0 0.00562 169.89870 178.80888
169.0 0.00592 169.91054 178.90059
181.0 0.00552 169.92236 179.04510
178.0 0.00562 169.93423 179.24384
202.0 0.00495 169.94606 179.49991
181.0 0.00552 169.95793 179.99541
192.0 0.00521 169.96979 180.38884
162.0 0.00617 169.98163 180.86279
170.0 0.00588 169.99352 181.43178
175.0 0.00571 170.00539 183.39175
176.0 0.00568 170.01724 184.25403
180.0 0.00556 170.02910 185.29337
177.0 0.00565 170.04099 186.55421
193.0 0.00518 170.05287 188.09193
189.0 0.00529 170.06473 189.97514
201.0 0.00498 170.07660 192.28072
201.0 0.00498 170.08849 195.09850
207.0 0.00483 170.10037 198.52414
204.0 0.00490 170.11227 202.65430
211.0 0.00474 170.12416 207.57947
217.0 0.00461 170.13606 213.37407
233.0 0.00429 170.14795 220.08426
226.0 0.00442 170.15985 227.71225
209.0 0.00478 170.17174 236.19496
244.0 0.00410 170.18365 245.37386
256.0 0.00391 170.19557 254.96051
268.0 0.00373 170.20747 264.46820
268.0 0.00373 170.21938 273.21762
279.0 0.00358 170.23128 280.34894
303.0 0.003300 170.24321 284.97537
306.0 0.003268 170.25513 286.53015
329.0 0.003040 170.26704 284.65268
314.0 0.003185 170.27896 279.80960
287.0 0.003484 170.29088 272.78409
287.0 0.003484 170.30281 264.67236
281.0 0.00356 170.31474 255.98132
252.0 0.00397 170.32668 247.49457
261.0 0.00383 170.33861 239.68535
259.0 0.00386 170.35054 232.76195
244.0 0.00410 170.36249 226.91823
241.0 0.00415 170.37444 222.24484
223.0 0.00448 170.38638 218.76866
194.0 0.00515 170.39833 216.48344
228.0 0.00439 170.41026 215.35736
215.0 0.00465 170.42221 215.33998
245.0 0.00408 170.43416 216.36516
234.0 0.00427 170.44614 218.35117
215.0 0.00465 170.45807 221.19560
220.0 0.00455 170.47005 224.76472
227.0 0.00441 170.48201 228.87636
229.0 0.00437 170.49396 233.28003
238.0 0.00420 170.50592 237.62735
234.0 0.00427 170.51791 241.49207
238.0 0.00420 170.52988 244.41348
255.0 0.00392 170.54184 246.01323
269.0 0.00372 170.55382 246.12721
272.0 0.00368 170.56581 244.88174
249.0 0.00402 170.57779 242.65012
273.0 0.00366 170.58977 239.68260
217.0 0.00461 170.60176 236.96980
261.0 0.00383 170.61374 234.67670
248.0 0.00403 170.62572 233.12654
237.0 0.00422 170.63773 232.57913
269.0 0.00372 170.64972 233.17787
238.0 0.00420 170.66171 235.07318
248.0 0.00403 170.67372 238.35394
244.0 0.00410 170.68570 243.07239
260.0 0.00385 170.69771 249.23506
262.0 0.00382 170.70972 256.79221
272.0 0.00368 170.72171 265.62012
273.0 0.00366 170.73372 275.49710
275.0 0.00364 170.74573 286.07883
326.0 0.003067 170.75775 296.88010
327.0 0.003058 170.76974 307.27267
346.0 0.002890 170.78177 316.50601
351.0 0.002849 170.79382 323.75925
359.0 0.002786 170.80585 328.22592
390.0 0.002564 170.81786 329.30408
414.0 0.002415 170.82990 326.77075
373.0 0.002681 170.84190 320.89752
369.0 0.002710 170.85394 312.39081
381.0 0.002625 170.86597 302.18915
373.0 0.002681 170.87801 291.23285
323.0 0.003096 170.89003 280.31064
281.0 0.00356 170.90208 270.00562
295.0 0.003390 170.91412 260.70978
296.0 0.003378 170.92616 252.66563
266.0 0.00376 170.93823 246.00879
255.0 0.00392 170.95026 240.80101
239.0 0.00418 170.96230 237.05132
233.0 0.00429 170.97438 234.73727
244.0 0.00410 170.98642 233.79987
249.0 0.00402 170.99847 234.15521
264.0 0.00379 171.01051 235.68976
232.0 0.00431 171.02258 238.25304
262.0 0.00382 171.03464 241.64763
268.0 0.00373 171.04671 245.61797
273.0 0.00366 171.05875 249.84396
258.0 0.00388 171.07083 253.07312
262.0 0.00382 171.08290 256.63602
275.0 0.00364 171.09499 259.18460
273.0 0.00366 171.10706 260.35242
313.0 0.003195 171.11914 259.74158
278.0 0.00360 171.13121 257.32657
312.0 0.003205 171.14328 253.27649
261.0 0.00383 171.15535 247.95674
289.0 0.003460 171.16743 241.82259
248.0 0.00403 171.17953 235.31572
258.0 0.00388 171.19160 228.79965
239.0 0.00418 171.20370 222.53889
255.0 0.00392 171.21579 216.70525
230.0 0.00435 171.22787 211.39594
225.0 0.00444 171.23997 206.65346
226.0 0.00442 171.25206 202.48215
187.0 0.00535 171.26416 198.85869
212.0 0.00472 171.27626 195.74991
208.0 0.00481 171.28836 193.10645
204.0 0.00490 171.30046 190.87691
216.0 0.00463 171.31255 189.00888
174.0 0.00575 171.32468 187.45200
215.0 0.00465 171.33678 186.15964
170.0 0.00588 171.34889 185.08975
169.0 0.00592 171.36101 184.02606
184.0 0.00543 171.37311 183.31432
181.0 0.00552 171.38522 182.72719
186.0 0.00538 171.39734 182.23889
187.0 0.00535 171.40947 181.85361
189.0 0.00529 171.42159 181.49307
192.0 0.00521 171.43369 181.16118
190.0 0.00526 171.44583 180.83710
201.0 0.00498 171.45796 180.50485
176.0 0.00568 171.47009 180.15610
189.0 0.00529 171.48221 179.79124
174.0 0.00575 171.49434 179.41693
189.0 0.00529 171.50647 179.04303
164.0 0.00610 171.51862 178.67900
174.0 0.00575 171.53076 178.33232
196.0 0.00510 171.54288 179.92236
204.0 0.00490 171.55501 179.67978
167.0 0.00599 171.56718 179.46605
191.0 0.00524 171.57932 179.28197
180.0 0.00556 171.59145 178.94748
163.0 0.00613 171.60361 178.82672
203.0 0.00493 171.61572 178.73367
157.0 0.00637 171.62788 178.66740
186.0 0.00538 171.64006 177.33205
172.0 0.00581 171.65218 177.35356
180.0 0.00556 171.66435 177.39821
171.0 0.00585 171.67648 177.60571
172.0 0.00581 171.68866 177.70067
143.0 0.00699 171.70082 177.82068
170.0 0.00588 171.71297 177.96759
170.0 0.00588 171.72513 178.14394
181.0 0.00552 171.73729 178.35289
179.0 0.00559 171.74947 178.59825
185.0 0.00541 171.76164 178.88420
145.0 0.00690 171.77380 179.21521
186.0 0.00538 171.78595 179.59575
174.0 0.00575 171.79813 180.02988
160.0 0.00625 171.81030 180.52084
176.0 0.00568 171.82246 181.07056
175.0 0.00571 171.83466 181.67886
196.0 0.00510 171.84682 182.34235
194.0 0.00515 171.85899 184.04460
191.0 0.00524 171.87119 184.81891
196.0 0.00510 171.88336 185.60495
219.0 0.00457 171.89557 186.28053
177.0 0.00565 171.90775 186.99281
204.0 0.00490 171.91991 187.61081
196.0 0.00510 171.93210 188.10913
181.0 0.00552 171.94431 188.48447
201.0 0.00498 171.95650 188.75819
194.0 0.00515 171.96867 188.97005
185.0 0.00541 171.98088 189.16701
185.0 0.00541 171.99306 189.39380
204.0 0.00490 172.00526 189.68803
175.0 0.00571 172.01746 190.07913
217.0 0.00461 172.02965 190.59114
205.0 0.00488 172.04185 191.24464
196.0 0.00510 172.05403 192.05933
187.0 0.00535 172.06624 193.05650
192.0 0.00521 172.07846 194.26091
203.0 0.00493 172.09065 195.76860
202.0 0.00495 172.10287 197.48965
196.0 0.00510 172.11508 199.53775
212.0 0.00472 172.12729 201.50717
226.0 0.00442 172.13950 204.42670
186.0 0.00538 172.15170 207.91306
193.0 0.00518 172.16393 212.08183
217.0 0.00461 172.17613 217.06950
206.0 0.00485 172.18835 223.01805
231.0 0.00433 172.20058 230.08691
216.0 0.00463 172.21277 238.43512
245.0 0.00408 172.22499 248.21584
266.0 0.00376 172.23721 259.56723
282.0 0.00355 172.24944 272.60037
279.0 0.00358 172.26164 287.37875
305.0 0.003279 172.27386 303.88593
294.0 0.003401 172.28612 321.97681
295.0 0.003390 172.29834 341.31094
306.0 0.003268 172.31055 361.28244
381.0 0.002625 172.32280 380.89120
375.0 0.002667 172.33501 398.77698
388.0 0.002577 172.34726 413.56247
421.0 0.002375 172.35950 422.95126
414.0 0.002415 172.37172 425.97488
465.0 0.002151 172.38396 422.24619
440.0 0.002273 172.39618 412.40750
440.0 0.002273 172.40843 397.89319
421.0 0.002375 172.42065 380.49881
406.0 0.002463 172.43289 361.81778
415.0 0.002410 172.44511 343.21152
386.0 0.002591 172.45735 325.62589
352.0 0.002841 172.46960 309.67926
362.0 0.002762 172.48187 295.73792
300.0 0.003333 172.49411 284.02228
295.0 0.003390 172.50636 274.61261
270.0 0.00370 172.51860 267.52112
299.0 0.003344 172.53084 262.70718
256.0 0.00391 172.54309 260.09381
276.0 0.00362 172.55536 259.56586
258.0 0.00388 172.56760 261.01712
269.0 0.00372 172.57986 264.28192
280.0 0.00357 172.59210 269.16824
278.0 0.00360 172.60437 275.42651
277.0 0.00361 172.61661 282.72211
268.0 0.00373 172.62886 290.57611
303.0 0.003300 172.64113 298.35413
282.0 0.00355 172.65340 305.24341
308.0 0.003247 172.66563 310.48019
306.0 0.003268 172.67789 312.90979
307.0 0.003257 172.69016 312.13260
315.0 0.003175 172.70242 308.08475
304.0 0.003289 172.71469 301.20245
304.0 0.003289 172.72694 292.25479
289.0 0.003460 172.73920 282.10434
309.0 0.003236 172.75148 271.51801
299.0 0.003344 172.76375 261.07965
290.0 0.003448 172.77600 251.18356
252.0 0.00397 172.78830 242.06317
240.0 0.00417 172.80057 233.85271
248.0 0.00403 172.81281 226.58990
232.0 0.00431 172.82509 220.26373
215.0 0.00465 172.83736 214.82701
227.0 0.00441 172.84964 210.20984
222.0 0.00450 172.86191 206.28583
193.0 0.00518 172.87419 203.05527
214.0 0.00467 172.88647 200.38689
192.0 0.00521 172.89874 198.19952
198.0 0.00505 172.91100 196.42062
186.0 0.00538 172.92329 194.98672
175.0 0.00571 172.93561 193.84752
192.0 0.00521 172.94786 193.19571
168.0 0.00595 172.96013 192.53242
186.0 0.00538 172.97243 192.06213
209.0 0.00478 172.98470 191.76500
174.0 0.00575 172.99698 191.62505
185.0 0.00541 173.00926 191.62859
171.0 0.00585 173.02155 191.76196
181.0 0.00552 173.03383 192.00948
203.0 0.00493 173.04611 192.35104
191.0 0.00524 173.05841 192.75941
192.0 0.00521 173.07068 193.19919
200.0 0.00500 173.08299 193.62766
206.0 0.00485 173.09528 194.00067
178.0 0.00562 173.10756 194.28163
187.0 0.00535 173.11984 194.45515
204.0 0.00490 173.13216 194.53410
189.0 0.00529 173.14444 195.13258
201.0 0.00498 173.15671 195.17944
204.0 0.00490 173.16902 195.30251
191.0 0.00524 173.18132 195.56766
186.0 0.00538 173.19359 196.03210
190.0 0.00526 173.20589 196.74263
181.0 0.00552 173.21820 197.73573
192.0 0.00521 173.23048 199.03839
196.0 0.00510 173.24278 200.66458
181.0 0.00552 173.25507 202.61787
192.0 0.00521 173.26738 205.00362
205.0 0.00488 173.27968 207.55107
204.0 0.00490 173.29198 210.30962
200.0 0.00500 173.30426 213.17220
190.0 0.00526 173.31659 215.98286
204.0 0.00490 173.32890 218.53856
213.0 0.00469 173.34120 220.60690
230.0 0.00435 173.35349 221.96733
221.0 0.00452 173.36578 222.46544
221.0 0.00452 173.37810 222.05800
195.0 0.00513 173.39040 219.25610
213.0 0.00469 173.40269 217.39482
215.0 0.00465 173.41499 215.07666
209.0 0.00478 173.42729 212.49739
195.0 0.00513 173.43961 209.82204
211.0 0.00474 173.45193 207.18068
209.0 0.00478 173.46423 204.67346
203.0 0.00493 173.47655 202.67195
204.0 0.00490 173.48885 200.65016
185.0 0.00541 173.50114 198.93529
197.0 0.00508 173.51346 197.55103
194.0 0.00515 173.52576 196.50841
198.0 0.00505 173.53809 195.80827
197.0 0.00508 173.55038 195.44475
169.0 0.00592 173.56271 195.40443
199.0 0.00503 173.57501 195.66898
192.0 0.00521 173.58731 196.21375
202.0 0.00495 173.59962 197.00606
200.0 0.00500 173.61194 198.00194
209.0 0.00478 173.62425 199.14148
185.0 0.00541 173.63655 200.34479
203.0 0.00493 173.64888 201.51038
215.0 0.00465 173.66119 202.52100
186.0 0.00538 173.67351 203.26033
206.0 0.00485 173.68582 203.63867
215.0 0.00465 173.69814 203.61880
204.0 0.00490 173.71045 202.43794
185.0 0.00541 173.72278 201.78090
206.0 0.00485 173.73509 200.95500
202.0 0.00495 173.74742 200.08263
187.0 0.00535 173.75974 199.27220
229.0 0.00437 173.77205 198.61021
206.0 0.00485 173.78436 198.16101
234.0 0.00427 173.79668 197.97058
195.0 0.00513 173.80899 198.07071
198.0 0.00505 173.82130 198.48248
209.0 0.00478 173.83363 199.21846
183.0 0.00546 173.84595 200.28407
200.0 0.00500 173.85825 201.67439
195.0 0.00513 173.87061 203.37639
212.0 0.00472 173.88289 205.36301
204.0 0.00490 173.89522 207.58910
212.0 0.00472 173.90756 209.98636
198.0 0.00505 173.91986 212.46019
207.0 0.00483 173.93217 214.89293
226.0 0.00442 173.94450 217.15903
232.0 0.00431 173.95682 219.15318
243.0 0.00412 173.96916 220.82535
242.0 0.00413 173.98146 222.20697
261.0 0.00383 173.99377 223.41385
265.0 0.00377 174.00610 224.62282
234.0 0.00427 174.01843 226.03532
260.0 0.00385 174.03075 227.83772
226.0 0.00442 174.04308 230.18242
221.0 0.00452 174.05537 233.17159
241.0 0.00415 174.06772 236.85106
238.0 0.00420 174.08005 241.20294
239.0 0.00418 174.09235 246.13338
280.0 0.00357 174.10466 251.48442
266.0 0.00376 174.11697 256.89670
259.0 0.00386 174.12932 261.91379
273.0 0.00366 174.14163 266.16211
278.0 0.00360 174.15398 269.05811
289.0 0.003460 174.16628 270.20212
272.0 0.00368 174.17859 269.44449
295.0 0.003390 174.19093 266.92773
314.0 0.003185 174.20325 263.03220
279.0 0.00358 174.21556 258.24866
305.0 0.003279 174.22789 253.04924
252.0 0.00397 174.24020 247.80638
282.0 0.00355 174.25253 242.76678
282.0 0.00355 174.26485 238.06313
241.0 0.00415 174.27719 233.74556
253.0 0.00395 174.28951 229.81943
232.0 0.00431 174.30182 226.28040
230.0 0.00435 174.31415 223.13847
208.0 0.00481 174.32648 220.42432
200.0 0.00500 174.33881 218.18861
218.0 0.00459 174.35112 216.47865
203.0 0.00493 174.36343 215.33176
194.0 0.00515 174.37575 214.76649
199.0 0.00503 174.38808 214.48088
223.0 0.00448 174.40042 215.04974
208.0 0.00481 174.41270 216.11298
209.0 0.00478 174.42503 217.58238
206.0 0.00485 174.43738 219.32744
236.0 0.00424 174.44969 221.18130
214.0 0.00467 174.46202 222.84419
223.0 0.00448 174.47433 224.12227
256.0 0.00391 174.48666 224.71136
209.0 0.00478 174.49898 224.40871
241.0 0.00415 174.51131 223.13905
238.0 0.00420 174.52364 220.97627
219.0 0.00457 174.53592 218.11293
208.0 0.00481 174.54826 214.79666
246.0 0.00407 174.56058 211.26871
215.0 0.00465 174.57291 207.72643
226.0 0.00442 174.58524 204.31142
216.0 0.00463 174.59755 201.11467
220.0 0.00455 174.60985 198.18796
201.0 0.00498 174.62215 195.55446
169.0 0.00592 174.63449 193.21674
175.0 0.00571 174.64682 191.16820
192.0 0.00521 174.65913 189.38957
187.0 0.00535 174.67143 187.85747
183.0 0.00546 174.68378 186.54596
189.0 0.00529 174.69609 185.42792
194.0 0.00515 174.70840 184.32256
184.0 0.00543 174.72072 183.51724
195.0 0.00513 174.73303 182.83130
181.0 0.00552 174.74535 182.24487
173.0 0.00578 174.75768 181.74106
169.0 0.00592 174.76997 181.69359
175.0 0.00571 174.78229 181.32431
159.0 0.00629 174.79460 181.00276
193.0 0.00518 174.80693 180.72166
183.0 0.00546 174.81921 180.47516
192.0 0.00521 174.83154 180.25893
184.0 0.00543 174.84386 180.06972
178.0 0.00562 174.85619 179.90514
182.0 0.00549 174.86850 179.76363
184.0 0.00543 174.88080 179.64421
161.0 0.00621 174.89310 179.54665
177.0 0.00565 174.90543 179.47107
190.0 0.00526 174.91774 179.41823
190.0 0.00526 174.93002 179.38925
181.0 0.00552 174.94234 179.38568
187.0 0.00535 174.95468 179.40929
192.0 0.00521 174.96698 179.46202
175.0 0.00571 174.97928 179.54584
165.0 0.00606 174.99159 179.43044
147.0 0.00680 175.00388 179.58650
159.0 0.00629 175.01620 179.77693
180.0 0.00556 175.02849 180.00095
187.0 0.00535 175.04082 180.25601
172.0 0.00581 175.05310 180.53674
188.0 0.00532 175.06543 180.83400
184.0 0.00543 175.07776 181.13388
150.0 0.00667 175.09006 181.41618
186.0 0.00538 175.10236 181.65643
175.0 0.00571 175.11465 181.82834
162.0 0.00617 175.12695 182.11389
181.0 0.00552 175.13927 182.09894
187.0 0.00535 175.15157 181.98630
183.0 0.00546 175.16388 181.79303
198.0 0.00505 175.17616 181.54425
175.0 0.00571 175.18845 180.69398
179.0 0.00559 175.20074 180.42349
172.0 0.00581 175.21306 180.16417
166.0 0.00602 175.22533 179.92825
192.0 0.00521 175.23764 179.72380
190.0 0.00526 175.24995 179.55537
171.0 0.00585 175.26222 179.42590
181.0 0.00552 175.27454 179.33646
177.0 0.00565 175.28682 179.28726
181.0 0.00552 175.29910 179.27805
166.0 0.00602 175.31140 179.18658
172.0 0.00581 175.32372 179.25792
168.0 0.00595 175.33601 179.36655
172.0 0.00581 175.34828 179.51134
179.0 0.00559 175.36057 179.69089
167.0 0.00599 175.37288 179.90346
191.0 0.00524 175.38516 180.14679
175.0 0.00571 175.39745 180.41695
181.0 0.00552 175.40973 180.70888
164.0 0.00610 175.42203 181.01495
181.0 0.00552 175.43433 181.32545
173.0 0.00578 175.44659 181.62927
168.0 0.00595 175.45888 181.91603
183.0 0.00546 175.47115 182.17969
183.0 0.00546 175.48343 182.42142
179.0 0.00559 175.49573 182.65111
172.0 0.00581 175.50801 182.88591
175.0 0.00571 175.52029 182.85393
181.0 0.00552 175.53258 183.17303
167.0 0.00599 175.54486 183.56635
174.0 0.00575 175.55713 184.05817
181.0 0.00552 175.56941 184.67235
181.0 0.00552 175.58167 185.43460
171.0 0.00585 175.59395 186.37190
186.0 0.00538 175.60623 189.80099
193.0 0.00518 175.61850 191.22981
211.0 0.00474 175.63077 192.92235
192.0 0.00521 175.64304 194.90623
198.0 0.00505 175.65530 197.20560
197.0 0.00508 175.66759 199.83833
198.0 0.00505 175.67986 202.81247
220.0 0.00455 175.69214 206.12338
209.0 0.00478 175.70439 209.73848
187.0 0.00535 175.71666 213.59921
201.0 0.00498 175.72893 217.60101
246.0 0.00407 175.74121 221.58203
235.0 0.00426 175.75345 225.31572
233.0 0.00429 175.76570 228.51942
251.0 0.00398 175.77798 230.89026
244.0 0.00410 175.79022 232.16937
262.0 0.00382 175.80249 232.21584
244.0 0.00410 175.81474 231.05351
219.0 0.00457 175.82703 228.86383
260.0 0.00385 175.83926 225.92809
240.0 0.00417 175.85153 222.55374
228.0 0.00439 175.86380 219.01419
207.0 0.00483 175.87604 215.52939
209.0 0.00478 175.88831 212.25035
230.0 0.00435 175.90056 209.27716
200.0 0.00500 175.91280 206.67041
203.0 0.00493 175.92503 204.46333
221.0 0.00452 175.93729 202.67053
215.0 0.00465 175.94954 202.45158
201.0 0.00498 175.96179 201.51454
205.0 0.00488 175.97401 200.97897
195.0 0.00513 175.98628 200.83098
214.0 0.00467 175.99850 201.05443
198.0 0.00505 176.01076 201.63068
183.0 0.00546 176.02298 202.53838
180.0 0.00556 176.03523 203.75180
192.0 0.00521 176.04749 205.23764
202.0 0.00495 176.05971 206.95038
220.0 0.00455 176.07195 208.82632
206.0 0.00485 176.08418 210.77664
189.0 0.00529 176.09642 212.68298
203.0 0.00493 176.10863 214.40038
202.0 0.00495 176.12086 215.77278
208.0 0.00481 176.13310 216.66344
204.0 0.00490 176.14532 216.96082
226.0 0.00442 176.15755 216.72612
231.0 0.00433 176.16978 216.02240
195.0 0.00513 176.18202 214.96021
216.0 0.00463 176.19423 213.70720
205.0 0.00488 176.20645 212.40631
215.0 0.00465 176.21867 211.42577
210.0 0.00476 176.23091 211.11673
198.0 0.00505 176.24312 210.26883
209.0 0.00478 176.25534 209.66957
209.0 0.00478 176.26755 209.34456
187.0 0.00535 176.27975 209.31183
183.0 0.00546 176.29199 209.58607
176.0 0.00568 176.30420 210.18277
199.0 0.00503 176.31641 211.11908
205.0 0.00488 176.32860 212.41895
175.0 0.00571 176.34082 214.11404
162.0 0.00617 176.35304 216.24658
187.0 0.00535 176.36522 218.87061
204.0 0.00490 176.37744 222.05385
205.0 0.00488 176.38962 225.87831
203.0 0.00493 176.40182 230.43990
192.0 0.00521 176.41403 235.84737
211.0 0.00474 176.42622 242.21986
222.0 0.00450 176.43845 249.68291
239.0 0.00418 176.45062 258.36307
227.0 0.00441 176.46281 268.38068
264.0 0.00379 176.47502 279.84793
229.0 0.00437 176.48721 292.81317
258.0 0.00388 176.49940 307.34686
307.0 0.003257 176.51161 323.39899
283.0 0.00353 176.52379 340.84293
323.0 0.003096 176.53596 359.38870
314.0 0.003185 176.54814 378.56946
368.0 0.002717 176.56035 397.66003
381.0 0.002625 176.57251 415.65167
402.0 0.002488 176.58469 431.81061
441.0 0.002268 176.59686 443.72919
483.0 0.002070 176.60904 450.70251
449.0 0.002227 176.62122 451.96259
459.0 0.002179 176.63339 447.44720
485.0 0.002062 176.64557 437.80441
473.0 0.002114 176.65775 424.20367
459.0 0.002179 176.66992 408.02927
456.0 0.002193 176.68205 390.60336
419.0 0.002387 176.69423 373.02097
397.0 0.002519 176.70642 356.09833
368.0 0.002717 176.71858 340.39563
351.0 0.002849 176.73073 326.27011
331.0 0.003021 176.74287 313.93127
306.0 0.003268 176.75504 303.48691
309.0 0.003236 176.76720 294.97644
295.0 0.003390 176.77936 288.39108
298.0 0.003356 176.79150 283.70337
261.0 0.00383 176.80365 280.45947
291.0 0.003436 176.81581 279.39111
267.0 0.00375 176.82794 280.01480
272.0 0.00368 176.84009 282.24036
261.0 0.00383 176.85225 285.96127
300.0 0.003333 176.86440 291.04480
287.0 0.003484 176.87653 297.31662
278.0 0.00360 176.88867 304.53775
295.0 0.003390 176.90080 312.37784
287.0 0.003484 176.91295 320.39291
295.0 0.003390 176.92506 327.99689
335.0 0.002985 176.93721 334.51703
335.0 0.002985 176.94934 339.25894
369.0 0.002710 176.96146 341.64932
360.0 0.002778 176.97360 341.38519
356.0 0.002809 176.98572 338.52722
349.0 0.002865 176.99783 333.48355
357.0 0.002801 177.00996 326.90952
334.0 0.002994 177.02208 319.49445
341.0 0.002933 177.03421 311.92102
339.0 0.002950 177.04631 304.73700
311.0 0.003215 177.05844 298.35101
318.0 0.003145 177.07054 293.04602
283.0 0.00353 177.08266 289.00061
292.0 0.003425 177.09477 286.32077
285.0 0.00351 177.10687 285.04141
246.0 0.00407 177.11900 285.14587
291.0 0.003436 177.13106 286.56430
279.0 0.00358 177.14320 288.96387
289.0 0.003460 177.15527 292.55893
283.0 0.00353 177.16736 296.85754
313.0 0.003195 177.17946 301.47879
311.0 0.003215 177.19156 305.94202
324.0 0.003086 177.20364 309.68982
269.0 0.00372 177.21577 312.15067
287.0 0.003484 177.22784 312.83307
314.0 . . .
loop_
_refln_index_h
_refln_index_k
_refln_index_l
_pd_refln_wavelength_id
_refln_observed_status
_refln_F_squared_meas
_refln_F_squared_calc
_refln_phase_calc
_refln_d_spacing
_gsas_i100_meas
1 0 0 1 o 11368.590 11700.544 149.39 5.86574 39.71
1 0 0 2 o 11213.223 11700.544 149.39 5.86574 19.74
0 0 2 1 o 14527.039 14883.566 0.00 5.00228 11.78
0 0 2 2 o 14117.232 14883.566 0.00 5.00228 5.74
1 0 2 1 o 23549.662 23769.422 169.98 3.80618 75.77
1 0 2 2 o 24049.760 23769.422 169.98 3.80618 39.20
1 1 0 1 o 26839.568 27348.047 0.00 3.38659 31.63
1 1 0 2 o 27477.246 27348.047 0.00 3.38659 16.44
1 1 1 1 o 5821.197 3473.527 -180.00 3.20779 14.77
1 1 1 2 o 6235.816 3473.527 -180.00 3.20779 7.99
2 0 0 1 o 14234.793 14702.912 -177.34 2.93287 13.30
2 0 0 2 o 14936.970 14702.912 -177.34 2.93287 7.09
1 1 2 1 o 58713.05 55537.26 0.00 2.80435 100.00
1 1 2 2 o 58459.89 55537.26 0.00 2.80435 50.31
2 0 2 1 o 6032.516 6032.238 -153.95 2.53007 7.13
2 0 2 2 o 6110.405 6032.238 -153.95 2.53007 3.66
0 0 4 1 o 44713.67 50925.32 0.00 2.50114 9.82
0 0 4 2 o 43142.66 50925.32 0.00 2.50114 4.77
1 1 3 1 o 8.056 81.984 -180.00 2.37618 0.00
1 1 3 2 o 8.056 81.984 -180.00 2.37618 0.00
1 0 4 1 o 2373.206 3370.639 166.11 2.30072 1.96
1 0 4 2 o 2081.155 3370.639 166.11 2.30072 0.81
2 1 0 1 o 13499.719 13396.000 174.77 2.21704 13.93
2 1 0 2 o 14163.143 13396.000 174.77 2.21704 7.42
2 1 1 1 o 1235.067 1236.886 -92.56 2.16453 2.78
2 1 1 2 o 975.894 1236.886 -92.56 2.16453 1.12
2 1 2 1 o 5125.282 5570.802 159.45 2.02689 7.49
2 1 2 2 o 5265.125 5570.802 159.45 2.02689 3.92
1 1 4 1 o 34893.188 33603.309 0.00 2.01192 28.52
1 1 4 2 o 36020.84 33603.309 0.00 2.01192 14.95
3 0 0 1 o 41358.85 42548.68 1.09 1.95525 16.13
3 0 0 2 o 38952.59 42548.68 1.09 1.95525 7.62
2 0 4 1 o 18071.369 18350.842 -166.14 1.90309 13.48
2 0 4 2 o 18242.248 18350.842 -166.14 1.90309 6.88
2 1 3 1 o 661.742 1013.577 -14.30 1.84627 1.11
2 1 3 2 o 1079.466 1013.577 -14.30 1.84627 0.89
3 0 2 1 o 31297.580 30513.234 -0.04 1.82108 20.62
3 0 2 2 o 32038.598 30513.234 -0.04 1.82108 10.71
1 1 5 1 o -0.051 0.974 0.00 1.72270 0.00
1 1 5 2 o -0.051 0.974 0.00 1.72270 0.00
2 2 0 1 o 24525.275 24208.617 0.00 1.69329 6.83
2 2 0 2 o 26407.545 24208.617 0.00 1.69329 3.76
2 2 1 1 o 50.191 47.905 0.00 1.66955 0.03
0 0 6 1 o 9723.608 9730.759 0.00 1.66743 0.78
2 2 1 2 o 48.956 47.905 0.00 1.66955 0.02
0 0 6 2 o 10294.250 9730.759 0.00 1.66743 0.43
2 1 4 1 o 15338.484 13916.192 158.79 1.65908 16.89
2 1 4 2 o 15403.236 13916.192 158.79 1.65908 8.58
3 1 0 1 o 8666.443 7885.691 -148.36 1.62686 4.25
3 1 0 2 o 8340.241 7885.691 -148.36 1.62686 2.05
3 1 1 1 o 989.063 1003.868 -88.75 1.60577 1.21
2 2 2 1 o 26990.389 27748.088 0.00 1.60389 13.52
1 0 6 1 o 11476.101 11790.726 167.64 1.60388 5.84
3 1 1 2 o 979.684 1003.868 -88.75 1.60577 0.61
2 2 2 2 o 27839.709 27748.088 0.00 1.60389 7.08
1 0 6 2 o 11873.680 11790.726 167.64 1.60388 3.07
3 1 2 1 o 9775.736 9893.122 -168.97 1.54710 9.19
3 1 2 2 o 10009.742 9893.122 -168.97 1.54710 4.78
3 0 4 1 o 23990.896 22805.920 -0.64 1.54042 11.06
3 0 4 2 o 26120.158 22805.920 -0.64 1.54042 6.16
2 2 3 1 o 565.250 15.148 -180.00 1.50982 0.29
2 2 3 2 o 224.531 15.148 -180.00 1.50982 0.06
1 1 6 1 o 33592.094 31612.287 0.00 1.49593 14.98
1 1 6 2 o 31801.176 31612.287 0.00 1.49593 7.12
2 1 5 1 o 603.370 739.306 171.40 1.48541 0.64
2 1 5 2 o 738.775 739.306 171.40 1.48541 0.39
4 0 0 1 o 9179.892 7413.061 139.60 1.46644 1.83
4 0 0 2 o 8486.405 7413.061 139.60 1.46644 0.84
3 1 3 1 o 1433.368 1191.595 106.44 1.46216 1.43
3 1 3 2 o 1290.408 1191.595 106.44 1.46216 0.66
2 0 6 1 o 5193.430 4386.576 -148.57 1.44954 1.94
2 0 6 2 o 5530.394 4386.576 -148.57 1.44954 1.06
4 0 2 1 o 14052.251 12378.720 165.10 1.40721 5.64
4 0 2 2 o 13358.798 12378.720 165.10 1.40721 2.69
2 2 4 1 o 27347.219 26379.863 0.00 1.40218 10.53
2 2 4 2 o 25319.328 26379.863 0.00 1.40218 4.87
3 1 4 1 o 2782.391 3189.255 -157.91 1.36375 1.64
3 1 4 2 o 2838.945 3189.255 -157.91 1.36375 0.86
3 2 0 1 o 4115.141 4010.853 174.53 1.34569 1.42
3 2 0 2 o 3696.325 4010.853 174.53 1.34569 0.63
2 1 6 1 o 3882.142 3690.951 158.72 1.33260 2.41
3 2 1 1 o 186.358 171.222 -27.65 1.33368 0.16
2 1 6 2 o 3853.840 3690.951 158.72 1.33260 1.21
3 2 1 2 o 179.714 171.222 -27.65 1.33368 0.08
1 1 7 1 o 1803.506 1325.973 0.00 1.31676 0.74
1 1 7 2 o 1306.627 1325.973 0.00 1.31676 0.27
3 2 2 1 o 6431.108 6505.288 154.64 1.29949 3.99
3 2 2 2 o 6359.841 6505.288 154.64 1.29949 1.99
2 2 5 1 o 11.722 9.005 0.00 1.29257 0.00
2 2 5 2 o 10.021 9.005 0.00 1.29257 0.00
4 1 0 1 o 25203.703 26825.617 -3.20 1.28001 8.16
4 1 0 2 o 23463.020 26825.617 -3.20 1.28001 3.80
3 0 6 1 o 17766.789 18538.621 -1.40 1.26873 5.47
4 1 1 1 o 1044.939 1077.712 -80.07 1.26966 0.81
3 0 6 2 o 18272.865 18538.621 -1.40 1.26873 2.86
4 0 4 1 o 706.408 708.904 -166.55 1.26504 0.25
4 1 1 2 o 1033.205 1077.712 -80.07 1.26966 0.41
3 1 5 1 o 1026.590 904.627 -74.59 1.26229 0.78
4 0 4 2 o 811.433 708.904 -166.55 1.26504 0.14
3 1 5 2 o 1203.103 904.627 -74.59 1.26229 0.46
0 0 8 1 o 47109.51 50547.73 0.00 1.25057 2.57
3 2 3 1 o 1506.556 1686.536 122.74 1.24792 1.14
0 0 8 2 o 45825.21 50547.73 0.00 1.25057 1.26
3 2 3 2 o 1601.543 1686.536 122.74 1.24792 0.61
4 1 2 1 o 16429.850 16165.047 2.86 1.24006 9.74
4 1 2 2 o 16300.203 16165.047 2.86 1.24006 4.88
1 0 8 1 o 5181.819 4266.187 148.53 1.22308 1.43
1 0 8 2 o 5104.520 4266.187 148.53 1.22308 0.71
2 1 7 1 o 1061.683 489.240 69.99 1.20125 0.73
2 1 7 2 o 593.384 489.240 69.99 1.20125 0.21
4 1 3 1 o 491.374 575.616 103.36 1.19501 0.35
4 1 3 2 o 565.914 575.616 103.36 1.19501 0.20
2 2 6 1 o 18641.506 18267.885 0.00 1.18809 5.25
2 2 6 2 o 17972.180 18267.885 0.00 1.18809 2.55
3 2 4 1 o 5690.479 5788.572 165.18 1.18506 3.11
3 2 4 2 o 5567.401 5788.572 165.18 1.18506 1.54
5 0 0 1 o 4267.092 4460.596 -166.10 1.17315 0.56
1 1 8 1 o 11010.994 11445.981 0.00 1.17314 2.86
5 0 0 2 o 4162.935 4460.596 -166.10 1.17315 0.27
1 1 8 2 o 10718.330 11445.981 0.00 1.17314 1.40
3 1 6 1 o 6419.675 6428.724 -167.98 1.16444 3.52
3 1 6 2 o 6799.813 6428.724 -167.98 1.16444 1.91
2 0 8 1 o 5800.871 5667.804 -174.72 1.15036 1.60
2 0 8 2 o 5717.042 5667.804 -174.72 1.15036 0.80
5 0 2 1 o 5777.428 5704.988 -150.14 1.14216 1.45
4 1 4 1 o 17065.129 17118.781 -1.76 1.13946 9.04
5 0 2 2 o 5679.888 5704.988 -150.14 1.14216 0.72
4 1 4 2 o 17069.377 17118.781 -1.76 1.13946 4.58
3 3 0 1 o 11290.248 11534.316 0.00 1.12886 1.40
3 3 0 2 o 12450.568 11534.316 0.00 1.12886 0.80
3 3 1 1 o 284.567 224.470 0.00 1.12174 0.09
3 3 1 2 o 204.517 224.470 0.00 1.12174 0.03
3 2 5 1 o 889.852 1254.983 -55.71 1.11665 0.58
3 2 5 2 o 1068.521 1254.983 -55.71 1.11665 0.35
4 2 0 1 o 6014.449 5732.858 -158.99 1.10852 1.51
4 2 0 2 o 6130.845 5732.858 -158.99 1.10852 0.78
4 2 1 1 o 34.858 35.230 -112.36 1.10178 0.02
3 3 2 1 o 17923.932 18369.891 0.00 1.10117 4.59
4 0 6 1 o 7891.162 8093.875 165.17 1.10117 2.06
4 2 1 2 o 32.595 35.230 -112.36 1.10178 0.01
3 3 2 2 o 16995.459 18369.891 0.00 1.10117 2.19
4 0 6 2 o 7474.180 8093.875 165.17 1.10117 0.98
2 2 7 1 o 12.680 11.927 -180.00 1.09218 0.00
2 2 7 2 o 12.838 11.927 -180.00 1.09218 0.00
2 1 8 1 o 5807.149 5521.957 166.59 1.08923 2.93
2 1 8 2 o 6058.610 5521.957 166.59 1.08923 1.56
4 2 2 1 o 3091.040 2961.756 -173.68 1.08227 1.50
4 2 2 2 o 2986.887 2961.756 -173.68 1.08227 0.73
4 1 5 1 o 518.914 479.413 -75.48 1.07826 0.32
4 1 5 2 o 609.811 479.413 -75.48 1.07826 0.19
3 1 7 1 o 529.702 497.208 91.70 1.07373 0.33
3 1 7 2 o 227.914 497.208 91.70 1.07373 0.08
3 3 3 1 o -0.910 55.270 0.00 1.06926 0.00
3 3 3 2 o -0.910 55.270 0.00 1.06926 0.00
5 0 4 1 o 1719.698 3478.698 179.89 1.06212 0.36
5 0 4 2 o 2087.599 3478.698 179.89 1.06212 0.24
1 1 9 1 o 520.944 776.464 -180.00 1.05618 0.17
1 1 9 2 o 668.241 776.464 -180.00 1.05618 0.11
3 0 8 1 o 15489.937 17429.299 2.59 1.05351 3.74
5 1 0 1 o 4405.443 4921.044 162.50 1.05352 1.02
3 0 8 2 o 16098.304 17429.299 2.59 1.05351 1.98
4 2 3 1 o 40.281 44.753 62.80 1.05193 0.02
5 1 0 2 o 4578.183 4921.044 162.50 1.05352 0.54
4 2 3 2 o 39.924 44.753 62.80 1.05193 0.01
3 2 6 1 o 4253.341 4516.858 152.74 1.04720 1.89
5 1 1 1 o 171.776 185.279 -95.77 1.04773 0.10
3 2 6 2 o 3871.543 4516.858 152.74 1.04720 0.85
5 1 1 2 o 157.608 185.279 -95.77 1.04773 0.05
5 1 2 1 o 2379.817 2458.801 165.20 1.03090 1.02
3 3 4 1 o 12593.601 12757.874 0.00 1.02892 2.95
5 1 2 2 o 2485.809 2458.801 165.20 1.03090 0.55
3 3 4 2 o 13422.853 12757.874 0.00 1.02892 1.61
4 1 6 1 o 10750.024 11044.455 3.41 1.01534 4.93
4 2 4 1 o 5853.877 5980.352 -144.75 1.01344 2.67
4 1 6 2 o 10861.326 11044.455 3.41 1.01534 2.54
4 2 4 2 o 5958.142 5980.352 -144.75 1.01344 1.39
2 2 8 1 o 11092.197 11016.261 0.00 1.00596 2.56
5 1 3 1 o 216.610 203.967 -20.62 1.00458 0.13
2 2 8 2 o 11640.624 11016.261 0.00 1.00596 1.38
5 1 3 2 o 227.394 203.967 -20.62 1.00458 0.07
0 0 10 1 o 6973.512 5293.309 0.00 1.00046 0.26
0 0 10 2 o 5191.747 5293.309 0.00 1.00046 0.09
2 1 9 1 o 1446.838 305.985 -121.28 0.99371 0.82
3 1 8 1 o 4269.125 3381.470 -147.51 0.99149 1.91
2 1 9 2 o 404.845 305.985 -121.28 0.99371 0.12
3 1 8 2 o 3549.740 3381.470 -147.51 0.99149 0.77
1 0 10 1 o 4706.583 5286.870 165.26 0.98621 1.09
1 0 10 2 o 4333.066 5286.870 165.26 0.98621 0.50
3 3 5 1 o 22.978 31.642 -180.00 0.98319 0.01
3 3 5 2 o 28.545 31.642 -180.00 0.98319 0.00
3 2 7 1 o 319.830 123.940 155.34 0.97975 0.19
6 0 0 1 o 35255.71 7949.026 21.45 0.97762 4.72
3 2 7 2 o 542.108 123.940 155.34 0.97975 0.16
6 0 0 2 o 9746.789 7949.026 21.45 0.97762 0.59
5 1 4 1 o 5538.427 5696.578 152.35 0.97090 2.55
4 2 5 1 o 28.711 32.459 -116.53 0.96966 0.02
5 1 4 2 o 5171.187 5696.578 152.35 0.97090 1.19
4 2 5 2 o 29.258 32.459 -116.53 0.96966 0.01
4 3 0 1 o 3412.006 3763.570 162.03 0.96432 0.75
4 3 0 2 o 3661.353 3763.570 162.03 0.96432 0.42
4 3 1 1 o 215.419 208.650 138.00 0.95987 0.13
6 0 2 1 o 17078.447 16498.057 -11.02 0.95947 4.21
5 0 6 1 o 4133.632 4005.581 -149.80 0.95947 0.92
1 1 10 1 o 14652.969 14154.366 0.00 0.95947 3.54
1 1 10 2 o 15702.094 14154.366 0.00 0.95947 1.95
4 3 1 2 o 233.976 208.650 138.00 0.95987 0.07
6 0 2 2 o 18345.762 16498.057 -11.02 0.95947 2.32
5 0 6 2 o 4411.847 4005.581 -149.80 0.95947 0.51
4 1 7 1 o 518.240 571.618 102.85 0.95351 0.32
4 0 8 1 o 3070.177 3011.382 139.51 0.95154 0.63
4 1 7 2 o 555.840 571.618 102.85 0.95351 0.17
4 0 8 2 o 2895.572 3011.382 139.51 0.95154 0.30
2 0 10 1 o 2159.964 2220.125 -144.23 0.94688 0.42
4 3 2 1 o 3233.711 3341.178 150.19 0.94689 1.39
2 0 10 2 o 2273.225 2220.125 -144.23 0.94688 0.23
4 3 2 2 o 3436.278 3341.178 150.19 0.94689 0.77
5 2 0 1 o 11283.966 10320.229 -6.81 0.93927 2.72
5 2 0 2 o 11403.855 10320.229 -6.81 0.93927 1.40
5 2 1 1 o 972.644 790.430 140.01 0.93516 0.59
3 3 6 1 o 16025.138 13108.424 0.00 0.93478 4.02
5 2 1 2 o 1015.108 790.430 140.01 0.93516 0.31
3 3 6 2 o 16494.631 13108.424 0.00 0.93478 2.12
5 1 5 1 o 199.223 147.395 161.10 0.93220 0.12
2 2 9 1 o 6.662 5.760 0.00 0.92927 0.00
5 1 5 2 o 195.810 147.395 161.10 0.93220 0.06
2 2 9 2 o 5.233 5.760 0.00 0.92927 0.00
4 3 3 1 o 256.418 219.652 -62.98 0.92637 0.16
4 2 6 1 o 2162.222 2082.663 -172.39 0.92314 1.01
4 3 3 2 o 212.803 219.652 -62.98 0.92637 0.07
5 2 2 1 o 10648.154 10248.512 4.79 0.92314 5.15
4 2 6 2 o 2171.550 2082.663 -172.39 0.92314 0.52
5 2 2 2 o 10748.589 10248.512 4.79 0.92314 2.65
3 1 9 1 o 302.914 349.660 -86.99 0.91782 0.19
3 2 8 1 o 1882.930 2140.217 172.12 0.91607 0.86
3 1 9 2 o 308.711 349.660 -86.99 0.91782 0.10
3 2 8 2 o 2187.460 2140.217 172.12 0.91607 0.53
2 1 10 1 o 1970.438 1786.028 159.11 0.91191 0.86
6 0 4 1 o 9600.959 8519.243 10.43 0.91054 2.36
2 1 10 2 o 1906.020 1786.028 159.11 0.91191 0.42
6 0 4 2 o 8940.773 8519.243 10.43 0.91054 1.11
5 2 3 1 o 59.965 161.026 -78.19 0.90409 0.05
5 2 3 2 o 32.929 161.026 -78.19 0.90409 0.02
4 3 4 1 o 2642.999 2633.968 176.56 0.89976 1.34
4 3 4 2 o 2200.840 2633.968 176.56 0.89976 0.55
6 1 0 1 o 2421.816 2533.466 -170.79 0.89452 0.60
4 1 8 1 o 12048.173 12714.397 -3.71 0.89451 6.19
6 1 0 2 o 2546.489 2533.466 -170.79 0.89452 0.32
4 1 8 2 o 12751.094 12714.397 -3.71 0.89451 3.38
6 1 1 1 o 71.743 73.780 109.04 0.89096 0.05
