#------------------------------------------------------------------------------
#$Date: 2021-04-26 20:55:38 +0300 (Mon, 26 Apr 2021) $
#$Revision: 264550 $
#$URL: file:///home/coder/svn-repositories/cod/cif/7/21/92/7219231.cif $
#------------------------------------------------------------------------------
#
# This file is available in the Crystallography Open Database (COD),
# http://www.crystallography.net/
#
# All data on this site have been placed in the public domain by the
# contributors.
#
data_7219231
loop_
_publ_author_name
'Gon\,calves, R. F.'
'Cavalcante, L. S.'
'Nogueira, I. C.'
'Longo, E.'
'Godinho, M. J.'
'Sczancoski, J. C.'
'Mastelaro, V. R.'
'Pinatti, I. M.'
'Rosa, I. L. V.'
'Marques, A. P. A.'
_publ_section_title
;
 Rietveld refinement, cluster modelling, growth mechanism and
 photoluminescence properties of CaWO4:Eu3+microcrystals
;
_journal_issue                   7
_journal_name_full               CrystEngComm
_journal_page_first              1654
_journal_paper_doi               10.1039/C4CE02279C
_journal_volume                  17
_journal_year                    2015
_chemical_compound_source        Scheelite
_chemical_formula_analytical     'Ca0.98 Eu0.02 O4 W'
_chemical_formula_moiety         'Ca0.98 Eu0.02 O4 W'
_chemical_formula_structural     'Ca0.98 Eu0.02 O4 W'
_chemical_formula_sum            'Ca0.98 Eu0.02 O4 W'
_chemical_formula_weight         290.12
_chemical_melting_point          1889
_chemical_name_common            'Calcium europium tungstate'
_space_group_IT_number           88
_symmetry_cell_setting           tetragonal
_symmetry_space_group_name_Hall  '-I 4ad'
_symmetry_space_group_name_H-M   'I 41/a :2'
_audit_creation_date             2014-08-13T14:43
_audit_creation_method           'from EXP file using GSAS2CIF'
_audit_update_record
;
2014-12-23 deposited with the CCDC.
2015-01-05 downloaded from the CCDC.
;
_cell_angle_alpha                90.0
_cell_angle_beta                 90.0
_cell_angle_gamma                90.0
_cell_formula_units_Z            4
_cell_length_a                   5.24643(6)
_cell_length_b                   5.24643
_cell_length_c                   11.38357(21)
_cell_measurement_temperature    298
_cell_volume                     313.333(7)
_computing_data_collection       Jade
_computing_data_reduction        Jade
_computing_structure_refinement  GSAS
_computing_structure_solution    xx
_diffrn_ambient_temperature      298
_diffrn_detector                 scintillation
_diffrn_detector_type            scintillation
_diffrn_measurement_device_type  'Rigaku AFC-7R'
_diffrn_radiation_monochromator  xx
_diffrn_radiation_polarisn_ratio 0.5
_diffrn_radiation_probe          x-ray
_diffrn_source                   Cu
_diffrn_source_target            Cu
_diffrn_source_type              Copper
_exptl_absorpt_correction_T_max  0.98492
_exptl_absorpt_correction_T_min  0.63571
_exptl_absorpt_process_details
;   GSAS Absorption/surface roughness correction: function number 3
 Surface roughness abs. correction (Suortti)
Terms =     0.40051        0.21075    
Correction is refined.
;
_exptl_crystal_density_diffrn    6.12
_exptl_crystal_density_meas      6.12
_exptl_crystal_density_method    'not measured'
_exptl_crystal_F_000             276
_pd_block_id                     2014-08-13T14:43|2%EU|Icamira|Rigaku
_pd_calc_method                  'Rietveld Refinement'
_pd_char_colour                  white
_pd_char_particle_morphology     irregular
_pd_instr_location               ' ?'
_pd_meas_2theta_range_inc        0.02
_pd_meas_2theta_range_max        110.0
_pd_meas_2theta_range_min        10.0
_pd_meas_number_of_points        5001
_pd_meas_scan_method             disp
_pd_phase_name
'from C:/Ref_CaWO4/CW-2%Eu/EntryWithCollCode18135.cif'
_pd_prep_cool_rate               1
_pd_prep_pressure                100
_pd_prep_temperature             298
_pd_proc_2theta_range_inc        0.02
_pd_proc_2theta_range_max        110.0
_pd_proc_2theta_range_min        10.0
_pd_proc_info_data_reduction     Jade
_pd_proc_info_datetime           2013-03-28T14:43:01
_pd_proc_info_excluded_regions   ' ?'
_pd_proc_ls_background_function
;   GSAS Background function number 1 with  7 terms.
 Shifted Chebyshev function of 1st kind
      1:    187.193     2:   -41.7119     3:    50.5514     4:   -29.1508    
      5:    25.1033     6:  -0.379448     7:    4.63920    
;
_pd_proc_ls_peak_cutoff          0.00030
_pd_proc_ls_profile_function
;
 CW Profile function number 4 with  17 terms
 Pseudovoigt profile coefficients as parameterized in
 P. Thompson, D.E. Cox & J.B. Hastings (1987). J. Appl. Cryst.,20,79-83.
 Asymmetry correction of L.W. Finger, D.E. Cox & A. P. Jephcoat (1994).
 J. Appl. Cryst.,27,892-900.
 Microstrain broadening by P.W. Stephens,  (1999). J. Appl. Cryst.,32,281-289.
 Peak tails are ignored  where the intensity is below 0.0003 times the peak
   Aniso. broadening axis   0.0   0.0   1.0
;
_pd_proc_number_of_points        5001
_pd_spec_mounting                ' ?'
_refine_ls_goodness_of_fit_all   2.34
_refine_ls_goodness_of_fit_ref   2.34
_refine_ls_matrix_type           full
_refine_ls_number_parameters     16
_refine_ls_number_restraints     0
_refine_ls_R_factor_all          0.0591
_refine_ls_R_factor_gt           0.0342
_refine_ls_R_Fsqd_factor         0.02956
_refine_ls_shift/su_max          0.01
_refine_ls_shift/su_mean         0.00
_refine_ls_wR_factor_gt          0.0799
_reflns_d_resolution_high        0.944
_reflns_d_resolution_low         4.765
_reflns_limit_h_max              5
_reflns_limit_h_min              0
_reflns_limit_k_max              6
_reflns_limit_k_min              0
_reflns_limit_l_max              12
_reflns_limit_l_min              0
_reflns_number_total             204
_cod_data_source_file            c4ce02279c2.cif
_cod_data_source_block           2%EU_publ
_cod_depositor_comments
;
The following automatic conversions were performed:

'_geom_bond_publ_flag' value 'N' changed to 'n' according to
/usr/data/users/saulius/crontab/automatic-downloads/rss-feeds/RSC/lib/dictionaries/cif_core.dic
dictionary named 'cif_core.dic' version 2.4.2 from 2011-04-26 (52
times).

'_geom_angle_publ_flag' value 'N' changed to 'n' according
to
/usr/data/users/saulius/crontab/automatic-downloads/rss-feeds/RSC/lib/dictionaries/cif_core.dic
dictionary named 'cif_core.dic' version 2.4.2 from 2011-04-26 (181
time).

Automatic conversion script
Id: cif_fix_values 2935 2014-11-11 08:27:57Z andrius 

 Adding full bibliography for 7219229--7219232.cif.

 Removed the _chemical_name_systematic data item since
 it had an incorrect value 'xx'.

 Antanas Vaitkus,
 2021-04-26
;
_cod_original_cell_volume        313.333(9)
_cod_original_sg_symbol_Hall     -I4ad
_cod_original_sg_symbol_H-M      'I 41/a'
_cod_database_code               7219231
loop_
_symmetry_equiv_pos_site_id
_symmetry_equiv_pos_as_xyz
1 +x,+y,+z
2 -y+3/4,+x+1/4,+z+1/4
3 -x+1/2,-y,+z+1/2
4 +y+3/4,-x+3/4,+z+3/4
-1 -x,-y,-z
-2 +y+1/4,-x+3/4,-z+3/4
-3 +x+1/2,+y,-z+1/2
-4 -y+1/4,+x+1/4,-z+1/4
101 +x+1/2,+y+1/2,+z+1/2
102 -y+1/4,+x+3/4,+z+3/4
103 -x,-y+1/2,+z
104 +y+1/4,-x+1/4,+z+1/4
-101 -x+1/2,-y+1/2,-z+1/2
-102 +y+3/4,-x+1/4,-z+1/4
-103 +x,+y+1/2,-z
-104 -y+3/4,+x+3/4,-z+3/4
loop_
_atom_site_type_symbol
_atom_site_label
_atom_site_fract_x
_atom_site_fract_y
_atom_site_fract_z
_atom_site_occupancy
_atom_site_thermal_displace_type
_atom_site_U_iso_or_equiv
_atom_site_symmetry_multiplicity
Ca Ca1 0.0 0.25 0.625 0.9804 Uiso 0.01512 4
W W1 0.0 0.25 0.125 1.0 Uiso 0.01438 4
O O1 0.15122 0.01157 0.20931 1.0 Uiso 0.02138 16
Eu EU1 0.0 0.25 0.625 0.0196 Uiso 0.02669 4
loop_
_atom_type_symbol
_atom_type_number_in_cell
_atom_type_scat_dispersion_real
_atom_type_scat_dispersion_imag
_atom_type_scat_Cromer_Mann_a1
_atom_type_scat_Cromer_Mann_a2
_atom_type_scat_Cromer_Mann_a3
_atom_type_scat_Cromer_Mann_a4
_atom_type_scat_Cromer_Mann_b1
_atom_type_scat_Cromer_Mann_b2
_atom_type_scat_Cromer_Mann_b3
_atom_type_scat_Cromer_Mann_b4
_atom_type_scat_Cromer_Mann_c
_atom_type_scat_source
Ca 3.922 0.000 0.000 15.6348 -0.0074 7.95180 0.60890 8.43720 10.3116 0.85370
25.9905 -14.875 International_Tables_Vol_C
W 4.0 0.000 0.000 29.4936 1.42755 19.3763 0.10462 13.0544 5.93667 5.06412
11.1972 1.01074 International_Tables_Vol_C
O 16.0 0.000 0.000 3.76936 15.0797 2.53342 6.30430 1.91579 40.3445 1.55094
0.31291 0.22789 International_Tables_Vol_C
Eu 0.078 0.000 0.000 24.6274 2.38790 19.0886 0.19420 13.7603 13.7546 2.92270
123.174 2.57450 International_Tables_Vol_C
loop_
_diffrn_radiation_wavelength
_diffrn_radiation_wavelength_wt
_diffrn_radiation_type
_diffrn_radiation_wavelength_id
1.540500 1.000 CuK\a 1
1.544300 0.500 CuK\a 2
loop_
_geom_angle_atom_site_label_1
_geom_angle_atom_site_label_2
_geom_angle_atom_site_label_3
_geom_angle
_geom_angle_site_symmetry_1
_geom_angle_site_symmetry_3
_geom_angle_publ_flag
Ca1 Ca1 Ca1 85.3369(12) 2_455 2_555 n
Ca1 Ca1 Ca1 122.7278(7) 2_455 4_444 n
Ca1 Ca1 Ca1 122.7278(7) 2_455 4_454 n
Ca1 Ca1 O1 100.6843(11) 2_455 2_455 n
Ca1 Ca1 O1 102.4437(9) 2_455 3_555 n
Ca1 Ca1 O1 38.6344(5) 2_455 -1_556 n
Ca1 Ca1 O1 131.25909(20) 2_455 -2_555 n
Ca1 Ca1 O1 38.32660(10) 2_455 101_455 n
Ca1 Ca1 O1 84.8101(8) 2_455 -104_445 n
Ca1 Ca1 EU1 0.0 2_455 2_455 n
Ca1 Ca1 EU1 85.3369(12) 2_455 2_555 n
Ca1 Ca1 EU1 122.7278(7) 2_455 4_444 n
Ca1 Ca1 EU1 122.7278(7) 2_455 4_454 n
Ca1 Ca1 Ca1 122.7278(7) 2_555 4_444 n
Ca1 Ca1 Ca1 122.7278(7) 2_555 4_454 n
Ca1 Ca1 O1 160.11960(20) 2_555 2_455 n
Ca1 Ca1 O1 38.32660(10) 2_555 3_555 n
Ca1 Ca1 O1 69.8392(9) 2_555 -1_556 n
Ca1 Ca1 O1 84.8101(8) 2_555 -2_555 n
Ca1 Ca1 O1 102.4437(9) 2_555 101_455 n
Ca1 Ca1 O1 131.25909(20) 2_555 -104_445 n
Ca1 Ca1 EU1 85.3369(12) 2_555 2_455 n
Ca1 Ca1 EU1 0.0 2_555 2_555 n
Ca1 Ca1 EU1 122.7278(7) 2_555 4_444 n
Ca1 Ca1 EU1 122.7278(7) 2_555 4_454 n
Ca1 Ca1 Ca1 85.3369(12) 4_444 4_454 n
Ca1 Ca1 O1 69.8392(9) 4_444 2_455 n
Ca1 Ca1 O1 84.8101(8) 4_444 3_555 n
Ca1 Ca1 O1 100.6843(11) 4_444 -1_556 n
Ca1 Ca1 O1 102.4437(9) 4_444 -2_555 n
Ca1 Ca1 O1 131.25909(20) 4_444 101_455 n
Ca1 Ca1 O1 38.32660(10) 4_444 -104_445 n
Ca1 Ca1 EU1 122.7278(7) 4_444 2_455 n
Ca1 Ca1 EU1 122.7278(7) 4_444 2_555 n
Ca1 Ca1 EU1 0.0 4_444 4_444 n
Ca1 Ca1 EU1 85.3369(12) 4_444 4_454 n
Ca1 Ca1 O1 38.6344(5) 4_454 2_455 n
Ca1 Ca1 O1 131.25909(20) 4_454 3_555 n
Ca1 Ca1 O1 160.11951(20) 4_454 -1_556 n
Ca1 Ca1 O1 38.32660(10) 4_454 -2_555 n
Ca1 Ca1 O1 84.8101(8) 4_454 101_455 n
Ca1 Ca1 O1 69.8392(9) 4_454 104_333 n
Ca1 Ca1 O1 102.4437(9) 4_454 -104_445 n
Ca1 Ca1 EU1 122.7278(7) 4_454 2_455 n
Ca1 Ca1 EU1 122.7278(7) 4_454 2_555 n
Ca1 Ca1 EU1 85.3369(12) 4_454 4_444 n
Ca1 Ca1 EU1 0.0 4_454 4_454 n
O1 Ca1 O1 152.28349(20) 2_455 3_555 n
O1 Ca1 O1 125.8785(7) 2_455 -1_556 n
O1 Ca1 O1 76.9610(5) 2_455 -2_555 n
O1 Ca1 O1 72.9724(10) 2_455 101_455 n
O1 Ca1 O1 68.4808(4) 2_455 -104_445 n
O1 Ca1 EU1 100.6843(11) 2_455 2_455 n
O1 Ca1 EU1 160.11960(20) 2_455 2_555 n
O1 Ca1 EU1 69.8392(9) 2_455 4_444 n
O1 Ca1 EU1 38.6344(5) 2_455 4_454 n
O1 Ca1 O1 68.4808(4) 3_555 -1_556 n
O1 Ca1 O1 98.61030(30) 3_555 -2_555 n
O1 Ca1 O1 134.4730(9) 3_555 101_455 n
O1 Ca1 O1 98.61030(30) 3_555 -104_445 n
O1 Ca1 EU1 102.4437(9) 3_555 2_455 n
O1 Ca1 EU1 38.32660(10) 3_555 2_555 n
O1 Ca1 EU1 84.8101(8) 3_555 4_444 n
O1 Ca1 EU1 131.25909(20) 3_555 4_454 n
O1 Ca1 O1 152.28349(20) -1_556 -2_555 n
O1 Ca1 O1 76.9610(5) -1_556 101_455 n
O1 Ca1 O1 72.9723(10) -1_556 -104_445 n
O1 Ca1 EU1 38.6344(5) -1_556 2_455 n
O1 Ca1 EU1 69.8392(9) -1_556 2_555 n
O1 Ca1 EU1 100.6843(11) -1_556 4_444 n
O1 Ca1 EU1 160.11951(20) -1_556 4_454 n
O1 Ca1 O1 98.61030(30) -2_555 101_455 n
O1 Ca1 O1 134.4730(9) -2_555 -104_445 n
O1 Ca1 O1 98.61030(30) 101_455 -104_445 n
O1 Ca1 EU1 38.32660(10) 101_455 2_455 n
O1 Ca1 EU1 102.4437(9) 101_455 2_555 n
O1 Ca1 EU1 131.25909(20) 101_455 4_444 n
O1 Ca1 EU1 84.8101(8) 101_455 4_454 n
O1 Ca1 EU1 84.8101(8) -104_656 2_455 n
EU1 Ca1 EU1 85.3369(12) 2_455 2_555 n
EU1 Ca1 EU1 122.7278(7) 2_455 4_444 n
EU1 Ca1 EU1 122.7278(7) 2_455 4_454 n
EU1 Ca1 EU1 122.7278(7) 2_555 4_444 n
EU1 Ca1 EU1 122.7278(7) 2_555 4_454 n
EU1 Ca1 EU1 85.3369(12) 4_444 4_454 n
O1 W1 O1 107.1981(5) 1_555 -4_555 n
Ca1 O1 Ca1 103.0389(5) 3_554 4_444 n
Ca1 O1 W1 120.8829(9) 3_554 1_555 n
Ca1 O1 EU1 0.0 3_554 3_554 n
Ca1 O1 EU1 103.0389(5) 3_554 4_444 n
Ca1 O1 W1 131.7813(4) 4_444 1_555 n
Ca1 O1 EU1 103.0389(5) 4_444 3_554 n
Ca1 O1 EU1 0.0 4_444 4_444 n
W1 O1 EU1 120.8829(9) 1_555 3_554 n
W1 O1 EU1 131.7813(4) 1_555 4_444 n
EU1 O1 EU1 103.0389(5) 3_554 4_444 n
Ca1 EU1 Ca1 85.3369(12) 2_455 2_555 n
Ca1 EU1 Ca1 122.7278(7) 2_455 4_444 n
Ca1 EU1 Ca1 122.7278(7) 2_455 4_454 n
Ca1 EU1 O1 100.6843(11) 2_455 2_455 n
Ca1 EU1 O1 102.4437(9) 2_455 3_555 n
Ca1 EU1 O1 38.6344(5) 2_455 -1_556 n
Ca1 EU1 O1 131.25909(20) 2_455 -2_555 n
Ca1 EU1 O1 38.32660(10) 2_455 101_455 n
Ca1 EU1 O1 84.8101(8) 2_455 -104_445 n
Ca1 EU1 EU1 0.0 2_455 2_455 n
Ca1 EU1 EU1 85.3369(12) 2_455 2_555 n
Ca1 EU1 EU1 122.7278(7) 2_455 4_444 n
Ca1 EU1 EU1 122.7278(7) 2_455 4_454 n
Ca1 EU1 Ca1 122.7278(7) 2_555 4_444 n
Ca1 EU1 Ca1 122.7278(7) 2_555 4_454 n
Ca1 EU1 O1 160.11960(20) 2_555 2_455 n
Ca1 EU1 O1 38.32660(10) 2_555 3_555 n
Ca1 EU1 O1 69.8392(9) 2_555 -1_556 n
Ca1 EU1 O1 84.8101(8) 2_555 -2_555 n
Ca1 EU1 O1 102.4437(9) 2_555 101_455 n
Ca1 EU1 O1 131.25909(20) 2_555 -104_445 n
Ca1 EU1 EU1 85.3369(12) 2_555 2_455 n
Ca1 EU1 EU1 0.0 2_555 2_555 n
Ca1 EU1 EU1 122.7278(7) 2_555 4_444 n
Ca1 EU1 EU1 122.7278(7) 2_555 4_454 n
Ca1 EU1 Ca1 85.3369(12) 4_444 4_454 n
Ca1 EU1 O1 69.8392(9) 4_444 2_455 n
Ca1 EU1 O1 84.8101(8) 4_444 3_555 n
Ca1 EU1 O1 100.6843(11) 4_444 -1_556 n
Ca1 EU1 O1 102.4437(9) 4_444 -2_555 n
Ca1 EU1 O1 131.25909(20) 4_444 101_455 n
Ca1 EU1 O1 38.32660(10) 4_444 -104_445 n
Ca1 EU1 EU1 122.7278(7) 4_444 2_455 n
Ca1 EU1 EU1 122.7278(7) 4_444 2_555 n
Ca1 EU1 EU1 0.0 4_444 4_444 n
Ca1 EU1 EU1 85.3369(12) 4_444 4_454 n
Ca1 EU1 O1 38.6344(5) 4_454 2_455 n
Ca1 EU1 O1 131.25909(20) 4_454 3_555 n
Ca1 EU1 O1 160.11951(20) 4_454 -1_556 n
Ca1 EU1 O1 38.32660(10) 4_454 -2_555 n
Ca1 EU1 O1 84.8101(8) 4_454 101_455 n
Ca1 EU1 O1 69.8392(9) 4_454 104_333 n
Ca1 EU1 O1 102.4437(9) 4_454 -104_445 n
Ca1 EU1 EU1 122.7278(7) 4_454 2_455 n
Ca1 EU1 EU1 122.7278(7) 4_454 2_555 n
Ca1 EU1 EU1 85.3369(12) 4_454 4_444 n
Ca1 EU1 EU1 0.0 4_454 4_454 n
O1 EU1 O1 152.28349(20) 2_455 3_555 n
O1 EU1 O1 125.8785(7) 2_455 -1_556 n
O1 EU1 O1 76.9610(5) 2_455 -2_555 n
O1 EU1 O1 72.9724(10) 2_455 101_455 n
O1 EU1 O1 68.4808(4) 2_455 -104_445 n
O1 EU1 EU1 100.6843(11) 2_455 2_455 n
O1 EU1 EU1 160.11960(20) 2_455 2_555 n
O1 EU1 EU1 69.8392(9) 2_455 4_444 n
O1 EU1 EU1 38.6344(5) 2_455 4_454 n
O1 EU1 O1 68.4808(4) 3_555 -1_556 n
O1 EU1 O1 98.61030(30) 3_555 -2_555 n
O1 EU1 O1 134.4730(9) 3_555 101_455 n
O1 EU1 O1 98.61030(30) 3_555 -104_445 n
O1 EU1 EU1 102.4437(9) 3_555 2_455 n
O1 EU1 EU1 38.32660(10) 3_555 2_555 n
O1 EU1 EU1 84.8101(8) 3_555 4_444 n
O1 EU1 EU1 131.25909(20) 3_555 4_454 n
O1 EU1 O1 152.28349(20) -1_556 -2_555 n
O1 EU1 O1 76.9610(5) -1_556 101_455 n
O1 EU1 O1 72.9723(10) -1_556 -104_445 n
O1 EU1 EU1 38.6344(5) -1_556 2_455 n
O1 EU1 EU1 69.8392(9) -1_556 2_555 n
O1 EU1 EU1 100.6843(11) -1_556 4_444 n
O1 EU1 EU1 160.11951(20) -1_556 4_454 n
O1 EU1 O1 98.61030(30) -2_555 101_455 n
O1 EU1 O1 134.4730(9) -2_555 -104_445 n
O1 EU1 O1 98.61030(30) 101_455 -104_445 n
O1 EU1 EU1 38.32660(10) 101_455 2_455 n
O1 EU1 EU1 102.4437(9) 101_455 2_555 n
O1 EU1 EU1 131.25909(20) 101_455 4_444 n
O1 EU1 EU1 84.8101(8) 101_455 4_454 n
O1 EU1 EU1 84.8101(8) -104_656 2_455 n
EU1 EU1 EU1 85.3369(12) 2_455 2_555 n
EU1 EU1 EU1 122.7278(7) 2_455 4_444 n
EU1 EU1 EU1 122.7278(7) 2_455 4_454 n
EU1 EU1 EU1 122.7278(7) 2_555 4_444 n
EU1 EU1 EU1 122.7278(7) 2_555 4_454 n
EU1 EU1 EU1 85.3369(12) 4_444 4_454 n
loop_
_geom_bond_atom_site_label_1
_geom_bond_atom_site_label_2
_geom_bond_distance
_geom_bond_site_symmetry_2
_geom_bond_publ_flag
Ca1 Ca1 3.87045(4) 2_455 n
Ca1 Ca1 3.87045(4) 2_555 n
Ca1 Ca1 3.87045(4) 4_444 n
Ca1 Ca1 3.87045(4) 4_454 n
Ca1 W1 3.70978(4) 3_455 n
Ca1 W1 3.70978(4) 3_465 n
Ca1 W1 3.70978(4) 3_555 n
Ca1 W1 3.70978(4) 3_565 n
Ca1 O1 2.463760(30) 2_455 n
Ca1 O1 2.480460(20) 3_555 n
Ca1 O1 2.463760(30) -1_556 n
Ca1 O1 2.480460(20) -2_555 n
Ca1 O1 2.480460(20) 101_455 n
Ca1 O1 2.463760(30) 104_555 n
Ca1 EU1 3.87045(4) 2_455 n
Ca1 EU1 3.87045(4) 2_555 n
Ca1 EU1 3.87045(4) 4_444 n
Ca1 EU1 3.87045(4) 4_454 n
W1 Ca1 3.70978(4) 3_454 n
W1 Ca1 3.70978(4) 3_464 n
W1 Ca1 3.70978(4) 3_554 n
W1 Ca1 3.70978(4) 3_564 n
W1 O1 1.765040(20) 1_555 n
W1 O1 1.765040(20) -4_555 n
W1 O1 1.765040(20) 103_555 n
W1 EU1 3.70978(4) 3_454 n
W1 EU1 3.70978(4) 3_464 n
W1 EU1 3.70978(4) 3_554 n
W1 EU1 3.70978(4) 3_564 n
O1 Ca1 2.480460(20) 3_554 n
O1 Ca1 2.463760(30) 4_444 n
O1 W1 1.765040(20) 1_555 n
O1 EU1 2.480460(20) 3_554 n
O1 EU1 2.463760(30) 4_444 n
EU1 Ca1 3.87045(4) 2_455 n
EU1 Ca1 3.87045(4) 2_555 n
EU1 Ca1 3.87045(4) 4_444 n
EU1 Ca1 3.87045(4) 4_454 n
EU1 W1 3.70978(4) 3_455 n
EU1 W1 3.70978(4) 3_465 n
EU1 W1 3.70978(4) 3_555 n
EU1 W1 3.70978(4) 3_565 n
EU1 O1 2.463760(30) 2_455 n
EU1 O1 2.480460(20) 3_555 n
EU1 O1 2.463760(30) -1_556 n
EU1 O1 2.480460(20) -2_555 n
EU1 O1 2.480460(20) 101_455 n
EU1 O1 2.463760(30) 104_555 n
EU1 EU1 3.87045(4) 2_455 n
EU1 EU1 3.87045(4) 2_555 n
EU1 EU1 3.87045(4) 4_444 n
EU1 EU1 3.87045(4) 4_454 n
loop_
_pd_meas_counts_total
_pd_proc_ls_weight
_pd_proc_intensity_bkg_calc
_pd_calc_intensity_total
391.0 0.002558 338.72903 338.72955
339.0 0.002950 338.29559 338.29608
372.0 0.002688 337.86292 337.86343
348.0 0.002874 337.43100 337.43152
376.0 0.002660 336.99991 337.00040
397.0 0.002519 336.56961 336.57010
340.0 0.002941 336.14008 336.14053
384.0 0.002604 335.71130 335.71179
359.0 0.002786 335.28336 335.28381
327.0 0.003058 334.85617 334.85663
336.0 0.002976 334.42978 334.43024
370.0 0.002703 334.00412 334.00461
337.0 0.002967 333.57928 333.57974
366.0 0.002732 333.15521 333.15564
336.0 0.002976 332.73190 332.73236
357.0 0.002801 332.30939 332.30978
367.0 0.002725 331.88763 331.88803
370.0 0.002703 331.46664 331.46704
369.0 0.002710 331.04645 331.04684
332.0 0.003012 330.62698 330.62744
341.0 0.002933 330.20831 330.20877
331.0 0.003021 329.79041 329.79077
328.0 0.003049 329.37326 329.37366
323.0 0.003096 328.95688 328.95728
296.0 0.003378 328.54129 328.54172
370.0 0.002703 328.12640 328.12680
375.0 0.002667 327.71231 327.71271
358.0 0.002793 327.29898 327.29938
327.0 0.003058 326.88638 326.88681
342.0 0.002924 326.47458 326.47498
335.0 0.002985 326.06354 326.06390
342.0 0.002924 325.65323 325.65363
360.0 0.002778 325.24368 325.24405
320.0 0.003125 324.83490 324.83527
345.0 0.002899 324.42682 324.42719
314.0 0.003185 324.01953 324.01990
364.0 0.002747 323.61298 323.61337
338.0 0.002959 323.20718 323.20755
345.0 0.002899 322.80212 322.80246
346.0 0.002890 322.39783 322.39819
321.0 0.003115 321.99426 321.99463
343.0 0.002915 321.59146 321.59183
295.0 0.003390 321.18936 321.18976
333.0 0.003003 320.78806 320.78839
292.0 0.003425 320.38748 320.38776
346.0 0.002890 319.98764 319.98798
310.0 0.003226 319.58850 319.58881
329.0 0.003040 319.19012 319.19046
357.0 0.002801 318.79248 318.79279
294.0 0.003401 318.39560 318.39590
335.0 0.002985 317.99942 317.99976
332.0 0.003012 317.60397 317.60425
349.0 0.002865 317.20926 317.20959
336.0 0.002976 316.81531 316.81561
306.0 0.003268 316.42206 316.42233
310.0 0.003226 316.02951 316.02979
326.0 0.003067 315.63776 315.63803
298.0 0.003356 315.24670 315.24695
321.0 0.003115 314.85635 314.85660
314.0 0.003185 314.46674 317.43622
321.0 0.003115 314.07785 317.06323
325.0 0.003077 313.68967 318.16739
321.0 0.003115 313.30225 317.80392
314.0 0.003185 312.91553 317.44135
331.0 0.003021 312.52948 317.07974
295.0 0.003390 312.14420 316.71902
335.0 0.002985 311.75964 316.35928
312.0 0.003205 311.37579 316.00043
311.0 0.003215 310.99265 315.64243
327.0 0.003058 310.61020 315.28540
322.0 0.003106 310.22849 314.92929
321.0 0.003115 309.84747 314.57410
299.0 0.003344 309.46719 314.21982
280.0 0.00357 309.08759 313.86649
288.0 0.003472 308.70871 313.51404
318.0 0.003145 308.33054 313.16260
302.0 0.003311 307.95303 312.81201
295.0 0.003390 307.57629 312.46237
282.0 0.00355 307.20023 312.11365
297.0 0.003367 306.82486 311.76590
306.0 0.003268 306.45023 311.41910
295.0 0.003390 306.07626 311.07324
291.0 0.003436 305.70300 310.72824
315.0 0.003175 305.33044 310.38419
274.0 0.00365 304.95859 310.04114
329.0 0.003040 304.58743 309.69904
322.0 0.003106 304.21692 309.35779
294.0 0.003401 303.84717 309.01755
311.0 0.003215 303.47809 308.67825
284.0 0.00352 303.10971 308.33990
300.0 0.003333 302.74197 308.00253
299.0 0.003344 302.37497 307.66611
318.0 0.003145 302.00864 307.33060
316.0 0.003165 301.64301 306.99606
306.0 0.003268 301.27805 306.66251
270.0 0.00370 300.91379 306.32993
316.0 0.003165 300.55023 305.99829
308.0 0.003247 300.18732 305.66757
313.0 0.003195 299.82513 305.33786
323.0 0.003096 299.46359 305.00916
286.0 0.003497 299.10272 304.68137
309.0 0.003236 298.74255 304.35461
255.0 0.00392 298.38306 304.02884
309.0 0.003236 298.02423 303.70395
305.0 0.003279 297.66611 303.38019
297.0 0.003367 297.30862 303.05731
282.0 0.00355 296.95187 302.73547
313.0 0.003195 296.59570 302.41452
336.0 0.002976 296.24026 302.09473
276.0 0.00362 295.88550 301.77582
288.0 0.003472 295.53140 301.45795
287.0 0.003484 295.17798 301.14114
299.0 0.003344 294.82520 300.82520
290.0 0.003448 294.47308 300.51035
263.0 0.00380 294.12167 300.19659
301.0 0.003322 293.77090 299.88373
297.0 0.003367 293.42078 299.57193
278.0 0.00360 293.07132 299.26117
294.0 0.003401 292.72256 298.95139
281.0 0.00356 292.37442 298.64267
275.0 0.00364 292.02698 298.33505
293.0 0.003413 291.68015 298.02835
301.0 0.003322 291.33401 297.72275
266.0 0.00376 290.98853 297.41815
281.0 0.00356 290.64371 297.11472
304.0 0.003289 290.29953 296.81229
307.0 0.003257 289.95599 296.51086
276.0 0.00362 289.61313 296.21057
314.0 0.003185 289.27090 295.91125
283.0 0.00353 288.92932 295.61307
294.0 0.003401 288.58841 295.31598
305.0 0.003279 288.24814 295.01996
276.0 0.00362 287.90851 294.72501
268.0 0.00373 287.56955 294.43112
285.0 0.00351 287.23120 294.13837
292.0 0.003425 286.89352 293.84671
281.0 0.00356 286.55649 293.55615
279.0 0.00358 286.22009 293.26675
324.0 0.003086 285.88431 292.97833
293.0 0.003413 285.54919 292.69116
272.0 0.00368 285.21472 292.40509
317.0 0.003155 284.88089 292.12015
294.0 0.003401 284.54767 291.83630
278.0 0.00360 284.21512 291.55365
265.0 0.00377 283.88318 291.27216
299.0 0.003344 283.55188 290.99176
289.0 0.003460 283.22122 290.71255
258.0 0.00388 282.89120 290.43454
283.0 0.00353 282.56180 290.15768
301.0 0.003322 282.23303 289.88205
282.0 0.00355 281.90491 289.60754
279.0 0.00358 281.57736 289.33420
289.0 0.003460 281.25049 289.06219
260.0 0.00385 280.92422 288.79123
275.0 0.00364 280.59863 288.52158
267.0 0.00375 280.27359 288.25320
279.0 0.00358 279.94922 287.98599
281.0 0.00356 279.62546 287.72000
268.0 0.00373 279.30234 287.45526
261.0 0.00383 278.97983 287.19180
305.0 0.003279 278.65793 286.92960
272.0 0.00368 278.33667 286.66867
267.0 0.00375 278.01602 286.40903
311.0 0.003215 277.69598 286.15067
293.0 0.003413 277.37656 285.89362
281.0 0.00356 277.05774 285.63782
236.0 0.00424 276.73956 285.38342
265.0 0.00377 276.42197 285.13028
285.0 0.00351 276.10501 284.87851
273.0 0.00366 275.78864 284.62808
251.0 0.00398 275.47290 284.37903
263.0 0.00380 275.15778 284.13135
284.0 0.00352 274.84326 283.88501
305.0 0.003279 274.52930 283.64001
298.0 0.003356 274.21600 283.39655
268.0 0.00373 273.90329 283.15433
272.0 0.00368 273.59119 282.91370
271.0 0.00369 273.27972 282.67444
276.0 0.00362 272.96881 282.43655
268.0 0.00373 272.65851 282.20023
295.0 0.003390 272.34882 281.96527
287.0 0.003484 272.03973 281.73187
275.0 0.00364 271.73123 281.49994
281.0 0.00356 271.42334 281.26953
274.0 0.00365 271.11603 281.04065
263.0 0.00380 270.80933 280.81329
305.0 0.003279 270.50320 280.58746
276.0 0.00362 270.19769 280.36322
270.0 0.00370 269.89279 280.14053
256.0 0.00391 269.58847 279.91953
293.0 0.003413 269.28473 279.70001
278.0 0.00360 268.98157 279.48221
263.0 0.00380 268.67902 279.26602
276.0 0.00362 268.37708 279.05148
302.0 0.003311 268.07568 278.83865
287.0 0.003484 267.77490 278.62750
243.0 0.00412 267.47467 278.41800
277.0 0.00361 267.17508 278.21027
295.0 0.003390 266.87604 278.00430
278.0 0.00360 266.57761 277.80011
256.0 0.00391 266.27969 277.59769
306.0 0.003268 265.98242 277.39700
272.0 0.00368 265.68570 277.19821
252.0 0.00397 265.38956 277.00122
274.0 0.00365 265.09402 276.80615
289.0 0.003460 264.79904 276.61295
290.0 0.003448 264.50467 276.42169
245.0 0.00408 264.21085 276.23230
272.0 0.00368 263.91760 276.04483
331.0 0.003021 263.62491 275.85944
321.0 0.003115 263.33282 275.67599
265.0 0.00377 263.04129 275.49457
253.0 0.00395 262.75037 275.31528
272.0 0.00368 262.45996 275.13794
242.0 0.00413 262.17014 274.96277
270.0 0.00370 261.88089 274.78970
292.0 0.003425 261.59222 274.61880
292.0 0.003425 261.30411 274.45010
294.0 0.003401 261.01657 274.28363
266.0 0.00376 260.72958 274.11935
290.0 0.003448 260.44318 273.95740
299.0 0.003344 260.15732 273.79770
255.0 0.00392 259.87204 273.64041
282.0 0.00355 259.58728 273.48541
283.0 0.00353 259.30313 273.33286
276.0 0.00362 259.01953 273.18277
272.0 0.00368 258.73645 273.03513
286.0 0.003497 258.45398 272.88995
283.0 0.00353 258.17203 272.74741
267.0 0.00375 257.89066 272.60733
284.0 0.00352 257.60983 272.46991
285.0 0.00351 257.32956 272.33524
271.0 0.00369 257.04987 272.20319
278.0 0.00360 256.77069 272.07391
266.0 0.00376 256.49207 271.94739
272.0 0.00368 256.21402 271.82376
252.0 0.00397 255.93649 271.70294
270.0 0.00370 255.65955 271.58505
301.0 0.003322 255.38313 271.47015
283.0 0.00353 255.10727 271.35825
303.0 0.003300 254.83194 271.24939
284.0 0.00352 254.55717 271.14371
308.0 0.003247 254.28294 271.04111
291.0 0.003436 254.00926 270.94183
246.0 0.00407 253.73610 270.84579
261.0 0.00383 253.46352 270.75302
256.0 0.00391 253.19145 270.66370
273.0 0.00366 252.91994 270.57782
279.0 0.00358 252.64894 270.49545
278.0 0.00360 252.37851 270.41669
264.0 0.00379 252.10860 270.34155
251.0 0.00398 251.83922 270.27011
280.0 0.00357 251.57040 270.20242
258.0 0.00388 251.30209 270.13864
288.0 0.003472 251.03435 270.07874
255.0 0.00392 250.76712 270.02283
277.0 0.00361 250.50043 269.97098
305.0 0.003279 250.23425 269.92328
294.0 0.003401 249.96863 269.87979
257.0 0.00389 249.70352 269.84064
290.0 0.003448 249.43895 269.80585
255.0 0.00392 249.17490 269.77557
272.0 0.00368 248.91138 269.74985
279.0 0.00358 248.64839 269.72882
266.0 0.00376 248.38594 269.71252
270.0 0.00370 248.12398 269.70108
283.0 0.00353 247.86256 269.69461
280.0 0.00357 247.60167 269.69324
276.0 0.00362 247.34131 269.69699
238.0 0.00420 247.08145 269.70609
267.0 0.00375 246.82213 269.72052
285.0 0.00351 246.56331 269.74051
285.0 0.00351 246.30502 269.76608
299.0 0.003344 246.04726 269.79749
279.0 0.00358 245.79001 269.83478
276.0 0.00362 245.53325 269.87805
281.0 0.00356 245.27704 269.92749
296.0 0.003378 245.02133 269.98328
293.0 0.003413 244.76613 270.04544
293.0 0.003413 244.51144 270.11423
267.0 0.00375 244.25728 270.18982
257.0 0.00389 244.00363 270.27231
250.0 0.00400 243.75047 270.36182
262.0 0.00382 243.49785 270.45865
251.0 0.00398 243.24573 270.56296
289.0 0.003460 242.99411 270.67484
258.0 0.00388 242.74300 270.79449
249.0 0.00402 242.49239 270.92218
272.0 0.00368 242.24229 271.05807
281.0 0.00356 241.99269 271.20233
289.0 0.003460 241.74361 271.35526
291.0 0.003436 241.49503 271.51706
240.0 0.00417 241.24692 271.68787
258.0 0.00388 240.99934 271.86807
314.0 0.003185 240.75227 272.05783
275.0 0.00364 240.50569 272.25739
266.0 0.00376 240.25960 272.46710
275.0 0.00364 240.01401 272.68710
297.0 0.003367 239.76892 272.91785
282.0 0.00355 239.52434 273.15948
290.0 0.003448 239.28024 273.41241
267.0 0.00375 239.03664 273.67694
282.0 0.00355 238.79353 273.95334
281.0 0.00356 238.55093 274.24203
279.0 0.00358 238.30882 274.54337
272.0 0.00368 238.06717 274.85764
265.0 0.00377 237.82603 275.18524
281.0 0.00356 237.58540 275.52667
318.0 0.003145 237.34525 275.88229
303.0 0.003300 237.10556 276.25250
276.0 0.00362 236.86639 276.63776
273.0 0.00366 236.62772 277.03857
253.0 0.00395 236.38951 277.45544
279.0 0.00358 236.15176 277.88876
279.0 0.00358 235.91454 278.33914
312.0 0.003205 235.67780 278.80719
289.0 0.003460 235.44153 279.29333
290.0 0.003448 235.20573 279.79822
283.0 0.00353 234.97043 280.32257
283.0 0.00353 234.73561 280.86694
280.0 0.00357 234.50127 281.43195
306.0 0.003268 234.26741 282.01843
304.0 0.003289 234.03400 282.62695
266.0 0.00376 233.80112 283.25848
279.0 0.00358 233.56868 283.91373
292.0 0.003425 233.33672 284.59351
301.0 0.003322 233.10522 285.29871
296.0 0.003378 232.87422 286.03021
292.0 0.003425 232.64371 286.78912
250.0 0.00400 232.41364 287.57626
295.0 0.003390 232.18404 288.39279
281.0 0.00356 231.95493 289.23981
340.0 0.002941 231.72629 290.11841
301.0 0.003322 231.49812 291.02985
322.0 0.003106 231.27042 291.97540
293.0 0.003413 231.04317 292.95633
302.0 0.003311 230.81641 293.97415
296.0 0.003378 230.59010 295.03027
333.0 0.003003 230.36426 296.12619
284.0 0.00352 230.13887 297.26361
269.0 0.00372 229.91399 298.44424
311.0 0.003215 229.68953 299.66980
288.0 0.003472 229.46555 300.94229
282.0 0.00355 229.24202 302.26364
334.0 0.002994 229.01898 303.63596
305.0 0.003279 228.79637 305.06146
316.0 0.003165 228.57423 306.54254
323.0 0.003096 228.35254 308.08160
301.0 0.003322 228.13135 309.68137
335.0 0.002985 227.91057 311.34448
330.0 0.003030 227.69026 313.07391
343.0 0.002915 227.47041 314.87280
286.0 0.003497 227.25101 316.74438
337.0 0.002967 227.03207 318.69217
363.0 0.002755 226.81360 320.71988
308.0 0.003247 226.59557 322.83130
328.0 0.003049 226.37798 325.03073
341.0 0.002933 226.16086 327.32257
344.0 0.002907 225.94417 329.71146
329.0 0.003040 225.72794 332.20245
403.0 0.002481 225.51215 334.80087
331.0 0.003021 225.29684 337.51248
339.0 0.002950 225.08194 340.34323
332.0 0.003012 224.86751 343.29974
336.0 0.002976 224.65352 346.38889
384.0 0.002604 224.43999 349.61810
382.0 0.002618 224.22688 352.99524
355.0 0.002817 224.01422 356.52896
357.0 0.002801 223.80202 360.22833
341.0 0.002933 223.59026 364.10318
364.0 0.002747 223.37892 368.16406
349.0 0.002865 223.16803 372.42233
360.0 0.002778 222.95758 376.89026
369.0 0.002710 222.74759 381.58102
371.0 0.002695 222.53802 386.50882
357.0 0.002801 222.32887 391.68909
404.0 0.002475 222.12019 397.13852
395.0 0.002532 221.91193 402.87515
416.0 0.002404 221.70413 408.91861
365.0 0.002740 221.49673 415.29013
388.0 0.002577 221.28978 422.01291
383.0 0.002611 221.08327 429.11218
464.0 0.002155 220.87720 436.61542
417.0 0.002398 220.67152 444.55273
440.0 0.002273 220.46632 452.95706
395.0 0.002532 220.26154 461.86432
420.0 0.002381 220.05717 471.31424
428.0 0.002336 219.85326 481.35022
442.0 0.002262 219.64975 492.02026
468.0 0.002137 219.44667 503.37726
463.0 0.002160 219.24405 515.47961
501.0 0.001996 219.04182 528.39215
499.0 0.002004 218.84003 542.18671
499.0 0.002004 218.63866 556.94330
505.0 0.001980 218.43773 572.75092
525.0 0.001905 218.23721 589.70929
542.0 0.001845 218.03711 607.92963
564.0 0.001773 217.83743 627.53723
583.0 0.001715 217.63820 648.67291
580.0 0.001724 217.43936 671.49561
585.0 0.001709 217.24095 696.18524
657.0 0.001522 217.04295 722.94653
654.0 0.001529 216.84538 752.01306
613.0 0.001631 216.64824 783.65308
715.0 0.001399 216.45151 818.17682
734.0 0.001362 216.25517 855.94611
740.0 0.001351 216.05927 897.38873
849.0 0.001178 215.86380 943.01624
903.0 0.001107 215.66873 993.45227
966.0 0.001035 215.47406 1049.47021
1004.0 0.000996 215.27980 1112.04761
1108.0 0.000903 215.08598 1182.43945
1177.0 0.000850 214.89256 1262.27930
1378.0 0.000726 214.69955 1353.70728
1483.0 0.000674 214.50694 1459.53186
1653.0 0.000605 214.31476 1583.41882
1927.0 0.000519 214.12299 1730.09790
2159.0 0.000463 213.93161 1905.57153
2384.0 0.000419 213.74063 2117.29102
2820.0 0.000355 213.55008 2374.26196
3236.0 0.0003090 213.35994 2687.03247
3696.0 0.0002706 213.17018 3067.50928
4185.0 0.0002389 212.98083 3528.56519
4782.0 0.0002091 212.79192 4083.38843
5467.0 0.0001829 212.60338 4744.56934
6196.0 0.0001614 212.41524 5522.88379
7042.0 0.0001420 212.22751 6425.73535
7857.0 0.0001273 212.04018 7455.13379
8776.0 0.0001139 211.85326 8604.95898
9800.0 0.0001020 211.66673 9857.22363
10560.0 0.0000947 211.48061 11177.15137
11673.0 0.0000857 211.29488 12507.71973
12609.0 0.0000793 211.10954 13766.09180
13264.0 0.0000754 210.92462 14846.61816
13952.0 0.0000717 210.74008 15635.36426
14416.0 0.0000694 210.55592 16035.89355
15002.0 0.0000667 210.37221 15996.75293
15075.0 0.0000663 210.18884 15526.50195
14991.0 0.0000667 210.00589 14689.01855
14702.0 0.0000680 209.82332 13583.41602
14008.0 0.0000714 209.64117 12318.99512
13049.0 0.0000766 209.45938 10994.66992
11736.0 0.0000852 209.27800 9687.79883
10418.0 0.0000960 209.09700 8451.88184
8926.0 0.0001120 208.91640 7319.63232
7410.0 0.0001350 208.73618 6307.80225
6095.0 0.0001641 208.55635 5421.70557
5005.0 0.0001998 208.37691 4658.79395
4204.0 0.0002379 208.19786 4011.31226
3419.0 0.0002925 208.01921 3468.30713
2804.0 0.000357 207.84091 3017.15918
2316.0 0.000432 207.66301 2644.77197
1946.0 0.000514 207.48549 2338.45117
1885.0 0.000531 207.30840 2086.51465
1605.0 0.000623 207.13164 1878.65808
1510.0 0.000662 206.95528 1706.10864
1305.0 0.000766 206.77930 1561.62341
1167.0 0.000857 206.60371 1439.37500
1094.0 0.000914 206.42850 1334.77271
968.0 0.001033 206.25366 1244.25793
896.0 0.001116 206.07921 1165.10168
849.0 0.001178 205.90514 1095.22058
822.0 0.001217 205.73143 1033.02173
792.0 0.001263 205.55811 977.27905
740.0 0.001351 205.38516 927.03534
714.0 0.001401 205.21260 881.53217
684.0 0.001462 205.04042 840.15698
648.0 0.001543 204.86859 802.40619
613.0 0.001631 204.69714 767.85944
618.0 0.001618 204.52609 736.16010
551.0 0.001815 204.35539 707.00256
543.0 0.001842 204.18506 680.12238
521.0 0.001919 204.01511 655.28943
467.0 0.002141 203.84554 632.30182
461.0 0.002169 203.67633 610.98212
523.0 0.001912 203.50748 591.17346
492.0 0.002033 203.33900 572.73694
483.0 0.002070 203.17090 555.54895
485.0 0.002062 203.00317 539.49963
476.0 0.002101 202.83582 524.49060
459.0 0.002179 202.66881 510.43384
458.0 0.002183 202.50217 497.25037
424.0 0.002358 202.33591 484.86917
428.0 0.002336 202.17001 473.22632
431.0 0.002320 202.00446 462.26385
393.0 0.002545 201.83928 451.92966
358.0 0.002793 201.67447 442.17618
403.0 0.002481 201.51003 432.96045
412.0 0.002427 201.34593 424.24329
406.0 0.002463 201.18219 415.98911
396.0 0.002525 201.01883 408.16522
369.0 0.002710 200.85583 400.74194
368.0 0.002717 200.69318 393.69202
378.0 0.002646 200.53088 386.99045
364.0 0.002747 200.36896 380.61432
385.0 0.002597 200.20738 374.54257
372.0 0.002688 200.04616 368.75574
324.0 0.003086 199.88528 363.23593
341.0 0.002933 199.72479 357.96667
384.0 0.002604 199.56464 352.93268
330.0 0.003030 199.40483 348.11987
322.0 0.003106 199.24538 343.51505
347.0 0.002882 199.08629 339.10623
307.0 0.003257 198.92757 334.88202
325.0 0.003077 198.76917 330.83200
302.0 0.003311 198.61113 326.94647
315.0 0.003175 198.45343 323.21637
319.0 0.003135 198.29611 319.63321
292.0 0.003425 198.13913 316.18906
331.0 0.003021 197.98248 312.87668
327.0 0.003058 197.82619 309.68906
307.0 0.003257 197.67026 306.61984
297.0 0.003367 197.51466 303.66296
303.0 0.003300 197.35941 300.81277
310.0 0.003226 197.20450 298.06396
309.0 0.003236 197.04996 295.41156
294.0 0.003401 196.89572 292.85092
289.0 0.003460 196.74185 290.37759
281.0 0.00356 196.58832 287.98752
294.0 0.003401 196.43515 285.67679
281.0 0.00356 196.28230 283.44168
291.0 0.003436 196.12981 281.27878
284.0 0.00352 195.97763 279.18481
350.0 0.002857 195.82584 277.15668
278.0 0.00360 195.67435 275.19156
289.0 0.003460 195.52319 273.28659
307.0 0.003257 195.37239 271.43924
295.0 0.003390 195.22192 269.64703
298.0 0.003356 195.07181 267.90762
289.0 0.003460 194.92201 266.21881
257.0 0.00389 194.77255 264.57852
267.0 0.00375 194.62343 262.98477
244.0 0.00410 194.47467 267.13849
294.0 0.003401 194.32620 265.66028
260.0 0.00385 194.17809 264.22345
309.0 0.003236 194.03030 262.82632
272.0 0.00368 193.88287 264.31232
273.0 0.00366 193.73573 263.00418
250.0 0.00400 193.58896 261.73154
268.0 0.00373 193.44249 260.49298
254.0 0.00394 193.29639 259.28729
260.0 0.00385 193.15057 258.11331
236.0 0.00424 193.00511 256.96982
211.0 0.00474 192.85997 255.85574
290.0 0.003448 192.71516 254.77007
248.0 0.00403 192.57069 253.71182
248.0 0.00403 192.42653 252.67996
242.0 0.00413 192.28268 251.67360
260.0 0.00385 192.13919 251.79979
256.0 0.00391 191.99602 250.84741
277.0 0.00361 191.85315 249.91809
274.0 0.00365 191.71062 249.01108
239.0 0.00418 191.56841 248.67816
265.0 0.00377 191.42654 247.81636
230.0 0.00435 191.28497 246.97478
234.0 0.00427 191.14372 246.15274
257.0 0.00389 191.00281 245.34975
254.0 0.00394 190.86223 244.56512
257.0 0.00389 190.72194 243.79826
237.0 0.00422 190.58197 243.04877
231.0 0.00433 190.44234 242.31599
238.0 0.00420 190.30302 241.59950
239.0 0.00418 190.16402 240.89877
254.0 0.00394 190.02531 240.21335
243.0 0.00412 189.88695 239.54283
239.0 0.00418 189.74890 238.88678
245.0 0.00408 189.61116 238.24475
217.0 0.00461 189.47374 237.61636
235.0 0.00426 189.33662 237.00125
227.0 0.00441 189.19983 236.39905
249.0 0.00402 189.06335 235.80943
267.0 0.00375 188.92717 235.23196
258.0 0.00388 188.79132 234.66641
217.0 0.00461 188.65578 234.11249
265.0 0.00377 188.52054 233.56979
215.0 0.00465 188.38562 233.03809
232.0 0.00431 188.25099 232.51709
246.0 0.00407 188.11670 232.00653
256.0 0.00391 187.98270 231.50615
232.0 0.00431 187.84901 231.01569
248.0 0.00403 187.71562 230.53488
237.0 0.00422 187.58255 230.06354
221.0 0.00452 187.44980 229.60144
257.0 0.00389 187.31734 229.14832
211.0 0.00474 187.18517 228.70396
246.0 0.00407 187.05331 228.26825
242.0 0.00413 186.92178 227.84093
241.0 0.00415 186.79054 227.42180
269.0 0.00372 186.65959 227.01067
219.0 0.00457 186.52896 226.60739
250.0 0.00400 186.39864 226.21182
225.0 0.00444 186.26860 225.82373
268.0 0.00373 186.13887 225.44299
241.0 0.00415 186.00945 225.06946
245.0 0.00408 185.88031 224.70296
227.0 0.00441 185.75148 224.34337
236.0 0.00424 185.62296 223.99051
203.0 0.00493 185.49472 223.64432
246.0 0.00407 185.36681 223.30464
215.0 0.00465 185.23915 222.97133
234.0 0.00427 185.11182 222.64426
198.0 0.00505 184.98476 222.32330
232.0 0.00431 184.85802 222.00839
238.0 0.00420 184.73157 221.69940
248.0 0.00403 184.60541 221.39618
226.0 0.00442 184.47955 221.09868
230.0 0.00435 184.35397 220.80679
227.0 0.00441 184.22871 220.52040
244.0 0.00410 184.10373 220.23947
215.0 0.00465 183.97903 219.96376
222.0 0.00450 183.85463 219.69334
234.0 0.00427 183.73053 219.42810
248.0 0.00403 183.60670 219.16786
237.0 0.00422 183.48318 218.91269
218.0 0.00459 183.35994 218.66240
210.0 0.00476 183.23700 218.41695
249.0 0.00402 183.11433 218.17628
212.0 0.00472 182.99196 217.94031
217.0 0.00461 182.86989 217.70897
232.0 0.00431 182.74809 217.48224
229.0 0.00437 182.62657 217.25998
225.0 0.00444 182.50536 217.04214
200.0 0.00500 182.38441 216.82872
236.0 0.00424 182.26376 216.61969
220.0 0.00455 182.14339 216.41486
220.0 0.00455 182.02330 216.21429
243.0 0.00412 181.90350 216.01791
228.0 0.00439 181.78397 215.82567
230.0 0.00435 181.66475 215.63753
228.0 0.00439 181.54579 215.45340
231.0 0.00433 181.42711 215.27330
236.0 0.00424 181.30870 215.09712
231.0 0.00433 181.19061 214.92488
227.0 0.00441 181.07277 214.75650
247.0 0.00405 180.95522 214.59198
213.0 0.00469 180.83794 214.43124
219.0 0.00457 180.72095 214.27429
231.0 0.00433 180.60423 214.12108
223.0 0.00448 180.48778 213.97159
237.0 0.00422 180.37163 213.82578
211.0 0.00474 180.25574 213.68364
220.0 0.00455 180.14014 213.54507
238.0 0.00420 180.02478 213.41010
217.0 0.00461 179.90973 213.27878
256.0 0.00391 179.79494 213.15094
229.0 0.00437 179.68044 213.02664
236.0 0.00424 179.56618 212.90588
232.0 0.00431 179.45221 212.78859
258.0 0.00388 179.33852 212.67474
225.0 0.00444 179.22510 212.56439
225.0 0.00444 179.11194 212.45743
220.0 0.00455 178.99905 212.35393
234.0 0.00427 178.88644 212.25380
185.0 0.00541 178.77411 212.15709
233.0 0.00429 178.66205 212.06381
193.0 0.00518 178.55023 211.97382
256.0 0.00391 178.43871 211.88721
213.0 0.00469 178.32744 211.80400
209.0 0.00478 178.21645 211.72409
231.0 0.00433 178.10570 211.64754
236.0 0.00424 177.99524 211.57426
226.0 0.00442 177.88504 211.50439
221.0 0.00452 177.77510 211.43779
224.0 0.00446 177.66544 211.37456
245.0 0.00408 177.55603 211.31461
227.0 0.00441 177.44690 211.25801
230.0 0.00435 177.33801 211.20470
253.0 0.00395 177.22940 211.15469
227.0 0.00441 177.12105 211.80699
207.0 0.00483 177.01295 211.76707
244.0 0.00410 176.90514 211.73058
205.0 0.00488 176.79758 211.69737
218.0 0.00459 176.69026 212.01558
209.0 0.00478 176.58322 211.99086
229.0 0.00437 176.47643 211.96951
222.0 0.00450 176.36990 211.95157
246.0 0.00407 176.26363 211.93707
244.0 0.00410 176.15762 211.92593
246.0 0.00407 176.05188 211.91827
218.0 0.00459 175.94638 211.91408
240.0 0.00417 175.84114 211.91325
209.0 0.00478 175.73616 211.91602
210.0 0.00476 175.63144 211.92220
227.0 0.00441 175.52698 211.93185
238.0 0.00420 175.42276 211.94516
196.0 0.00510 175.31879 211.96187
247.0 0.00405 175.21509 211.98222
240.0 0.00417 175.11165 212.00613
210.0 0.00476 175.00844 212.03365
200.0 0.00500 174.90549 212.06479
222.0 0.00450 174.80281 212.09962
244.0 0.00410 174.70036 212.13808
204.0 0.00490 174.59818 212.18025
234.0 0.00427 174.49623 212.22615
216.0 0.00463 174.39455 212.27582
255.0 0.00392 174.29311 212.32927
222.0 0.00450 174.19193 212.38652
206.0 0.00485 174.09097 212.44760
239.0 0.00418 173.99030 212.51259
246.0 0.00407 173.88985 212.58150
206.0 0.00485 173.78964 212.65433
234.0 0.00427 173.68970 212.73112
204.0 0.00490 173.58998 212.81201
229.0 0.00437 173.49054 212.89687
231.0 0.00433 173.39133 212.98590
228.0 0.00439 173.29236 213.07903
246.0 0.00407 173.19363 213.17632
208.0 0.00481 173.09517 213.27791
252.0 0.00397 172.99693 213.38374
227.0 0.00441 172.89894 213.49387
252.0 0.00397 172.80119 213.60834
214.0 0.00467 172.70370 213.72726
252.0 0.00397 172.60643 213.85066
260.0 0.00385 172.50941 213.97852
219.0 0.00457 172.41264 214.11098
230.0 0.00435 172.31612 214.24805
238.0 0.00420 172.21982 214.38982
230.0 0.00435 172.12375 214.53633
266.0 0.00376 172.02794 214.68761
229.0 0.00437 171.93237 214.84381
216.0 0.00463 171.83704 215.00485
219.0 0.00457 171.74193 215.17093
254.0 0.00394 171.64706 215.34210
224.0 0.00446 171.55244 215.51833
208.0 0.00481 171.45805 215.69981
223.0 0.00448 171.36389 215.88655
249.0 0.00402 171.26999 216.07858
257.0 0.00389 171.17630 216.27606
212.0 0.00472 171.08287 216.47906
229.0 0.00437 170.98964 216.68765
220.0 0.00455 170.89667 216.90187
234.0 0.00427 170.80392 217.12186
228.0 0.00439 170.71143 217.34770
248.0 0.00403 170.61914 217.57939
236.0 0.00424 170.52710 217.81718
243.0 0.00412 170.43529 218.06102
197.0 0.00508 170.34372 218.31110
255.0 0.00392 170.25237 218.56754
250.0 0.00400 170.16125 218.83031
261.0 0.00383 170.07036 219.09964
271.0 0.00369 169.97971 219.37561
237.0 0.00422 169.88928 219.65833
219.0 0.00457 169.79907 219.94788
249.0 0.00402 169.70911 220.24438
213.0 0.00469 169.61937 220.54805
248.0 0.00403 169.52986 220.85886
252.0 0.00397 169.44057 221.17703
229.0 0.00437 169.35152 221.50270
256.0 0.00391 169.26268 221.83595
237.0 0.00422 169.17407 222.17700
252.0 0.00397 169.08569 222.52589
258.0 0.00388 168.99754 222.88283
253.0 0.00395 168.90961 223.24794
257.0 0.00389 168.82190 223.62143
242.0 0.00413 168.73442 224.00337
220.0 0.00455 168.64716 224.39403
279.0 0.00358 168.56012 224.79349
237.0 0.00422 168.47331 225.20193
221.0 0.00452 168.38672 225.61963
262.0 0.00382 168.30035 226.04657
257.0 0.00389 168.21420 226.48312
236.0 0.00424 168.12828 226.92944
241.0 0.00415 168.04259 227.38567
266.0 0.00376 167.95709 227.85204
237.0 0.00422 167.87183 228.32880
254.0 0.00394 167.78679 228.81607
257.0 0.00389 167.70197 229.31415
295.0 0.003390 167.61736 229.82327
262.0 0.00382 167.53296 230.34360
247.0 0.00405 167.44879 230.87552
280.0 0.00357 167.36484 231.41910
259.0 0.00386 167.28110 231.97469
225.0 0.00444 167.19757 233.63670
250.0 0.00400 167.11427 234.22208
263.0 0.00380 167.03119 234.82036
264.0 0.00379 166.94832 235.43175
257.0 0.00389 166.86565 236.05656
245.0 0.00408 166.78320 237.24155
267.0 0.00375 166.70099 237.89668
271.0 0.00369 166.61897 238.56630
267.0 0.00375 166.53717 239.25060
277.0 0.00361 166.45557 239.95001
275.0 0.00364 166.37421 240.66490
253.0 0.00395 166.29303 241.39558
301.0 0.003322 166.21208 242.14247
266.0 0.00376 166.13133 242.90601
261.0 0.00383 166.05081 243.68651
275.0 0.00364 165.97049 244.48450
320.0 0.003125 165.89038 245.30029
287.0 0.003484 165.81047 246.13441
288.0 0.003472 165.73079 246.98734
294.0 0.003401 165.65131 247.85950
281.0 0.00356 165.57204 248.75134
291.0 0.003436 165.49297 249.66353
273.0 0.00366 165.41412 250.59651
270.0 0.00370 165.33546 251.55078
280.0 0.00357 165.25702 252.52695
288.0 0.003472 165.17879 253.52563
293.0 0.003413 165.10075 254.54742
300.0 0.003333 165.02293 255.59288
306.0 0.003268 164.94531 256.66269
327.0 0.003058 164.86790 257.75757
302.0 0.003311 164.79068 258.87817
283.0 0.00353 164.71368 260.02524
312.0 0.003205 164.63689 261.19943
272.0 0.00368 164.56029 262.40170
327.0 0.003058 164.48389 263.63266
299.0 0.003344 164.40770 264.89328
296.0 0.003378 164.33171 266.18433
309.0 0.003236 164.25592 267.50674
310.0 0.003226 164.18034 265.88684
311.0 0.003215 164.10497 267.29062
313.0 0.003195 164.02977 268.72849
340.0 0.002941 163.95479 268.72543
298.0 0.003356 163.88000 270.24255
306.0 0.003268 163.80544 271.79703
321.0 0.003115 163.73105 273.39001
300.0 0.003333 163.65685 275.02264
297.0 0.003367 163.58287 276.69626
337.0 0.002967 163.50908 278.41220
314.0 0.003185 163.43550 280.17175
365.0 0.002740 163.36209 281.97644
369.0 0.002710 163.28891 283.82764
326.0 0.003067 163.21591 285.72696
326.0 0.003067 163.14310 287.67603
339.0 0.002950 163.07050 289.67654
352.0 0.002841 162.99808 291.73022
364.0 0.002747 162.92586 293.83884
312.0 0.003205 162.85385 296.00443
341.0 0.002933 162.78201 298.22888
356.0 0.002809 162.71037 300.51428
352.0 0.002841 162.63895 302.86295
350.0 0.002857 162.56770 305.27695
325.0 0.003077 162.49666 307.75885
358.0 0.002793 162.42578 310.31094
337.0 0.002967 162.35512 312.93597
351.0 0.002849 162.28464 315.63669
390.0 0.002564 162.21436 318.41580
350.0 0.002857 162.14426 321.27649
342.0 0.002924 162.07436 324.22180
377.0 0.002653 162.00465 327.25488
335.0 0.002985 161.93512 330.37939
330.0 0.003030 161.86578 333.59888
349.0 0.002865 161.79665 336.91705
421.0 0.002375 161.72769 340.33820
408.0 0.002451 161.65892 343.86615
376.0 0.002660 161.59035 347.50555
385.0 0.002597 161.52196 351.26102
428.0 0.002336 161.45375 355.13742
427.0 0.002342 161.38574 359.13989
407.0 0.002457 161.31792 363.27399
443.0 0.002257 161.25026 367.54529
414.0 0.002415 161.18282 371.95996
398.0 0.002513 161.11554 376.52435
396.0 0.002525 161.04846 381.24515
383.0 0.002611 160.98155 386.12967
427.0 0.002342 160.91484 391.18530
438.0 0.002283 160.84831 396.42007
410.0 0.002439 160.78197 401.84247
495.0 0.002020 160.71581 407.46136
409.0 0.002445 160.64981 413.28647
457.0 0.002188 160.58401 419.32767
487.0 0.002053 160.51840 425.59573
464.0 0.002155 160.45297 432.10223
493.0 0.002028 160.38771 438.85904
479.0 0.002088 160.32265 445.87915
452.0 0.002212 160.25777 453.17636
493.0 0.002028 160.19305 460.76523
468.0 0.002137 160.12852 468.66138
502.0 0.001992 160.06418 476.88159
504.0 0.001984 160.00002 485.44366
538.0 0.001859 159.93602 494.36661
521.0 0.001919 159.87221 503.67096
512.0 0.001953 159.80858 513.37860
514.0 0.001946 159.74513 523.51288
552.0 0.001812 159.68185 534.09918
587.0 0.001704 159.61876 545.16461
526.0 0.001901 159.55583 556.73816
591.0 0.001692 159.49309 568.85144
561.0 0.001783 159.43053 581.53809
579.0 0.001727 159.36813 594.83508
572.0 0.001748 159.30592 608.78149
605.0 0.001653 159.24390 623.42053
608.0 0.001645 159.18202 638.79822
679.0 0.001473 159.12035 654.96478
646.0 0.001548 159.05882 671.97516
655.0 0.001527 158.99750 689.88831
662.0 0.001511 158.93633 708.76923
709.0 0.001410 158.87532 728.68848
700.0 0.001429 158.81451 749.72290
679.0 0.001473 158.75388 771.95697
757.0 0.001321 158.69339 795.48309
755.0 0.001325 158.63309 820.40265
787.0 0.001271 158.57297 846.82697
789.0 0.001267 158.51300 874.87915
803.0 0.001245 158.45322 904.69440
798.0 0.001253 158.39360 936.42273
902.0 0.001109 158.33417 970.22961
906.0 0.001104 158.27489 1006.29938
910.0 0.001099 158.21579 1044.83691
962.0 0.001040 158.15685 1086.07056
962.0 0.001040 158.09808 1130.25610
1000.0 0.001000 158.03947 1177.68018
1066.0 0.000938 157.98106 1228.66663
1142.0 0.000876 157.92279 1283.58167
1107.0 0.000903 157.86470 1342.84424
1229.0 0.000814 157.80679 1406.93518
1262.0 0.000792 157.74902 1476.41455
1348.0 0.000742 157.69144 1551.94177
1430.0 0.000699 157.63402 1634.30603
1441.0 0.000694 157.57677 1724.46631
1605.0 0.000623 157.51967 1823.60767
1769.0 0.000565 157.46274 1933.21777
1794.0 0.000557 157.40598 2055.18921
1920.0 0.000521 157.34940 2191.94946
2170.0 0.000461 157.29297 2346.62939
2403.0 0.000416 157.23669 2523.26050
2494.0 0.000401 157.18059 2727.01245
2810.0 0.000356 157.12465 2964.44360
3070.0 0.0003257 157.06888 3243.76147
3522.0 0.0002839 157.01328 3575.05762
3932.0 0.0002543 156.95781 3970.47852
4517.0 0.0002214 156.90253 4444.28760
5086.0 0.0001966 156.84741 5012.77393
5809.0 0.0001721 156.79245 5693.93604
6652.0 0.0001503 156.73766 6506.93018
7760.0 0.0001289 156.68300 7471.22021
8727.0 0.0001146 156.62852 8605.45215
10038.0 0.0000996 156.57420 9926.00098
11681.0 0.0000856 156.52007 11445.22266
13565.0 0.0000737 156.46605 13169.35254
15156.0 0.0000660 156.41222 15095.91113
17354.0 0.0000576 156.35854 17210.44336
19742.0 0.0000507 156.30502 19482.40234
22019.0 0.0000454 156.25166 21860.15039
24279.0 0.0000412 156.19846 24265.94531
26360.0 0.0000379 156.14542 26593.07422
28483.0 0.0000351 156.09253 28709.04883
30214.0 0.0000331 156.03979 30468.87109
31913.0 0.0000313 155.98721 31738.73047
32953.0 0.0000303 155.93481 32423.33398
33365.0 0.0000300 155.88255 32485.26758
32848.0 0.0000304 155.83044 31948.66211
32526.0 0.0000307 155.77850 30889.19336
31214.0 0.0000320 155.72670 29418.05469
29394.0 0.0000340 155.67508 27664.89844
27371.0 0.0000365 155.62360 25761.14063
25111.0 0.0000398 155.57227 23825.21680
22637.0 0.0000442 155.52110 21952.29688
20449.0 0.0000489 155.47008 20209.60742
18728.0 0.0000534 155.41922 18636.39258
17226.0 0.0000581 155.36850 17246.48242
15557.0 0.0000643 155.31795 16031.97559
14406.0 0.0000694 155.26755 14968.09473
13802.0 0.0000725 155.21729 14019.29785
13141.0 0.0000761 155.16719 13146.86621
12494.0 0.0000800 155.11723 12316.44336
11886.0 0.0000841 155.06744 11503.22754
11114.0 0.0000900 155.01781 10693.75000
10584.0 0.0000945 154.96831 9884.71387
9661.0 0.0001035 154.91896 9080.66016
8819.0 0.0001134 154.86978 8291.25879
7858.0 0.0001273 154.82074 7528.45459
6966.0 0.0001436 154.77185 6803.83447
5972.0 0.0001674 154.72310 6126.74268
5350.0 0.0001869 154.67451 5503.45752
4750.0 0.0002105 154.62607 4937.21338
4018.0 0.0002489 154.57777 4428.66699
3482.0 0.0002872 154.52962 3976.49365
3032.0 0.0003298 154.48163 3577.92358
2760.0 0.000362 154.43378 3229.19214
2500.0 0.000400 154.38608 2925.90137
2222.0 0.000450 154.33852 2663.31860
2028.0 0.000493 154.29111 2436.62427
1873.0 0.000534 154.24385 2241.11279
1643.0 0.000609 154.19673 2072.35083
1629.0 0.000614 154.14977 1926.28467
1516.0 0.000660 154.10294 1799.30835
1451.0 0.000689 154.05626 1688.29138
1344.0 0.000744 154.00972 1590.57190
1285.0 0.000778 153.96333 1503.92798
1186.0 0.000843 153.91710 1426.53357
1177.0 0.000850 153.87100 1356.90515
1084.0 0.000923 153.82504 1293.84680
1047.0 0.000955 153.77924 1236.39856
1039.0 0.000962 153.73357 1183.79053
994.0 0.001006 153.68805 1135.40076
931.0 0.001074 153.64265 1090.72412
897.0 0.001115 153.59741 1049.34570
895.0 0.001117 153.55232 1010.92017
884.0 0.001131 153.50737 975.15588
814.0 0.001229 153.46255 941.80347
794.0 0.001259 153.41789 910.64734
768.0 0.001302 153.37337 881.49878
791.0 0.001264 153.32896 854.19171
787.0 0.001271 153.28473 828.57843
737.0 0.001357 153.24062 804.52667
703.0 0.001422 153.19664 781.91821
752.0 0.001330 153.15282 760.64661
719.0 0.001391 153.10913 740.61554
681.0 0.001468 153.06558 721.73785
697.0 0.001435 153.02217 703.93481
624.0 0.001603 152.97890 687.13464
652.0 0.001534 152.93578 671.27216
623.0 0.001605 152.89278 656.28821
604.0 0.001656 152.84991 642.12848
608.0 0.001645 152.80721 628.74396
637.0 0.001570 152.76462 616.08948
610.0 0.001639 152.72218 604.12415
553.0 0.001808 152.67987 592.81049
555.0 0.001802 152.63770 582.11414
617.0 0.001621 152.59567 572.00415
582.0 0.001718 152.55377 562.45227
539.0 0.001855 152.51201 553.43243
553.0 0.001808 152.47038 544.92169
518.0 0.001931 152.42889 536.89838
528.0 0.001894 152.38753 529.34393
534.0 0.001873 152.34631 522.24091
512.0 0.001953 152.30522 515.57446
520.0 0.001923 152.26427 509.33115
496.0 0.002016 152.22345 503.49921
530.0 0.001887 152.18277 498.06891
526.0 0.001901 152.14221 493.03201
517.0 0.001934 152.10179 489.21960
529.0 0.001890 152.06151 484.95499
519.0 0.001927 152.02135 481.06891
503.0 0.001988 151.98132 477.55957
475.0 0.002105 151.94144 474.42731
459.0 0.002179 151.90169 472.09091
501.0 0.001996 151.86206 469.72195
467.0 0.002141 151.82256 467.74155
471.0 0.002123 151.78320 466.15747
474.0 0.002110 151.74397 464.97995
488.0 0.002049 151.70486 464.22171
450.0 0.002222 151.66589 463.89825
477.0 0.002096 151.62704 464.02805
431.0 0.002320 151.58833 464.63312
479.0 0.002088 151.54974 465.73938
470.0 0.002128 151.51129 467.37680
477.0 0.002096 151.47296 469.58096
467.0 0.002141 151.43477 472.39343
482.0 0.002075 151.39670 475.86301
487.0 0.002053 151.35876 480.04773
484.0 0.002066 151.32095 485.01758
458.0 0.002183 151.28326 490.85733
468.0 0.002137 151.24570 497.67181
465.0 0.002151 151.20827 505.59241
509.0 0.001965 151.17096 514.78595
468.0 0.002137 151.13380 525.46741
501.0 0.001996 151.09674 537.91504
497.0 0.002012 151.05981 552.49121
512.0 0.001953 151.02303 569.66528
515.0 0.001942 150.98634 590.04456
517.0 0.001934 150.94980 614.40277
566.0 0.001767 150.91338 643.71429
562.0 0.001779 150.87708 679.18329
620.0 0.001613 150.84090 722.26593
637.0 0.001570 150.80486 774.68158
658.0 0.001520 150.76892 838.40210
738.0 0.001355 150.73312 915.61896
830.0 0.001205 150.69745 1008.67645
906.0 0.001104 150.66190 1119.97241
1006.0 0.000994 150.62646 1251.81970
1192.0 0.000839 150.59116 1406.27405
1313.0 0.000762 150.55597 1584.92053
1534.0 0.000652 150.52090 1788.62561
1847.0 0.000541 150.48596 2017.23792
2172.0 0.000460 150.45114 2269.22437
2487.0 0.000402 150.41644 2541.21777
2915.0 0.0003431 150.38187 2827.46899
3353.0 0.0002982 150.34741 3119.26563
3743.0 0.0002672 150.31306 3404.51660
4106.0 0.0002435 150.27885 3667.89624
4545.0 0.0002200 150.24477 3892.02930
4852.0 0.0002061 150.21078 4059.92847
5073.0 0.0001971 150.17693 4158.15234
5389.0 0.0001856 150.14320 4179.41357
5285.0 0.0001892 150.10957 4123.48193
5342.0 0.0001872 150.07610 3996.35474
4867.0 0.0002055 150.04271 3808.62622
4562.0 0.0002192 150.00945 3573.83423
4013.0 0.0002492 149.97632 3306.93188
3549.0 0.0002818 149.94328 3022.72559
2799.0 0.000357 149.91039 2734.47192
2297.0 0.000435 149.87759 2452.94287
2030.0 0.000493 149.84492 2186.10767
1633.0 0.000612 149.81238 1939.29321
1316.0 0.000760 149.77995 1715.59460
1116.0 0.000896 149.74763 1516.33960
904.0 0.001106 149.71542 1341.52112
780.0 0.001282 149.68335 1190.16028
707.0 0.001414 149.65138 1060.60999
645.0 0.001550 149.61952 950.92542
655.0 0.001527 149.58778 858.58557
627.0 0.001595 149.55617 781.37933
523.0 0.001912 149.52466 717.04865
529.0 0.001890 149.49327 663.49780
535.0 0.001869 149.46199 618.90845
470.0 0.002128 149.43083 581.52740
480.0 0.002083 149.39978 550.03046
478.0 0.002092 149.36885 523.27271
421.0 0.002375 149.33803 500.32431
450.0 0.002222 149.30731 480.44376
435.0 0.002299 149.27672 463.04675
420.0 0.002381 149.24623 447.67764
440.0 0.002273 149.21587 433.98312
401.0 0.002494 149.18562 421.68896
410.0 0.002439 149.15547 410.58209
377.0 0.002653 149.12544 400.49524
378.0 0.002646 149.09552 391.29578
358.0 0.002793 149.06572 382.87686
355.0 0.002817 149.03603 375.15070
416.0 0.002404 149.00642 368.04480
339.0 0.002950 148.97696 361.49747
337.0 0.002967 148.94760 355.45618
352.0 0.002841 148.91833 349.87543
359.0 0.002786 148.88921 344.71558
340.0 0.002941 148.86017 339.94156
359.0 0.002786 148.83124 335.52280
313.0 0.003195 148.80243 331.43192
331.0 0.003021 148.77373 327.64456
320.0 0.003125 148.74515 324.13925
277.0 0.00361 148.71666 320.89664
355.0 0.002817 148.68828 317.89938
310.0 0.003226 148.66000 315.13214
342.0 0.002924 148.63185 312.58124
350.0 0.002857 148.60379 310.23431
352.0 0.002841 148.57585 308.08041
336.0 0.002976 148.54802 306.10953
351.0 0.002849 148.52029 304.31317
308.0 0.003247 148.49268 302.68362
321.0 0.003115 148.46516 301.21387
341.0 0.002933 148.43774 299.89801
332.0 0.003012 148.41045 298.73068
324.0 0.003086 148.38326 297.70737
322.0 0.003106 148.35617 296.82431
328.0 0.003049 148.32918 296.07813
303.0 0.003300 148.30231 295.46613
302.0 0.003311 148.27554 294.98618
331.0 0.003021 148.24887 294.63681
329.0 0.003040 148.22232 294.41675
293.0 0.003413 148.19586 294.32562
284.0 0.00352 148.16951 294.36325
292.0 0.003425 148.14326 294.53021
332.0 0.003012 148.11711 294.82727
308.0 0.003247 148.09108 295.25586
336.0 0.002976 148.06516 295.81802
327.0 0.003058 148.03932 296.51611
318.0 0.003145 148.01360 297.35318
331.0 0.003021 147.98796 298.33255
318.0 0.003145 147.96245 299.45856
334.0 0.002994 147.93703 300.73575
318.0 0.003145 147.91170 302.16965
317.0 0.003155 147.88649 303.76617
306.0 0.003268 147.86139 305.53214
322.0 0.003106 147.83636 307.47507
353.0 0.002833 147.81146 309.60339
326.0 0.003067 147.78667 311.92657
345.0 0.002899 147.76195 314.45474
338.0 0.002959 147.73735 317.19949
330.0 0.003030 147.71284 320.17337
326.0 0.003067 147.68845 323.39044
321.0 0.003115 147.66414 326.86603
330.0 0.003030 147.63994 330.61722
350.0 0.002857 147.61583 334.66287
356.0 0.002809 147.59183 339.02368
347.0 0.002882 147.56793 343.72275
332.0 0.003012 147.54413 348.78546
348.0 0.002874 147.52042 354.24023
398.0 0.002513 147.49681 360.11847
343.0 0.002915 147.47331 366.45508
397.0 0.002519 147.44991 373.28909
356.0 0.002809 147.42659 380.66418
366.0 0.002732 147.40338 388.62943
397.0 0.002519 147.38026 397.24030
455.0 0.002198 147.35725 406.55966
433.0 0.002309 147.33434 416.65961
437.0 0.002288 147.31151 427.62338
471.0 0.002123 147.28879 439.54855
458.0 0.002183 147.26616 452.55063
482.0 0.002075 147.24364 466.76843
454.0 0.002203 147.22121 482.37128
463.0 0.002160 147.19887 499.56827
504.0 0.001984 147.17664 518.62140
540.0 0.001852 147.15448 539.86066
582.0 0.001718 147.13243 563.70428
605.0 0.001653 147.11047 590.68372
602.0 0.001661 147.08862 621.47095
631.0 0.001585 147.06686 656.91083
732.0 0.001366 147.04520 698.05542
669.0 0.001495 147.02362 746.19684
805.0 0.001242 147.00215 802.89648
852.0 0.001174 146.98076 870.00818
954.0 0.001048 146.95947 949.68292
1016.0 0.000984 146.93828 1044.35950
1150.0 0.000870 146.91718 1156.72632
1239.0 0.000807 146.89618 1289.65356
1317.0 0.000759 146.87526 1446.09424
1515.0 0.000660 146.85443 1628.94373
1776.0 0.000563 146.83371 1840.87000
2011.0 0.000497 146.81308 2084.09985
2344.0 0.000427 146.79253 2360.16870
2589.0 0.000386 146.77208 2669.62134
2823.0 0.000354 146.75172 3011.64917
3176.0 0.0003149 146.73146 3383.63770
3749.0 0.0002667 146.71129 3780.60693
4245.0 0.0002356 146.69121 4194.55371
4649.0 0.0002151 146.67122 4613.79883
5138.0 0.0001946 146.65132 5022.57764
5496.0 0.0001820 146.63152 5401.32031
5923.0 0.0001688 146.61180 5728.08105
6173.0 0.0001620 146.59218 5981.31396
6307.0 0.0001586 146.57263 6143.40479
6554.0 0.0001526 146.55319 6203.73145
6565.0 0.0001523 146.53384 6159.99609
6590.0 0.0001517 146.51457 6017.58789
6333.0 0.0001579 146.49541 5787.84570
5776.0 0.0001731 146.47632 5486.20703
5321.0 0.0001879 146.45732 5130.57080
4854.0 0.0002060 146.43842 4739.69678
4347.0 0.0002300 146.41960 4331.56543
3889.0 0.0002571 146.40088 3921.95825
3336.0 0.0002998 146.38223 3523.58862
2906.0 0.0003441 146.36369 3145.86230
2559.0 0.000391 146.34523 2795.11548
2220.0 0.000450 146.32686 2475.08789
1847.0 0.000541 146.30856 2187.45142
1741.0 0.000574 146.29037 1932.29785
1444.0 0.000693 146.27226 1708.55518
1282.0 0.000780 146.25424 1514.50830
1171.0 0.000854 146.23630 1347.36389
1116.0 0.000896 146.21846 1204.55994
977.0 0.001024 146.20070 1083.23401
857.0 0.001167 146.18301 980.55310
861.0 0.001161 146.16544 893.82117
770.0 0.001299 146.14793 820.64752
680.0 0.001471 146.13052 758.63434
655.0 0.001527 146.11319 705.93304
629.0 0.001590 146.09595 660.88934
586.0 0.001706 146.07880 622.11658
548.0 0.001825 146.06172 588.47150
515.0 0.001942 146.04472 559.02570
531.0 0.001883 146.02783 533.03247
478.0 0.002092 146.01102 509.89703
475.0 0.002105 145.99428 489.14777
433.0 0.002309 145.97763 470.41107
417.0 0.002398 145.96107 453.39038
430.0 0.002326 145.94460 437.84918
385.0 0.002597 145.92821 423.59695
379.0 0.002639 145.91190 410.47842
349.0 0.002865 145.89568 398.36530
372.0 0.002688 145.87953 387.15033
363.0 0.002755 145.86346 376.74243
350.0 0.002857 145.84749 367.06366
336.0 0.002976 145.83160 358.04578
352.0 0.002841 145.81580 349.62943
344.0 0.002907 145.80006 341.76199
352.0 0.002841 145.78442 334.39688
326.0 0.003067 145.76886 327.49219
310.0 0.003226 145.75337 321.01068
272.0 0.00368 145.73798 314.91864
312.0 0.003205 145.72267 309.18570
290.0 0.003448 145.70743 303.78452
266.0 0.00376 145.69228 298.69003
249.0 0.00402 145.67722 293.87985
307.0 0.003257 145.66222 289.33331
279.0 0.00358 145.64731 285.03183
254.0 0.00394 145.63248 280.95819
220.0 0.00455 145.61774 277.09683
258.0 0.00388 145.60306 273.43344
247.0 0.00405 145.58849 269.95502
277.0 0.00361 145.57397 266.64941
276.0 0.00362 145.55954 263.50562
251.0 0.00398 145.54520 260.51358
266.0 0.00376 145.53093 257.66367
230.0 0.00435 145.51674 254.94743
246.0 0.00407 145.50264 252.35680
246.0 0.00407 145.48860 249.88445
249.0 0.00402 145.47466 247.52347
242.0 0.00413 145.46078 245.26752
240.0 0.00417 145.44701 243.11079
233.0 0.00429 145.43329 241.04773
240.0 0.00417 145.41965 239.07333
230.0 0.00435 145.40610 237.18274
236.0 0.00424 145.39261 235.37178
205.0 0.00488 145.37921 233.63611
218.0 0.00459 145.36589 231.97200
239.0 0.00418 145.35265 230.37598
229.0 0.00437 145.33948 228.84453
247.0 0.00405 145.32639 227.37460
215.0 0.00465 145.31337 225.96336
217.0 0.00461 145.30043 224.60802
213.0 0.00469 145.28757 223.30588
223.0 0.00448 145.27480 222.05473
224.0 0.00446 145.26208 220.85228
196.0 0.00510 145.24945 219.69626
189.0 0.00529 145.23691 218.58490
212.0 0.00472 145.22443 217.51616
202.0 0.00495 145.21202 216.48843
201.0 0.00498 145.19969 215.49997
197.0 0.00508 145.18744 214.54927
198.0 0.00505 145.17526 213.63487
219.0 0.00457 145.16316 212.75539
221.0 0.00452 145.15114 211.90950
219.0 0.00457 145.13919 211.09608
207.0 0.00483 145.12732 210.31390
195.0 0.00513 145.11551 209.56200
205.0 0.00488 145.10378 208.83922
237.0 0.00422 145.09213 208.14471
198.0 0.00505 145.08055 207.47754
197.0 0.00508 145.06905 206.83690
224.0 0.00446 145.05762 206.22200
204.0 0.00490 145.04625 205.63214
221.0 0.00452 145.03497 205.06653
208.0 0.00481 145.02376 204.52457
220.0 0.00455 145.01262 204.00569
222.0 0.00450 145.00156 203.50928
190.0 0.00526 144.99057 203.03490
194.0 0.00515 144.97964 202.58194
190.0 0.00526 144.96880 202.15001
187.0 0.00535 144.95802 201.73872
190.0 0.00526 144.94733 201.34767
185.0 0.00541 144.93669 200.97649
225.0 0.00444 144.92613 200.62494
219.0 0.00457 144.91565 200.29271
188.0 0.00532 144.90523 199.97945
227.0 0.00441 144.89490 199.68506
208.0 0.00481 144.88463 199.40927
206.0 0.00485 144.87442 199.15201
197.0 0.00508 144.86429 198.91312
203.0 0.00493 144.85423 198.69254
193.0 0.00518 144.84424 198.49016
184.0 0.00543 144.83432 198.30594
200.0 0.00500 144.82448 198.14001
178.0 0.00562 144.81470 197.99225
193.0 0.00518 144.80499 198.33923
210.0 0.00476 144.79536 198.23045
201.0 0.00498 144.78580 198.14024
194.0 0.00515 144.77631 198.06882
223.0 0.00448 144.76688 198.01646
209.0 0.00478 144.75752 197.98338
187.0 0.00535 144.74823 198.20724
192.0 0.00521 144.73901 198.21492
193.0 0.00518 144.72986 198.24316
186.0 0.00538 144.72078 198.29240
209.0 0.00478 144.71176 198.36322
204.0 0.00490 144.70282 192.74040
198.0 0.00505 144.69394 192.88429
200.0 0.00500 144.68513 193.05174
221.0 0.00452 144.67639 193.24362
198.0 0.00505 144.66772 190.62059
173.0 0.00578 144.65913 190.87852
200.0 0.00500 144.65059 191.16428
221.0 0.00452 144.64212 191.47934
204.0 0.00490 144.63373 191.82550
198.0 0.00505 144.62538 192.20459
217.0 0.00461 144.61713 192.61891
201.0 0.00498 144.60892 193.07106
191.0 0.00524 144.60078 193.56415
185.0 0.00541 144.59273 194.10211
199.0 0.00503 144.58473 194.68956
186.0 0.00538 144.57680 195.33217
189.0 0.00529 144.56892 194.92815
181.0 0.00552 144.56113 195.70998
191.0 0.00524 144.55339 196.57434
183.0 0.00546 144.54573 197.53552
199.0 0.00503 144.53813 198.05981
186.0 0.00538 144.53059 199.27408
201.0 0.00498 144.52312 200.65103
242.0 0.00413 144.51572 202.22258
195.0 0.00513 144.50838 204.02649
184.0 0.00543 144.50110 206.10660
203.0 0.00493 144.49388 208.51244
227.0 0.00441 144.48674 211.29904
220.0 0.00455 144.47966 214.52522
230.0 0.00435 144.47264 218.25218
207.0 0.00483 144.46568 222.54066
216.0 0.00463 144.45880 227.44824
246.0 0.00407 144.45198 233.02481
230.0 0.00435 144.44522 239.30869
239.0 0.00418 144.43852 246.32072
267.0 0.00375 144.43188 254.05832
271.0 0.00369 144.42532 262.48734
284.0 0.00352 144.41882 271.53296
235.0 0.00426 144.41237 281.06815
260.0 0.00385 144.40599 290.90106
294.0 0.003401 144.39967 300.76468
308.0 0.003247 144.39343 310.31354
286.0 0.003497 144.38724 319.13647
324.0 0.003086 144.38112 326.79425
329.0 0.003040 144.37505 332.87845
329.0 0.003040 144.36905 337.07785
374.0 0.002674 144.36310 339.22775
342.0 0.002924 144.35722 339.32089
374.0 0.002674 144.35141 337.48547
320.0 0.003125 144.34566 333.94794
319.0 0.003135 144.33997 329.00211
363.0 0.002755 144.33434 322.98611
313.0 0.003195 144.32877 316.26080
295.0 0.003390 144.32326 309.18307
283.0 0.00353 144.31781 302.07919
297.0 0.003367 144.31242 295.22369
258.0 0.00388 144.30710 288.83044
276.0 0.00362 144.30183 283.05261
241.0 0.00415 144.29663 277.99066
268.0 0.00373 144.29149 273.70023
246.0 0.00407 144.28641 270.20325
238.0 0.00420 144.28139 267.49545
282.0 0.00355 144.27641 265.55389
258.0 0.00388 144.27151 264.34326
263.0 0.00380 144.26668 263.82031
236.0 0.00424 144.26190 263.93848
265.0 0.00377 144.25717 264.65103
256.0 0.00391 144.25250 265.91391
282.0 0.00355 144.24791 267.68735
268.0 0.00373 144.24336 269.93777
257.0 0.00389 144.23888 272.63831
269.0 0.00372 144.23445 275.76913
273.0 0.00366 144.23009 281.05112
293.0 0.003413 144.22577 285.02124
263.0 0.00380 144.22153 289.40683
304.0 0.003289 144.21733 294.21683
301.0 0.003322 144.21320 299.46695
305.0 0.003279 144.20912 305.17947
303.0 0.003300 144.20511 311.38351
330.0 0.003030 144.20116 318.98108
356.0 0.002809 144.19725 326.28879
306.0 0.003268 144.19342 334.22171
339.0 0.002950 144.18964 342.84402
352.0 0.002841 144.18590 352.23398
349.0 0.002865 144.18224 362.48663
376.0 0.002660 144.17862 373.71936
396.0 0.002525 144.17506 386.07837
437.0 0.002288 144.17157 399.74667
401.0 0.002494 144.16812 414.95544
445.0 0.002247 144.16475 431.99625
505.0 0.001980 144.16142 451.23712
479.0 0.002088 144.15814 473.14035
507.0 0.001972 144.15494 498.28162
558.0 0.001792 144.15178 527.37146
608.0 0.001645 144.14867 561.27380
656.0 0.001524 144.14563 601.02411
665.0 0.001504 144.14264 647.83990
707.0 0.001414 144.13971 703.12494
765.0 0.001307 144.13683 768.46057
842.0 0.001188 144.13400 845.58167
979.0 0.001021 144.13124 936.33820
1061.0 0.000943 144.12854 1042.63171
1182.0 0.000846 144.12589 1166.33862
1328.0 0.000753 144.12328 1309.20435
1434.0 0.000697 144.12073 1472.72363
1622.0 0.000617 144.11824 1657.99719
1829.0 0.000547 144.11580 1865.56140
2019.0 0.000495 144.11342 2095.19214
2348.0 0.000426 144.11110 2345.66333
2584.0 0.000387 144.10883 2614.45313
2832.0 0.000353 144.10661 2897.39600
3231.0 0.0003095 144.10445 3188.30249
3591.0 0.0002785 144.10234 3478.64575
3856.0 0.0002593 144.10028 3757.48340
4152.0 0.0002408 144.09828 4011.89209
4352.0 0.0002298 144.09633 4228.09961
4620.0 0.0002165 144.09444 4393.30273
4695.0 0.0002130 144.09261 4497.70410
4694.0 0.0002130 144.09082 4535.98389
4808.0 0.0002080 144.08908 4507.67285
4594.0 0.0002177 144.08740 4416.42432
4410.0 0.0002268 144.08578 4268.88135
4303.0 0.0002324 144.08421 4073.70874
4012.0 0.0002493 144.08269 3840.95947
3750.0 0.0002667 144.08122 3581.52100
3362.0 0.0002974 144.07980 3306.40088
2976.0 0.0003360 144.07845 3025.90210
2685.0 0.000372 144.07713 2748.92822
2417.0 0.000414 144.07587 2482.58398
2120.0 0.000472 144.07466 2232.10522
1947.0 0.000514 144.07352 2001.02148
1666.0 0.000600 144.07242 1791.42114
1498.0 0.000668 144.07137 1604.24939
1330.0 0.000752 144.07036 1439.57751
1236.0 0.000809 144.06941 1296.83350
1093.0 0.000915 144.06853 1174.29541
1043.0 0.000959 144.06769 1072.04944
920.0 0.001087 144.06689 987.90881
888.0 0.001126 144.06615 921.06165
820.0 0.001220 144.06546 868.12762
802.0 0.001247 144.06482 829.04260
784.0 0.001276 144.06424 802.03192
805.0 0.001242 144.06371 785.75275
729.0 0.001372 144.06322 778.93127
740.0 0.001351 144.06277 780.33258
798.0 0.001253 144.06239 789.08539
827.0 0.001209 144.06206 803.14459
787.0 0.001271 144.06178 821.43848
907.0 0.001103 144.06154 842.32751
851.0 0.001175 144.06136 863.93982
891.0 0.001122 144.06122 884.19690
862.0 0.001160 144.06114 900.94537
979.0 0.001021 144.06111 912.18573
1026.0 0.000975 144.06113 916.35107
987.0 0.001013 144.06119 912.51740
998.0 0.001002 144.06131 900.45844
939.0 0.001065 144.06148 880.54010
946.0 0.001057 144.06168 853.54889
942.0 0.001062 144.06195 820.54919
829.0 0.001206 144.06226 782.80328
812.0 0.001232 144.06262 741.70770
719.0 0.001391 144.06302 698.70697
638.0 0.001567 144.06349 655.17944
572.0 0.001748 144.06400 612.33167
545.0 0.001835 144.06454 571.13135
526.0 0.001901 144.06514 532.28882
455.0 0.002198 144.06580 496.27411
421.0 0.002375 144.06650 463.35123
411.0 0.002433 144.06725 433.61871
376.0 0.002660 144.06804 407.04736
354.0 0.002825 144.06888 383.51358
363.0 0.002755 144.06978 362.82657
335.0 0.002985 144.07071 344.75204
278.0 0.00360 144.07170 329.03171
268.0 0.00373 144.07274 315.39828
313.0 0.003195 144.07382 303.58878
297.0 0.003367 144.07495 293.35312
260.0 0.00385 144.07613 284.46085
264.0 0.00379 144.07735 276.70502
276.0 0.00362 144.07861 269.90405
274.0 0.00365 144.07993 263.90167
259.0 0.00386 144.08130 258.56589
235.0 0.00426 144.08270 253.78668
238.0 0.00420 144.08417 249.47375
217.0 0.00461 144.08566 245.55357
244.0 0.00410 144.08722 241.96683
237.0 0.00422 144.08881 238.66573
225.0 0.00444 144.09045 235.61195
237.0 0.00422 144.09213 232.77455
227.0 0.00441 144.09387 230.12851
227.0 0.00441 144.09566 227.65323
206.0 0.00485 144.09747 225.33173
221.0 0.00452 144.09935 223.14983
216.0 0.00463 144.10127 221.09532
202.0 0.00495 144.10323 219.15781
208.0 0.00481 144.10524 217.32819
188.0 0.00532 144.10730 215.59843
197.0 0.00508 144.10939 213.96140
215.0 0.00465 144.11153 212.41069
205.0 0.00488 144.11372 210.94058
182.0 0.00549 144.11595 209.54573
205.0 0.00488 144.11824 208.22150
229.0 0.00437 144.12056 206.96355
222.0 0.00450 144.12292 205.76782
202.0 0.00495 144.12534 204.63077
187.0 0.00535 144.12779 203.54900
221.0 0.00452 144.13029 202.51947
204.0 0.00490 144.13284 201.53934
205.0 0.00488 144.13542 200.60603
175.0 0.00571 144.13806 199.71709
199.0 0.00503 144.14073 198.87027
188.0 0.00532 144.14346 198.06357
195.0 0.00513 144.14622 197.29501
179.0 0.00559 144.14903 196.56291
201.0 0.00498 144.15189 195.86552
196.0 0.00510 144.15479 195.20134
210.0 0.00476 144.15773 194.56908
182.0 0.00549 144.16071 193.96721
192.0 0.00521 144.16373 193.39465
182.0 0.00549 144.16679 192.85020
176.0 0.00568 144.16991 192.33287
178.0 0.00562 144.17307 191.84171
190.0 0.00526 144.17627 191.37560
185.0 0.00541 144.17950 190.93381
190.0 0.00526 144.18279 190.51570
185.0 0.00541 144.18611 190.12035
184.0 0.00543 144.18948 189.74715
177.0 0.00565 144.19289 189.39543
183.0 0.00546 144.19635 189.06477
185.0 0.00541 144.19984 188.75446
197.0 0.00508 144.20337 188.46411
172.0 0.00581 144.20695 188.19324
187.0 0.00535 144.21057 187.94151
180.0 0.00556 144.21423 187.70847
182.0 0.00549 144.21794 187.49393
198.0 0.00505 144.22168 187.29752
201.0 0.00498 144.22548 187.11903
205.0 0.00488 144.22931 186.95813
184.0 0.00543 144.23317 186.81479
188.0 0.00532 144.23709 186.68871
175.0 0.00571 144.24104 186.57999
175.0 0.00571 144.24503 186.48842
212.0 0.00472 144.24907 186.41399
162.0 0.00617 144.25314 186.35666
162.0 0.00617 144.25726 186.31648
172.0 0.00581 144.26143 186.29349
186.0 0.00538 144.26563 186.28784
156.0 0.00641 144.26985 186.29962
164.0 0.00610 144.27414 186.32901
182.0 0.00549 144.27846 186.37627
184.0 0.00543 144.28282 186.44159
202.0 0.00495 144.28722 186.52528
182.0 0.00549 144.29166 186.62762
184.0 0.00543 144.29614 186.74921
184.0 0.00543 144.30066 186.89030
186.0 0.00538 144.30522 187.05135
193.0 0.00518 144.30983 187.23302
188.0 0.00532 144.31447 187.43593
191.0 0.00524 144.31915 187.66071
181.0 0.00552 144.32387 187.90799
210.0 0.00476 144.32863 188.17876
178.0 0.00562 144.33342 188.47383
185.0 0.00541 144.33826 188.79417
194.0 0.00515 144.34314 189.14087
165.0 0.00606 144.34805 189.51515
188.0 0.00532 144.35301 189.91814
205.0 0.00488 144.35800 190.35143
200.0 0.00500 144.36304 190.81645
208.0 0.00481 144.36812 191.31488
202.0 0.00495 144.37323 191.84860
217.0 0.00461 144.37837 192.41965
175.0 0.00571 144.38356 193.03015
187.0 0.00535 144.38879 193.68251
189.0 0.00529 144.39406 194.37953
181.0 0.00552 144.39935 195.12396
186.0 0.00538 144.40469 195.92015
200.0 0.00500 144.41008 196.76952
196.0 0.00510 144.41550 197.67694
186.0 0.00538 144.42094 198.64685
165.0 0.00606 144.42644 199.68391
167.0 0.00599 144.43198 200.79346
208.0 0.00481 144.43755 201.98203
184.0 0.00543 144.44315 203.25499
175.0 0.00571 144.44879 204.62057
227.0 0.00441 144.45448 206.08702
196.0 0.00510 144.46019 207.66420
207.0 0.00483 144.46596 209.36327
212.0 0.00472 144.47174 211.19730
219.0 0.00457 144.47757 213.18193
208.0 0.00481 144.48344 215.33603
198.0 0.00505 144.48935 217.68262
198.0 0.00505 144.49529 220.25015
245.0 0.00408 144.50127 223.07449
221.0 0.00452 144.50728 226.20050
236.0 0.00424 144.51334 229.68539
238.0 0.00420 144.51942 233.60152
241.0 0.00415 144.52554 238.04028
251.0 0.00398 144.53171 243.11639
242.0 0.00413 144.53792 248.97250
240.0 0.00417 144.54414 255.78369
255.0 0.00392 144.55042 263.76160
251.0 0.00398 144.55672 273.15784
260.0 0.00385 144.56306 284.26581
262.0 0.00382 144.56944 297.42001
289.0 0.003460 144.57585 312.99216
299.0 0.003344 144.58231 330.28781
287.0 0.003484 144.58879 351.92673
346.0 0.002890 144.59532 377.23099
366.0 0.002732 144.60188 406.60699
317.0 0.003155 144.60846 439.87109
413.0 0.002421 144.61510 478.41095
436.0 0.002294 144.62177 521.86243
529.0 0.001890 144.62846 570.26581
576.0 0.001736 144.63519 623.47211
596.0 0.001678 144.64197 681.08875
719.0 0.001391 144.64876 742.41626
808.0 0.001238 144.65561 806.37616
831.0 0.001203 144.66248 871.43774
943.0 0.001060 144.66939 935.57123
1090.0 0.000917 144.67633 996.26794
1169.0 0.000855 144.68330 1050.68262
1149.0 0.000870 144.69032 1095.92651
1344.0 0.000744 144.69737 1129.47864
1354.0 0.000739 144.70445 1149.58569
1348.0 0.000742 144.71156 1155.49170
1359.0 0.000736 144.71872 1147.40405
1285.0 0.000778 144.72591 1126.26257
1219.0 0.000820 144.73312 1093.47192
1157.0 0.000864 144.74039 1050.73047
1031.0 0.000970 144.74767 999.96558
1010.0 0.000990 144.75499 943.29279
935.0 0.001070 144.76234 883.05713
784.0 0.001276 144.76973 821.12836
731.0 0.001368 144.77716 759.56421
690.0 0.001449 144.78461 699.94812
609.0 0.001642 144.79210 643.48102
550.0 0.001818 144.79962 590.99329
469.0 0.002132 144.80717 542.99036
454.0 0.002203 144.81477 499.77972
420.0 0.002381 144.82239 461.25232
372.0 0.002688 144.83005 427.34558
356.0 0.002809 144.83774 397.81305
328.0 0.003049 144.84546 372.32968
333.0 0.003003 144.85321 350.52225
314.0 0.003185 144.86099 331.99487
259.0 0.00386 144.86882 316.34924
301.0 0.003322 144.87668 303.20038
259.0 0.00386 144.88457 292.18781
254.0 0.00394 144.89249 282.98349
249.0 0.00402 144.90042 275.29590
229.0 0.00437 144.90842 268.87146
251.0 0.00398 144.91643 263.49362
209.0 0.00478 144.92448 258.98083
247.0 0.00405 144.93256 255.18332
251.0 0.00398 144.94067 251.97899
238.0 0.00420 144.94882 249.26938
228.0 0.00439 144.95700 246.97609
240.0 0.00417 144.96519 245.03694
260.0 0.00385 144.97345 243.40295
240.0 0.00417 144.98172 242.03549
273.0 0.00366 144.99002 240.90421
220.0 0.00455 144.99835 239.98488
240.0 0.00417 145.00673 239.25874
213.0 0.00469 145.01512 238.71046
270.0 0.00370 145.02356 238.32787
235.0 0.00426 145.03201 238.10123
246.0 0.00407 145.04051 238.02274
235.0 0.00426 145.04903 238.08601
230.0 0.00435 145.05759 238.28619
235.0 0.00426 145.06618 238.61957
261.0 0.00383 145.07480 239.08336
281.0 0.00356 145.08345 239.67566
247.0 0.00405 145.09213 240.39560
265.0 0.00377 145.10083 241.24306
254.0 0.00394 145.10957 242.21846
242.0 0.00413 145.11835 243.32341
260.0 0.00385 145.12715 244.55997
234.0 0.00427 145.13599 245.93123
249.0 0.00402 145.14485 247.44080
257.0 0.00389 145.15375 249.09331
260.0 0.00385 145.16267 250.89421
272.0 0.00368 145.17163 252.84991
265.0 0.00377 145.18062 254.96774
254.0 0.00394 145.18962 257.25620
250.0 0.00400 145.19867 259.72479
287.0 0.003484 145.20775 262.38477
280.0 0.00357 145.21686 265.24823
301.0 0.003322 145.22600 268.32965
288.0 0.003472 145.23515 271.64481
289.0 0.003460 145.24435 275.21237
330.0 0.003030 145.25357 279.05344
284.0 0.00352 145.26283 283.19287
295.0 0.003390 145.27211 287.65945
324.0 0.003086 145.28142 292.48767
323.0 0.003096 145.29077 297.71899
294.0 0.003401 145.30014 303.40338
301.0 0.003322 145.30954 309.60284
348.0 0.002874 145.31897 316.39392
338.0 0.002959 145.32843 323.87216
378.0 0.002646 145.33792 332.15732
338.0 0.002959 145.34744 341.39957
360.0 0.002778 145.35698 351.78616
403.0 0.002481 145.36656 363.54999
401.0 0.002494 145.37617 376.97784
398.0 0.002513 145.38580 392.41916
457.0 0.002188 145.39546 410.29410
456.0 0.002193 145.40515 431.10071
457.0 0.002188 145.41487 455.41849
478.0 0.002092 145.42462 483.90967
502.0 0.001992 145.43440 517.31427
542.0 0.001845 145.44420 556.43988
596.0 0.001678 145.45404 602.14392
651.0 0.001536 145.46390 655.30762
679.0 0.001473 145.47379 716.80255
751.0 0.001332 145.48370 787.44788
806.0 0.001241 145.49365 867.96039
892.0 0.001121 145.50363 958.89539
1032.0 0.000969 145.51363 1060.58044
1077.0 0.000929 145.52367 1173.03711
1218.0 0.000821 145.53372 1295.89075
1362.0 0.000734 145.54381 1428.26147
1518.0 0.000659 145.55391 1568.63501
1675.0 0.000597 145.56406 1714.71448
1869.0 0.000535 145.57422 1863.27771
1904.0 0.000525 145.58443 2010.08154
2158.0 0.000463 145.59465 2149.89575
2341.0 0.000427 145.60490 2276.76685
2502.0 0.000400 145.61517 2384.57056
2575.0 0.000388 145.62547 2467.80127
2663.0 0.000376 145.63582 2522.39014
2697.0 0.000371 145.64618 2546.24805
2727.0 0.000367 145.65656 2540.19263
2757.0 0.000363 145.66698 2504.05225
2576.0 0.000388 145.67741 2441.36353
2450.0 0.000408 145.68788 2355.44385
2315.0 0.000432 145.69838 2250.07813
2179.0 0.000459 145.70889 2129.46021
1980.0 0.000505 145.71945 1998.09778
1873.0 0.000534 145.73001 1860.57776
1736.0 0.000576 145.74062 1721.68335
1548.0 0.000646 145.75125 1584.35095
1378.0 0.000726 145.76190 1452.10815
1167.0 0.000857 145.77258 1327.27185
1131.0 0.000884 145.78328 1211.42761
1071.0 0.000934 145.79402 1105.52759
905.0 0.001105 145.80478 1010.00421
882.0 0.001134 145.81557 924.88177
752.0 0.001330 145.82637 849.87494
732.0 0.001366 145.83722 784.47272
684.0 0.001462 145.84808 728.00952
646.0 0.001548 145.85896 679.72345
620.0 0.001613 145.86989 638.80524
551.0 0.001815 145.88083 604.43768
584.0 0.001712 145.89178 575.82617
561.0 0.001783 145.90279 552.22229
511.0 0.001957 145.91380 532.93872
512.0 0.001953 145.92485 517.35968
508.0 0.001969 145.93591 504.94513
496.0 0.002016 145.94701 495.23068
488.0 0.002049 145.95813 487.82434
568.0 0.001761 145.96927 482.40170
469.0 0.002132 145.98044 478.69867
504.0 0.001984 145.99164 476.50479
439.0 0.002278 146.00287 475.65558
498.0 0.002008 146.01411 476.02536
479.0 0.002088 146.02538 477.52197
469.0 0.002132 146.03668 480.08041
482.0 0.002075 146.04799 483.65887
490.0 0.002041 146.05934 488.23523
514.0 0.001946 146.07071 493.80402
493.0 0.002028 146.08211 500.37485
527.0 0.001898 146.09352 507.97153
514.0 0.001946 146.10497 516.63116
530.0 0.001887 146.11644 526.40552
511.0 0.001957 146.12793 537.36169
538.0 0.001859 146.13945 549.58484
536.0 0.001866 146.15100 563.18170
548.0 0.001825 146.16257 578.28595
621.0 0.001610 146.17415 595.06451
657.0 0.001522 146.18576 613.72650
652.0 0.001534 146.19740 634.53552
666.0 0.001502 146.20908 657.82385
700.0 0.001429 146.22076 684.01007
707.0 0.001414 146.23247 713.62085
837.0 0.001195 146.24420 747.29004
765.0 0.001307 146.25597 785.88708
867.0 0.001153 146.26775 830.39520
922.0 0.001085 146.27956 882.04169
1019.0 0.000981 146.29138 942.30029
1034.0 0.000967 146.30324 1012.90137
1104.0 0.000906 146.31512 1095.89539
1181.0 0.000847 146.32703 1193.57886
1286.0 0.000778 146.33894 1308.52966
1427.0 0.000701 146.35089 1443.55603
1505.0 0.000664 146.36287 1601.63635
1677.0 0.000596 146.37486 1785.83105
1842.0 0.000543 146.38689 1999.16602
2006.0 0.000499 146.39893 2244.85474
2231.0 0.000448 146.41100 2524.66821
2618.0 0.000382 146.42308 2840.92261
2922.0 0.0003422 146.43518 3194.79785
3170.0 0.0003155 146.44733 3586.44214
3706.0 0.0002698 146.45947 4014.66919
4085.0 0.0002448 146.47165 4476.60107
4508.0 0.0002218 146.48386 4967.24072
5244.0 0.0001907 146.49608 5479.16748
5881.0 0.0001700 146.50833 6001.31836
6576.0 0.0001521 146.52060 6519.72656
7283.0 0.0001373 146.53290 7016.83936
8035.0 0.0001245 146.54521 7472.43311
8468.0 0.0001181 146.55756 7865.32520
9158.0 0.0001092 146.56992 8175.94189
9192.0 0.0001088 146.58229 8389.14160
9598.0 0.0001042 146.59470 8496.30273
9461.0 0.0001057 146.60713 8495.84863
9268.0 0.0001079 146.61958 8392.12793
9054.0 0.0001104 146.63205 8193.48535
8524.0 0.0001173 146.64455 7910.56836
8105.0 0.0001234 146.65706 7555.49316
7431.0 0.0001346 146.66960 7141.70605
6962.0 0.0001436 146.68216 6683.91895
6283.0 0.0001592 146.69475 6197.60059
5600.0 0.0001786 146.70735 5698.02197
4932.0 0.0002028 146.71997 5199.16553
4533.0 0.0002206 146.73262 4712.87646
3934.0 0.0002542 146.74529 4248.44141
3431.0 0.0002915 146.75798 3812.56470
2994.0 0.0003340 146.77069 3409.60449
2620.0 0.000382 146.78343 3041.94165
2338.0 0.000428 146.79619 2710.36108
2188.0 0.000457 146.80896 2414.40771
1960.0 0.000510 146.82176 2152.69995
1758.0 0.000569 146.83458 1923.19104
1584.0 0.000631 146.84743 1723.39209
1469.0 0.000681 146.86029 1550.55591
1301.0 0.000769 146.87317 1401.82532
1233.0 0.000811 146.88608 1274.35815
1092.0 0.000916 146.89900 1165.41724
1057.0 0.000946 146.91194 1072.43994
1009.0 0.000991 146.92491 993.08466
886.0 0.001129 146.93790 925.25549
877.0 0.001140 146.95091 867.11200
834.0 0.001199 146.96394 818.38837
809.0 0.001236 146.97699 775.09308
802.0 0.001247 146.99007 737.41138
799.0 0.001252 147.00316 704.40546
688.0 0.001453 147.01627 675.30676
687.0 0.001456 147.02940 649.48969
674.0 0.001484 147.04256 626.44989
594.0 0.001684 147.05573 605.78082
638.0 0.001567 147.06892 587.81592
605.0 0.001653 147.08214 571.06445
565.0 0.001770 147.09537 555.79675
571.0 0.001751 147.10863 541.92883
539.0 0.001855 147.12190 529.32031
552.0 0.001812 147.13521 517.85626
504.0 0.001984 147.14851 506.60223
517.0 0.001934 147.16185 497.15875
486.0 0.002058 147.17522 488.61636
521.0 0.001919 147.18858 480.96149
479.0 0.002088 147.20198 474.05841
486.0 0.002058 147.21539 467.37299
493.0 0.002028 147.22884 461.94699
509.0 0.001965 147.24229 457.21249
479.0 0.002088 147.25577 453.14624
446.0 0.002242 147.26926 449.67026
422.0 0.002370 147.28278 446.89087
433.0 0.002309 147.29631 444.73901
473.0 0.002114 147.30986 443.21057
451.0 0.002217 147.32343 442.30585
477.0 0.002096 147.33702 442.03024
433.0 0.002309 147.35063 442.39447
482.0 0.002075 147.36426 443.41495
477.0 0.002096 147.37791 445.11545
474.0 0.002110 147.39159 447.52716
429.0 0.002331 147.40527 450.69144
505.0 0.001980 147.41898 454.66113
467.0 0.002141 147.43271 459.50449
488.0 0.002049 147.44644 465.30789
516.0 0.001938 147.46022 472.18137
547.0 0.001828 147.47400 480.26462
511.0 0.001957 147.48779 489.73367
542.0 0.001845 147.50162 500.81036
535.0 0.001869 147.51546 513.77130
540.0 0.001852 147.52931 528.95966
623.0 0.001605 147.54318 546.79669
603.0 0.001658 147.55708 567.79254
642.0 0.001558 147.57100 592.55878
673.0 0.001486 147.58493 621.81714
705.0 0.001418 147.59888 656.40491
730.0 0.001370 147.61285 697.27679
762.0 0.001312 147.62685 745.49963
832.0 0.001202 147.64084 802.23987
828.0 0.001208 147.65486 868.74152
929.0 0.001076 147.66891 946.29358
982.0 0.001018 147.68297 1036.18811
1140.0 0.000877 147.69705 1139.66528
1203.0 0.000831 147.71114 1257.84949
1365.0 0.000733 147.72527 1391.67578
1480.0 0.000676 147.73940 1541.80225
1577.0 0.000634 147.75354 1708.51367
1714.0 0.000583 147.76770 1891.60791
1972.0 0.000507 147.78189 2090.26416
2077.0 0.000481 147.79610 2302.88159
2241.0 0.000446 147.81032 2526.89697
2659.0 0.000376 147.82455 2758.57568
2849.0 0.000351 147.83882 2992.83057
3001.0 0.0003332 147.85309 3223.11548
3468.0 0.0002884 147.86739 3441.53271
3552.0 0.0002815 147.88168 3639.24390
3720.0 0.0002688 147.89601 3807.29077
4075.0 0.0002454 147.91035 3937.69531
4115.0 0.0002430 147.92471 4024.58032
4243.0 0.0002357 147.93910 4064.89746
4197.0 0.0002383 147.95349 4058.49170
4012.0 0.0002493 147.96791 4007.54492
4000.0 0.0002500 147.98235 3915.74561
3843.0 0.0002602 147.99678 3787.61670
3662.0 0.0002731 148.01125 3628.20166
3305.0 0.0003026 148.02573 3443.05176
3203.0 0.0003122 148.04024 3238.24390
2933.0 0.0003409 148.05475 3020.22461
2531.0 0.000395 148.06927 2795.45361
2454.0 0.000407 148.08383 2569.95557
2205.0 0.000454 148.09839 2348.94507
2025.0 0.000494 148.11298 2136.61011
1729.0 0.000578 148.12758 1936.06567
1602.0 0.000624 148.14218 1749.42395
1439.0 0.000695 148.15683 1577.93115
1367.0 0.000732 148.17148 1422.38623
1180.0 0.000847 148.18614 1282.24341
1106.0 0.000904 148.20082 1157.31311
994.0 0.001006 148.21552 1046.83154
966.0 0.001035 148.23022 949.81665
869.0 0.001151 148.24496 865.14856
761.0 0.001314 148.25970 791.63525
770.0 0.001299 148.27448 728.06549
680.0 0.001471 148.28925 673.25342
644.0 0.001553 148.30405 626.06915
615.0 0.001626 148.31886 585.46332
610.0 0.001639 148.33369 550.48047
576.0 0.001736 148.34853 520.26862
545.0 0.001835 148.36339 494.07932
518.0 0.001931 148.37827 471.26608
496.0 0.002016 148.39316 451.27838
454.0 0.002203 148.40807 433.65234
515.0 0.001942 148.42299 418.00229
450.0 0.002222 148.43793 404.00980
445.0 0.002247 148.45288 391.41409
434.0 0.002304 148.46785 380.00272
447.0 0.002237 148.48283 369.60321
394.0 0.002538 148.49783 360.07516
387.0 0.002584 148.51285 351.30490
400.0 0.002500 148.52788 343.19913
367.0 0.002725 148.54292 335.68112
402.0 0.002488 148.55800 328.68723
320.0 0.003125 148.57307 322.77057
334.0 0.002994 148.58817 316.67545
357.0 0.002801 148.60327 311.04309
343.0 0.002915 148.61839 305.68802
337.0 0.002967 148.63353 300.65646
330.0 0.003030 148.64868 295.92242
327.0 0.003058 148.66386 291.46289
318.0 0.003145 148.67905 287.25693
314.0 0.003185 148.69424 283.28616
290.0 0.003448 148.70946 279.53339
309.0 0.003236 148.72469 276.02136
292.0 0.003425 148.73993 272.66034
299.0 0.003344 148.75519 269.47562
314.0 0.003185 148.77046 266.45529
265.0 0.00377 148.78574 263.58875
279.0 0.00358 148.80104 260.86615
287.0 0.003484 148.81636 258.27863
278.0 0.00360 148.83170 255.81781
247.0 0.00405 148.84705 253.47603
268.0 0.00373 148.86240 251.24625
237.0 0.00422 148.87778 249.12209
269.0 0.00372 148.89316 247.09732
259.0 0.00386 148.90857 245.16653
246.0 0.00407 148.92398 243.32439
248.0 0.00403 148.93942 241.56633
244.0 0.00410 148.95486 239.88765
275.0 0.00364 148.97032 238.28442
244.0 0.00410 148.98579 236.75262
254.0 0.00394 149.00128 235.28873
276.0 0.00362 149.01678 233.88954
237.0 0.00422 149.03230 232.55182
242.0 0.00413 149.04784 231.27255
265.0 0.00377 149.06337 230.04924
236.0 0.00424 149.07893 228.87924
248.0 0.00403 149.09451 227.76022
212.0 0.00472 149.11009 226.68994
241.0 0.00415 149.12569 225.66631
241.0 0.00415 149.14130 224.68753
265.0 0.00377 149.15692 223.75156
235.0 0.00426 149.17256 222.85695
243.0 0.00412 149.18822 222.00198
265.0 0.00377 149.20389 221.18518
238.0 0.00420 149.21957 220.40520
221.0 0.00452 149.23526 219.66066
251.0 0.00398 149.25096 218.95041
242.0 0.00413 149.26669 218.27332
224.0 0.00446 149.28242 217.62837
249.0 0.00402 149.29817 217.01450
238.0 0.00420 149.31393 216.43079
243.0 0.00412 149.32970 215.87640
257.0 0.00389 149.34549 215.35063
234.0 0.00427 149.36128 214.85266
263.0 0.00380 149.37711 214.38188
255.0 0.00392 149.39293 213.93748
230.0 0.00435 149.40877 213.51921
238.0 0.00420 149.42462 213.12645
241.0 0.00415 149.44048 212.75871
264.0 0.00379 149.45636 212.41566
216.0 0.00463 149.47224 212.09700
244.0 0.00410 149.48816 211.80260
260.0 0.00385 149.50407 211.53215
237.0 0.00422 149.51999 211.28572
222.0 0.00450 149.53593 211.06328
206.0 0.00485 149.55188 210.86505
232.0 0.00431 149.56786 210.69128
246.0 0.00407 149.58383 210.54251
221.0 0.00452 149.59982 210.41917
236.0 0.00424 149.61581 210.32213
231.0 0.00433 149.63184 210.25233
240.0 0.00417 149.64786 210.21078
220.0 0.00455 149.66389 210.19899
250.0 0.00400 149.67995 210.21828
223.0 0.00448 149.69601 210.27045
229.0 0.00437 149.71208 210.35718
242.0 0.00413 149.72818 210.48022
230.0 0.00435 149.74428 210.64165
244.0 0.00410 149.76039 210.84319
233.0 0.00429 149.77650 211.08650
224.0 0.00446 149.79265 211.37306
202.0 0.00495 149.80879 211.70403
227.0 0.00441 149.82495 212.08002
247.0 0.00405 149.84113 212.50110
215.0 0.00465 149.85730 212.96654
240.0 0.00417 149.87350 213.47464
248.0 0.00403 149.88971 214.02252
245.0 0.00408 149.90593 214.60585
245.0 0.00408 149.92215 215.21864
262.0 0.00382 149.93840 215.85295
229.0 0.00437 149.95465 216.49945
249.0 0.00402 149.97092 217.14758
241.0 0.00415 149.98718 217.78677
208.0 0.00481 150.00348 218.40776
241.0 0.00415 150.01978 219.00424
241.0 0.00415 150.03609 219.57324
231.0 0.00433 150.05240 220.11612
242.0 0.00413 150.06873 220.63719
223.0 0.00448 150.08507 221.14281
232.0 0.00431 150.10143 221.64070
226.0 0.00442 150.11780 222.13914
209.0 0.00478 150.13417 222.64699
234.0 0.00427 150.15056 223.17421
218.0 0.00459 150.16695 223.73155
221.0 0.00452 150.18336 224.33038
226.0 0.00442 150.19977 224.98224
241.0 0.00415 150.21620 225.69839
244.0 0.00410 150.23265 226.48933
245.0 0.00408 150.24910 227.18506
269.0 0.00372 150.26556 228.15485
253.0 0.00395 150.28203 229.22688
252.0 0.00397 150.29852 230.40984
221.0 0.00452 150.31502 231.71274
235.0 0.00426 150.33151 233.05583
265.0 0.00377 150.34804 234.63043
258.0 0.00388 150.36456 236.36017
284.0 0.00352 150.38109 238.26144
265.0 0.00377 150.39764 240.35471
265.0 0.00377 150.41420 242.66508
245.0 0.00408 150.43077 245.22388
259.0 0.00386 150.44734 248.06950
291.0 0.003436 150.46393 251.24936
279.0 0.00358 150.48053 254.82111
262.0 0.00382 150.49713 258.85428
272.0 0.00368 150.51375 263.43192
292.0 0.003425 150.53038 268.65158
310.0 0.003226 150.54701 274.62677
306.0 0.003268 150.56366 281.48660
354.0 0.002825 150.58032 289.37677
323.0 0.003096 150.59698 298.45728
343.0 0.002915 150.61366 308.90097
314.0 0.003185 150.63036 320.89026
374.0 0.002674 150.64705 334.61197
376.0 0.002660 150.66376 350.25201
378.0 0.002646 150.68047 367.98779
388.0 0.002577 150.69719 387.97989
398.0 0.002513 150.71393 410.36166
446.0 0.002242 150.73067 435.22897
460.0 0.002174 150.74742 462.62650
507.0 0.001972 150.76419 492.53348
481.0 0.002079 150.78096 524.84601
584.0 0.001712 150.79774 559.35785
631.0 0.001585 150.81454 595.73376
651.0 0.001536 150.83133 633.48511
646.0 0.001548 150.84814 671.94177
741.0 0.001350 150.86497 710.23529
775.0 0.001290 150.88179 747.30048
870.0 0.001149 150.89864 781.91321
835.0 0.001198 150.91548 812.77612
879.0 0.001138 150.93233 838.65131
909.0 0.001100 150.94920 858.51447
957.0 0.001045 150.96608 871.68884
943.0 0.001060 150.98296 877.90607
891.0 0.001122 150.99985 877.28192
909.0 0.001100 151.01675 870.21588
953.0 0.001049 151.03366 857.27533
924.0 0.001082 151.05057 839.10828
834.0 0.001199 151.06750 816.41101
813.0 0.001230 151.08444 789.93640
780.0 0.001282 151.10138 760.50909
777.0 0.001287 151.11833 729.01740
659.0 0.001517 151.13530 696.37585
680.0 0.001471 151.15227 663.46747
596.0 0.001678 151.16924 631.08685
589.0 0.001698 151.18622 599.90222
597.0 0.001675 151.20322 570.43726
526.0 0.001901 151.22021 543.07416
453.0 0.002208 151.23723 518.06702
473.0 0.002114 151.25426 495.56210
468.0 0.002137 151.27129 475.61789
510.0 0.001961 151.28831 458.22443
424.0 0.002358 151.30536 443.32050
441.0 0.002268 151.32242 430.80780
460.0 0.002174 151.33948 420.56311
408.0 0.002451 151.35654 412.44891
413.0 0.002421 151.37361 406.32166
368.0 0.002717 151.39070 402.03973
422.0 0.002370 151.40779 399.46915
390.0 0.002564 151.42490 398.48911
424.0 0.002358 151.44200 398.99628
425.0 0.002353 151.45912 400.90881
412.0 0.002427 151.47624 404.16995
445.0 0.002247 151.49336 408.75183
417.0 0.002398 151.51051 414.65936
449.0 0.002227 151.52765 421.93475
436.0 0.002294 151.54482 430.66324
484.0 0.002066 151.56197 440.97958
423.0 0.002364 151.57915 453.07605
442.0 0.002262 151.59631 467.21155
498.0 0.002008 151.61349 483.72232
518.0 0.001931 151.63069 503.03232
547.0 0.001828 151.64789 525.66522
596.0 0.001678 151.66510 552.25397
577.0 0.001733 151.68231 583.54956
536.0 0.001866 151.69952 620.42633
637.0 0.001570 151.71675 663.88147
667.0 0.001499 151.73399 715.02850
723.0 0.001383 151.75122 775.08313
772.0 0.001295 151.76848 845.33752
851.0 0.001175 151.78574 927.12750
895.0 0.001117 151.80299 1021.78510
922.0 0.001085 151.82027 1130.58264
1055.0 0.000948 151.83754 1254.66602
1128.0 0.000887 151.85483 1394.97742
1202.0 0.000832 151.87212 1552.17078
1324.0 0.000755 151.88940 1726.51184
1611.0 0.000621 151.90672 1917.77502
1792.0 0.000558 151.92403 2125.11475
2036.0 0.000491 151.94135 2346.92383
2217.0 0.000451 151.95866 2580.66187
2538.0 0.000394 151.97600 2822.67603
2937.0 0.0003405 151.99333 3068.02563
3239.0 0.0003087 152.01068 3310.38330
3654.0 0.0002737 152.02803 3542.10010
3989.0 0.0002507 152.04538 3754.08643
4214.0 0.0002373 152.06274 3938.43140
4454.0 0.0002245 152.08011 4086.57422
4795.0 0.0002086 152.09749 4192.32520
4805.0 0.0002081 152.11487 4252.20459
4794.0 0.0002086 152.13226 4265.64209
4584.0 0.0002182 152.14966 4234.26025
4548.0 0.0002199 152.16705 4162.16602
4275.0 0.0002339 152.18445 4052.76709
4148.0 0.0002411 152.20186 3910.59058
3928.0 0.0002546 152.21928 3740.10645
3619.0 0.0002763 152.23671 3546.16138
3450.0 0.0002899 152.25414 3334.14673
3097.0 0.0003229 152.27158 3109.93726
2831.0 0.000353 152.28902 2879.56055
2541.0 0.000394 152.30646 2648.75708
2255.0 0.000443 152.32391 2422.70044
2108.0 0.000474 152.34137 2205.28979
1730.0 0.000578 152.35884 1999.75720
1708.0 0.000585 152.37631 1808.24866
1373.0 0.000728 152.39378 1632.06531
1311.0 0.000763 152.41127 1471.80090
1179.0 0.000848 152.42876 1327.48767
1017.0 0.000983 152.44624 1198.72351
952.0 0.001050 152.46375 1084.78308
894.0 0.001119 152.48125 984.71454
880.0 0.001136 152.49875 897.41602
783.0 0.001277 152.51627 821.70349
737.0 0.001357 152.53378 756.36371
723.0 0.001383 152.55132 700.19885
656.0 0.001524 152.56885 652.05963
603.0 0.001658 152.58638 610.86951
625.0 0.001600 152.60391 575.64526
518.0 0.001931 152.62146 545.49524
510.0 0.001961 152.63901 519.63928
486.0 0.002058 152.65657 497.39624
469.0 0.002132 152.67412 478.18268
481.0 0.002079 152.69170 461.50507
426.0 0.002347 152.70926 446.95117
421.0 0.002375 152.72684 434.17993
432.0 0.002315 152.74442 422.91171
422.0 0.002370 152.76199 412.92035
468.0 0.002137 152.77959 404.01923
420.0 0.002381 152.79718 396.06110
392.0 0.002551 152.81479 388.92642
399.0 0.002506 152.83238 382.51862
395.0 0.002532 152.84999 376.75983
360.0 0.002778 152.86760 371.58679
377.0 0.002653 152.88522 366.94785
401.0 0.002494 152.90285 362.80078
378.0 0.002646 152.92047 359.11035
372.0 0.002688 152.93810 355.84772
376.0 0.002660 152.95573 352.98865
339.0 0.002950 152.97337 350.51346
378.0 0.002646 152.99101 348.40552
375.0 0.002667 153.00867 346.65161
373.0 0.002681 153.02631 345.24155
355.0 0.002817 153.04396 344.16711
350.0 0.002857 153.06163 343.42319
388.0 0.002577 153.07928 343.00690
366.0 0.002732 153.09695 342.91794
356.0 0.002809 153.11462 343.15903
367.0 0.002725 153.13231 343.73526
375.0 0.002667 153.14998 344.65579
364.0 0.002747 153.16766 345.93283
345.0 0.002899 153.18535 347.58435
371.0 0.002695 153.20305 349.63321
366.0 0.002732 153.22073 352.10965
387.0 0.002584 153.23843 355.05234
435.0 0.002299 153.25613 358.51123
409.0 0.002445 153.27383 362.54947
402.0 0.002488 153.29155 367.24664
386.0 0.002591 153.30927 372.70218
400.0 0.002500 153.32698 379.04019
414.0 0.002415 153.34470 386.41238
439.0 0.002278 153.36241 395.00400
439.0 0.002278 153.38014 405.03766
446.0 0.002242 153.39787 416.77756
439.0 0.002278 153.41560 430.53268
489.0 0.002045 153.43335 446.65866
429.0 0.002331 153.45108 465.55850
499.0 0.002004 153.46883 487.67886
556.0 0.001799 153.48657 513.50610
582.0 0.001718 153.50432 541.81995
642.0 0.001558 153.52206 576.63580
604.0 0.001656 153.53983 616.74432
668.0 0.001497 153.55759 662.66168
685.0 0.001460 153.57535 714.85999
777.0 0.001287 153.59311 773.73993
836.0 0.001196 153.61087 838.73505
856.0 0.001168 153.62865 911.73889
948.0 0.001055 153.64641 991.86499
1001.0 0.000999 153.66418 1078.87341
1144.0 0.000874 153.68196 1172.24744
1169.0 0.000855 153.69975 1271.22253
1288.0 0.000776 153.71753 1374.36255
1447.0 0.000691 153.73532 1480.01636
1590.0 0.000629 153.75311 1585.91016
1633.0 0.000612 153.77089 1689.22363
1870.0 0.000535 153.78868 1786.66260
1922.0 0.000520 153.80649 1874.65430
1993.0 0.000502 153.82428 1949.68384
2151.0 0.000465 153.84207 2008.71887
2260.0 0.000442 153.85988 2049.65698
2285.0 0.000438 153.87769 2071.39502
2269.0 0.000441 153.89549 2074.08350
2245.0 0.000445 153.91330 2058.69922
2165.0 0.000462 153.93111 2026.73328
2143.0 0.000467 153.94893 1979.87146
2038.0 0.000491 153.96674 1919.84106
1869.0 0.000535 153.98456 1848.41711
1748.0 0.000572 154.00238 1767.52002
1761.0 0.000568 154.02020 1679.28406
1604.0 0.000623 154.03802 1586.04370
1516.0 0.000660 154.05585 1490.20996
1371.0 0.000729 154.07367 1394.10400
1286.0 0.000778 154.09149 1299.80029
1188.0 0.000842 154.10933 1209.01880
1123.0 0.000890 154.12717 1123.08923
1027.0 0.000974 154.14499 1043.05664
946.0 0.001057 154.16283 969.32123
865.0 0.001156 154.18066 902.29767
820.0 0.001220 154.19850 842.06598
815.0 0.001227 154.21635 788.52484
802.0 0.001247 154.23419 741.43549
719.0 0.001391 154.25203 700.45990
724.0 0.001381 154.26987 665.19244
721.0 0.001387 154.28772 635.18732
640.0 0.001563 154.30557 610.03021
638.0 0.001567 154.32341 589.15588
627.0 0.001595 154.34126 572.16376
653.0 0.001531 154.35912 558.62854
641.0 0.001560 154.37697 548.15784
618.0 0.001618 154.39482 540.39801
587.0 0.001704 154.41267 535.03766
611.0 0.001637 154.43053 531.80646
600.0 0.001667 154.44838 530.47797
664.0 0.001506 154.46623 530.86572
601.0 0.001664 154.48410 532.82239
646.0 0.001548 154.50195 536.23676
597.0 0.001675 154.51981 541.03082
633.0 0.001580 154.53767 547.15942
653.0 0.001531 154.55553 554.60748
670.0 0.001493 154.57339 563.38989
674.0 0.001484 154.59125 573.55212
651.0 0.001536 154.60912 585.17218
663.0 0.001508 154.62698 598.36310
726.0 0.001377 154.64484 613.27881
818.0 0.001222 154.66270 630.11981
750.0 0.001333 154.68057 649.14178
818.0 0.001222 154.69844 670.66498
765.0 0.001307 154.71629 695.08618
860.0 0.001163 154.73416 722.88983
905.0 0.001105 154.75203 754.66351
944.0 0.001059 154.76990 791.10992
1030.0 0.000971 154.78777 833.05969
1059.0 0.000944 154.80563 881.48346
1021.0 0.000979 154.82350 937.49768
1193.0 0.000838 154.84137 1002.36963
1241.0 0.000806 154.85924 1077.51208
1319.0 0.000758 154.87709 1164.47522
1407.0 0.000711 154.89496 1264.92468
1451.0 0.000689 154.91283 1380.61169
1640.0 0.000610 154.93069 1513.33325
1706.0 0.000586 154.94856 1664.87793
1830.0 0.000546 154.96643 1836.96338
2001.0 0.000500 154.98430 2031.16150
2174.0 0.000460 155.00217 2248.81177
2343.0 0.000427 155.02003 2490.92627
2604.0 0.000384 155.03789 2758.07642
2826.0 0.000354 155.05576 3050.27222
3141.0 0.0003184 155.07362 3366.81348
3380.0 0.0002959 155.09149 3706.11572
3835.0 0.0002608 155.10934 4065.51514
4214.0 0.0002373 155.12721 4441.03662
4591.0 0.0002178 155.14508 4827.15430
4872.0 0.0002053 155.16293 5216.60498
5519.0 0.0001812 155.18080 5600.30664
5826.0 0.0001716 155.19865 5967.53516
6126.0 0.0001632 155.21652 6306.45459
6634.0 0.0001507 155.23438 6605.07471
6972.0 0.0001434 155.25223 6852.52295
7245.0 0.0001380 155.27008 7040.36914
7324.0 0.0001365 155.28795 7163.57373
7291.0 0.0001372 155.30580 7220.73877
7303.0 0.0001369 155.32365 7213.57129
7289.0 0.0001372 155.34151 7145.83545
7037.0 0.0001421 155.35936 7022.25195
6733.0 0.0001485 155.37721 6847.77490
6496.0 0.0001539 155.39507 6627.41992
6325.0 0.0001581 155.41290 6366.54443
5891.0 0.0001698 155.43076 6071.22803
5615.0 0.0001781 155.44859 5748.49268
5179.0 0.0001931 155.46645 5406.13867
4905.0 0.0002039 155.48428 5052.27686
4325.0 0.0002312 155.50212 4694.73193
4092.0 0.0002444 155.51997 4340.50586
3792.0 0.0002637 155.53781 3995.44873
3396.0 0.0002945 155.55565 3664.14087
3102.0 0.0003224 155.57347 3350.13159
2864.0 0.0003492 155.59131 3055.39160
2585.0 0.000387 155.60915 2781.54980
2377.0 0.000421 155.62697 2529.35620
2210.0 0.000452 155.64481 2298.98462
2000.0 0.000500 155.66263 2090.14209
1881.0 0.000532 155.68045 1902.15051
1782.0 0.000561 155.69827 1734.03235
1575.0 0.000635 155.71609 1584.58252
1477.0 0.000677 155.73392 1452.44116
1438.0 0.000695 155.75174 1336.24829
1291.0 0.000775 155.76955 1234.34692
1275.0 0.000784 155.78737 1145.35974
1114.0 0.000898 155.80518 1067.87317
1175.0 0.000851 155.82298 1000.55292
1055.0 0.000948 155.84079 942.16357
971.0 0.001030 155.85860 891.57965
955.0 0.001047 155.87640 847.79077
925.0 0.001081 155.89420 809.16046
884.0 0.001131 155.91199 776.39453
822.0 0.001217 155.92979 748.07312
830.0 0.001205 155.94759 723.62024
779.0 0.001284 155.96538 702.55225
785.0 0.001274 155.98317 684.46771
785.0 0.001274 156.00095 668.66907
751.0 0.001332 156.01872 655.63837
764.0 0.001309 156.03651 644.80481
762.0 0.001312 156.05429 636.02496
728.0 0.001374 156.07207 629.20880
696.0 0.001437 156.08983 624.31604
705.0 0.001418 156.10760 621.35706
790.0 0.001266 156.12537 620.39404
701.0 0.001427 156.14313 621.54230
738.0 0.001355 156.16089 624.97595
701.0 0.001427 156.17865 630.92993
749.0 0.001335 156.19641 639.70642
736.0 0.001359 156.21416 651.67889
762.0 0.001312 156.23190 667.29517
740.0 0.001351 156.24965 687.08051
790.0 0.001266 156.26740 711.63556
789.0 0.001267 156.28513 741.63483
853.0 0.001172 156.30287 777.81671
892.0 0.001121 156.32060 820.97156
926.0 0.001080 156.33833 871.92493
957.0 0.001045 156.35605 931.51221
1003.0 0.000997 156.37378 1000.55109
1060.0 0.000943 156.39149 1079.80505
1131.0 0.000884 156.40921 1169.94580
1226.0 0.000816 156.42693 1271.50391
1317.0 0.000759 156.44463 1384.82373
1288.0 0.000776 156.46233 1510.00317
1551.0 0.000645 156.48003 1646.82983
1637.0 0.000611 156.49773 1794.70923
1768.0 0.000566 156.51543 1952.57739
1908.0 0.000524 156.53311 2118.80225
2149.0 0.000465 156.55080 2291.07886
2311.0 0.000433 156.56848 2466.32495
2576.0 0.000388 156.58617 2640.62061
2694.0 0.000371 156.60384 2809.22705
2944.0 0.0003397 156.62151 2966.74976
3050.0 0.0003279 156.63916 3107.49390
3284.0 0.0003045 156.65683 3226.00171
3334.0 0.0002999 156.67448 3317.69849
3525.0 0.0002837 156.69214 3379.46069
3434.0 0.0002912 156.70979 3409.92432
3546.0 0.0002820 156.72743 3409.42773
3418.0 0.0002926 156.74507 3379.61255
3247.0 0.0003080 156.76271 3322.87427
3266.0 0.0003062 156.78033 3241.86938
3149.0 0.0003176 156.79797 3139.25830
3048.0 0.0003281 156.81560 3017.69043
2866.0 0.0003489 156.83321 2879.95630
2644.0 0.000378 156.85083 2729.14771
2492.0 0.000401 156.86844 2568.70142
2256.0 0.000443 156.88605 2402.29053
2060.0 0.000485 156.90364 2233.59985
1936.0 0.000517 156.92123 2066.06812
1709.0 0.000585 156.93883 1902.68872
1569.0 0.000637 156.95641 1745.88782
1438.0 0.000695 156.97400 1597.49255
1321.0 0.000757 156.99158 1458.76501
1228.0 0.000814 157.00914 1330.47046
1094.0 0.000914 157.02670 1212.95789
1034.0 0.000967 157.04427 1106.24329
956.0 0.001046 157.06183 1010.08197
939.0 0.001065 157.07938 924.03351
833.0 0.001200 157.09692 847.51575
757.0 0.001321 157.11446 779.85040
726.0 0.001377 157.13200 720.30103
730.0 0.001370 157.14954 668.10529
651.0 0.001536 157.16705 622.49969
639.0 0.001565 157.18457 582.74158
611.0 0.001637 157.20209 548.12384
596.0 0.001678 157.21959 517.98651
537.0 0.001862 157.23711 491.72473
537.0 0.001862 157.25459 468.79355
490.0 0.002041 157.27209 448.70789
494.0 0.002024 157.28958 431.04269
489.0 0.002045 157.30705 415.42990
425.0 0.002353 157.32454 401.55411
512.0 0.001953 157.34200 389.14825
428.0 0.002336 157.35947 378.14609
423.0 0.002364 157.37692 368.04416
375.0 0.002667 157.39438 358.84525
383.0 0.002611 157.41182 350.42130
390.0 0.002564 157.42926 342.81683
369.0 0.002710 157.44670 335.64563
400.0 0.002500 157.46413 328.98590
338.0 0.002959 157.48155 322.77835
351.0 0.002849 157.49896 316.97406
332.0 0.003012 157.51637 311.53183
317.0 0.003155 157.53378 306.49588
341.0 0.002933 157.55118 301.67896
321.0 0.003115 157.56857 297.13403
308.0 0.003247 157.58595 292.83899
298.0 0.003356 157.60333 288.84912
322.0 0.003106 157.62071 284.99777
312.0 0.003205 157.63808 281.34387
307.0 0.003257 157.65543 277.87354
288.0 0.003472 157.67279 274.57434
301.0 0.003322 157.69012 271.43448
246.0 0.00407 157.70747 268.44379
296.0 0.003378 157.72481 265.59268
264.0 0.00379 157.74213 262.87216
283.0 0.00353 157.75946 260.27463
258.0 0.00388 157.77676 257.79236
248.0 0.00403 157.79407 255.42557
252.0 0.00397 157.81137 253.15369
248.0 0.00403 157.82866 250.97810
295.0 0.003390 157.84595 248.89326
257.0 0.00389 157.86324 246.89407
257.0 0.00389 157.88051 244.97594
252.0 0.00397 157.89777 243.13441
242.0 0.00413 157.91502 241.36543
263.0 0.00380 157.93227 239.66525
251.0 0.00398 157.94951 238.03030
247.0 0.00405 157.96675 236.46092
249.0 0.00402 157.98398 234.94667
246.0 0.00407 158.00121 233.48851
245.0 0.00408 158.01842 232.08348
229.0 0.00437 158.03563 230.72919
228.0 0.00439 158.05283 229.42320
244.0 0.00410 158.07001 228.16333
209.0 0.00478 158.08719 226.94742
240.0 0.00417 158.10437 225.77350
229.0 0.00437 158.12154 224.63972
229.0 0.00437 158.13870 223.54437
259.0 0.00386 158.15585 222.48573
215.0 0.00465 158.17300 221.46236
222.0 0.00450 158.19014 220.47270
247.0 0.00405 158.20728 219.51532
198.0 0.00505 158.22440 218.58893
244.0 0.00410 158.24150 217.69243
223.0 0.00448 158.25861 216.82455
250.0 0.00400 158.27571 215.98302
209.0 0.00478 158.29280 215.16911
203.0 0.00493 158.30989 214.38072
223.0 0.00448 158.32695 213.61671
202.0 0.00495 158.34402 212.87642
190.0 0.00526 158.36108 212.15889
210.0 0.00476 158.37813 211.46330
197.0 0.00508 158.39517 210.78848
182.0 0.00549 158.41220 210.13464
216.0 0.00463 158.42923 209.50061
217.0 0.00461 158.44624 208.88579
223.0 0.00448 158.46326 208.28938
217.0 0.00461 158.48026 207.71106
216.0 0.00463 158.49724 207.14993
193.0 0.00518 158.51422 206.60570
197.0 0.00508 158.53119 206.07785
220.0 0.00455 158.54816 205.56580
207.0 0.00483 158.56511 205.06917
198.0 0.00505 158.58206 204.58739
205.0 0.00488 158.59900 204.12019
214.0 0.00467 158.61594 203.66714
215.0 0.00465 158.63284 203.22772
175.0 0.00571 158.64977 202.80174
218.0 0.00459 158.66666 202.38882
194.0 0.00515 158.68356 201.98865
198.0 0.00505 158.70044 201.60086
200.0 0.00500 158.71732 201.22514
215.0 0.00465 158.73418 200.86136
196.0 0.00510 158.75104 200.50893
185.0 0.00541 158.76788 200.16797
191.0 0.00524 158.78473 199.83809
195.0 0.00513 158.80154 199.51907
184.0 0.00543 158.81837 199.21060
188.0 0.00532 158.83517 198.91264
195.0 0.00513 158.85197 198.62491
171.0 0.00585 158.86877 198.34718
196.0 0.00510 158.88556 198.07935
181.0 0.00552 158.90233 197.82132
173.0 0.00578 158.91908 197.57285
183.0 0.00546 158.93584 197.33386
196.0 0.00510 158.95258 197.10416
183.0 0.00546 158.96931 196.88368
221.0 0.00452 158.98604 196.67229
192.0 0.00521 159.00275 196.46989
189.0 0.00529 159.01945 196.27634
173.0 0.00578 159.03615 196.09171
188.0 0.00532 159.05283 195.91573
182.0 0.00549 159.06950 195.74854
190.0 0.00526 159.08617 195.58987
207.0 0.00483 159.10283 195.43996
196.0 0.00510 159.11946 195.29837
194.0 0.00515 159.13609 195.16554
190.0 0.00526 159.15273 195.04092
171.0 0.00585 159.16934 194.92505
166.0 0.00602 159.18593 194.81755
161.0 0.00621 159.20253 194.71857
182.0 0.00549 159.21910 194.48985
192.0 0.00521 159.23567 194.40854
187.0 0.00535 159.25224 194.33575
170.0 0.00588 159.26878 194.27159
174.0 0.00575 159.28532 194.21605
190.0 0.00526 159.30186 194.17567
168.0 0.00595 159.31837 194.13770
183.0 0.00546 159.33488 194.03993
198.0 0.00505 159.35138 194.02013
193.0 0.00518 159.36786 194.00945
193.0 0.00518 159.38434 194.00807
206.0 0.00485 159.40080 194.01595
174.0 0.00575 159.41725 194.03342
190.0 0.00526 159.43370 194.06052
193.0 0.00518 159.45013 194.09752
195.0 0.00513 159.46655 194.14771
178.0 0.00562 159.48296 194.20500
182.0 0.00549 159.49936 194.27271
194.0 0.00515 159.51573 194.35107
177.0 0.00565 159.53212 194.44052
194.0 0.00515 159.54848 194.54115
186.0 0.00538 159.56483 194.65338
184.0 0.00543 159.58118 194.77757
179.0 0.00559 159.59750 194.91386
190.0 0.00526 159.61382 195.06268
202.0 0.00495 159.63013 195.22455
175.0 0.00571 159.64642 195.39992
193.0 0.00518 159.66270 195.58904
167.0 0.00599 159.67897 195.79250
228.0 0.00439 159.69524 196.01079
197.0 0.00508 159.71149 196.24442
182.0 0.00549 159.72772 196.49416
190.0 0.00526 159.74394 196.76038
184.0 0.00543 159.76016 196.16411
208.0 0.00481 159.77635 196.46976
180.0 0.00556 159.79254 196.79408
182.0 0.00549 159.80873 197.13803
192.0 0.00521 159.82489 197.50240
173.0 0.00578 159.84105 197.88818
196.0 0.00510 159.85718 198.29645
188.0 0.00532 159.87331 198.28981
172.0 0.00581 159.88943 198.74828
204.0 0.00490 159.90553 199.23259
181.0 0.00552 159.92163 199.74416
175.0 0.00571 159.93770 200.28458
204.0 0.00490 159.95377 200.85516
195.0 0.00513 159.96983 201.45779
198.0 0.00505 159.98587 202.09418
213.0 0.00469 160.00189 202.76628
187.0 0.00535 160.01791 203.47629
165.0 0.00606 160.03392 204.22646
175.0 0.00571 160.04991 205.12453
199.0 0.00503 160.06589 205.96307
208.0 0.00481 160.08186 206.84964
186.0 0.00538 160.09781 207.78773
207.0 0.00483 160.11375 208.78090
191.0 0.00524 160.12968 209.83267
203.0 0.00493 160.14560 210.94749
193.0 0.00518 160.16150 212.12990
207.0 0.00483 160.17738 213.38521
214.0 0.00467 160.19327 214.71909
219.0 0.00457 160.20912 216.13808
219.0 0.00457 160.22498 217.70236
224.0 0.00446 160.24081 219.31558
214.0 0.00467 160.25664 221.03998
207.0 0.00483 160.27245 222.88721
204.0 0.00490 160.28824 224.87119
213.0 0.00469 160.30402 227.00822
224.0 0.00446 160.31979 229.31824
241.0 0.00415 160.33556 231.82475
232.0 0.00431 160.35129 234.55666
190.0 0.00526 160.36702 237.54872
239.0 0.00418 160.38274 240.84300
276.0 0.00362 160.39844 244.49034
256.0 0.00391 160.41412 248.55165
253.0 0.00395 160.42981 253.09979
280.0 0.00357 160.44547 258.22101
287.0 0.003484 160.46112 264.01669
272.0 0.00368 160.47675 270.60446
291.0 0.003436 160.49237 278.11987
295.0 0.003390 160.50797 286.71631
308.0 0.003247 160.52357 296.56583
352.0 0.002841 160.53914 307.85773
306.0 0.003268 160.55470 320.79791
371.0 0.002695 160.57025 335.60504
344.0 0.002907 160.58580 352.50711
413.0 0.002421 160.60132 371.73672
419.0 0.002387 160.61682 393.52417
375.0 0.002667 160.63231 418.08957
431.0 0.002320 160.64780 445.63498
476.0 0.002101 160.66325 476.33316
515.0 0.001942 160.67871 510.31741
522.0 0.001916 160.69414 547.66852
559.0 0.001789 160.70956 588.40106
583.0 0.001715 160.72496 632.44788
635.0 0.001575 160.74036 679.64075
706.0 0.001416 160.75574 729.69012
768.0 0.001302 160.77110 782.15961
784.0 0.001276 160.78645 836.44000
834.0 0.001199 160.80179 891.72180
971.0 0.001030 160.81709 946.97778
1026.0 0.000975 160.83240 1000.96075
996.0 0.001004 160.84769 1052.23340
1068.0 0.000936 160.86296 1099.24194
1134.0 0.000882 160.87822 1140.43457
1181.0 0.000847 160.89346 1174.42236
1172.0 0.000853 160.90869 1200.13660
1216.0 0.000822 160.92390 1216.95032
1244.0 0.000804 160.93910 1224.71777
1287.0 0.000777 160.95428 1223.71790
1274.0 0.000785 160.96945 1214.52869
1217.0 0.000822 160.98460 1197.87720
1131.0 0.000884 160.99974 1174.51123
1122.0 0.000891 161.01486 1145.13745
1110.0 0.000901 161.02997 1110.42529
1009.0 0.000991 161.04506 1071.05017
1006.0 0.000994 161.06013 1027.75610
949.0 0.001054 161.07520 981.38519
861.0 0.001161 161.09024 932.87457
867.0 0.001153 161.10526 883.20984
815.0 0.001227 161.12029 833.36340
727.0 0.001376 161.13527 784.22876
659.0 0.001517 161.15025 736.57678
642.0 0.001558 161.16522 691.03058
598.0 0.001672 161.18018 648.06128
602.0 0.001661 161.19510 607.99823
544.0 0.001838 161.21002 571.04846
546.0 0.001832 161.22491 537.31610
493.0 0.002028 161.23981 506.82468
466.0 0.002146 161.25467 479.53699
451.0 0.002217 161.26953 455.37268
413.0 0.002421 161.28436 434.22482
388.0 0.002577 161.29918 415.97232
387.0 0.002584 161.31400 400.49078
389.0 0.002571 161.32878 387.65979
376.0 0.002660 161.34355 377.36890
356.0 0.002809 161.35831 369.51892
354.0 0.002825 161.37305 364.27570
337.0 0.002967 161.38777 361.06726
367.0 0.002725 161.40247 360.08429
348.0 0.002874 161.41716 361.27945
329.0 0.003040 161.43182 364.61331
324.0 0.003086 161.44649 370.05124
314.0 0.003185 161.46112 377.55707
346.0 0.002890 161.47575 387.59512
356.0 0.002809 161.49036 399.09277
362.0 0.002762 161.50494 412.47238
375.0 0.002667 161.51952 427.61655
357.0 0.002801 161.53407 444.48859
413.0 0.002421 161.54861 462.62140
422.0 0.002370 161.56313 481.85382
452.0 0.002212 161.57764 501.81949
500.0 0.002000 161.59212 522.06122
541.0 0.001848 161.60658 542.02917
550.0 0.001818 161.62105 561.09009
593.0 0.001686 161.63547 578.80994
664.0 0.001506 161.64990 593.99664
669.0 0.001495 161.66429 606.28430
655.0 0.001527 161.67868 615.19995
671.0 0.001490 161.69304 620.47131
587.0 0.001704 161.70740 622.04492
678.0 0.001475 161.72173 620.05835
655.0 0.001527 161.73604 614.77795
616.0 0.001623 161.75034 606.52612
657.0 0.001522 161.76460 595.62097
589.0 0.001698 161.77887 582.34961
643.0 0.001555 161.79311 566.96979
533.0 0.001876 161.80734 549.37299
508.0 0.001969 161.82153 530.57434
524.0 0.001908 161.83572 510.54160
490.0 0.002041 161.84990 489.65662
422.0 0.002370 161.86404 468.32962
449.0 0.002227 161.87819 446.96854
424.0 0.002358 161.89230 425.94901
392.0 0.002551 161.90640 405.41110
358.0 0.002793 161.92049 385.97522
334.0 0.002994 161.93456 367.64844
298.0 0.003356 161.94859 350.55835
279.0 0.00358 161.96262 334.77859
265.0 0.00377 161.97662 320.33838
294.0 0.003401 161.99062 307.23074
261.0 0.00383 162.00459 295.42160
247.0 0.00405 162.01854 284.85519
229.0 0.00437 162.03247 275.46072
201.0 0.00498 162.04639 267.15738
245.0 0.00408 162.06029 259.85776
241.0 0.00415 162.07416 253.47142
228.0 0.00439 162.08801 247.90814
230.0 0.00435 162.10187 243.07990
222.0 0.00450 162.11568 238.90266
213.0 0.00469 162.12949 235.29779
217.0 0.00461 162.14326 232.24358
222.0 0.00450 162.15704 229.57321
226.0 0.00442 162.17078 227.27870
211.0 0.00474 162.18451 225.30861
214.0 0.00467 162.19823 223.61823
214.0 0.00467 162.21191 222.16924
230.0 0.00435 162.22559 220.92906
206.0 0.00485 162.23923 219.87068
210.0 0.00476 162.25287 218.97139
205.0 0.00488 162.26648 218.21268
191.0 0.00524 162.28008 217.57971
207.0 0.00483 162.29364 217.08571
171.0 0.00585 162.30721 216.67065
234.0 0.00427 162.32074 216.35263
217.0 0.00461 162.33424 216.12587
209.0 0.00478 162.34775 215.98653
223.0 0.00448 162.36122 215.93164
169.0 0.00592 162.37468 215.95973
209.0 0.00478 162.38812 216.07036
193.0 0.00518 162.40154 216.26392
215.0 0.00465 162.41493 216.54175
213.0 0.00469 162.42831 216.90660
179.0 0.00559 162.44167 217.36191
185.0 0.00541 162.45502 217.91283
178.0 0.00562 162.46834 218.61293
213.0 0.00469 162.48163 219.37648
242.0 0.00413 162.49490 220.26105
214.0 0.00467 162.50816 221.27989
234.0 0.00427 162.52141 222.44910
200.0 0.00500 162.53462 223.78874
226.0 0.00442 162.54782 225.32341
231.0 0.00433 162.56100 227.08241
224.0 0.00446 162.57416 229.10135
222.0 0.00450 162.58730 231.42210
229.0 0.00437 162.60042 234.09418
243.0 0.00412 162.61351 237.19843
220.0 0.00455 162.62659 240.75394
248.0 0.00403 162.63965 244.85889
258.0 0.00388 162.65268 249.59671
233.0 0.00429 162.66570 255.05930
266.0 0.00376 162.67870 261.34625
241.0 0.00415 162.69167 268.56348
277.0 0.00361 162.70462 276.82083
281.0 0.00356 162.71754 286.23068
290.0 0.003448 162.73047 296.90375
292.0 0.003425 162.74335 308.94666
305.0 0.003279 162.75623 322.45639
330.0 0.003030 162.76907 337.51691
332.0 0.003012 162.78189 354.19281
356.0 0.002809 162.79471 372.52457
345.0 0.002899 162.80750 392.52155
369.0 0.002710 162.82025 414.15524
395.0 0.002532 162.83299 437.35013
450.0 0.002222 162.84572 461.97559
499.0 0.002004 162.85843 487.83340
449.0 0.002227 162.87111 514.64648
524.0 0.001908 162.88376 542.04614
510.0 0.001961 162.89639 569.56342
614.0 0.001629 162.90901 596.62451
646.0 0.001548 162.92162 622.56244
608.0 0.001645 162.93419 646.64307
667.0 0.001499 162.94673 668.11639
706.0 0.001416 162.95926 686.28619
675.0 0.001481 162.97177 700.58545
673.0 0.001486 162.98425 710.64294
720.0 0.001389 162.99672 716.31549
694.0 0.001441 163.00917 717.67749
691.0 0.001447 163.02159 714.97290
739.0 0.001353 163.03398 708.76471
661.0 0.001513 163.04637 698.97504
662.0 0.001511 163.05873 686.17316
660.0 0.001515 163.07106 670.67090
644.0 0.001553 163.08337 652.75732
641.0 0.001560 163.09566 632.72852
637.0 0.001570 163.10793 610.91760
565.0 0.001770 163.12016 587.80981
528.0 0.001894 163.13240 563.63538
505.0 0.001980 163.14459 538.95184
481.0 0.002079 163.15677 514.20966
447.0 0.002237 163.16893 489.93567
401.0 0.002494 163.18106 466.26645
431.0 0.002320 163.19318 443.60269
397.0 0.002519 163.20526 422.16376
347.0 0.002882 163.21733 402.10300
375.0 0.002667 163.22937 383.51569
311.0 0.003215 163.24141 366.44800
305.0 0.003279 163.25340 350.90649
295.0 0.003390 163.26538 336.91675
292.0 0.003425 163.27733 324.32938
297.0 0.003367 163.28926 313.12839
280.0 0.00357 163.30116 301.91238
290.0 0.003448 163.31305 293.24301
251.0 0.00398 163.32492 285.70135
277.0 0.00361 163.33676 279.19397
253.0 0.00395 163.34857 273.62836
267.0 0.00375 163.36037 268.91565
236.0 0.00424 163.37213 264.97144
242.0 0.00413 163.38388 261.71747
264.0 0.00379 163.39561 258.42487
236.0 0.00424 163.40732 256.26004
256.0 0.00391 163.41899 254.68314
250.0 0.00400 163.43065 253.55867
216.0 0.00463 163.44228 252.84779
243.0 0.00412 163.45389 252.51988
243.0 0.00412 163.46547 252.55276
229.0 0.00437 163.47704 252.93250
258.0 0.00388 163.48857 253.65387
236.0 0.00424 163.50008 254.67639
273.0 0.00366 163.51158 256.10010
256.0 0.00391 163.52304 257.99030
255.0 0.00392 163.53448 260.20471
287.0 0.003484 163.54591 262.87308
260.0 0.00385 163.55730 266.05011
283.0 0.00353 163.56868 269.80273
286.0 0.003497 163.58002 274.21130
302.0 0.003311 163.59135 279.36990
273.0 0.00366 163.60265 285.38721
280.0 0.00357 163.61392 292.38596
296.0 0.003378 163.62518 300.50320
294.0 0.003401 163.63641 309.88852
344.0 0.002907 163.64761 320.70264
332.0 0.003012 163.65880 333.11560
300.0 0.003333 163.66995 347.30191
388.0 0.002577 163.68108 363.43823
401.0 0.002494 163.69220 381.69659
419.0 0.002387 163.70328 402.23926
461.0 0.002169 163.71434 425.21194
462.0 0.002165 163.72537 450.73666
407.0 0.002457 163.73637 478.90286
469.0 0.002132 163.74736 509.75848
504.0 0.001984 163.75833 543.30017
540.0 0.001852 163.76927 579.46143
595.0 0.001681 163.78018 618.09869
605.0 0.001653 163.79106 658.97845
652.0 0.001534 163.80193 701.75580
698.0 0.001433 163.81277 745.95917
734.0 0.001362 163.82358 791.16809
813.0 0.001230 163.83437 836.25775
805.0 0.001242 163.84514 880.38336
898.0 0.001114 163.85588 922.51306
971.0 0.001030 163.86659 961.47095
973.0 0.001028 163.87727 996.07001
974.0 0.001027 163.88794 1025.22339
1011.0 0.000989 163.89859 1048.05920
1046.0 0.000956 163.90919 1064.02405
1076.0 0.000929 163.91978 1072.92126
1080.0 0.000926 163.93034 1074.89734
1112.0 0.000899 163.94089 1070.35706
1008.0 0.000992 163.95140 1059.85388
997.0 0.001003 163.96190 1044.00391
1012.0 0.000988 163.97235 1023.31158
982.0 0.001018 163.98280 998.29248
918.0 0.001089 163.99321 969.39276
962.0 0.001040 164.00359 937.05988
898.0 0.001114 164.01396 901.79047
864.0 0.001157 164.02429 864.16290
756.0 0.001323 164.03461 824.83551
724.0 0.001381 164.04489 784.51923
671.0 0.001490 164.05515 743.93079
691.0 0.001447 164.06538 703.74493
652.0 0.001534 164.07559 664.55731
584.0 0.001712 164.08577 626.86230
558.0 0.001792 164.09592 591.04346
529.0 0.001890 164.10605 557.38007
461.0 0.002169 164.11615 526.05566
448.0 0.002232 164.12624 497.17365
440.0 0.002273 164.13629 470.77060
432.0 0.002315 164.14632 446.83102
404.0 0.002475 164.15631 425.29877
389.0 0.002571 164.16629 406.08768
365.0 0.002740 164.17624 389.09061
370.0 0.002703 164.18616 374.18729
376.0 0.002660 164.19606 361.25049
326.0 0.003067 164.20592 350.34888
314.0 0.003185 164.21577 340.96759
348.0 0.002874 164.22559 333.18692
327.0 0.003058 164.23537 326.90463
332.0 0.003012 164.24513 321.16339
316.0 0.003165 164.25487 317.63889
333.0 0.003003 164.26459 315.40939
328.0 0.003049 164.27426 314.44882
337.0 0.002967 164.28392 314.75369
328.0 0.003049 164.29356 316.34418
286.0 0.003497 164.30316 319.26337
346.0 0.002890 164.31274 323.57544
345.0 0.002899 164.32230 329.46338
362.0 0.002762 164.33182 336.83389
356.0 0.002809 164.34131 345.90015
378.0 0.002646 164.35078 356.78784
356.0 0.002809 164.36023 369.62653
399.0 0.002506 164.36964 384.54459
356.0 0.002809 164.37903 401.66196
414.0 0.002415 164.38840 421.08307
423.0 0.002364 164.39772 442.88937
417.0 0.002398 164.40703 467.13022
462.0 0.002165 164.41632 493.81403
479.0 0.002088 164.42557 522.89844
503.0 0.001988 164.43480 554.27893
503.0 0.001988 164.44398 587.77667
574.0 0.001742 164.45317 623.12341
590.0 0.001695 164.46231 659.94629
640.0 0.001563 164.47142 697.75098
773.0 0.001294 164.48051 735.90717
761.0 0.001314 164.48958 773.64520
850.0 0.001176 164.49861 810.06152
810.0 0.001235 164.50761 844.15399
913.0 0.001095 164.51660 874.88354
914.0 0.001094 164.52554 901.26508
917.0 0.001091 164.53447 922.47327
939.0 0.001065 164.54337 937.93970
975.0 0.001026 164.55225 947.41187
1031.0 0.000970 164.56108 950.95392
922.0 0.001085 164.56989 948.88800
934.0 0.001071 164.57867 941.69702
934.0 0.001071 164.58743 929.91962
888.0 0.001126 164.59616 914.06696
857.0 0.001167 164.60486 894.58203
828.0 0.001208 164.61354 871.84332
785.0 0.001274 164.62218 846.20294
789.0 0.001267 164.63080 818.03412
756.0 0.001323 164.63939 787.77295
758.0 0.001319 164.64795 755.93188
686.0 0.001458 164.65648 723.08710
645.0 0.001550 164.66498 689.84106
632.0 0.001582 164.67346 656.77722
589.0 0.001698 164.68190 624.42072
568.0 0.001761 164.69032 593.20856
555.0 0.001802 164.69872 563.47778
500.0 0.002000 164.70708 535.46423
455.0 0.002198 164.71541 509.30969
478.0 0.002092 164.72371 485.07770
469.0 0.002132 164.73199 462.76813
439.0 0.002278 164.74023 442.33624
377.0 0.002653 164.74846 423.70685
418.0 0.002392 164.75665 406.78894
425.0 0.002353 164.76482 391.48404
354.0 0.002825 164.77293 377.69147
380.0 0.002632 164.78104 365.30945
345.0 0.002899 164.78912 354.23529
354.0 0.002825 164.79716 344.36456
339.0 0.002950 164.80518 335.59241
339.0 0.002950 164.81317 327.81470
332.0 0.003012 164.82114 320.93250
354.0 0.002825 164.82906 314.85623
303.0 0.003300 164.83696 309.50876
310.0 0.003226 164.84483 304.82813
323.0 0.003096 164.85268 300.76791
309.0 0.003236 164.86049 297.29663
296.0 0.003378 164.86827 294.39557
311.0 0.003215 164.87602 292.05688
314.0 0.003185 164.88376 290.28207
301.0 0.003322 164.89145 289.08096
280.0 0.00357 164.89912 288.47171
302.0 0.003311 164.90675 288.48001
303.0 0.003300 164.91437 289.14139
324.0 0.003086 164.92194 290.50012
295.0 0.003390 164.92949 292.61020
302.0 0.003311 164.93701 295.53616
334.0 0.002994 164.94450 299.35297
299.0 0.003344 164.95197 304.14542
324.0 0.003086 164.95940 310.00833
352.0 0.002841 164.96680 317.04520
313.0 0.003195 164.97417 325.36673
298.0 0.003356 164.98151 335.08932
350.0 0.002857 164.98882 346.33197
361.0 0.002770 164.99609 359.21378
363.0 0.002755 165.00336 373.85022
372.0 0.002688 165.01057 390.34933
393.0 0.002545 165.01776 408.80624
409.0 0.002445 165.02493 429.29926
440.0 0.002273 165.03206 451.88339
456.0 0.002193 165.03915 476.58423
467.0 0.002141 165.04623 503.39114
458.0 0.002183 165.05327 532.24902
557.0 0.001795 165.06029 563.04846
559.0 0.001789 165.06726 595.61554
618.0 0.001618 165.07422 629.69983
624.0 0.001603 165.08113 664.95898
700.0 0.001429 165.08803 700.95123
712.0 0.001404 165.09488 737.11035
682.0 0.001466 165.10172 772.76263
826.0 0.001211 165.10852 807.12323
819.0 0.001221 165.11528 839.32672
855.0 0.001170 165.12202 868.47845
908.0 0.001101 165.12872 893.72412
965.0 0.001036 165.13541 914.33221
963.0 0.001038 165.14204 929.76910
958.0 0.001044 165.14867 939.75171
885.0 0.001130 165.15524 944.25598
944.0 0.001059 165.16180 943.48462
935.0 0.001070 165.16833 937.79681
897.0 0.001115 165.17482 927.63171
858.0 0.001166 165.18127 913.42822
892.0 0.001121 165.18771 895.59204
925.0 0.001081 165.19411 874.47534
808.0 0.001238 165.20049 850.39728
772.0 0.001295 165.20682 823.67645
777.0 0.001287 165.21312 794.66791
749.0 0.001335 165.21941 763.78442
722.0 0.001385 165.22565 731.49878
620.0 0.001613 165.23186 698.32623
616.0 0.001623 165.23804 664.79614
605.0 0.001653 165.24419 631.41479
532.0 0.001880 165.25031 598.64026
518.0 0.001931 165.25639 566.86206
474.0 0.002110 165.26245 536.39172
461.0 0.002169 165.26848 507.46411
468.0 0.002137 165.27448 480.24261
453.0 0.002208 165.28044 454.82733
387.0 0.002584 165.28638 431.26587
368.0 0.002717 165.29228 409.56244
349.0 0.002865 165.29814 389.68680
341.0 0.002933 165.30399 371.58224
334.0 0.002994 165.30978 355.17130
345.0 0.002899 165.31557 340.36224
319.0 0.003135 165.32130 327.05319
292.0 0.003425 165.32701 315.13565
278.0 0.00360 165.33270 304.49881
308.0 0.003247 165.33835 295.03116
288.0 0.003472 165.34396 286.62299
249.0 0.00402 165.34955 279.16891
255.0 0.00392 165.35509 272.56827
293.0 0.003413 165.36061 266.72684
247.0 0.00405 165.36610 261.55688
276.0 0.00362 165.37157 256.97842
235.0 0.00426 165.37698 252.91890
232.0 0.00431 165.38237 249.31302
249.0 0.00402 165.38774 246.10286
246.0 0.00407 165.39307 243.23735
237.0 0.00422 165.39836 240.67181
245.0 0.00408 165.40363 238.36743
222.0 0.00450 165.40886 236.29091
223.0 0.00448 165.41406 234.41359
215.0 0.00465 165.41922 232.71097
208.0 0.00481 165.42436 231.16246
203.0 0.00493 165.42946 229.75041
229.0 0.00437 165.43454 228.45998
236.0 0.00424 165.43958 227.27853
229.0 0.00437 165.44458 226.19551
221.0 0.00452 165.44955 225.20210
233.0 0.00429 165.45450 224.29034
207.0 0.00483 165.45940 223.45406
217.0 0.00461 165.46428 222.68756
214.0 0.00467 165.46912 221.98607
217.0 0.00461 165.47394 221.34532
221.0 0.00452 165.47871 220.76180
203.0 0.00493 165.48346 220.23282
190.0 0.00526 165.48817 219.75484
206.0 0.00485 165.49284 219.32593
214.0 0.00467 165.49750 218.94394
220.0 0.00455 165.50212 218.60707
221.0 0.00452 165.50670 218.31374
204.0 0.00490 165.51125 218.06265
214.0 0.00467 165.51576 217.85274
174.0 0.00575 165.52025 217.68292
209.0 0.00478 165.52469 217.55295
205.0 0.00488 165.52911 217.46204
214.0 0.00467 165.53349 217.41016
233.0 0.00429 165.53786 217.39743
203.0 0.00493 165.54218 217.42442
204.0 0.00490 165.54645 217.49133
223.0 0.00448 165.55070 217.59949
198.0 0.00505 165.55493 217.75008
187.0 0.00535 165.55911 217.94492
240.0 0.00417 165.56326 218.18608
185.0 0.00541 165.56738 218.47629
184.0 0.00543 165.57147 218.81827
217.0 0.00461 165.57553 219.21564
206.0 0.00485 165.57954 219.67215
199.0 0.00503 165.58353 220.19209
242.0 0.00413 165.58748 220.78033
201.0 0.00498 165.59140 221.44186
213.0 0.00469 165.59529 222.18172
204.0 0.00490 165.59915 223.00558
208.0 0.00481 165.60297 223.91901
232.0 0.00431 165.60675 224.92749
228.0 0.00439 165.61050 226.03636
210.0 0.00476 165.61421 227.25040
230.0 0.00435 165.61790 228.57402
205.0 0.00488 165.62155 230.01079
208.0 0.00481 165.62517 231.56340
211.0 0.00474 165.62875 233.23300
227.0 0.00441 165.63231 235.01944
208.0 0.00481 165.63583 236.92065
238.0 0.00420 165.63931 238.93237
221.0 0.00452 165.64276 241.04752
231.0 0.00433 165.64618 243.25595
265.0 0.00377 165.64955 245.54378
226.0 0.00442 165.65291 247.89294
227.0 0.00441 165.65622 250.28105
241.0 0.00415 165.65950 252.68153
245.0 0.00408 165.66273 255.06390
264.0 0.00379 165.66595 257.39581
253.0 0.00395 165.66913 259.64502
257.0 0.00389 165.67227 261.78268
241.0 0.00415 165.67538 263.78601
264.0 0.00379 165.67847 265.64224
238.0 0.00420 165.68150 267.34900
270.0 0.00370 165.68451 268.91504
277.0 0.00361 165.68748 270.35797
275.0 0.00364 165.69041 271.70200
292.0 0.003425 165.69333 272.97482
284.0 0.00352 165.69620 274.20560
292.0 0.003425 165.69904 275.42285
306.0 0.003268 165.70183 276.65540
271.0 0.00369 165.70461 277.93347
247.0 0.00405 165.70734 279.29025
303.0 0.003300 165.71002 280.76410
255.0 0.00392 165.71269 282.39972
294.0 0.003401 165.71532 284.38986
294.0 0.003401 165.71793 286.51221
281.0 0.00356 165.72047 288.97232
287.0 0.003484 165.72301 291.84015
299.0 0.003344 165.72549 295.19003
305.0 0.003279 165.72795 299.09988
286.0 0.003497 165.73038 303.64981
311.0 0.003215 165.73276 308.92297
322.0 0.003106 165.73512 315.00366
360.0 0.002778 165.73744 321.97720
346.0 0.002890 165.73972 329.92969
373.0 0.002681 165.74197 338.94556
376.0 0.002660 165.74419 349.10672
348.0 0.002874 165.74637 360.56064
378.0 0.002646 165.74850 373.01111
382.0 0.002618 165.75061 387.04248
412.0 0.002427 165.75269 402.47534
426.0 0.002347 165.75473 419.34241
446.0 0.002242 165.75673 437.65640
465.0 0.002151 165.75871 457.40610
458.0 0.002183 165.76064 478.55225
487.0 0.002053 165.76254 501.02130
501.0 0.001996 165.76440 524.69891
536.0 0.001866 165.76624 549.30975
585.0 0.001709 165.76804 574.86133
573.0 0.001745 165.76979 600.95850
617.0 0.001621 165.77151 627.24963
647.0 0.001546 165.77321 653.31213
748.0 0.001337 165.77486 678.65869
729.0 0.001372 165.77647 702.75519
764.0 0.001309 165.77806 725.04993
792.0 0.001263 165.77962 745.01685
803.0 0.001245 165.78113 762.20502
786.0 0.001272 165.78261 776.28461
861.0 0.001161 165.78404 787.08087
828.0 0.001208 165.78546 794.58167
809.0 0.001236 165.78683 798.92126
881.0 0.001135 165.78816 800.34290
802.0 0.001247 165.78947 799.14575
811.0 0.001233 165.79074 795.64075
819.0 0.001221 165.79196 790.12378
806.0 0.001241 165.79317 782.84973
803.0 0.001245 165.79433 774.04773
827.0 0.001209 165.79544 763.93848
838.0 0.001193 165.79654 752.75916
796.0 0.001256 165.79759 740.78668
775.0 0.001290 165.79861 728.35065
784.0 0.001276 165.79959 715.83228
773.0 0.001294 165.80054 703.53125
744.0 0.001344 165.80145 692.14709
752.0 0.001330 165.80232 682.05786
709.0 0.001410 165.80316 673.62585
711.0 0.001406 165.80397 667.33771
726.0 0.001377 165.80473 663.62079
738.0 0.001355 165.80547 662.89227
700.0 0.001429 165.80617 665.56506
725.0 0.001379 165.80684 672.05493
772.0 0.001295 165.80746 682.78656
847.0 0.001181 165.80804 698.19818
805.0 0.001242 165.80859 718.74609
793.0 0.001261 165.80911 744.90338
849.0 0.001178 165.80960 777.15955
876.0 0.001142 165.81004 816.01379
902.0 0.001109 165.81046 861.96906
964.0 0.001037 165.81084 915.54285
1007.0 0.000993 165.81117 977.16357
1068.0 0.000936 165.81148 1047.29028
1119.0 0.000894 165.81174 1126.30298
1244.0 0.000804 165.81198 1214.50256
1262.0 0.000792 165.81216 1312.08728
1361.0 0.000735 165.81233 1419.12085
1423.0 0.000703 165.81245 1535.50293
1587.0 0.000630 165.81255 1660.93115
1755.0 0.000570 165.81259 1794.85962
1837.0 0.000544 165.81261 1936.46265
1955.0 0.000512 165.81258 2084.59277
2140.0 0.000467 165.81253 2237.80322
2362.0 0.000423 165.81244 2394.14526
2544.0 0.000393 165.81230 2551.48047
2719.0 0.000368 165.81213 2707.33936
2831.0 0.000353 165.81194 2859.06616
2955.0 0.0003384 165.81169 3003.92529
3059.0 0.0003269 165.81142 3139.20923
3189.0 0.0003136 165.81111 3262.33228
3404.0 0.0002938 165.81076 3370.88916
3489.0 0.0002866 165.81038 3462.69434
3515.0 0.0002845 165.80997 3535.84058
3703.0 0.0002701 165.80951 3588.77832
3734.0 0.0002678 165.80901 3620.44141
3575.0 0.0002797 165.80849 3630.37793
3655.0 0.0002736 165.80792 3618.73218
3489.0 0.0002866 165.80731 3586.37524
3437.0 0.0002910 165.80667 3534.71240
3354.0 0.0002982 165.80600 3465.53638
3340.0 0.0002994 165.80530 3380.84204
3205.0 0.0003120 165.80455 3282.64868
3071.0 0.0003256 165.80376 3172.87500
2946.0 0.0003394 165.80295 3053.28247
2888.0 0.0003463 165.80208 2925.49097
2774.0 0.000360 165.80119 2791.04102
2644.0 0.000378 165.80026 2651.47754
2420.0 0.000413 165.79930 2508.41064
2158.0 0.000463 165.79829 2363.52954
2174.0 0.000460 165.79726 2218.57520
1979.0 0.000505 165.79617 2075.25952
1844.0 0.000542 165.79506 1935.18250
1655.0 0.000604 165.79391 1799.75061
1643.0 0.000609 165.79272 1670.12732
1496.0 0.000668 165.79150 1547.20776
1378.0 0.000726 165.79025 1431.62427
1319.0 0.000758 165.78896 1323.76758
1244.0 0.000804 165.78763 1223.81689
1135.0 0.000881 165.78625 1131.77722
1045.0 0.000957 165.78485 1047.51074
1036.0 0.000965 165.78340 970.77087
925.0 0.001081 165.78192 901.22876
855.0 0.001170 165.78041 838.49518
852.0 0.001174 165.77885 782.14117
785.0 0.001274 165.77727 731.71405
711.0 0.001406 165.77563 686.75055
733.0 0.001364 165.77397 646.78857
741.0 0.001350 165.77228 611.37524
681.0 0.001468 165.77054 580.07562
632.0 0.001582 165.76877 552.47638
613.0 0.001631 165.76695 528.19257
595.0 0.001681 165.76511 506.86914
531.0 0.001883 165.76323 488.18369
543.0 0.001842 165.76131 471.84677
527.0 0.001898 165.75935 457.60345
570.0 0.001754 165.75735 445.23151
476.0 0.002101 165.75533 434.54126
536.0 0.001866 165.75325 425.37387
483.0 0.002070 165.75114 417.59918
473.0 0.002114 165.74901 411.11398
425.0 0.002353 165.74683 405.83945
460.0 0.002174 165.74461 401.71863
415.0 0.002410 165.74236 398.71402
469.0 0.002132 165.74007 396.80417
436.0 0.002294 165.73773 395.98239
479.0 0.002088 165.73537 396.25256
427.0 0.002342 165.73297 397.62653
450.0 0.002222 165.73053 400.12265
432.0 0.002315 165.72806 403.76093
406.0 0.002463 165.72554 408.56198
458.0 0.002183 165.72299 414.78159
450.0 0.002222 165.72041 421.95538
475.0 0.002105 165.71779 430.32260
411.0 0.002433 165.71513 439.87274
461.0 0.002169 165.71243 450.57886
494.0 0.002024 165.70970 462.39157
512.0 0.001953 165.70692 475.23685
502.0 0.001992 165.70412 489.00864
512.0 0.001953 165.70126 503.56488
569.0 0.001757 165.69838 518.72491
552.0 0.001812 165.69547 534.26978
611.0 0.001637 165.69250 549.94659
569.0 0.001757 165.68951 565.48212
677.0 0.001477 165.68648 580.60260
660.0 0.001515 165.68341 595.05737
650.0 0.001538 165.68030 608.76349
672.0 0.001488 165.67717 621.34436
624.0 0.001603 165.67398 632.85046
631.0 0.001585 165.67076 643.27130
646.0 0.001548 165.66751 652.62939
707.0 0.001414 165.66422 660.94684
686.0 0.001458 165.66089 668.21729
688.0 0.001453 165.65752 674.38153
725.0 0.001379 165.65411 679.31891
690.0 0.001449 165.65068 682.85529
751.0 0.001332 165.64720 684.78333
693.0 0.001443 165.64369 684.89752
695.0 0.001439 165.64014 683.03210
664.0 0.001506 165.63654 679.09497
674.0 0.001484 165.63292 673.09052
654.0 0.001529 165.62926 665.12720
652.0 0.001534 165.62555 655.40088
679.0 0.001473 165.62181 644.17065
654.0 0.001529 165.61804 631.72107
631.0 0.001585 165.61423 618.33112
553.0 0.001808 165.61037 604.24762
629.0 0.001590 165.60649 589.67242
587.0 0.001704 165.60255 574.75983
557.0 0.001795 165.59860 559.62543
544.0 0.001838 165.59459 544.36182
555.0 0.001802 165.59056 529.05316
522.0 0.001916 165.58649 513.79132
510.0 0.001961 165.58238 498.71326
484.0 0.002066 165.57823 483.87253
458.0 0.002183 165.57404 469.42975
500.0 0.002000 165.56982 455.51312
452.0 0.002212 165.56555 442.24234
460.0 0.002174 165.56126 429.72101
462.0 0.002165 165.55693 418.03244
429.0 0.002331 165.55255 407.23895
419.0 0.002387 165.54814 397.38248
397.0 0.002519 165.54370 388.48700
441.0 0.002268 165.53922 380.56244
458.0 0.002183 165.53468 373.60773
413.0 0.002421 165.53014 367.61435
428.0 0.002336 165.52553 362.46747
408.0 0.002451 165.52090 358.37369
416.0 0.002404 165.51624 355.18451
401.0 0.002494 165.51152 352.90652
399.0 0.002506 165.50677 351.53491
420.0 0.002381 165.50200 351.20462
432.0 0.002315 165.49718 351.66403
412.0 0.002427 165.49231 353.06729
431.0 0.002320 165.48743 355.44922
405.0 0.002469 165.48248 358.80801
425.0 0.002353 165.47752 363.30930
473.0 0.002114 165.47252 368.98074
470.0 0.002128 165.46747 375.91922
468.0 0.002137 165.46239 384.23788
469.0 0.002132 165.45728 394.06674
498.0 0.002008 165.45212 405.55130
498.0 0.002008 165.44693 418.85306
514.0 0.001946 165.44170 434.14529
546.0 0.001832 165.43643 451.61182
544.0 0.001838 165.43112 471.50943
579.0 0.001727 165.42578 493.90076
547.0 0.001828 165.42039 519.04291
653.0 0.001531 165.41498 547.12067
649.0 0.001541 165.40953 578.30505
646.0 0.001548 165.40404 612.74670
672.0 0.001488 165.39851 650.56818
736.0 0.001359 165.39294 691.85504
770.0 0.001299 165.38734 736.64771
808.0 0.001238 165.38170 784.92877
854.0 0.001171 165.37602 836.61182
890.0 0.001124 165.37032 891.52747
922.0 0.001085 165.36456 949.40643
1022.0 0.000978 165.35876 1009.86426
1062.0 0.000942 165.35294 1072.38245
1069.0 0.000935 165.34708 1136.29346
1219.0 0.000820 165.34119 1200.77698
1217.0 0.000822 165.33524 1264.85925
1310.0 0.000763 165.32927 1327.43921
1377.0 0.000726 165.32326 1387.33350
1394.0 0.000717 165.31720 1443.34351
1525.0 0.000656 165.31111 1494.34265
1515.0 0.000660 165.30499 1539.35986
1547.0 0.000646 165.29883 1577.64905
1607.0 0.000622 165.29263 1608.72314
1608.0 0.000622 165.28639 1632.34167
1619.0 0.000618 165.28012 1648.46631
1696.0 0.000590 165.27382 1657.19250
1670.0 0.000599 165.26747 1658.68555
1690.0 0.000592 165.26109 1653.13879
1574.0 0.000635 165.25467 1640.75684
1493.0 0.000670 165.24821 1621.76917
1593.0 0.000628 165.24171 1596.45923
1586.0 0.000631 165.23518 1565.19409
1508.0 0.000663 165.22861 1528.44812
1491.0 0.000671 165.22202 1486.80823
1421.0 0.000704 165.21536 1440.95630
1297.0 0.000771 165.20868 1391.64429
1324.0 0.000755 165.20197 1339.64624
1294.0 0.000773 165.19521 1285.72424
1170.0 0.000855 165.18842 1230.59680
1173.0 0.000853 165.18159 1174.92346
1096.0 0.000912 165.17473 1119.30298
1080.0 0.000926 165.16783 1064.27478
1009.0 0.000991 165.16089 1010.32843
979.0 0.001021 165.15392 957.90607
882.0 0.001134 165.14690 907.40143
931.0 0.001074 165.13985 859.15552
834.0 0.001199 165.13275 813.45160
831.0 0.001203 165.12564 770.51166
743.0 0.001346 165.11847 730.49744
693.0 0.001443 165.11128 693.51263
725.0 0.001379 165.10403 659.60968
669.0 0.001495 165.09677 628.79865
597.0 0.001675 165.08946 601.05511
591.0 0.001692 165.08212 576.33032
612.0 0.001634 165.07474 554.55865
629.0 0.001590 165.06732 535.66583
672.0 0.001488 165.05986 519.57629
568.0 0.001761 165.05237 506.21753
623.0 0.001605 165.04485 495.52567
582.0 0.001718 165.03728 487.27209
545.0 0.001835 165.02966 481.77502
590.0 0.001695 165.02203 478.83667
574.0 0.001742 165.01436 478.45493
548.0 0.001825 165.00664 480.64557
593.0 0.001686 164.99889 485.44104
598.0 0.001672 164.99110 492.88892
587.0 0.001704 164.98328 503.04941
615.0 0.001626 164.97542 515.99115
544.0 0.001838 164.96753 531.69977
592.0 0.001689 164.95959 550.42572
660.0 0.001515 164.95163 572.14752
663.0 0.001508 164.94362 596.92102
676.0 0.001479 164.93558 624.78235
739.0 0.001353 164.92751 655.74268
754.0 0.001326 164.91939 689.77789
762.0 0.001312 164.91122 726.82123
760.0 0.001316 164.90305 766.75262
817.0 0.001224 164.89482 809.38745
866.0 0.001155 164.88655 854.46539
870.0 0.001149 164.87825 901.63306
977.0 0.001024 164.86992 950.43158
1017.0 0.000983 164.86156 1000.28223
1036.0 0.000965 164.85315 1050.47339
1180.0 0.000847 164.84470 1100.15881
1135.0 0.000881 164.83623 1148.36658
1221.0 0.000819 164.82771 1194.02734
1265.0 0.000791 164.81915 1236.02454
1284.0 0.000779 164.81056 1273.26746
1338.0 0.000747 164.80194 1304.62366
1420.0 0.000704 164.79327 1329.64465
1386.0 0.000722 164.78458 1347.68274
1378.0 0.000726 164.77585 1358.56555
1367.0 0.000732 164.76707 1362.42822
1445.0 0.000692 164.75827 1359.65674
1342.0 0.000745 164.74944 1350.80212
1334.0 0.000750 164.74055 1336.48267
1371.0 0.000729 164.73164 1317.30017
1250.0 0.000800 164.72269 1293.78076
1192.0 0.000839 164.71370 1266.35022
1205.0 0.000830 164.70468 1235.34570
1160.0 0.000862 164.69562 1201.04993
1216.0 0.000822 164.68652 1163.74585
1094.0 0.000914 164.67740 1123.75610
1059.0 0.000944 164.66823 1081.48145
1035.0 0.000966 164.65903 1037.40930
943.0 0.001060 164.64980 992.10059
961.0 0.001041 164.64052 946.15930
869.0 0.001151 164.63121 900.22046
827.0 0.001209 164.62187 854.80994
803.0 0.001245 164.61249 810.46881
721.0 0.001387 164.60307 767.63348
738.0 0.001355 164.59361 726.65344
719.0 0.001391 164.58412 687.79211
656.0 0.001524 164.57460 651.23511
622.0 0.001608 164.56505 617.09833
619.0 0.001616 164.55545 585.44006
575.0 0.001739 164.54581 556.27063
568.0 0.001761 164.53615 529.56305
553.0 0.001808 164.52644 505.26041
548.0 0.001825 164.51671 483.28372
506.0 0.001976 164.50693 463.53818
538.0 0.001859 164.49713 445.91830
484.0 0.002066 164.48727 430.31296
524.0 0.001908 164.47740 416.64294
473.0 0.002114 164.46748 404.72879
493.0 0.002028 164.45753 394.49796
418.0 0.002392 164.44756 385.85114
444.0 0.002252 164.43753 378.69928
451.0 0.002217 164.42747 372.96500
422.0 0.002370 164.41737 368.58533
430.0 0.002326 164.40726 365.51202
449.0 0.002227 164.39709 363.71317
431.0 0.002320 164.38690 363.17352
437.0 0.002288 164.37666 363.89545
413.0 0.002421 164.36639 365.89795
412.0 0.002427 164.35609 369.21738
456.0 0.002193 164.34576 373.90540
428.0 0.002336 164.33539 380.02859
452.0 0.002212 164.32498 387.66602
451.0 0.002217 164.31454 396.90744
496.0 0.002016 164.30406 407.85062
476.0 0.002101 164.29355 420.59845
453.0 0.002208 164.28300 435.25507
476.0 0.002101 164.27242 451.92233
500.0 0.002000 164.26181 470.69608
500.0 0.002000 164.25114 491.66031
593.0 0.001686 164.24046 514.88367
573.0 0.001745 164.22975 540.41388
639.0 0.001565 164.21899 568.27173
648.0 0.001543 164.20821 598.49316
604.0 0.001656 164.19737 630.93152
659.0 0.001517 164.18652 665.53564
725.0 0.001379 164.17563 702.15076
717.0 0.001395 164.16470 740.55579
815.0 0.001227 164.15373 780.45233
840.0 0.001190 164.14273 821.45264
836.0 0.001196 164.13170 863.07031
908.0 0.001101 164.12064 904.71179
968.0 0.001033 164.10954 945.67615
967.0 0.001034 164.09840 985.16644
973.0 0.001028 164.08723 1022.31586
1084.0 0.000923 164.07603 1056.23181
1144.0 0.000874 164.06480 1086.05823
1132.0 0.000883 164.05353 1111.04651
1189.0 0.000841 164.04222 1130.62622
1165.0 0.000858 164.03088 1144.45764
1143.0 0.000875 164.01952 1152.45422
1184.0 0.000845 164.00810 1154.76868
1150.0 0.000870 163.99666 1151.74390
1139.0 0.000878 163.98520 1143.84326
1120.0 0.000893 163.97368 1131.57324
1056.0 0.000947 163.96214 1115.41687
1032.0 0.000969 163.95056 1095.79089
1015.0 0.000985 163.93895 1073.02808
1017.0 0.000983 163.92731 1047.38660
1075.0 0.000930 163.91563 1019.07813
988.0 0.001012 163.90393 988.30731
922.0 0.001085 163.89218 955.31207
891.0 0.001122 163.88040 920.38965
909.0 0.001100 163.86859 883.90765
801.0 0.001248 163.85675 846.29834
732.0 0.001366 163.84486 808.03351
694.0 0.001441 163.83296 769.59644
716.0 0.001397 163.82101 731.45135
661.0 0.001513 163.80904 694.01953
657.0 0.001522 163.79703 657.66254
603.0 0.001658 163.78497 622.67419
571.0 0.001751 163.77290 589.28101
528.0 0.001894 163.76079 557.64600
544.0 0.001838 163.74864 527.87384
469.0 0.002132 163.73647 500.02328
457.0 0.002188 163.72426 474.11035
440.0 0.002273 163.71202 450.11935
460.0 0.002174 163.69974 428.00766
403.0 0.002481 163.68744 407.71298
396.0 0.002525 163.67509 389.15710
384.0 0.002604 163.66272 372.25027
377.0 0.002653 163.65031 356.89523
370.0 0.002703 163.63788 342.98889
354.0 0.002825 163.62541 330.42596
319.0 0.003135 163.61290 319.10077
326.0 0.003067 163.60036 308.90894
340.0 0.002941 163.58778 299.84866
345.0 0.002899 163.57520 291.62189
328.0 0.003049 163.56256 284.23590
312.0 0.003205 163.54990 277.60327
306.0 0.003268 163.53719 271.64261
260.0 0.00385 163.52446 266.27942
264.0 0.00379 163.51170 261.44516
247.0 0.00405 163.49890 257.07785
274.0 0.00365 163.48608 253.12210
258.0 0.00388 163.47322 249.52840
241.0 0.00415 163.46033 246.25266
253.0 0.00395 163.44740 243.25658
238.0 0.00420 163.43445 240.50645
253.0 0.00395 163.42146 237.97296
218.0 0.00459 163.40845 235.63069
228.0 0.00439 163.39539 233.45787
233.0 0.00429 163.38231 231.48604
244.0 0.00410 163.36920 229.59840
224.0 0.00446 163.35605 227.83147
245.0 0.00408 163.34288 226.17342
242.0 0.00413 163.32967 224.61411
216.0 0.00463 163.31642 223.14468
207.0 0.00483 163.30316 221.75786
218.0 0.00459 163.28986 220.44719
212.0 0.00472 163.27652 219.20708
212.0 0.00472 163.26315 218.03256
222.0 0.00450 163.24976 216.91986
234.0 0.00427 163.23633 215.86496
208.0 0.00481 163.22287 214.86487
232.0 0.00431 163.20938 213.91693
222.0 0.00450 163.19586 213.01869
200.0 0.00500 163.18231 212.16833
198.0 0.00505 163.16873 211.36415
210.0 0.00476 163.15512 210.60477
196.0 0.00510 163.14148 209.88914
201.0 0.00498 163.12781 209.21651
213.0 0.00469 163.11411 208.58633
216.0 0.00463 163.10037 207.80002
176.0 0.00568 163.08659 207.25504
190.0 0.00526 163.07280 206.75226
210.0 0.00476 163.05898 206.29234
176.0 0.00568 163.04512 205.87584
205.0 0.00488 163.03123 205.50339
210.0 0.00476 163.01732 205.17601
189.0 0.00529 163.00337 204.89436
219.0 0.00457 162.98940 204.65965
220.0 0.00455 162.97539 204.47290
201.0 0.00498 162.96135 204.25320
202.0 0.00495 162.94728 204.16490
189.0 0.00529 162.93320 204.12662
191.0 0.00524 162.91907 204.13887
190.0 0.00526 162.90491 204.20143
199.0 0.00503 162.89072 204.31396
193.0 0.00518 162.87651 204.47559
189.0 0.00529 162.86226 204.68471
192.0 0.00521 162.84799 204.93912
187.0 0.00535 162.83369 205.23561
201.0 0.00498 162.81935 205.57007
204.0 0.00490 162.80499 205.93727
201.0 0.00498 162.79060 206.33046
196.0 0.00510 162.77618 206.74178
191.0 0.00524 162.76173 207.16159
177.0 0.00565 162.74725 207.57861
196.0 0.00510 162.73274 207.98090
166.0 0.00602 162.71822 208.35544
205.0 0.00488 162.70364 208.68921
203.0 0.00493 162.68906 209.16722
185.0 0.00541 162.67444 209.38634
190.0 0.00526 162.65977 209.53577
205.0 0.00488 162.64510 209.61217
184.0 0.00543 162.63039 209.63097
187.0 0.00535 162.61566 209.56488
179.0 0.00559 162.60089 209.43512
172.0 0.00581 162.58609 209.24889
200.0 0.00500 162.57127 209.03099
170.0 0.00588 162.55643 208.75420
196.0 0.00510 162.54155 208.44147
194.0 0.00515 162.52664 208.09761
199.0 0.00503 162.51172 207.72610
177.0 0.00565 162.49675 207.32988
183.0 0.00546 162.48177 206.91165
203.0 0.00493 162.46675 206.47493
182.0 0.00549 162.45171 206.02379
201.0 0.00498 162.43663 205.66248
150.0 0.00667 162.42152 205.19957
189.0 0.00529 162.40640 204.74089
177.0 0.00565 162.39125 204.30115
179.0 0.00559 162.37607 203.87224
181.0 0.00552 162.36086 203.46838
197.0 0.00508 162.34563 203.09572
182.0 0.00549 162.33037 202.75873
173.0 0.00578 162.31508 202.47025
160.0 0.00625 162.29976 202.21657
175.0 0.00571 162.28441 202.00844
204.0 0.00490 162.26904 201.84770
160.0 0.00625 162.25365 201.73546
183.0 0.00546 162.23822 201.67247
185.0 0.00541 162.22278 201.65964
186.0 0.00538 162.20729 201.69691
188.0 0.00532 162.19180 201.78436
190.0 0.00526 162.17627 201.92212
200.0 0.00500 162.16071 202.11029
186.0 0.00538 162.14513 202.34879
184.0 0.00543 162.12952 202.63792
194.0 0.00515 162.11388 202.97771
183.0 0.00546 162.09822 203.36900
173.0 0.00578 162.08255 203.81224
198.0 0.00505 162.06683 204.30849
190.0 0.00526 162.05109 204.85918
160.0 0.00625 162.03532 205.46603
203.0 0.00493 162.01955 206.13132
208.0 0.00481 162.00372 206.85773
184.0 0.00543 161.98788 207.64896
218.0 0.00459 161.97202 208.50903
207.0 0.00483 161.95613 209.44331
207.0 0.00483 161.94022 210.45805
213.0 0.00469 161.92429 211.56073
194.0 0.00515 161.90833 212.79031
211.0 0.00474 161.89232 214.09839
204.0 0.00490 161.87631 215.52745
210.0 0.00476 161.86028 217.09355
199.0 0.00503 161.84421 218.81491
200.0 0.00500 161.82813 220.71376
224.0 0.00446 161.81201 222.81577
203.0 0.00493 161.79587 225.15100
241.0 0.00415 161.77971 227.75473
231.0 0.00433 161.76352 230.66714
233.0 0.00429 161.74731 233.93428
230.0 0.00435 161.73108 237.60846
259.0 0.00386 161.71483 241.74799
254.0 0.00394 161.69855 246.41830
275.0 0.00364 161.68224 251.69043
239.0 0.00418 161.66591 257.64188
263.0 0.00380 161.64955 264.37067
272.0 0.00368 161.63318 271.93481
269.0 0.00372 161.61678 280.44077
318.0 0.003145 161.60036 289.98187
301.0 0.003322 161.58391 300.65247
323.0 0.003096 161.56744 312.54446
314.0 0.003185 161.55095 325.74557
326.0 0.003067 161.53444 340.33594
321.0 0.003115 161.51790 356.38531
343.0 0.002915 161.50133 373.94907
380.0 0.002632 161.48474 393.06549
327.0 0.003058 161.46814 413.75085
385.0 0.002597 161.45151 435.99567
433.0 0.002309 161.43486 459.75433
477.0 0.002096 161.41818 484.96494
493.0 0.002028 161.40149 511.50543
468.0 0.002137 161.38478 539.21295
536.0 0.001866 161.36803 567.87006
562.0 0.001779 161.35127 597.19733
611.0 0.001637 161.33449 626.84760
607.0 0.001647 161.31767 656.40057
625.0 0.001600 161.30084 685.36377
704.0 0.001420 161.28400 713.18146
730.0 0.001370 161.26714 739.25458
754.0 0.001326 161.25023 762.96887
737.0 0.001357 161.23332 783.75275
797.0 0.001255 161.21638 801.10748
772.0 0.001295 161.19943 814.67004
783.0 0.001277 161.18245 824.24341
789.0 0.001267 161.16545 829.81085
774.0 0.001292 161.14844 831.52185
773.0 0.001294 161.13139 829.65656
781.0 0.001280 161.11433 824.57373
701.0 0.001427 161.09726 816.65601
750.0 0.001333 161.08015 806.26288
779.0 0.001284 161.06303 793.69745
770.0 0.001299 161.04588 779.19275
747.0 0.001339 161.02873 762.91370
715.0 0.001399 161.01155 744.97589
632.0 0.001582 160.99434 725.49463
648.0 0.001543 160.97713 704.52698
628.0 0.001592 160.95988 682.23083
609.0 0.001642 160.94261 658.79315
609.0 0.001642 160.92534 634.45319
530.0 0.001887 160.90804 609.49701
525.0 0.001905 160.89072 584.23529
537.0 0.001862 160.87337 559.01398
511.0 0.001957 160.85602 534.07410
552.0 0.001812 160.83864 509.71408
482.0 0.002075 160.82124 486.16089
461.0 0.002169 160.80383 463.59778
436.0 0.002294 160.78639 442.16281
418.0 0.002392 160.76895 421.95395
361.0 0.002770 160.75146 403.03290
361.0 0.002770 160.73398 385.43158
329.0 0.003040 160.71648 369.16824
371.0 0.002695 160.69894 354.20743
343.0 0.002915 160.68141 340.53122
312.0 0.003205 160.66385 328.09872
290.0 0.003448 160.64627 316.85913
329.0 0.003040 160.62866 306.65012
284.0 0.00352 160.61105 297.62155
257.0 0.00389 160.59341 289.60379
271.0 0.00369 160.57576 282.54742
259.0 0.00386 160.55811 276.35953
296.0 0.003378 160.54042 270.99350
266.0 0.00376 160.52272 266.39206
264.0 0.00379 160.50499 262.50171
263.0 0.00380 160.48726 259.27478
247.0 0.00405 160.46950 256.67007
269.0 0.00372 160.45174 254.65213
249.0 0.00402 160.43394 252.88943
267.0 0.00375 160.41615 251.96918
272.0 0.00368 160.39833 251.57297
251.0 0.00398 160.38049 251.69427
224.0 0.00446 160.36264 252.33330
258.0 0.00388 160.34477 253.49673
271.0 0.00369 160.32689 255.19728
270.0 0.00370 160.30899 256.94574
265.0 0.00377 160.29108 259.78009
284.0 0.00352 160.27315 263.21729
272.0 0.00368 160.25520 267.28564
295.0 0.003390 160.23724 271.88922
262.0 0.00382 160.21927 277.30896
284.0 0.00352 160.20128 283.44766
279.0 0.00358 160.18327 290.33142
298.0 0.003356 160.16525 297.98245
287.0 0.003484 160.14722 306.41708
296.0 0.003378 160.12917 315.64468
297.0 0.003367 160.11111 325.41238
326.0 0.003067 160.09303 336.21506
341.0 0.002933 160.07494 347.77341
380.0 0.002632 160.05682 360.04547
371.0 0.002695 160.03871 372.96918
356.0 0.002809 160.02057 386.46033
397.0 0.002519 160.00243 400.40942
364.0 0.002747 159.98425 414.68033
381.0 0.002625 159.96608 429.11127
445.0 0.002247 159.94791 443.51859
420.0 0.002381 159.92970 457.70343
421.0 0.002375 159.91148 471.46439
486.0 0.002058 159.89325 484.61050
443.0 0.002257 159.87502 496.97821
499.0 0.002004 159.85675 508.44211
534.0 0.001873 159.83849 518.92249
499.0 0.002004 159.82021 528.38354
533.0 0.001876 159.80193 536.82324
537.0 0.001862 159.78362 544.25726
511.0 0.001957 159.76530 550.69971
510.0 0.001961 159.74698 556.14587
524.0 0.001908 159.72864 560.56134
516.0 0.001938 159.71028 563.87598
500.0 0.002000 159.69191 565.98962
529.0 0.001890 159.67354 566.78577
579.0 0.001727 159.65517 566.14862
521.0 0.001919 159.63676 563.98773
546.0 0.001832 159.61836 560.25684
503.0 0.001988 159.59993 554.96814
531.0 0.001883 159.58150 548.19775
460.0 0.002174 159.56306 540.07983
481.0 0.002079 159.54462 530.79230
500.0 0.002000 159.52614 520.53564
464.0 0.002155 159.50768 509.51495
464.0 0.002155 159.48920 497.91986
445.0 0.002247 159.47070 485.91425
484.0 0.002066 159.45219 473.63022
478.0 0.002092 159.43369 461.16788
415.0 0.002410 159.41516 448.60217
414.0 0.002415 159.39664 435.98956
406.0 0.002463 159.37810 423.37845
397.0 0.002519 159.35954 410.81683
369.0 0.002710 159.34099 398.35757
393.0 0.002545 159.32242 386.06189
364.0 0.002747 159.30383 373.99704
367.0 0.002725 159.28525 362.23343
322.0 0.003106 159.26666 350.84100
360.0 0.002778 159.24806 339.88339
338.0 0.002959 159.22945 329.41498
332.0 0.003012 159.21083 319.47949
297.0 0.003367 159.19220 310.10733
279.0 0.00358 159.17357 301.31796
290.0 0.003448 159.15492 293.11902
284.0 0.00352 159.13628 285.50919
285.0 0.00351 159.11761 278.47922
280.0 0.00357 159.09894 272.01358
263.0 0.00380 159.08028 266.09201
241.0 0.00415 159.06160 260.69107
221.0 0.00452 159.04291 255.78419
241.0 0.00415 159.02422 251.34407
262.0 0.00382 159.00552 247.34219
219.0 0.00457 158.98682 243.74980
244.0 0.00410 158.96809 240.53870
243.0 0.00412 158.94939 237.68086
236.0 0.00424 158.93065 235.14958
239.0 0.00418 158.91193 232.91888
233.0 0.00429 158.89319 230.96436
217.0 0.00461 158.87445 229.26302
223.0 0.00448 158.85570 227.79305
228.0 0.00439 158.83694 226.53471
221.0 0.00452 158.81819 225.46945
202.0 0.00495 158.79942 224.58040
228.0 0.00439 158.78065 223.85277
220.0 0.00455 158.76189 223.27249
252.0 0.00397 158.74312 222.82770
235.0 0.00426 158.72433 222.50768
246.0 0.00407 158.70555 222.30296
211.0 0.00474 158.68677 222.20567
218.0 0.00459 158.66797 222.20901
244.0 0.00410 158.64917 222.30711
228.0 0.00439 158.63036 222.49532
231.0 0.00433 158.61156 222.76991
251.0 0.00398 158.59274 223.12781
213.0 0.00469 158.57394 223.56711
249.0 0.00402 158.55513 224.08620
199.0 0.00503 158.53632 224.68449
238.0 0.00420 158.51750 225.36194
217.0 0.00461 158.49867 226.11903
228.0 0.00439 158.47984 226.95689
217.0 0.00461 158.46101 227.87738
220.0 0.00455 158.44218 228.88275
252.0 0.00397 158.42336 229.97592
278.0 0.00360 158.40453 231.16068
243.0 0.00412 158.38570 232.44165
260.0 0.00385 158.36685 233.82404
232.0 0.00431 158.34802 235.31433
250.0 0.00400 158.32918 236.92020
234.0 0.00427 158.31035 238.65067
238.0 0.00420 158.29150 240.51614
260.0 0.00385 158.27266 242.56268
271.0 0.00369 158.25383 244.73860
282.0 0.00355 158.23499 247.09439
239.0 0.00418 158.21614 249.65038
278.0 0.00360 158.19730 252.43050
278.0 0.00360 158.17845 255.46260
262.0 0.00382 158.15961 258.77869
282.0 0.00355 158.14078 262.41626
268.0 0.00373 158.12193 266.41766
281.0 0.00356 158.10309 270.83130
276.0 0.00362 158.08426 275.71216
316.0 0.003165 158.06541 281.07108
311.0 0.003215 158.04659 287.07785
290.0 0.003448 158.02774 293.75714
322.0 0.003106 158.00891 301.19110
337.0 0.002967 157.99008 309.46887
352.0 0.002841 157.97125 318.68527
361.0 0.002770 157.95242 328.94110
353.0 0.002833 157.93359 340.35812
403.0 0.002481 157.91478 353.01114
414.0 0.002415 157.89595 367.02740
450.0 0.002222 157.87714 382.51718
429.0 0.002331 157.85832 399.59006
430.0 0.002326 157.83951 418.26855
463.0 0.002160 157.82071 438.81888
505.0 0.001980 157.80190 461.24939
476.0 0.002101 157.78310 485.64185
548.0 0.001825 157.76430 512.06421
577.0 0.001733 157.74551 540.56787
549.0 0.001821 157.72672 571.18372
610.0 0.001639 157.70795 603.91736
668.0 0.001497 157.68915 638.74481
661.0 0.001513 157.67038 675.60535
734.0 0.001362 157.65161 714.39514
741.0 0.001350 157.63284 754.96033
826.0 0.001211 157.61409 797.09271
870.0 0.001149 157.59534 840.52600
944.0 0.001059 157.57658 884.94031
967.0 0.001034 157.55783 929.97064
1107.0 0.000903 157.53911 975.23059
1111.0 0.000900 157.52037 1020.33997
1157.0 0.000864 157.50165 1064.96399
1176.0 0.000850 157.48293 1108.84814
1198.0 0.000835 157.46422 1151.85144
1245.0 0.000803 157.44551 1193.95801
1282.0 0.000780 157.42680 1235.27185
1216.0 0.000822 157.40813 1275.98645
1294.0 0.000773 157.38943 1316.34045
1305.0 0.000766 157.37076 1356.56604
1344.0 0.000744 157.35208 1396.83398
1345.0 0.000743 157.33344 1437.20874
1358.0 0.000736 157.31479 1477.61670
1420.0 0.000704 157.29613 1517.82373
1599.0 0.000625 157.27750 1557.43250
1616.0 0.000619 157.25887 1595.88745
1572.0 0.000636 157.24025 1632.49548
1641.0 0.000609 157.22163 1666.46216
1716.0 0.000583 157.20305 1696.92957
1635.0 0.000612 157.18445 1723.03467
1689.0 0.000592 157.16588 1743.96509
1689.0 0.000592 157.14731 1759.02197
1722.0 0.000581 157.12874 1767.68066
1710.0 0.000585 157.11018 1769.63770
1739.0 0.000575 157.09164 1764.84583
1695.0 0.000590 157.07312 1753.51086
1691.0 0.000591 157.05460 1736.06567
1669.0 0.000599 157.03609 1713.11804
1658.0 0.000603 157.01759 1685.37634
1576.0 0.000635 156.99910 1653.57104
1536.0 0.000651 156.98064 1618.38831
1422.0 0.000703 156.96216 1580.41333
1551.0 0.000645 156.94371 1540.10718
1349.0 0.000741 156.92528 1497.79224
1430.0 0.000699 156.90685 1453.67737
1408.0 0.000710 156.88843 1407.88672
1310.0 0.000763 156.87003 1360.50684
1220.0 0.000820 156.85164 1311.63074
1224.0 0.000817 156.83327 1261.39941
1141.0 0.000876 156.81491 1210.02637
1161.0 0.000861 156.79655 1157.58496
1128.0 0.000887 156.77821 1104.89099
1117.0 0.000895 156.75989 1052.14075
998.0 0.001002 156.74159 999.77563
892.0 0.001121 156.72330 948.22919
943.0 0.001060 156.70502 897.90118
833.0 0.001200 156.68675 849.14081
824.0 0.001214 156.66850 802.23486
785.0 0.001274 156.65027 757.30597
714.0 0.001401 156.63205 714.71753
676.0 0.001479 156.61385 674.47333
630.0 0.001587 156.59566 636.63074
656.0 0.001524 156.57748 601.09290
610.0 0.001639 156.55933 568.06378
589.0 0.001698 156.54118 537.46570
571.0 0.001751 156.52306 509.07126
512.0 0.001953 156.50496 482.87506
530.0 0.001887 156.48686 458.77939
529.0 0.001890 156.46878 436.67740
468.0 0.002137 156.45073 416.45557
455.0 0.002198 156.43269 397.94586
418.0 0.002392 156.41467 381.12988
395.0 0.002532 156.39667 365.83755
430.0 0.002326 156.37869 351.95142
424.0 0.002358 156.36072 339.35638
393.0 0.002545 156.34277 327.94135
394.0 0.002538 156.32484 317.60062
370.0 0.002703 156.30693 308.23322
341.0 0.002933 156.28905 299.74481
353.0 0.002833 156.27116 292.04712
327.0 0.003058 156.25331 285.05829
288.0 0.003472 156.23549 278.70367
333.0 0.003003 156.21767 272.95438
306.0 0.003268 156.19989 267.66879
311.0 0.003215 156.18211 262.83072
307.0 0.003257 156.16435 258.39014
276.0 0.00362 156.14662 254.30270
309.0 0.003236 156.12892 250.52884
285.0 0.00351 156.11122 247.03392
272.0 0.00368 156.09357 243.78729
251.0 0.00398 156.07593 240.76266
259.0 0.00386 156.05830 237.93643
276.0 0.00362 156.04070 235.28848
255.0 0.00392 156.02312 232.80112
255.0 0.00392 156.00557 230.45917
246.0 0.00407 155.98802 228.24925
210.0 0.00476 155.97052 226.15971
237.0 0.00422 155.95303 224.18039
251.0 0.00398 155.93558 222.30254
217.0 0.00461 155.91814 220.51810
235.0 0.00426 155.90071 218.82042
221.0 0.00452 155.88333 217.20320
213.0 0.00469 155.86597 215.66110
234.0 0.00427 155.84862 214.18909
225.0 0.00444 155.83130 212.78284
230.0 0.00435 155.81401 211.43820
230.0 0.00435 155.79675 210.15187
239.0 0.00418 155.77951 208.92021
226.0 0.00442 155.76230 207.74033
210.0 0.00476 155.74510 206.60942
216.0 0.00463 155.72794 205.52480
193.0 0.00518 155.71080 204.48419
212.0 0.00472 155.69370 203.50050
190.0 0.00526 155.67661 202.54134
210.0 0.00476 155.65955 201.61993
195.0 0.00513 155.64253 200.73442
192.0 0.00521 155.62552 199.88316
191.0 0.00524 155.60855 199.06476
185.0 0.00541 155.59160 198.27745
213.0 0.00469 155.57469 197.51982
199.0 0.00503 155.55780 196.79086
191.0 0.00524 155.54094 196.08917
202.0 0.00495 155.52411 195.41359
201.0 0.00498 155.50731 194.76318
191.0 0.00524 155.49054 194.13669
213.0 0.00469 155.47379 193.53337
203.0 0.00493 155.45708 192.95207
185.0 0.00541 155.44040 192.39214
181.0 0.00552 155.42375 191.85272
187.0 0.00535 155.40712 191.33304
205.0 0.00488 155.39053 190.83228
186.0 0.00538 155.37398 190.34996
195.0 0.00513 155.35745 189.91362
187.0 0.00535 155.34096 189.46613
170.0 0.00588 155.32449 189.03500
156.0 0.00641 155.30806 188.62001
186.0 0.00538 155.29166 188.22043
175.0 0.00571 155.27528 187.83571
158.0 0.00633 155.25896 187.46559
176.0 0.00568 155.24266 187.10948
188.0 0.00532 155.22639 186.76721
187.0 0.00535 155.21014 186.43814
172.0 0.00581 155.19395 186.16028
187.0 0.00535 155.17778 185.85675
171.0 0.00585 155.16165 185.56561
172.0 0.00581 155.14555 185.28625
208.0 0.00481 155.12949 185.01865
207.0 0.00483 155.11346 184.76250
156.0 0.00641 155.09747 184.51741
169.0 0.00592 155.08151 184.28339
182.0 0.00549 155.06560 184.06003
207.0 0.00483 155.04971 183.84711
169.0 0.00592 155.03386 183.64458
176.0 0.00568 155.01805 183.45218
141.0 0.00709 155.00227 183.26978
161.0 0.00621 154.98653 183.09723
177.0 0.00565 154.97084 182.98044
180.0 0.00556 154.95517 182.82729
152.0 0.00658 154.93954 182.68365
169.0 0.00592 154.92395 182.54948
206.0 0.00485 154.90840 182.42470
166.0 0.00602 154.89290 182.30911
171.0 0.00585 154.87743 182.22212
164.0 0.00610 154.86198 182.12491
207.0 0.00483 154.84660 182.03697
157.0 0.00637 154.83125 181.95815
168.0 0.00595 154.81593 181.90372
158.0 0.00633 154.80066 181.84325
187.0 0.00535 154.78542 181.79178
171.0 0.00585 154.77023 181.74957
179.0 0.00559 154.75508 181.39450
189.0 0.00529 154.73997 181.37186
175.0 0.00571 154.72490 181.35849
151.0 0.00662 154.70987 181.35484
175.0 0.00571 154.69489 181.36052
165.0 0.00606 154.67995 181.37604
148.0 0.00676 154.66504 181.40132
163.0 0.00613 154.65018 181.43666
183.0 0.00546 154.63538 181.48213
166.0 0.00602 154.62059 181.53793
155.0 0.00645 154.60587 181.60428
169.0 0.00592 154.59119 181.68143
183.0 0.00546 154.57654 181.76968
164.0 0.00610 154.56195 181.86923
168.0 0.00595 154.54739 181.98038
186.0 0.00538 154.53290 182.10341
172.0 0.00581 154.51843 182.23877
158.0 0.00633 154.50401 182.38667
185.0 0.00541 154.48964 182.54781
189.0 0.00529 154.47533 182.72234
177.0 0.00565 154.46104 182.91083
154.0 0.00649 154.44681 183.14795
159.0 0.00629 154.43263 183.36613
178.0 0.00562 154.41849 183.60014
165.0 0.00606 154.40440 183.85039
163.0 0.00613 154.39037 184.11772
179.0 0.00559 154.37637 184.40295
172.0 0.00581 154.36243 184.70708
176.0 0.00568 154.34853 185.03075
160.0 0.00625 154.33469 185.37529
160.0 0.00625 154.32088 185.74182
203.0 0.00493 154.30713 186.13181
175.0 0.00571 154.29343 186.54646
173.0 0.00578 154.27979 186.98782
207.0 0.00483 154.26617 187.45760
166.0 0.00602 154.25262 187.95813
175.0 0.00571 154.23914 188.49182
176.0 0.00568 154.22568 189.06165
184.0 0.00543 154.21230 189.67093
212.0 0.00472 154.19894 190.32365
185.0 0.00541 154.18565 191.02406
173.0 0.00578 154.17241 191.77730
172.0 0.00581 154.15923 192.58951
164.0 0.00610 154.14609 193.46727
191.0 0.00524 154.13300 194.41861
200.0 0.00500 154.11998 195.45238
194.0 0.00515 154.10699 196.57875
201.0 0.00498 154.09407 197.80956
223.0 0.00448 154.08121 199.15781
218.0 0.00459 154.06839 200.63808
184.0 0.00543 154.05563 202.26707
215.0 0.00465 154.04292 204.06305
187.0 0.00535 154.03029 206.04596
230.0 0.00435 154.01768 208.23781
248.0 0.00403 154.00516 210.66245
215.0 0.00465 153.99268 213.34534
236.0 0.00424 153.98026 216.31375
231.0 0.00433 153.96788 219.59610
233.0 0.00429 153.95558 223.22229
238.0 0.00420 153.94331 227.22258
254.0 0.00394 153.93112 231.62822
248.0 0.00403 153.91899 236.47008
263.0 0.00380 153.90691 241.77835
262.0 0.00382 153.89490 247.38623
258.0 0.00388 153.88293 253.71300
259.0 0.00386 153.87103 260.61383
277.0 0.00361 153.85919 268.05624
257.0 0.00389 153.84741 276.08347
309.0 0.003236 153.83569 284.70731
305.0 0.003279 153.82402 293.93280
295.0 0.003390 153.81242 303.75806
330.0 0.003030 153.80089 314.17258
325.0 0.003077 153.78941 325.15552
336.0 0.002976 153.77800 336.67480
363.0 0.002755 153.76663 348.68494
347.0 0.002882 153.75534 361.02679
425.0 0.002353 153.74411 373.81778
376.0 0.002660 153.73296 386.86136
408.0 0.002451 153.72185 400.03754
387.0 0.002584 153.71082 413.23392
437.0 0.002288 153.69983 426.22412
423.0 0.002364 153.68892 438.85251
437.0 0.002288 153.67807 450.91733
480.0 0.002083 153.66730 462.20905
448.0 0.002232 153.65657 472.53510
460.0 0.002174 153.64592 481.67807
550.0 0.001818 153.63533 489.49283
463.0 0.002160 153.62482 495.86401
512.0 0.001953 153.61436 500.72989
511.0 0.001957 153.60397 504.08536
493.0 0.002028 153.59366 505.97952
539.0 0.001855 153.58339 506.50696
562.0 0.001779 153.57321 505.79480
490.0 0.002041 153.56310 503.98688
536.0 0.001866 153.55304 501.22824
516.0 0.001938 153.54306 497.65482
534.0 0.001873 153.53316 493.38202
456.0 0.002193 153.52332 488.50284
483.0 0.002070 153.51353 483.08597
427.0 0.002342 153.50383 477.19678
512.0 0.001953 153.49420 470.84164
452.0 0.002212 153.48463 464.06949
459.0 0.002179 153.47514 456.91852
503.0 0.001988 153.46573 449.44086
482.0 0.002075 153.45638 441.70676
448.0 0.002232 153.44710 433.80765
454.0 0.002203 153.43790 425.85455
426.0 0.002347 153.42876 417.97498
379.0 0.002639 153.41971 410.45688
442.0 0.002262 153.41072 403.14127
453.0 0.002208 153.40181 396.31848
441.0 0.002268 153.39296 390.12198
424.0 0.002358 153.38420 384.67542
406.0 0.002463 153.37550 380.09116
388.0 0.002577 153.36690 376.46811
400.0 0.002500 153.35835 373.89291
397.0 0.002519 153.34988 372.43927
394.0 0.002538 153.34149 372.16873
399.0 0.002506 153.33318 373.13159
374.0 0.002674 153.32495 375.39609
396.0 0.002525 153.31679 378.93002
422.0 0.002370 153.30870 383.77869
441.0 0.002268 153.30070 389.94580
422.0 0.002370 153.29277 397.42233
424.0 0.002358 153.28491 406.18549
394.0 0.002538 153.27715 416.19803
428.0 0.002336 153.26945 427.40594
459.0 0.002179 153.26184 439.73672
474.0 0.002110 153.25430 453.17383
488.0 0.002049 153.24686 467.44965
503.0 0.001988 153.23949 482.49805
490.0 0.002041 153.23219 498.14850
514.0 0.001946 153.22498 514.19879
506.0 0.001976 153.21785 530.41400
556.0 0.001799 153.21080 546.52722
541.0 0.001848 153.20383 562.24182
565.0 0.001770 153.19695 577.23999
586.0 0.001706 153.19014 591.19525
604.0 0.001656 153.18343 603.78851
610.0 0.001639 153.17679 614.72876
640.0 0.001563 153.17023 623.77490
608.0 0.001645 153.16376 630.77069
636.0 0.001572 153.15738 635.59540
623.0 0.001605 153.15108 638.26196
625.0 0.001600 153.14487 638.84814
600.0 0.001667 153.13873 637.49615
591.0 0.001692 153.13269 634.39496
625.0 0.001600 153.12674 629.75244
613.0 0.001631 153.12086 623.77606
576.0 0.001736 153.11508 616.65222
580.0 0.001724 153.10939 608.53473
572.0 0.001748 153.10378 599.53894
589.0 0.001698 153.09825 589.74219
556.0 0.001799 153.09282 579.18787
563.0 0.001776 153.08748 567.89905
539.0 0.001855 153.08223 555.88751
554.0 0.001805 153.07706 543.17029
525.0 0.001905 153.07199 529.77997
515.0 0.001942 153.06700 515.77441
498.0 0.002008 153.06210 501.23962
457.0 0.002188 153.05730 486.28754
469.0 0.002132 153.05260 471.05270
444.0 0.002252 153.04797 455.68161
440.0 0.002273 153.04344 440.32455
403.0 0.002481 153.03900 425.12625
457.0 0.002188 153.03465 410.21893
439.0 0.002278 153.03041 395.71896
374.0 0.002674 153.02625 381.72299
387.0 0.002584 153.02219 368.30902
398.0 0.002513 153.01822 355.53293
362.0 0.002762 153.01434 343.44373
362.0 0.002762 153.01056 332.06656
337.0 0.002967 153.00687 321.41745
320.0 0.003125 153.00328 311.50226
309.0 0.003236 152.99979 302.31839
314.0 0.003185 152.99638 293.85718
314.0 0.003185 152.99309 286.10400
297.0 0.003367 152.98988 279.04111
317.0 0.003155 152.98679 272.64697
281.0 0.00356 152.98378 266.89847
276.0 0.00362 152.98087 261.77036
267.0 0.00375 152.97806 257.23563
264.0 0.00379 152.97534 253.27103
288.0 0.003472 152.97273 249.84872
264.0 0.00379 152.97021 246.94293
283.0 0.00353 152.96780 244.52841
264.0 0.00379 152.96548 242.58049
248.0 0.00403 152.96329 241.07538
272.0 0.00368 152.96117 239.99046
267.0 0.00375 152.95917 239.30368
253.0 0.00395 152.95726 238.99408
258.0 0.00388 152.95546 239.04100
240.0 0.00417 152.95375 239.42430
242.0 0.00413 152.95216 240.12425
249.0 0.00402 152.95067 241.12093
271.0 0.00369 152.94928 242.39388
244.0 0.00410 152.94798 243.92166
244.0 0.00410 152.94681 245.68164
239.0 0.00418 152.94574 247.64925
251.0 0.00398 152.94476 249.79745
258.0 0.00388 152.94389 252.09607
280.0 0.00357 152.94315 254.51099
276.0 0.00362 152.94249 257.00461
263.0 0.00380 152.94196 259.53442
271.0 0.00369 152.94151 262.05423
250.0 0.00400 152.94119 264.51422
268.0 0.00373 152.94096 266.86298
313.0 0.003195 152.94086 269.04965
300.0 0.003333 152.94086 271.02661
279.0 0.00358 152.94096 272.75333
261.0 0.00383 152.94118 274.19913
303.0 0.003300 152.94151 275.34509
305.0 0.003279 152.94196 276.18732
300.0 0.003333 152.94250 276.73395
247.0 0.00405 152.94316 277.00558
288.0 0.003472 152.94394 277.03125
305.0 0.003279 152.94482 276.84470
285.0 0.00351 152.94583 276.48077
286.0 0.003497 152.94695 275.97321
271.0 0.00369 152.94817 275.35028
277.0 0.00361 152.94951 274.63535
283.0 0.00353 152.95096 273.84543
285.0 0.00351 152.95253 272.99136
266.0 0.00376 152.95422 272.08002
295.0 0.003390 152.95601 271.11517
281.0 0.00356 152.95793 270.10059
266.0 0.00376 152.95996 269.04111
271.0 0.00369 152.96211 267.94501
269.0 0.00372 152.96439 266.82559
282.0 0.00355 152.96677 265.70093
291.0 0.003436 152.96927 264.59415
292.0 0.003425 152.97189 263.53210
281.0 0.00356 152.97464 262.54382
307.0 0.003257 152.97749 261.66043
298.0 0.003356 152.98047 260.91229
305.0 0.003279 152.98358 260.32901
309.0 0.003236 152.98680 259.93893
289.0 0.003460 152.99014 259.76938
282.0 0.00355 152.99361 259.84543
295.0 0.003390 152.99719 260.19199
300.0 0.003333 153.00090 260.83279
277.0 0.00361 153.00473 261.79190
282.0 0.00355 153.00868 263.09344
293.0 0.003413 153.01276 264.76245
306.0 0.003268 153.01695 266.82565
327.0 0.003058 153.02129 269.31122
299.0 0.003344 153.02574 272.24924
345.0 0.002899 153.03032 275.67212
361.0 0.002770 153.03502 279.61481
346.0 0.002890 153.03984 284.11514
322.0 0.003106 153.04480 289.01822
376.0 0.002660 153.04988 294.75909
343.0 0.002915 153.05508 301.18811
378.0 0.002646 153.06042 308.35461
358.0 0.002793 153.06589 316.31110
383.0 0.002611 153.07149 325.11237
379.0 0.002639 153.07721 334.81543
419.0 0.002387 153.08307 345.47906
421.0 0.002375 153.08905 357.16312
446.0 0.002242 153.09517 369.92767
466.0 0.002146 153.10141 383.83206
472.0 0.002119 153.10777 398.93286
490.0 0.002041 153.11429 415.28336
484.0 0.002066 153.12093 432.93103
524.0 0.001908 153.12770 451.91702
504.0 0.001984 153.13461 472.27301
575.0 0.001739 153.14165 494.02185
553.0 0.001808 153.14882 517.17590
597.0 0.001675 153.15613 541.73883
639.0 0.001565 153.16357 567.70508
654.0 0.001529 153.17116 595.06439
696.0 0.001437 153.17886 623.80237
754.0 0.001326 153.18672 653.90363
743.0 0.001346 153.19470 685.35138
763.0 0.001311 153.20284 718.12726
738.0 0.001355 153.21109 752.20428
784.0 0.001276 153.21950 787.54315
847.0 0.001181 153.22803 824.07996
912.0 0.001096 153.23671 861.71692
910.0 0.001099 153.24553 900.31183
986.0 0.001014 153.25449 939.66681
1066.0 0.000938 153.26358 979.52124
1011.0 0.000989 153.27283 1019.54474
1018.0 0.000982 153.28221 1059.33533
1140.0 0.000877 153.29173 1098.42517
1103.0 0.000907 153.30139 1136.28687
1246.0 0.000803 153.31120 1172.35474
1280.0 0.000781 153.32115 1206.04639
1221.0 0.000819 153.33124 1236.79663
1309.0 0.000764 153.34148 1264.09009
1335.0 0.000749 153.35185 1287.49634
1381.0 0.000724 153.36240 1306.69421
1351.0 0.000740 153.37306 1321.49536
1309.0 0.000764 153.38388 1331.84290
1322.0 0.000756 153.39484 1337.80457
1349.0 0.000741 153.40596 1339.55188
1293.0 0.000773 153.41722 1337.33252
1362.0 0.000734 153.42862 1331.57690
1337.0 0.000748 153.44017 1322.32532
1379.0 0.000725 153.45187 1310.01965
1258.0 0.000795 153.46373 1294.94458
1269.0 0.000788 153.47574 1277.34961
1198.0 0.000835 153.48788 1257.44434
1193.0 0.000838 153.50018 1235.40198
1172.0 0.000853 153.51265 1211.36023
1178.0 0.000849 153.52525 1185.43726
1162.0 0.000861 153.53801 1157.73962
1096.0 0.000912 153.55092 1128.38281
1119.0 0.000894 153.56398 1097.49756
1041.0 0.000961 153.57719 1065.24097
1058.0 0.000945 153.59056 1031.80127
1011.0 0.000989 153.60410 997.39398
1006.0 0.000994 153.61777 962.25763
943.0 0.001060 153.63161 926.64386
889.0 0.001125 153.64560 890.81061
835.0 0.001198 153.65974 855.00922
833.0 0.001200 153.67406 819.48407
818.0 0.001222 153.68851 784.46100
763.0 0.001311 153.70314 750.14856
772.0 0.001295 153.71791 716.73322
756.0 0.001323 153.73285 684.44751
674.0 0.001484 153.74794 653.29260
677.0 0.001477 153.76320 623.45270
704.0 0.001420 153.77861 595.01874
579.0 0.001727 153.79419 568.05859
574.0 0.001742 153.80992 542.61987
582.0 0.001718 153.82582 518.72949
510.0 0.001961 153.84189 496.39764
519.0 0.001927 153.85811 475.62033
505.0 0.001980 153.87450 456.38071
505.0 0.001980 153.89105 438.65213
456.0 0.002193 153.90776 422.39963
482.0 0.002075 153.92465 407.58112
430.0 0.002326 153.94168 394.15054
454.0 0.002203 153.95891 382.05695
484.0 0.002066 153.97627 371.24759
417.0 0.002398 153.99382 361.80411
424.0 0.002358 154.01154 353.39679
378.0 0.002646 154.02940 346.10519
383.0 0.002611 154.04745 339.87216
373.0 0.002681 154.06567 334.64017
410.0 0.002439 154.08406 330.35178
421.0 0.002375 154.10262 326.95032
373.0 0.002681 154.12134 324.37830
371.0 0.002695 154.14023 322.57834
360.0 0.002778 154.15929 321.49246
368.0 0.002717 154.17853 321.06232
341.0 0.002933 154.19794 321.22668
373.0 0.002681 154.21753 321.92355
376.0 0.002660 154.23727 323.04099
384.0 0.002604 154.25722 324.60056
390.0 0.002564 154.27731 326.48233
376.0 0.002660 154.29759 328.60568
341.0 0.002933 154.31805 330.88574
368.0 0.002717 154.33867 333.23151
347.0 0.002882 154.35948 335.54807
404.0 0.002475 154.38046 337.73865
352.0 0.002841 154.40163 339.70822
347.0 0.002882 154.42297 341.36746
376.0 0.002660 154.44449 342.70740
367.0 0.002725 154.46619 343.52673
355.0 0.002817 154.48805 343.85095
347.0 0.002882 154.51012 343.65924
375.0 0.002667 154.53235 342.87119
377.0 0.002653 154.55476 341.67047
330.0 0.003030 154.57736 340.01276
311.0 0.003215 154.60014 337.94623
369.0 0.002710 154.62311 335.52380
392.0 0.002551 154.64626 332.79846
321.0 0.003115 154.66959 329.81824
320.0 0.003125 154.69310 326.62350
323.0 0.003096 154.71680 323.24435
311.0 0.003215 154.74068 319.70126
264.0 0.00379 154.76476 316.00540
287.0 0.003484 154.78902 312.16006
314.0 0.003185 154.81346 308.16489
377.0 0.002653 154.83809 304.01749
324.0 0.003086 154.86290 299.71783
298.0 0.003356 154.88791 295.27014
294.0 0.003401 154.91310 290.68539
294.0 0.003401 154.93849 285.98215
261.0 0.00383 154.96407 281.18546
292.0 0.003425 154.98984 276.32703
294.0 0.003401 155.01579 271.44089
248.0 0.00403 155.04195 266.56424
257.0 0.00389 155.06828 261.73245
276.0 0.00362 155.09482 256.97910
217.0 0.00461 155.12155 252.33392
229.0 0.00437 155.14847 247.82225
240.0 0.00417 155.17560 243.49400
255.0 0.00392 155.20290 239.30678
259.0 0.00386 155.23041 235.30171
237.0 0.00422 155.25810 231.48677
221.0 0.00452 155.28601 227.86653
238.0 0.00420 155.31410 224.44308
214.0 0.00467 155.34239 221.21573
242.0 0.00413 155.37090 218.18227
227.0 0.00441 155.39958 215.33852
199.0 0.00503 155.42848 212.67917
231.0 0.00433 155.45757 210.19794
190.0 0.00526 155.48686 207.88791
209.0 0.00478 155.51636 205.74113
237.0 0.00422 155.54604 203.74939
190.0 0.00526 155.57594 201.90453
196.0 0.00510 155.60603 200.19756
206.0 0.00485 155.63635 198.61993
168.0 0.00595 155.66685 197.16301
178.0 0.00562 155.69757 195.81816
188.0 0.00532 155.72849 194.57716
190.0 0.00526 155.75961 193.43199
184.0 0.00543 155.79092 192.37482
181.0 0.00552 155.82246 191.39850
182.0 0.00549 155.85420 190.49583
193.0 0.00518 155.88615 189.67538
197.0 0.00508 155.91832 188.90112
199.0 0.00503 155.95068 188.18275
150.0 0.00667 155.98326 187.51469
191.0 0.00524 156.01604 186.89261
196.0 0.00510 156.04906 186.44858
166.0 0.00602 156.08224 185.90576
183.0 0.00546 156.11566 185.39713
183.0 0.00546 156.14931 184.95238
176.0 0.00568 156.18315 184.50313
181.0 0.00552 156.21721 184.07953
165.0 0.00606 156.25148 183.67949
159.0 0.00629 156.28598 183.30116
187.0 0.00535 156.32068 182.94263
177.0 0.00565 156.35559 182.60248
147.0 0.00680 156.39073 182.27922
188.0 0.00532 156.42609 181.97189
181.0 0.00552 156.46165 181.67934
167.0 0.00599 156.49744 181.40050
161.0 0.00621 156.53346 181.13492
157.0 0.00637 156.56969 180.88135
147.0 0.00680 156.60614 180.63943
165.0 0.00606 156.64279 180.40863
185.0 0.00541 156.67969 180.18811
176.0 0.00568 156.71680 179.97777
162.0 0.00617 156.75412 179.77699
177.0 0.00565 156.79169 179.58517
174.0 0.00575 156.82947 179.40225
163.0 0.00613 156.86748 179.22784
137.0 0.00730 156.90570 179.06149
162.0 0.00617 156.94417 178.97249
158.0 0.00633 156.98283 178.83836
169.0 0.00592 157.02173 178.69487
143.0 0.00699 157.06088 178.55858
167.0 0.00599 157.10023 178.42900
167.0 0.00599 157.13983 178.30618
150.0 0.00667 157.17964 178.18970
149.0 0.00671 157.21970 178.07956
171.0 0.00585 157.25996 177.97552
179.0 0.00559 157.30048 177.87737
156.0 0.00641 157.34122 177.78510
181.0 0.00552 157.38219 177.69847
167.0 0.00599 157.42340 177.61732
157.0 0.00637 157.46483 177.54153
145.0 0.00690 157.50652 177.47107
151.0 0.00662 157.54842 177.40572
154.0 0.00649 157.59056 177.34544
161.0 0.00621 157.63293 177.29010
140.0 0.00714 157.67554 177.23961
168.0 0.00595 157.71840 177.19389
157.0 0.00637 157.76147 177.15288
150.0 0.00667 157.80481 177.11647
158.0 0.00633 157.84837 177.08456
178.0 0.00562 157.89218 177.05722
172.0 0.00581 157.93622 177.03415
161.0 0.00621 157.98051 177.01563
136.0 0.00735 158.02504 177.00133
177.0 0.00565 158.06979 176.99126
164.0 0.00610 158.11481 176.98544
162.0 0.00617 158.16005 176.98378
158.0 0.00633 158.20557 176.98633
147.0 0.00680 158.25130 176.99301
168.0 0.00595 158.29729 177.00371
161.0 0.00621 158.34352 177.01848
150.0 0.00667 158.38998 177.03743
137.0 0.00730 158.43672 177.06027
157.0 0.00637 158.48369 177.08722
178.0 0.00562 158.53091 177.11815
150.0 0.00667 158.57837 177.15309
159.0 0.00629 158.62610 177.19206
176.0 0.00568 158.67406 177.23523
160.0 0.00625 158.72229 177.28217
149.0 0.00671 158.77075 177.33334
164.0 0.00610 158.81946 177.42046
174.0 0.00575 158.86845 177.47983
153.0 0.00654 158.91766 177.54318
176.0 0.00568 158.96716 177.61073
145.0 0.00690 159.01689 177.68254
159.0 0.00629 159.06689 177.76961
143.0 0.00699 159.11713 177.84979
170.0 0.00588 159.16765 177.93425
167.0 0.00599 159.21840 178.02318
147.0 0.00680 159.26939 178.11642
154.0 0.00649 159.32069 178.21417
176.0 0.00568 159.37222 178.39467
163.0 0.00613 159.42403 178.51421
143.0 0.00699 159.47607 178.62585
138.0 0.00725 159.52840 178.74232
143.0 0.00699 159.58096 178.86377
180.0 0.00556 159.63379 178.98997
181.0 0.00552 159.68690 179.12135
164.0 0.00610 159.74026 179.25777
155.0 0.00645 159.79390 179.39944
156.0 0.00641 159.84779 179.54660
157.0 0.00637 159.90196 179.69913
162.0 0.00617 159.95638 179.85742
138.0 0.00725 160.01109 180.02155
160.0 0.00625 160.06604 180.19159
155.0 0.00645 160.12126 180.36771
181.0 0.00552 160.17677 180.55013
152.0 0.00658 160.23253 180.75536
188.0 0.00532 160.28857 180.95108
182.0 0.00549 160.34488 181.15933
161.0 0.00621 160.40147 181.36903
141.0 0.00709 160.45831 181.58609
165.0 0.00606 160.51544 181.81099
169.0 0.00592 160.57285 182.10243
164.0 0.00610 160.63049 182.34357
142.0 0.00704 160.68846 182.59323
161.0 0.00621 160.74667 182.85193
146.0 0.00685 160.80519 183.15977
156.0 0.00641 160.86395 183.22263
165.0 0.00606 160.92302 183.51137
161.0 0.00621 160.98235 183.81067
161.0 0.00621 161.04195 184.12115
161.0 0.00621 161.10184 184.44373
153.0 0.00654 161.16200 184.77869
158.0 0.00633 161.22247 185.12706
154.0 0.00649 161.28319 185.48946
165.0 0.00606 161.34422 185.86690
163.0 0.00613 161.40552 186.26048
188.0 0.00532 161.46710 186.67134
168.0 0.00595 161.52896 187.10101
143.0 0.00699 161.59111 187.55086
197.0 0.00508 161.65355 188.02260
176.0 0.00568 161.71626 188.39903
181.0 0.00552 161.77930 188.92142
146.0 0.00685 161.84258 189.47229
200.0 0.00500 161.90619 190.05482
177.0 0.00565 161.97005 190.67216
170.0 0.00588 162.03424 191.32770
179.0 0.00559 162.09868 192.05563
186.0 0.00538 162.16342 192.80061
194.0 0.00515 162.22847 193.63470
185.0 0.00541 162.29379 194.48909
183.0 0.00546 162.35944 195.40712
197.0 0.00508 162.42534 196.39532
196.0 0.00510 162.49158 197.46098
196.0 0.00510 162.55807 198.61195
181.0 0.00552 162.62486 199.85664
188.0 0.00532 162.69199 201.20412
191.0 0.00524 162.75938 202.63727
182.0 0.00549 162.82709 204.21944
195.0 0.00513 162.89508 205.93425
205.0 0.00488 162.96339 207.79239
189.0 0.00529 163.03198 209.80511
207.0 0.00483 163.10089 211.98317
225.0 0.00444 163.17009 214.33760
208.0 0.00481 163.23958 216.87946
194.0 0.00515 163.30942 219.61923
201.0 0.00498 163.37952 222.56657
229.0 0.00437 163.44994 225.73094
222.0 0.00450 163.52066 229.12030
221.0 0.00452 163.59171 232.74176
230.0 0.00435 163.66302 236.60085
224.0 0.00446 163.73468 240.70145
232.0 0.00431 163.80663 244.90289
219.0 0.00457 163.87888 249.48975
230.0 0.00435 163.95146 254.31627
256.0 0.00391 164.02432 259.37573
262.0 0.00382 164.09753 264.65860
254.0 0.00394 164.17104 270.15088
268.0 0.00373 164.24486 275.83411
288.0 0.003472 164.31898 281.68414
304.0 0.003289 164.39342 287.67157
304.0 0.003289 164.46820 293.76016
292.0 0.003425 164.54326 299.90662
295.0 0.003390 164.61867 306.06030
312.0 0.003205 164.69437 312.16379
307.0 0.003257 164.77040 318.15253
309.0 0.003236 164.84674 323.95728
334.0 0.002994 164.92342 329.50558
354.0 0.002825 165.00040 334.72519
343.0 0.002915 165.07768 339.54752
376.0 0.002660 165.15533 343.91235
367.0 0.002725 165.23326 347.77274
366.0 0.002732 165.31155 351.09644
379.0 0.002639 165.39014 353.87085
351.0 0.002849 165.46907 356.10361
376.0 0.002660 165.54831 357.82117
344.0 0.002907 165.62790 359.06671
383.0 0.002611 165.70779 359.89648
383.0 0.002611 165.78801 360.37540
382.0 0.002618 165.86858 360.57214
391.0 0.002558 165.94945 360.55548
376.0 0.002660 166.03069 360.38995
364.0 0.002747 166.11221 360.13419
365.0 0.002740 166.19411 359.83853
377.0 0.002653 166.27631 359.54590
394.0 0.002538 166.35883 359.29077
358.0 0.002793 166.44171 359.10233
367.0 0.002725 166.52492 359.00500
332.0 0.003012 166.60847 359.02173
356.0 0.002809 166.69234 359.17596
377.0 0.002653 166.77658 359.49527
394.0 0.002538 166.86111 360.01093
347.0 0.002882 166.94603 360.76151
385.0 0.002597 167.03125 361.79150
383.0 0.002611 167.11681 363.15054
410.0 0.002439 167.20273 364.89294
348.0 0.002874 167.28897 367.07407
378.0 0.002646 167.37558 369.74905
394.0 0.002538 167.46251 372.96973
352.0 0.002841 167.54980 376.78259
414.0 0.002415 167.63742 381.22699
380.0 0.002632 167.72540 386.33347
387.0 0.002584 167.81371 392.12216
383.0 0.002611 167.90236 398.60294
405.0 0.002469 167.99139 405.77350
441.0 0.002268 168.08073 413.61880
410.0 0.002439 168.17046 422.11050
415.0 0.002410 168.26050 431.20581
440.0 0.002273 168.35092 440.84656
433.0 0.002309 168.44167 450.95792
427.0 0.002342 168.53276 461.44629
456.0 0.002193 168.62425 472.20071
470.0 0.002128 168.71605 483.08960
501.0 0.001996 168.80824 493.96286
499.0 0.002004 168.90076 504.65271
516.0 0.001938 168.99367 514.97748
550.0 0.001818 169.08690 524.74677
532.0 0.001880 169.18051 533.77020
517.0 0.001934 169.27444 541.86523
555.0 0.001802 169.36874 548.86981
568.0 0.001761 169.46344 554.65167
569.0 0.001757 169.55847 559.11877
539.0 0.001855 169.65388 562.22577
517.0 0.001934 169.74963 563.97369
572.0 0.001748 169.84578 564.41083
485.0 0.002062 169.94225 563.62329
531.0 0.001883 170.03912 561.72638
523.0 0.001912 170.13634 558.85199
514.0 0.001946 170.23390 555.13788
533.0 0.001876 170.33188 550.71625
474.0 0.002110 170.43018 545.70557
532.0 0.001880 170.52888 540.20313
488.0 0.002049 170.62793 534.28418
513.0 0.001949 170.72739 527.99860
527.0 0.001898 170.82718 521.37421
505.0 0.001980 170.92734 514.41968
497.0 0.002012 171.02789 507.12836
444.0 0.002252 171.12880 499.48703
482.0 0.002075 171.23012 491.48138
463.0 0.002160 171.33177 483.10251
475.0 0.002105 171.43384 474.35397
461.0 0.002169 171.53625 465.25421
484.0 0.002066 171.63907 455.83978
473.0 0.002114 171.74225 446.16333
429.0 0.002331 171.84578 436.29254
451.0 0.002217 171.94975 426.30518
420.0 0.002381 172.05406 416.28439
397.0 0.002519 172.15878 406.31494
384.0 0.002604 172.26385 396.47757
429.0 0.002331 172.36934 386.84793
401.0 0.002494 172.47517 377.49255
383.0 0.002611 172.58145 368.46887
416.0 0.002404 172.68805 359.82544
348.0 0.002874 172.79504 351.60089
355.0 0.002817 172.90248 343.82672
352.0 0.002841 173.01025 336.52631
358.0 0.002793 173.11845 329.71771
349.0 0.002865 173.22701 323.41302
350.0 0.002857 173.33600 317.62125
301.0 0.003322 173.44533 312.34760
356.0 0.002809 173.55505 307.59543
306.0 0.003268 173.66522 303.36627
340.0 0.002941 173.77574 299.66003
320.0 0.003125 173.88669 296.47662
304.0 0.003289 173.99800 293.81549
321.0 0.003115 174.10974 291.67651
315.0 0.003175 174.22185 290.05914
347.0 0.002882 174.33440 288.96457
308.0 0.003247 174.44730 288.39383
322.0 0.003106 174.56059 288.34976
317.0 0.003155 174.67435 288.83560
315.0 0.003175 174.78845 289.85605
315.0 0.003175 174.90300 291.41693
380.0 0.002632 175.01791 293.52432
323.0 0.003096 175.13327 296.18634
363.0 0.002755 175.24899 299.41077
338.0 0.002959 175.36517 303.20590
324.0 0.003086 175.48170 307.58066
353.0 0.002833 175.59866 312.54312
317.0 0.003155 175.71605 318.10117
344.0 0.002907 175.83382 324.26096
345.0 0.002899 175.95204 331.02747
345.0 0.002899 176.07063 338.40298
377.0 0.002653 176.18967 346.38669
409.0 0.002445 176.30908 354.97403
389.0 0.002571 176.42891 364.15540
430.0 0.002326 176.54919 373.91550
390.0 0.002564 176.66986 384.23221
371.0 0.002695 176.79099 395.07495
442.0 0.002262 176.91248 406.40433
428.0 0.002336 177.03444 418.17047
390.0 0.002564 177.15677 430.31277
487.0 0.002053 177.27956 442.75928
498.0 0.002008 177.40274 455.42685
484.0 0.002066 177.52634 468.22369
506.0 0.001976 177.65039 481.05032
495.0 0.002020 177.77484 493.80347
498.0 0.002008 177.89975 506.38025
572.0 0.001748 178.02504 518.68311
517.0 0.001934 178.15082 530.62396
525.0 0.001905 178.27696 542.12695
555.0 0.001802 178.40358 553.13135
573.0 0.001745 178.53059 563.58997
544.0 0.001838 178.65804 573.46704
616.0 0.001623 178.78593 582.73407
629.0 0.001590 178.91425 591.36456
597.0 0.001675 179.04303 599.32776
645.0 0.001550 179.17218 606.58704
644.0 0.001553 179.30183 613.09564
600.0 0.001667 179.43187 618.79974
665.0 0.001504 179.56235 623.63855
640.0 0.001563 179.69331 627.55164
647.0 0.001546 179.82465 630.48376
616.0 0.001623 179.95648 632.39276
603.0 0.001658 180.08871 633.25537
654.0 0.001529 180.22144 633.07257
654.0 0.001529 180.35454 631.87134
638.0 0.001567 180.48814 629.70465
589.0 0.001698 180.62215 626.65021
584.0 0.001712 180.75659 622.80591
655.0 0.001527 180.89153 618.28430
600.0 0.001667 181.02686 613.20789
613.0 0.001631 181.16270 607.70117
601.0 0.001664 181.29892 601.88611
625.0 0.001600 181.43565 595.87476
613.0 0.001631 181.57278 589.76855
585.0 0.001709 181.71042 583.65234
570.0 0.001754 181.84845 577.59540
545.0 0.001835 181.98694 571.65106
558.0 0.001792 182.12593 565.85809
545.0 0.001835 182.26532 560.24518
540.0 0.001852 182.40523 554.83423
560.0 0.001786 182.54553 549.64246
556.0 0.001799 182.68636 544.68915
558.0 0.001792 182.82758 539.99512
551.0 0.001815 182.96925 535.58606
537.0 0.001862 183.11145 531.48932
524.0 0.001908 183.25406 527.73560
514.0 0.001946 183.39717 524.35425
541.0 0.001848 183.54071 521.36981
546.0 0.001832 183.68475 518.80005
538.0 0.001859 183.82922 516.65216
512.0 0.001953 183.97420 514.92151
507.0 0.001972 184.11960 513.59094
551.0 0.001815 184.26546 512.63135
516.0 0.001938 184.41183 512.00323
516.0 0.001938 184.55864 511.66061
535.0 0.001869 184.70596 511.55490
532.0 0.001880 184.85370 511.63852
547.0 0.001828 185.00197 511.86954
508.0 0.001969 185.15067 512.21478
525.0 0.001905 185.29988 512.65070
571.0 0.001751 185.44951 513.16394
510.0 0.001961 185.59964 513.74762
522.0 0.001916 185.75029 514.40125
549.0 0.001821 185.90135 515.12219
501.0 0.001996 186.05296 515.90582
553.0 0.001808 186.20499 516.73816
535.0 0.001869 186.35756 517.59784
541.0 0.001848 186.51056 518.45166
518.0 0.001931 186.66403 519.25861
517.0 0.001934 186.81805 519.96960
525.0 0.001905 186.97250 520.53564
512.0 0.001953 187.12749 520.90717
558.0 0.001792 187.28291 521.04425
568.0 0.001761 187.43887 520.91608
546.0 0.001832 187.59528 520.50903
551.0 0.001815 187.75223 519.82452
539.0 0.001855 187.90961 518.88159
514.0 0.001946 188.06747 517.71466
504.0 0.001984 188.22589 516.37042
561.0 0.001783 188.38475 514.90546
501.0 0.001996 188.54416 513.35382
503.0 0.001988 188.70401 511.82632
508.0 0.001969 188.86443 510.35406
520.0 0.001923 189.02525 508.98386
503.0 0.001988 189.18666 507.75296
487.0 0.002053 189.34851 506.68515
557.0 0.001795 189.51085 505.78995
520.0 0.001923 189.67375 505.06433
533.0 0.001876 189.83710 504.49167
481.0 0.002079 190.00101 504.04449
497.0 0.002012 190.16537 503.68756
535.0 0.001869 190.33029 503.37933
490.0 0.002041 190.49567 503.07550
520.0 0.001923 190.66154 502.73245
509.0 0.001965 190.82799 502.30963
522.0 0.001916 190.99489 501.59717
539.0 0.001855 191.16235 500.91669
494.0 0.002024 191.33028 500.07547
496.0 0.002016 191.49876 499.06750
503.0 0.001988 191.66771 497.89996
507.0 0.001972 191.83723 496.59448
545.0 0.001835 192.00720 495.18735
526.0 0.001901 192.17770 493.72958
461.0 0.002169 192.34877 492.28528
529.0 0.001890 192.52031 490.92880
521.0 0.001919 192.69241 489.74295
512.0 0.001953 192.86499 488.81491
488.0 0.002049 193.03815 488.23334
524.0 0.001908 193.21176 488.03458
497.0 0.002012 193.38596 488.40204
546.0 0.001832 193.56062 489.36166
524.0 0.001908 193.73581 490.98203
508.0 0.001969 193.91159 493.32367
516.0 0.001938 194.08784 496.43829
514.0 0.001946 194.26468 500.37000
532.0 0.001880 194.44199 505.15494
527.0 0.001898 194.61989 510.82327
516.0 0.001938 194.79826 517.39954
549.0 0.001821 194.97716 524.90497
507.0 0.001972 195.15666 533.35748
544.0 0.001838 195.33662 542.77252
560.0 0.001786 195.51720 553.16467
566.0 0.001767 195.69824 564.54382
590.0 0.001695 195.87990 576.91669
596.0 0.001678 196.06201 590.28387
623.0 0.001605 196.24475 604.63696
609.0 . . .
