#------------------------------------------------------------------------------
#$Date: 2021-04-26 20:55:38 +0300 (Mon, 26 Apr 2021) $
#$Revision: 264550 $
#$URL: file:///home/coder/svn-repositories/cod/cif/7/21/92/7219230.cif $
#------------------------------------------------------------------------------
#
# This file is available in the Crystallography Open Database (COD),
# http://www.crystallography.net/
#
# All data on this site have been placed in the public domain by the
# contributors.
#
data_7219230
loop_
_publ_author_name
'Gon\,calves, R. F.'
'Cavalcante, L. S.'
'Nogueira, I. C.'
'Longo, E.'
'Godinho, M. J.'
'Sczancoski, J. C.'
'Mastelaro, V. R.'
'Pinatti, I. M.'
'Rosa, I. L. V.'
'Marques, A. P. A.'
_publ_section_title
;
 Rietveld refinement, cluster modelling, growth mechanism and
 photoluminescence properties of CaWO4:Eu3+microcrystals
;
_journal_issue                   7
_journal_name_full               CrystEngComm
_journal_page_first              1654
_journal_paper_doi               10.1039/C4CE02279C
_journal_volume                  17
_journal_year                    2015
_chemical_compound_source        Scheelite
_chemical_formula_analytical     'Ca0.99 Eu0.01 04 W'
_chemical_formula_moiety         'Ca0.99 Eu0.01 04 W'
_chemical_formula_structural     'Ca0.99 Eu0.01 04 W'
_chemical_formula_sum            'Ca0.99 Eu0.01 O4 W'
_chemical_formula_weight         289.12
_chemical_melting_point          1890
_chemical_name_common            'Calcium europium tungstate'
_space_group_IT_number           88
_symmetry_cell_setting           tetragonal
_symmetry_space_group_name_Hall  '-I 4ad'
_symmetry_space_group_name_H-M   'I 41/a :2'
_audit_creation_date             2014-08-13T15:20
_audit_creation_method           'from EXP file using GSAS2CIF'
_audit_update_record
;
2014-12-23 deposited with the CCDC.
2015-01-05 downloaded from the CCDC.
;
_cell_angle_alpha                90.0
_cell_angle_beta                 90.0
_cell_angle_gamma                90.0
_cell_formula_units_Z            4
_cell_length_a                   5.24701(5)
_cell_length_b                   5.24701
_cell_length_c                   11.38460(18)
_cell_measurement_temperature    298
_cell_volume                     313.431(6)
_computing_data_collection       Jade
_computing_data_reduction        Jade
_computing_structure_refinement  GSAS
_computing_structure_solution    xx
_diffrn_ambient_temperature      298
_diffrn_detector                 scintillation
_diffrn_detector_type            scintillation
_diffrn_measurement_device_type  'Rigaku AFC-7R'
_diffrn_radiation_monochromator  xx
_diffrn_radiation_polarisn_ratio 0.5
_diffrn_radiation_probe          x-ray
_diffrn_source                   Cu
_diffrn_source_target            Cu
_diffrn_source_type              Copper
_exptl_absorpt_correction_T_max  0.98087
_exptl_absorpt_correction_T_min  0.56812
_exptl_absorpt_process_details
;   GSAS Absorption/surface roughness correction: function number 3
 Surface roughness abs. correction (Suortti)
Terms =     0.30338        0.21029    
Correction is refined.
;
_exptl_crystal_density_diffrn    6.12
_exptl_crystal_density_meas      6.12
_exptl_crystal_density_method    'not measured'
_exptl_crystal_F_000             276
_pd_block_id                     2014-08-13T15:20|1%EU|Icamira|Rigaku
_pd_calc_method                  'Rietveld Refinement'
_pd_char_colour                  white
_pd_char_particle_morphology     irregular
_pd_instr_location               ' ?'
_pd_meas_2theta_range_inc        0.02
_pd_meas_2theta_range_max        110.0
_pd_meas_2theta_range_min        10.0
_pd_meas_number_of_points        5001
_pd_meas_scan_method             disp
_pd_phase_name
'from C:/Ref_CaWO4/CW-1%Eu/EntryWithCollCode18135.cif'
_pd_prep_cool_rate               1
_pd_prep_pressure                100
_pd_prep_temperature             298
_pd_proc_2theta_range_inc        0.02
_pd_proc_2theta_range_max        110.0
_pd_proc_2theta_range_min        10.0
_pd_proc_info_data_reduction     Jade
_pd_proc_info_datetime           2014-10-03T18:12:29
_pd_proc_info_excluded_regions   ' ?'
_pd_proc_ls_background_function
;   GSAS Background function number 1 with 17 terms.
 Shifted Chebyshev function of 1st kind
      1:    216.571     2:   -89.1242     3:    30.3881     4:   -48.1585    
      5:    14.2991     6:   -14.3344     7:    12.5820     8:   -18.5511    
      9:    12.2435    10:   -7.32233    11:   0.212904    12:    17.7813    
     13:    2.69869    14:   -6.44819    15:    15.0557    16:    5.72997    
     17:    6.65659    
;
_pd_proc_ls_peak_cutoff          0.00030
_pd_proc_ls_profile_function
;
 CW Profile function number 4 with  17 terms
 Pseudovoigt profile coefficients as parameterized in
 P. Thompson, D.E. Cox & J.B. Hastings (1987). J. Appl. Cryst.,20,79-83.
 Asymmetry correction of L.W. Finger, D.E. Cox & A. P. Jephcoat (1994).
 J. Appl. Cryst.,27,892-900.
 Microstrain broadening by P.W. Stephens,  (1999). J. Appl. Cryst.,32,281-289.
 Peak tails are ignored  where the intensity is below 0.0003 times the peak
   Aniso. broadening axis   0.0   0.0   1.0
;
_pd_proc_number_of_points        5001
_pd_spec_mounting                ' ?'
_refine_ls_goodness_of_fit_all   2.24
_refine_ls_goodness_of_fit_ref   2.24
_refine_ls_matrix_type           full
_refine_ls_number_parameters     34
_refine_ls_number_restraints     0
_refine_ls_R_factor_all          0.0548
_refine_ls_R_factor_gt           0.0326
_refine_ls_R_Fsqd_factor         0.04681
_refine_ls_shift/su_max          0.13
_refine_ls_shift/su_mean         0.02
_refine_ls_wR_factor_gt          0.0729
_reflns_d_resolution_high        0.944
_reflns_d_resolution_low         4.765
_reflns_limit_h_max              5
_reflns_limit_h_min              0
_reflns_limit_k_max              5
_reflns_limit_k_min              0
_reflns_limit_l_max              12
_reflns_limit_l_min              0
_reflns_number_total             204
_cod_data_source_file            c4ce02279c2.cif
_cod_data_source_block           1%EU_publ
_cod_depositor_comments
;
The following automatic conversions were performed:

'_geom_bond_publ_flag' value 'N' changed to 'n' according to
/usr/data/users/saulius/crontab/automatic-downloads/rss-feeds/RSC/lib/dictionaries/cif_core.dic
dictionary named 'cif_core.dic' version 2.4.2 from 2011-04-26 (49
times).

'_geom_angle_publ_flag' value 'N' changed to 'n' according
to
/usr/data/users/saulius/crontab/automatic-downloads/rss-feeds/RSC/lib/dictionaries/cif_core.dic
dictionary named 'cif_core.dic' version 2.4.2 from 2011-04-26 (186
times).

Automatic conversion script
Id: cif_fix_values 2935 2014-11-11 08:27:57Z andrius 

 Adding full bibliography for 7219229--7219232.cif.

 Removed the _chemical_name_systematic data item since
 it had an incorrect value 'xx'.

 Antanas Vaitkus,
 2021-04-26
;
_cod_original_cell_volume        313.431(8)
_cod_original_sg_symbol_Hall     -I4ad
_cod_original_sg_symbol_H-M      'I 41/a'
_cod_database_code               7219230
loop_
_symmetry_equiv_pos_site_id
_symmetry_equiv_pos_as_xyz
1 +x,+y,+z
2 -y+3/4,+x+1/4,+z+1/4
3 -x+1/2,-y,+z+1/2
4 +y+3/4,-x+3/4,+z+3/4
-1 -x,-y,-z
-2 +y+1/4,-x+3/4,-z+3/4
-3 +x+1/2,+y,-z+1/2
-4 -y+1/4,+x+1/4,-z+1/4
101 +x+1/2,+y+1/2,+z+1/2
102 -y+1/4,+x+3/4,+z+3/4
103 -x,-y+1/2,+z
104 +y+1/4,-x+1/4,+z+1/4
-101 -x+1/2,-y+1/2,-z+1/2
-102 +y+3/4,-x+1/4,-z+1/4
-103 +x,+y+1/2,-z
-104 -y+3/4,+x+3/4,-z+3/4
loop_
_atom_site_type_symbol
_atom_site_label
_atom_site_fract_x
_atom_site_fract_y
_atom_site_fract_z
_atom_site_occupancy
_atom_site_thermal_displace_type
_atom_site_U_iso_or_equiv
_atom_site_symmetry_multiplicity
Ca Ca1 0.0 0.25 0.625 0.98967 Uiso 0.01807 4
W W1 0.0 0.25 0.125 1.0 Uiso 0.02085 4
O O1 0.14411 0.01692 0.20586 1.0 Uiso 0.03359 16
Eu EU4 0.0 0.25 0.625 0.01059 Uiso 0.02207 4
loop_
_atom_type_symbol
_atom_type_number_in_cell
_atom_type_scat_dispersion_real
_atom_type_scat_dispersion_imag
_atom_type_scat_Cromer_Mann_a1
_atom_type_scat_Cromer_Mann_a2
_atom_type_scat_Cromer_Mann_a3
_atom_type_scat_Cromer_Mann_a4
_atom_type_scat_Cromer_Mann_b1
_atom_type_scat_Cromer_Mann_b2
_atom_type_scat_Cromer_Mann_b3
_atom_type_scat_Cromer_Mann_b4
_atom_type_scat_Cromer_Mann_c
_atom_type_scat_source
Ca 3.959 0.000 0.000 15.6348 -0.0074 7.95180 0.60890 8.43720 10.3116 0.85370
25.9905 -14.875 International_Tables_Vol_C
W 4.0 0.000 0.000 29.4936 1.42755 19.3763 0.10462 13.0544 5.93667 5.06412
11.1972 1.01074 International_Tables_Vol_C
O 16.0 0.000 0.000 3.76936 15.0797 2.53342 6.30430 1.91579 40.3445 1.55094
0.31291 0.22789 International_Tables_Vol_C
Eu 0.042 0.000 0.000 24.6274 2.38790 19.0886 0.19420 13.7603 13.7546 2.92270
123.174 2.57450 International_Tables_Vol_C
loop_
_diffrn_radiation_wavelength
_diffrn_radiation_wavelength_wt
_diffrn_radiation_type
_diffrn_radiation_wavelength_id
1.540500 1.000 CuK\a 1
1.544300 0.500 CuK\a 2
loop_
_geom_angle_atom_site_label_1
_geom_angle_atom_site_label_2
_geom_angle_atom_site_label_3
_geom_angle
_geom_angle_site_symmetry_1
_geom_angle_site_symmetry_3
_geom_angle_publ_flag
Ca1 Ca1 Ca1 85.3381(10) 2_455 2_555 n
Ca1 Ca1 Ca1 122.7271(6) 2_455 4_444 n
Ca1 Ca1 Ca1 122.7271(6) 2_455 4_454 n
Ca1 Ca1 O1 100.7655(10) 2_455 2_455 n
Ca1 Ca1 O1 103.5706(8) 2_455 3_555 n
Ca1 Ca1 O1 39.4762(4) 2_455 -1_556 n
Ca1 Ca1 O1 130.39540(10) 2_455 -2_555 n
Ca1 Ca1 O1 39.2712 2_455 101_455 n
Ca1 Ca1 O1 83.7686(6) 2_455 -104_445 n
Ca1 Ca1 EU4 0.0 2_455 2_455 n
Ca1 Ca1 EU4 85.3381(10) 2_455 2_555 n
Ca1 Ca1 EU4 122.7271(6) 2_455 4_444 n
Ca1 Ca1 EU4 122.7271(6) 2_455 4_454 n
Ca1 Ca1 Ca1 122.7271(6) 2_555 4_444 n
Ca1 Ca1 Ca1 122.7271(6) 2_555 4_454 n
Ca1 Ca1 O1 161.20880(20) 2_555 2_455 n
Ca1 Ca1 O1 39.2712 2_555 3_555 n
Ca1 Ca1 O1 68.8015(8) 2_555 -1_556 n
Ca1 Ca1 O1 83.7686(6) 2_555 -2_555 n
Ca1 Ca1 O1 103.5706(8) 2_555 101_455 n
Ca1 Ca1 O1 130.39540(10) 2_555 -104_445 n
Ca1 Ca1 EU4 85.3381(10) 2_555 2_455 n
Ca1 Ca1 EU4 0.0 2_555 2_555 n
Ca1 Ca1 EU4 122.7271(6) 2_555 4_444 n
Ca1 Ca1 EU4 122.7271(6) 2_555 4_454 n
Ca1 Ca1 Ca1 85.3381(10) 4_444 4_454 n
Ca1 Ca1 O1 68.8015(8) 4_444 2_455 n
Ca1 Ca1 O1 83.7686(6) 4_444 3_555 n
Ca1 Ca1 O1 100.7655(10) 4_444 -1_556 n
Ca1 Ca1 O1 103.5706(8) 4_444 -2_555 n
Ca1 Ca1 O1 130.39540(10) 4_444 101_455 n
Ca1 Ca1 O1 39.2712 4_444 -104_445 n
Ca1 Ca1 EU4 122.7271(6) 4_444 2_455 n
Ca1 Ca1 EU4 122.7271(6) 4_444 2_555 n
Ca1 Ca1 EU4 0.0 4_444 4_444 n
Ca1 Ca1 EU4 85.3381(10) 4_444 4_454 n
Ca1 Ca1 O1 39.4762(4) 4_454 2_455 n
Ca1 Ca1 O1 130.39540(10) 4_454 3_555 n
Ca1 Ca1 O1 161.20880(20) 4_454 -1_556 n
Ca1 Ca1 O1 39.2712 4_454 -2_555 n
Ca1 Ca1 O1 83.7686(6) 4_454 101_455 n
Ca1 Ca1 O1 68.8015(8) 4_454 104_333 n
Ca1 Ca1 O1 103.5706(8) 4_454 -104_445 n
Ca1 Ca1 EU4 122.7271(6) 4_454 2_455 n
Ca1 Ca1 EU4 122.7271(6) 4_454 2_555 n
Ca1 Ca1 EU4 85.3381(10) 4_454 4_444 n
Ca1 Ca1 EU4 0.0 4_454 4_454 n
O1 Ca1 O1 150.33521(10) 2_455 3_555 n
O1 Ca1 O1 126.4493(6) 2_455 -1_556 n
O1 Ca1 O1 78.7474(5) 2_455 -2_555 n
O1 Ca1 O1 72.3400(9) 2_455 101_455 n
O1 Ca1 O1 68.25770(30) 2_455 -104_445 n
O1 Ca1 EU4 100.7655(10) 2_455 2_455 n
O1 Ca1 EU4 161.20880(20) 2_455 2_555 n
O1 Ca1 EU4 68.8015(8) 2_455 4_444 n
O1 Ca1 EU4 39.4762(4) 2_455 4_454 n
O1 Ca1 O1 68.25770(30) 3_555 -1_556 n
O1 Ca1 O1 97.73540(20) 3_555 -2_555 n
O1 Ca1 O1 136.9537(7) 3_555 101_455 n
O1 Ca1 O1 97.73540(20) 3_555 -104_445 n
O1 Ca1 EU4 103.5706(8) 3_555 2_455 n
O1 Ca1 EU4 39.2712 3_555 2_555 n
O1 Ca1 EU4 83.7686(6) 3_555 4_444 n
O1 Ca1 EU4 130.39540(10) 3_555 4_454 n
O1 Ca1 O1 150.33521(10) -1_556 -2_555 n
O1 Ca1 O1 78.7474(5) -1_556 101_455 n
O1 Ca1 O1 72.3400(9) -1_556 -104_445 n
O1 Ca1 EU4 39.4762(4) -1_556 2_455 n
O1 Ca1 EU4 68.8015(8) -1_556 2_555 n
O1 Ca1 EU4 100.7655(10) -1_556 4_444 n
O1 Ca1 EU4 161.20880(20) -1_556 4_454 n
O1 Ca1 O1 97.73540(20) -2_555 101_455 n
O1 Ca1 O1 136.9537(7) -2_555 -104_445 n
O1 Ca1 EU4 39.2712 -2_766 4_454 n
O1 Ca1 O1 97.73540(20) 101_455 -104_445 n
O1 Ca1 EU4 39.2712 101_455 2_455 n
O1 Ca1 EU4 103.5706(8) 101_455 2_555 n
O1 Ca1 EU4 130.39540(10) 101_455 4_444 n
O1 Ca1 EU4 83.7686(6) 101_455 4_454 n
O1 Ca1 EU4 68.8015(8) 104_544 4_454 n
O1 Ca1 EU4 83.7686(6) -104_656 2_455 n
O1 Ca1 EU4 39.2712 -104_656 4_444 n
EU4 Ca1 EU4 85.3381(10) 2_455 2_555 n
EU4 Ca1 EU4 122.7271(6) 2_455 4_444 n
EU4 Ca1 EU4 122.7271(6) 2_455 4_454 n
EU4 Ca1 EU4 122.7271(6) 2_555 4_444 n
EU4 Ca1 EU4 122.7271(6) 2_555 4_454 n
EU4 Ca1 EU4 85.3381(10) 4_444 4_454 n
O1 W1 O1 106.9008(5) 1_555 -4_555 n
Ca1 O1 Ca1 101.2526(5) 3_554 4_444 n
Ca1 O1 W1 122.1154(8) 3_554 1_555 n
Ca1 O1 EU4 0.0 3_554 3_554 n
Ca1 O1 EU4 101.2526(5) 3_554 4_444 n
Ca1 O1 W1 133.08730(30) 4_444 1_555 n
Ca1 O1 EU4 101.2526(5) 4_444 3_554 n
Ca1 O1 EU4 0.0 4_444 4_444 n
W1 O1 EU4 122.1154(8) 1_555 3_554 n
W1 O1 EU4 133.08730(30) 1_555 4_444 n
EU4 O1 EU4 101.2526(5) 3_554 4_444 n
Ca1 EU4 Ca1 85.3381(10) 2_455 2_555 n
Ca1 EU4 Ca1 122.7271(6) 2_455 4_444 n
Ca1 EU4 Ca1 122.7271(6) 2_455 4_454 n
Ca1 EU4 O1 100.7655(10) 2_455 2_455 n
Ca1 EU4 O1 103.5706(8) 2_455 3_555 n
Ca1 EU4 O1 39.4762(4) 2_455 -1_556 n
Ca1 EU4 O1 130.39540(10) 2_455 -2_555 n
Ca1 EU4 O1 39.2712 2_455 101_455 n
Ca1 EU4 O1 83.7686(6) 2_455 -104_445 n
Ca1 EU4 EU4 0.0 2_455 2_455 n
Ca1 EU4 EU4 85.3381(10) 2_455 2_555 n
Ca1 EU4 EU4 122.7271(6) 2_455 4_444 n
Ca1 EU4 EU4 122.7271(6) 2_455 4_454 n
Ca1 EU4 Ca1 122.7271(6) 2_555 4_444 n
Ca1 EU4 Ca1 122.7271(6) 2_555 4_454 n
Ca1 EU4 O1 161.20880(20) 2_555 2_455 n
Ca1 EU4 O1 39.2712 2_555 3_555 n
Ca1 EU4 O1 68.8015(8) 2_555 -1_556 n
Ca1 EU4 O1 83.7686(6) 2_555 -2_555 n
Ca1 EU4 O1 103.5706(8) 2_555 101_455 n
Ca1 EU4 O1 130.39540(10) 2_555 -104_445 n
Ca1 EU4 EU4 85.3381(10) 2_555 2_455 n
Ca1 EU4 EU4 0.0 2_555 2_555 n
Ca1 EU4 EU4 122.7271(6) 2_555 4_444 n
Ca1 EU4 EU4 122.7271(6) 2_555 4_454 n
Ca1 EU4 Ca1 85.3381(10) 4_444 4_454 n
Ca1 EU4 O1 68.8015(8) 4_444 2_455 n
Ca1 EU4 O1 83.7686(6) 4_444 3_555 n
Ca1 EU4 O1 100.7655(10) 4_444 -1_556 n
Ca1 EU4 O1 103.5706(8) 4_444 -2_555 n
Ca1 EU4 O1 130.39540(10) 4_444 101_455 n
Ca1 EU4 O1 39.2712 4_444 -104_445 n
Ca1 EU4 EU4 122.7271(6) 4_444 2_455 n
Ca1 EU4 EU4 122.7271(6) 4_444 2_555 n
Ca1 EU4 EU4 0.0 4_444 4_444 n
Ca1 EU4 EU4 85.3381(10) 4_444 4_454 n
Ca1 EU4 O1 39.4762(4) 4_454 2_455 n
Ca1 EU4 O1 130.39540(10) 4_454 3_555 n
Ca1 EU4 O1 161.20880(20) 4_454 -1_556 n
Ca1 EU4 O1 39.2712 4_454 -2_555 n
Ca1 EU4 O1 83.7686(6) 4_454 101_455 n
Ca1 EU4 O1 68.8015(8) 4_454 104_333 n
Ca1 EU4 O1 103.5706(8) 4_454 -104_445 n
Ca1 EU4 EU4 122.7271(6) 4_454 2_455 n
Ca1 EU4 EU4 122.7271(6) 4_454 2_555 n
Ca1 EU4 EU4 85.3381(10) 4_454 4_444 n
Ca1 EU4 EU4 0.0 4_454 4_454 n
O1 EU4 O1 150.33521(10) 2_455 3_555 n
O1 EU4 O1 126.4493(6) 2_455 -1_556 n
O1 EU4 O1 78.7474(5) 2_455 -2_555 n
O1 EU4 O1 72.3400(9) 2_455 101_455 n
O1 EU4 O1 68.25770(30) 2_455 -104_445 n
O1 EU4 EU4 100.7655(10) 2_455 2_455 n
O1 EU4 EU4 161.20880(20) 2_455 2_555 n
O1 EU4 EU4 68.8015(8) 2_455 4_444 n
O1 EU4 EU4 39.4762(4) 2_455 4_454 n
O1 EU4 O1 68.25770(30) 3_555 -1_556 n
O1 EU4 O1 97.73540(20) 3_555 -2_555 n
O1 EU4 O1 136.9537(7) 3_555 101_455 n
O1 EU4 O1 97.73540(20) 3_555 -104_445 n
O1 EU4 EU4 103.5706(8) 3_555 2_455 n
O1 EU4 EU4 39.2712 3_555 2_555 n
O1 EU4 EU4 83.7686(6) 3_555 4_444 n
O1 EU4 EU4 130.39540(10) 3_555 4_454 n
O1 EU4 O1 150.33521(10) -1_556 -2_555 n
O1 EU4 O1 78.7474(5) -1_556 101_455 n
O1 EU4 O1 72.3400(9) -1_556 -104_445 n
O1 EU4 EU4 39.4762(4) -1_556 2_455 n
O1 EU4 EU4 68.8015(8) -1_556 2_555 n
O1 EU4 EU4 100.7655(10) -1_556 4_444 n
O1 EU4 EU4 161.20880(20) -1_556 4_454 n
O1 EU4 O1 97.73540(20) -2_555 101_455 n
O1 EU4 O1 136.9537(7) -2_555 -104_445 n
O1 EU4 EU4 39.2712 -2_766 4_454 n
O1 EU4 O1 97.73540(20) 101_455 -104_445 n
O1 EU4 EU4 39.2712 101_455 2_455 n
O1 EU4 EU4 103.5706(8) 101_455 2_555 n
O1 EU4 EU4 130.39540(10) 101_455 4_444 n
O1 EU4 EU4 83.7686(6) 101_455 4_454 n
O1 EU4 EU4 83.7686(6) -104_656 2_455 n
O1 EU4 EU4 39.2712 -104_656 4_444 n
EU4 EU4 EU4 85.3381(10) 2_455 2_555 n
EU4 EU4 EU4 122.7271(6) 2_455 4_444 n
EU4 EU4 EU4 122.7271(6) 2_455 4_454 n
EU4 EU4 EU4 122.7271(6) 2_555 4_444 n
EU4 EU4 EU4 122.7271(6) 2_555 4_454 n
EU4 EU4 EU4 85.3381(10) 4_444 4_454 n
loop_
_geom_bond_atom_site_label_1
_geom_bond_atom_site_label_2
_geom_bond_distance
_geom_bond_site_symmetry_2
_geom_bond_publ_flag
Ca1 Ca1 3.87083(4) 2_455 n
Ca1 Ca1 3.87083(4) 2_555 n
Ca1 Ca1 3.87083(4) 4_444 n
Ca1 Ca1 3.87083(4) 4_454 n
Ca1 W1 3.710200(30) 3_455 n
Ca1 W1 3.710200(30) 3_465 n
Ca1 W1 3.710200(30) 3_555 n
Ca1 W1 3.710200(30) 3_565 n
Ca1 O1 2.498230(30) 2_455 n
Ca1 O1 2.509150(20) 3_555 n
Ca1 O1 2.498230(30) -1_556 n
Ca1 O1 2.509150(20) -2_555 n
Ca1 O1 2.509150(20) 101_455 n
Ca1 O1 2.498230(30) 104_555 n
Ca1 EU4 3.87083(4) 2_455 n
Ca1 EU4 3.87083(4) 2_555 n
Ca1 EU4 3.87083(4) 4_444 n
Ca1 EU4 3.87083(4) 4_454 n
W1 Ca1 3.710200(30) 3_454 n
W1 Ca1 3.710200(30) 3_464 n
W1 Ca1 3.710200(30) 3_554 n
W1 Ca1 3.710200(30) 3_564 n
W1 EU4 3.710200(30) 3_454 n
W1 EU4 3.710200(30) 3_464 n
W1 EU4 3.710200(30) 3_554 n
W1 EU4 3.710200(30) 3_564 n
O1 Ca1 2.509150(20) 3_554 n
O1 Ca1 2.498230(30) 4_444 n
O1 W1 1.707310(10) 1_555 n
O1 EU4 2.509150(20) 3_554 n
O1 EU4 2.498230(30) 4_444 n
EU4 Ca1 3.87083(4) 2_455 n
EU4 Ca1 3.87083(4) 2_555 n
EU4 Ca1 3.87083(4) 4_444 n
EU4 Ca1 3.87083(4) 4_454 n
EU4 W1 3.710200(30) 3_455 n
EU4 W1 3.710200(30) 3_465 n
EU4 W1 3.710200(30) 3_555 n
EU4 W1 3.710200(30) 3_565 n
EU4 O1 2.498230(30) 2_455 n
EU4 O1 2.509150(20) 3_555 n
EU4 O1 2.498230(30) -1_556 n
EU4 O1 2.509150(20) -2_555 n
EU4 O1 2.509150(20) 101_455 n
EU4 O1 2.498230(30) 104_555 n
EU4 EU4 3.87083(4) 2_455 n
EU4 EU4 3.87083(4) 2_555 n
EU4 EU4 3.87083(4) 4_444 n
EU4 EU4 3.87083(4) 4_454 n
loop_
_pd_meas_counts_total
_pd_proc_ls_weight
_pd_proc_intensity_bkg_calc
_pd_calc_intensity_total
481.0 0.002079 471.13498 471.12720
461.0 0.002169 468.48422 468.47668
414.0 0.002415 465.87952 465.87219
446.0 0.002242 463.31982 463.31287
469.0 0.002132 460.80499 460.79822
433.0 0.002309 458.33374 458.32730
447.0 0.002237 455.90591 455.89963
451.0 0.002217 453.52020 453.51425
445.0 0.002247 451.17645 451.17078
439.0 0.002278 448.87384 448.86835
456.0 0.002193 446.61166 446.60638
413.0 0.002421 444.38904 444.38400
407.0 0.002457 442.20575 442.20093
401.0 0.002494 440.06079 440.05621
431.0 0.002320 437.95380 437.94940
442.0 0.002262 435.88388 435.87970
415.0 0.002410 433.85071 433.84668
467.0 0.002141 431.85336 431.84958
416.0 0.002404 429.89154 429.88794
407.0 0.002457 427.96436 427.96097
432.0 0.002315 426.07153 426.06830
433.0 0.002309 424.21222 424.20911
409.0 0.002445 422.38599 422.38312
418.0 0.002392 420.59216 420.58948
457.0 0.002188 418.83041 418.82782
401.0 0.002494 417.09982 417.09747
447.0 0.002237 415.40018 415.39795
410.0 0.002439 413.73083 413.72879
402.0 0.002488 412.09122 412.08926
434.0 0.002304 410.48093 410.47910
418.0 0.002392 408.89920 408.89758
395.0 0.002532 407.34579 407.34427
401.0 0.002494 405.82010 405.81870
417.0 0.002398 404.32162 404.32034
413.0 0.002421 402.84979 402.84863
395.0 0.002532 401.40424 401.40326
379.0 0.002639 399.98450 399.98358
400.0 0.002500 398.59012 398.58926
402.0 0.002488 397.22037 397.21967
400.0 0.002500 395.87515 395.87454
376.0 0.002660 394.55377 394.55331
376.0 0.002660 393.25595 393.25558
418.0 0.002392 391.98108 391.98080
399.0 0.002506 390.72897 390.72873
393.0 0.002545 389.49893 389.49881
388.0 0.002577 388.29071 388.29065
414.0 0.002415 387.10376 387.10379
384.0 0.002604 385.93777 385.93790
403.0 0.002481 384.79236 384.79251
393.0 0.002545 383.66708 383.66733
412.0 0.002427 382.56146 382.56183
393.0 0.002545 381.47525 381.47568
407.0 0.002457 380.40805 380.40854
405.0 0.002469 379.35938 379.35995
394.0 0.002538 378.32895 378.32965
382.0 0.002618 377.31647 377.31714
396.0 0.002525 376.32147 376.32220
381.0 0.002625 375.34360 375.34439
400.0 0.002500 374.38257 374.38339
383.0 0.002611 373.43796 373.43878
376.0 0.002660 372.50943 372.51038
357.0 0.002801 371.59668 371.59772
363.0 0.002755 370.69949 370.70053
387.0 0.002584 369.81738 369.81845
372.0 0.002688 368.95001 368.95114
383.0 0.002611 368.09720 368.09836
361.0 0.002770 367.25851 367.25977
373.0 0.002681 366.43384 366.43506
378.0 0.002646 365.62271 365.62393
363.0 0.002755 364.82468 364.82602
356.0 0.002809 364.03979 364.04117
406.0 0.002463 363.26767 363.26898
380.0 0.002632 362.50790 362.50925
405.0 0.002469 361.76019 361.76160
374.0 0.002674 361.02441 361.02585
367.0 0.002725 360.30017 360.30170
374.0 0.002674 359.58737 359.58884
383.0 0.002611 358.88553 358.88708
376.0 0.002660 358.19461 358.19611
367.0 0.002725 357.51416 357.51572
363.0 0.002755 356.84412 356.84564
330.0 0.003030 356.18411 356.18561
376.0 0.002660 355.53381 355.53537
362.0 0.002762 354.89316 354.89478
350.0 0.002857 354.26193 354.26349
350.0 0.002857 353.63974 353.64136
365.0 0.002740 353.02646 353.02805
338.0 0.002959 352.42191 352.42349
350.0 0.002857 351.82574 351.82733
350.0 0.002857 351.23785 351.23944
364.0 0.002747 350.65799 350.65955
344.0 0.002907 350.08591 350.08749
351.0 0.002849 349.52145 349.52304
372.0 0.002688 348.96442 348.96603
347.0 0.002882 348.41455 348.41620
332.0 0.003012 347.87180 347.87341
332.0 0.003012 347.33594 347.33746
379.0 0.002639 346.80661 346.80814
328.0 0.003049 346.28369 346.28531
343.0 0.002915 345.76721 345.76874
366.0 0.002732 345.25671 345.25824
372.0 0.002688 344.75208 344.75369
313.0 0.003195 344.25342 344.25491
350.0 0.002857 343.76013 343.76166
355.0 0.002817 343.27240 343.27393
381.0 0.002625 342.78989 342.79138
353.0 0.002833 342.31250 342.31403
320.0 0.003125 341.84006 341.84149
344.0 0.002907 341.37238 341.37384
326.0 0.003067 340.90933 340.91080
353.0 0.002833 340.45084 340.45227
344.0 0.002907 339.99664 339.99808
344.0 0.002907 339.54666 339.54810
335.0 0.002985 339.10077 339.10217
346.0 0.002890 338.65884 338.66022
340.0 0.002941 338.22073 338.22205
336.0 0.002976 337.78619 337.78754
345.0 0.002899 337.35526 337.35654
305.0 0.003279 336.92764 336.92899
320.0 0.003125 336.50342 336.50470
365.0 0.002740 336.08237 336.08362
356.0 0.002809 335.66437 335.66553
341.0 0.002933 335.24924 335.25043
348.0 0.002874 334.83701 334.83813
326.0 0.003067 334.42737 334.42856
357.0 0.002801 334.02045 334.02155
329.0 0.003040 333.61591 333.61703
341.0 0.002933 333.21387 333.21497
336.0 0.002976 332.81403 332.81512
316.0 0.003165 332.41644 332.41748
346.0 0.002890 332.02087 332.02194
353.0 0.002833 331.62732 331.62839
366.0 0.002732 331.23566 331.23672
378.0 0.002646 330.84595 330.84689
351.0 0.002849 330.45786 330.45877
342.0 0.002924 330.07132 330.07227
323.0 0.003096 329.68646 329.68735
335.0 0.002985 329.30298 329.30386
341.0 0.002933 328.92090 328.92175
342.0 0.002924 328.54013 328.54099
362.0 0.002762 328.16071 328.16144
314.0 0.003185 327.78226 327.78305
306.0 0.003268 327.40491 327.40567
317.0 0.003155 327.02863 327.02936
318.0 0.003145 326.65326 326.65399
333.0 0.003003 326.27884 326.27948
334.0 0.002994 325.90512 330.59656
336.0 0.002976 325.53214 330.25616
343.0 0.002915 325.15991 329.91672
345.0 0.002899 324.78824 331.92703
314.0 0.003185 324.41714 331.60580
314.0 0.003185 324.04645 331.28555
308.0 0.003247 323.67627 330.96631
315.0 0.003175 323.30652 330.64801
319.0 0.003135 322.93716 330.33063
287.0 0.003484 322.56796 330.01401
294.0 0.003401 322.19913 329.69818
339.0 0.002950 321.83035 329.38318
336.0 0.002976 321.46182 329.06885
298.0 0.003356 321.09329 328.75525
304.0 0.003289 320.72482 328.44223
316.0 0.003165 320.35632 328.12985
343.0 0.002915 319.98785 327.81805
321.0 0.003115 319.61935 327.50684
332.0 0.003012 319.25061 327.19611
325.0 0.003077 318.88181 326.88583
368.0 0.002717 318.51282 326.57608
329.0 0.003040 318.14355 326.26672
315.0 0.003175 317.77414 325.95779
320.0 0.003125 317.40433 325.64929
334.0 0.002994 317.03421 325.34113
288.0 0.003472 316.66379 325.03336
318.0 0.003145 316.29303 324.72589
309.0 0.003236 315.92181 324.41873
314.0 0.003185 315.55014 324.11191
286.0 0.003497 315.17810 323.80539
284.0 0.00352 314.80554 323.49911
322.0 0.003106 314.43256 323.19318
291.0 0.003436 314.05890 322.88745
287.0 0.003484 313.68484 322.58197
338.0 0.002959 313.31018 322.27676
340.0 0.002941 312.93491 321.97177
354.0 0.002825 312.55902 321.66702
326.0 0.003067 312.18262 321.36252
315.0 0.003175 311.80548 321.05820
311.0 0.003215 311.42783 320.75415
303.0 0.003300 311.04941 320.45032
302.0 0.003311 310.67041 320.14673
297.0 0.003367 310.29065 319.84335
295.0 0.003390 309.91028 319.54025
288.0 0.003472 309.52917 319.23734
303.0 0.003300 309.14737 318.93475
327.0 0.003058 308.76486 318.63239
325.0 0.003077 308.38159 318.33026
307.0 0.003257 307.99759 318.02847
309.0 0.003236 307.61295 317.72693
313.0 0.003195 307.22745 317.42566
321.0 0.003115 306.84128 317.12479
286.0 0.003497 306.45435 316.82416
296.0 0.003378 306.06665 316.52393
300.0 0.003333 305.67819 316.22403
310.0 0.003226 305.28900 315.92447
312.0 0.003205 304.89908 315.62540
293.0 0.003413 304.50836 315.32666
292.0 0.003425 304.11688 315.02841
285.0 0.00351 303.72479 314.73059
302.0 0.003311 303.33182 314.43332
338.0 0.002959 302.93802 314.13647
309.0 0.003236 302.54361 313.84021
311.0 0.003215 302.14847 313.54449
309.0 0.003236 301.75272 313.24936
314.0 0.003185 301.35596 312.95483
313.0 0.003195 300.95871 312.66098
316.0 0.003165 300.56067 312.36777
289.0 0.003460 300.16193 312.07532
325.0 0.003077 299.76242 311.78357
313.0 0.003195 299.36221 311.49261
273.0 0.00366 298.96143 311.20245
289.0 0.003460 298.55997 310.91318
325.0 0.003077 298.15778 310.62476
305.0 0.003279 297.75494 310.33731
279.0 0.00358 297.35150 310.05078
307.0 0.003257 296.94739 309.76526
265.0 0.00377 296.54272 309.48080
301.0 0.003322 296.13742 309.19745
297.0 0.003367 295.73145 308.91522
307.0 0.003257 295.32492 308.63416
304.0 0.003289 294.91791 308.35434
289.0 0.003460 294.51022 308.07578
314.0 0.003185 294.10211 307.79858
316.0 0.003165 293.69339 307.52274
300.0 0.003333 293.28418 307.24832
318.0 0.003145 292.87454 306.97540
310.0 0.003226 292.46436 306.70404
296.0 0.003378 292.05374 306.43420
304.0 0.003289 291.64258 306.16605
272.0 0.00368 291.23102 305.89960
322.0 0.003106 290.81912 305.63495
271.0 0.00369 290.40668 305.37210
281.0 0.00356 289.99405 305.11115
295.0 0.003390 289.58087 304.85214
328.0 0.003049 289.16742 304.59515
303.0 0.003300 288.75369 304.34027
307.0 0.003257 288.33960 304.08755
285.0 0.00351 287.92514 303.83701
325.0 0.003077 287.51056 303.58881
318.0 0.003145 287.09558 303.34299
274.0 0.00365 286.68042 303.09955
296.0 0.003378 286.26498 302.85864
322.0 0.003106 285.84949 302.62039
293.0 0.003413 285.43378 302.38477
292.0 0.003425 285.01779 302.15189
315.0 0.003175 284.60175 301.92194
312.0 0.003205 284.18561 301.69485
291.0 0.003436 283.76938 301.47079
299.0 0.003344 283.35309 301.24985
297.0 0.003367 282.93671 301.03210
306.0 0.003268 282.52026 300.81760
263.0 0.00380 282.10391 300.60657
321.0 0.003115 281.68747 300.39896
302.0 0.003311 281.27109 300.19501
278.0 0.00360 280.85474 299.99463
314.0 0.003185 280.43854 299.79813
300.0 0.003333 280.02228 299.60547
315.0 0.003175 279.60632 299.41693
284.0 0.00352 279.19040 299.23239
311.0 0.003215 278.77469 299.05219
334.0 0.002994 278.35913 298.87625
293.0 0.003413 277.94379 298.70486
300.0 0.003333 277.52869 298.53809
305.0 0.003279 277.11377 298.37598
296.0 0.003378 276.69922 298.21878
313.0 0.003195 276.28497 298.06656
293.0 0.003413 275.87094 297.91949
303.0 0.003300 275.45737 297.77771
281.0 0.00356 275.04407 297.64130
302.0 0.003311 274.63123 297.51047
322.0 0.003106 274.21881 297.38538
275.0 0.00364 273.80670 297.26614
314.0 0.003185 273.39517 297.15298
322.0 0.003106 272.98407 297.04599
299.0 0.003344 272.57352 296.94540
300.0 0.003333 272.16336 296.85132
283.0 0.00353 271.75388 296.76401
301.0 0.003322 271.34494 296.68359
309.0 0.003236 270.93652 296.61035
292.0 0.003425 270.52887 296.54434
263.0 0.00380 270.12170 296.48584
324.0 0.003086 269.71524 296.43506
285.0 0.00351 269.30948 296.39218
330.0 0.003030 268.90439 296.35748
250.0 0.00400 268.50012 296.33115
343.0 0.002915 268.09647 296.31342
299.0 0.003344 267.69363 296.30450
292.0 0.003425 267.29169 296.30475
305.0 0.003279 266.89050 296.31430
326.0 0.003067 266.49008 296.33350
281.0 0.00356 266.09070 296.36255
335.0 0.002985 265.69199 296.40179
309.0 0.003236 265.29431 296.45154
317.0 0.003155 264.89749 296.51202
293.0 0.003413 264.50168 296.58359
274.0 0.00365 264.10684 296.66663
306.0 0.003268 263.71304 296.76135
314.0 0.003185 263.32019 296.86816
284.0 0.00352 262.92831 296.98740
320.0 0.003125 262.53757 297.11948
300.0 0.003333 262.14798 297.26480
280.0 0.00357 261.75940 297.42371
278.0 0.00360 261.37198 297.59659
322.0 0.003106 260.98569 297.78394
313.0 0.003195 260.60062 297.98621
332.0 0.003012 260.21667 298.20380
300.0 0.003333 259.83383 298.43719
296.0 0.003378 259.45242 298.68692
306.0 0.003268 259.07217 298.95358
327.0 0.003058 258.69321 299.23755
303.0 0.003300 258.31552 299.53946
339.0 0.002950 257.93909 299.85992
316.0 0.003165 257.56406 300.19955
302.0 0.003311 257.19037 300.55887
302.0 0.003311 256.81802 300.93869
330.0 0.003030 256.44705 301.33951
308.0 0.003247 256.07761 301.76227
335.0 0.002985 255.70949 302.20752
341.0 0.002933 255.34285 302.67612
336.0 0.002976 254.97762 303.16885
296.0 0.003378 254.61394 303.68658
348.0 0.002874 254.25179 304.23029
317.0 0.003155 253.89110 304.80072
316.0 0.003165 253.53191 305.39893
299.0 0.003344 253.17442 306.02600
315.0 0.003175 252.81842 306.68286
340.0 0.002941 252.46405 307.37073
336.0 0.002976 252.11125 308.09067
340.0 0.002941 251.76007 308.84393
309.0 0.003236 251.41060 309.63190
311.0 0.003215 251.06277 310.45575
323.0 0.003096 250.71663 311.31702
300.0 0.003333 250.37225 312.21710
316.0 0.003165 250.02954 313.15762
362.0 0.002762 249.68852 314.14014
344.0 0.002907 249.34929 315.16641
331.0 0.003021 249.01181 316.23828
354.0 0.002825 248.67622 317.35764
349.0 0.002865 248.34233 318.52646
302.0 0.003311 248.01025 319.74686
352.0 0.002841 247.68005 321.02112
355.0 0.002817 247.35168 322.35159
333.0 0.003003 247.02515 323.74072
361.0 0.002770 246.70052 325.19119
328.0 0.003049 246.37779 326.70578
333.0 0.003003 246.05695 328.28741
360.0 0.002778 245.73805 329.93927
383.0 0.002611 245.42110 331.66467
327.0 0.003058 245.10605 333.46707
380.0 0.002632 244.79303 335.35019
348.0 0.002874 244.48203 337.31812
343.0 0.002915 244.17294 339.37491
333.0 0.003003 243.86586 341.52515
351.0 0.002849 243.56082 343.77356
368.0 0.002717 243.25784 346.12531
366.0 0.002732 242.95688 348.58575
376.0 0.002660 242.65794 351.16064
342.0 0.002924 242.36118 353.85629
436.0 0.002294 242.06642 356.67923
371.0 0.002695 241.77379 359.63647
345.0 0.002899 241.48326 362.73575
373.0 0.002681 241.19487 365.98511
372.0 0.002688 240.90865 369.39325
405.0 0.002469 240.62451 372.96964
380.0 0.002632 240.34247 376.72424
399.0 0.002506 240.06267 380.66800
389.0 0.002571 239.78506 384.81262
406.0 0.002463 239.50964 389.17072
369.0 0.002710 239.23630 393.75589
440.0 0.002273 238.96532 398.58289
446.0 0.002242 238.69658 403.66776
410.0 0.002439 238.42993 409.02780
440.0 0.002273 238.16563 414.68173
458.0 0.002183 237.90349 420.65015
416.0 0.002404 237.64369 426.95520
445.0 0.002247 237.38617 433.62122
403.0 0.002481 237.13078 440.67465
467.0 0.002141 236.87779 448.14450
432.0 0.002315 236.62712 456.06256
468.0 0.002137 236.37868 464.46362
505.0 0.001980 236.13263 473.38596
513.0 0.001949 235.88878 482.87164
515.0 0.001942 235.64734 492.96729
474.0 0.002110 235.40820 503.72415
487.0 0.002053 235.17143 515.19910
532.0 0.001880 234.93698 527.45526
558.0 0.001792 234.70491 540.56274
549.0 0.001821 234.47522 554.59973
572.0 0.001748 234.24783 569.65350
531.0 0.001883 234.02286 585.82172
579.0 0.001727 233.80031 603.21405
585.0 0.001709 233.58008 621.95398
561.0 0.001783 233.36227 642.18060
621.0 0.001610 233.14680 664.05145
652.0 0.001534 232.93381 687.74530
637.0 0.001570 232.72316 713.46552
664.0 0.001506 232.51503 741.44446
708.0 0.001412 232.30922 771.94818
729.0 0.001372 232.10583 805.28284
771.0 0.001297 231.90494 841.80182
840.0 0.001190 231.70647 881.91522
855.0 0.001170 231.51038 926.10107
885.0 0.001130 231.31680 974.92108
987.0 0.001013 231.12561 1029.04102
1063.0 0.000941 230.93690 1089.26050
1182.0 0.000846 230.75064 1156.55640
1255.0 0.000797 230.56685 1232.14929
1404.0 0.000712 230.38547 1317.60596
1487.0 0.000672 230.20657 1414.99780
1628.0 0.000614 230.03018 1527.13867
1774.0 0.000564 229.85617 1657.93140
2066.0 0.000484 229.68468 1812.84851
2306.0 0.000434 229.51567 1999.55981
2706.0 0.000370 229.34906 2228.68408
2996.0 0.0003338 229.18501 2514.59863
3513.0 0.0002847 229.02333 2876.16479
4149.0 0.0002410 228.86421 3337.15576
4788.0 0.0002089 228.70760 3926.12012
5431.0 0.0001841 228.55336 4675.39111
6158.0 0.0001624 228.40170 5619.00098
7329.0 0.0001364 228.25244 6789.35889
8469.0 0.0001181 228.10573 8212.62598
9985.0 0.0001002 227.96146 9902.63574
11453.0 0.0000873 227.81967 11852.91309
13404.0 0.0000746 227.68040 14025.70313
15528.0 0.0000644 227.54352 16337.08984
17169.0 0.0000582 227.40916 18640.26953
19121.0 0.0000523 227.27737 20717.79883
20931.0 0.0000478 227.14798 22304.27539
22247.0 0.0000449 227.02107 23153.81445
23116.0 0.0000433 226.89665 23127.32813
23068.0 0.0000434 226.77469 22241.96094
22199.0 0.0000450 226.65521 20654.09570
20626.0 0.0000485 226.53824 18599.17578
18276.0 0.0000547 226.42368 16323.56934
15496.0 0.0000645 226.31163 14033.65137
12856.0 0.0000778 226.20201 11874.13184
10471.0 0.0000955 226.09489 9930.70996
8362.0 0.0001196 225.99020 8243.29004
6710.0 0.0001490 225.88799 6819.84180
5256.0 0.0001903 225.78822 5647.45166
4315.0 0.0002317 225.69096 4700.59717
3638.0 0.0002749 225.59615 3947.38989
3043.0 0.0003286 225.50371 3354.24585
2613.0 0.000383 225.41377 2889.19849
2240.0 0.000446 225.32617 2523.95728
1957.0 0.000511 225.24118 2234.89014
1703.0 0.000587 225.15852 2003.17578
1606.0 0.000623 225.07826 1814.40356
1460.0 0.000685 225.00058 1657.87732
1386.0 0.000722 224.92517 1525.83545
1210.0 0.000826 224.85217 1412.71631
1067.0 0.000937 224.78168 1314.54138
1073.0 0.000932 224.71353 1228.43823
958.0 0.001044 224.64781 1152.29333
988.0 0.001012 224.58447 1084.51062
903.0 0.001107 224.52354 1023.84991
820.0 0.001220 224.46498 969.32166
790.0 0.001266 224.40880 920.11829
745.0 0.001342 224.35504 875.56818
784.0 0.001276 224.30360 835.10602
714.0 0.001401 224.25458 798.25085
660.0 0.001515 224.20792 764.59058
625.0 0.001600 224.16354 733.77014
617.0 0.001621 224.12155 705.48218
597.0 0.001675 224.08191 679.45953
561.0 0.001783 224.04457 655.46881
579.0 0.001727 224.00960 633.30597
528.0 0.001894 223.97697 612.79156
539.0 0.001855 223.94653 593.76764
557.0 0.001795 223.91850 576.09448
534.0 0.001873 223.89275 559.64825
514.0 0.001946 223.86934 544.31903
516.0 0.001938 223.84811 530.00873
510.0 0.001961 223.82927 516.62988
484.0 0.002066 223.81267 504.10406
500.0 0.002000 223.79831 492.36099
464.0 0.002155 223.78613 481.33734
468.0 0.002137 223.77632 470.97610
414.0 0.002415 223.76869 461.22583
424.0 0.002358 223.76328 452.03995
429.0 0.002331 223.76015 443.37616
430.0 0.002326 223.75919 435.19617
448.0 0.002232 223.76042 427.46503
423.0 0.002364 223.76387 420.15091
443.0 0.002257 223.76950 413.22479
396.0 0.002525 223.77731 406.66010
390.0 0.002564 223.78729 400.43250
438.0 0.002283 223.79941 394.51974
385.0 0.002597 223.81374 388.90131
408.0 0.002451 223.83018 383.55835
369.0 0.002710 223.84875 378.47348
393.0 0.002545 223.86943 373.63077
376.0 0.002660 223.89223 369.01535
369.0 0.002710 223.91713 364.61359
379.0 0.002639 223.94415 360.41290
397.0 0.002519 223.97322 356.40146
350.0 0.002857 224.00438 352.56848
382.0 0.002618 224.03763 348.90381
358.0 0.002793 224.07289 345.39807
384.0 0.002604 224.11017 342.04257
371.0 0.002695 224.14952 338.82910
332.0 0.003012 224.19092 335.75009
332.0 0.003012 224.23433 332.79843
361.0 0.002770 224.27975 329.96756
344.0 0.002907 224.32704 327.25122
337.0 0.002967 224.37645 324.64368
329.0 0.003040 224.42773 322.13943
330.0 0.003030 224.48100 319.73346
333.0 0.003003 224.53629 317.42090
356.0 0.002809 224.59340 315.19733
328.0 0.003049 224.65251 313.05853
361.0 0.002770 224.71352 311.00052
353.0 0.002833 224.77637 309.01953
320.0 0.003125 224.84122 307.11215
340.0 0.002941 224.90784 305.27490
287.0 0.003484 224.97639 303.50479
339.0 0.002950 225.04675 301.79883
293.0 0.003413 225.11900 300.15417
314.0 0.003185 225.19307 298.56827
332.0 0.003012 225.26895 297.03854
312.0 0.003205 225.34665 295.56274
292.0 0.003425 225.42610 294.13849
300.0 0.003333 225.50740 292.76382
315.0 0.003175 225.59044 291.43658
297.0 0.003367 225.67519 290.15497
316.0 0.003165 225.76180 288.91714
311.0 0.003215 225.85004 287.72137
290.0 0.003448 225.94002 286.56604
279.0 0.00358 226.03171 285.44962
343.0 0.002915 226.12512 284.37057
301.0 0.003322 226.22020 283.32758
299.0 0.003344 226.31694 282.31921
313.0 0.003195 226.41534 281.34424
318.0 0.003145 226.51540 280.40146
285.0 0.00351 226.61708 279.48965
277.0 0.00361 226.72046 278.60782
321.0 0.003115 226.82524 277.75479
270.0 0.00370 226.93179 276.92966
252.0 0.00397 227.03986 276.13138
324.0 0.003086 227.14957 275.35907
281.0 0.00356 227.26073 274.61185
286.0 0.003497 227.37347 273.88889
279.0 0.00358 227.48770 273.18933
279.0 0.00358 227.60355 272.51248
271.0 0.00369 227.72083 271.85751
273.0 0.00366 227.83955 271.22382
319.0 0.003135 227.95981 270.61060
277.0 0.00361 228.08150 270.01730
266.0 0.00376 228.20470 269.44327
305.0 0.003279 228.32922 268.88788
329.0 0.003040 228.45528 268.35056
268.0 0.00373 228.58261 267.83081
276.0 0.00362 228.71143 267.32803
294.0 0.003401 228.84161 266.84174
276.0 0.00362 228.97316 266.37146
271.0 0.00369 229.10603 265.91672
263.0 0.00380 229.24028 265.47702
275.0 0.00364 229.37584 265.05194
269.0 0.00372 229.51274 264.64111
267.0 0.00375 229.65088 264.24405
287.0 0.003484 229.79031 263.86041
274.0 0.00365 229.93097 263.48981
236.0 0.00424 230.07294 263.13187
273.0 0.00366 230.21609 262.78625
265.0 0.00377 230.36058 262.45261
279.0 0.00358 230.50618 262.13062
258.0 0.00388 230.65300 261.81998
256.0 0.00391 230.80104 261.52036
251.0 0.00398 230.95021 261.23148
260.0 0.00385 231.10052 260.95306
258.0 0.00388 231.25200 260.68478
257.0 0.00389 231.40457 260.42645
282.0 0.00355 231.55830 260.17776
280.0 0.00357 231.71307 259.93848
271.0 0.00369 231.86902 259.70834
264.0 0.00379 232.02596 259.48715
265.0 0.00377 232.18396 259.27466
288.0 0.003472 232.34305 259.07065
274.0 0.00365 232.50310 258.87488
254.0 0.00394 232.66420 258.68726
283.0 0.00353 232.82631 258.50745
280.0 0.00357 232.98936 258.33530
285.0 0.00351 233.15338 258.17065
241.0 0.00415 233.31837 258.01331
276.0 0.00362 233.48433 257.86313
263.0 0.00380 233.65121 257.71985
272.0 0.00368 233.81895 257.58337
277.0 0.00361 233.98763 264.87662
271.0 0.00369 234.15718 264.79633
253.0 0.00395 234.32761 264.72275
251.0 0.00398 234.49892 264.65570
274.0 0.00365 234.67097 268.30267
267.0 0.00375 234.84395 268.26987
284.0 0.00352 235.01768 268.24338
290.0 0.003448 235.19225 268.22308
265.0 0.00377 235.36760 268.20889
252.0 0.00397 235.54369 268.20062
245.0 0.00408 235.72054 268.19824
266.0 0.00376 235.89815 268.20157
265.0 0.00377 236.07643 268.21051
235.0 0.00426 236.25551 268.22498
247.0 0.00405 236.43520 268.24487
279.0 0.00358 236.61559 268.27005
259.0 0.00386 236.79668 268.30048
248.0 0.00403 236.97841 268.33603
257.0 0.00389 237.16081 268.37659
270.0 0.00370 237.34377 268.42212
297.0 0.003367 237.52739 268.47247
237.0 0.00422 237.71155 268.52762
265.0 0.00377 237.89632 268.58746
251.0 0.00398 238.08167 268.65189
247.0 0.00405 238.26758 268.72083
298.0 0.003356 238.45401 268.79428
291.0 0.003436 238.64099 268.87204
271.0 0.00369 238.82846 268.95413
291.0 0.003436 239.01645 269.04047
267.0 0.00375 239.20491 269.13101
262.0 0.00382 239.39384 269.22562
244.0 0.00410 239.58324 269.32428
255.0 0.00392 239.77304 269.42691
261.0 0.00383 239.96327 269.53345
271.0 0.00369 240.15393 269.64386
278.0 0.00360 240.34500 269.75806
272.0 0.00368 240.53642 269.87601
264.0 0.00379 240.72824 269.99765
285.0 0.00351 240.92043 270.12296
253.0 0.00395 241.11293 270.25180
246.0 0.00407 241.30580 270.38419
305.0 0.003279 241.49889 270.52008
283.0 0.00353 241.69240 270.65942
269.0 0.00372 241.88614 270.80212
265.0 0.00377 242.08020 270.94821
254.0 0.00394 242.27444 271.09756
260.0 0.00385 242.46898 271.25018
267.0 0.00375 242.66377 271.40607
275.0 0.00364 242.85873 271.56512
289.0 0.003460 243.05391 271.72729
301.0 0.003322 243.24930 271.89261
240.0 0.00417 243.44487 272.06097
264.0 0.00379 243.64058 272.23233
273.0 0.00366 243.83646 272.40674
284.0 0.00352 244.03246 272.58414
273.0 0.00366 244.22858 272.76447
260.0 0.00385 244.42482 272.94766
272.0 0.00368 244.62122 273.13379
298.0 0.003356 244.81757 273.32269
285.0 0.00351 245.01414 273.51450
276.0 0.00362 245.21071 273.70901
273.0 0.00366 245.40727 273.90640
265.0 0.00377 245.60391 274.10645
293.0 0.003413 245.80055 274.30927
260.0 0.00385 245.99719 274.51471
289.0 0.003460 246.19389 274.72290
255.0 0.00392 246.39052 274.93375
264.0 0.00379 246.58714 275.14719
276.0 0.00362 246.78363 275.36325
266.0 0.00376 246.98016 275.58194
302.0 0.003311 247.17661 275.80316
292.0 0.003425 247.37291 276.02701
251.0 0.00398 247.56920 277.96487
268.0 0.00373 247.76530 278.20566
255.0 0.00392 247.96133 278.44904
246.0 0.00407 248.15721 278.69507
284.0 0.00352 248.35291 279.79898
241.0 0.00415 248.54852 280.05618
305.0 0.003279 248.74385 280.31607
306.0 0.003268 248.93909 280.57864
261.0 0.00383 249.13411 280.84378
282.0 0.00355 249.32892 281.11166
279.0 0.00358 249.52357 281.38214
279.0 0.00358 249.71785 281.65530
290.0 0.003448 249.91194 281.93109
257.0 0.00389 250.10582 282.20950
248.0 0.00403 250.29938 282.49054
276.0 0.00362 250.49266 282.77426
277.0 0.00361 250.68564 283.06067
256.0 0.00391 250.87834 283.34967
282.0 0.00355 251.07076 283.64127
267.0 0.00375 251.26274 283.93552
281.0 0.00356 251.45444 284.23251
247.0 0.00405 251.64581 284.53217
257.0 0.00389 251.83679 284.83441
275.0 0.00364 252.02739 285.13937
260.0 0.00385 252.21758 285.44708
269.0 0.00372 252.40746 285.75745
284.0 0.00352 252.59688 286.07050
270.0 0.00370 252.78580 286.38629
289.0 0.003460 252.97437 286.70486
265.0 0.00377 253.16245 287.02618
272.0 0.00368 253.35014 287.35025
288.0 0.003472 253.53732 287.67709
287.0 0.003484 253.72398 288.00668
271.0 0.00369 253.91022 288.33923
290.0 0.003448 254.09592 288.67456
275.0 0.00364 254.28113 289.01273
291.0 0.003436 254.46577 289.35382
257.0 0.00389 254.64992 289.69778
259.0 0.00386 254.83356 290.04471
283.0 0.00353 255.01660 290.39462
290.0 0.003448 255.19910 290.74744
277.0 0.00361 255.38100 291.10339
291.0 0.003436 255.56232 291.46234
299.0 0.003344 255.74303 291.82434
266.0 0.00376 255.92311 292.18948
274.0 0.00365 256.10266 292.55771
268.0 0.00373 256.28149 292.92914
263.0 0.00380 256.45975 293.30386
303.0 0.003300 256.63733 293.68173
264.0 0.00379 256.81424 294.06302
275.0 0.00364 256.99051 294.44751
260.0 0.00385 257.16608 294.83548
291.0 0.003436 257.34097 295.22681
270.0 0.00370 257.51514 295.62164
289.0 0.003460 257.68866 296.01996
295.0 0.003390 257.86142 296.42184
274.0 0.00365 258.03345 296.82736
306.0 0.003268 258.20474 297.23654
280.0 0.00357 258.37531 292.94315
271.0 0.00369 258.54507 293.39218
308.0 0.003247 258.71417 291.49405
274.0 0.00365 258.88235 291.96631
292.0 0.003425 259.04990 292.44208
310.0 0.003226 259.21658 292.92133
257.0 0.00389 259.38245 293.40424
316.0 0.003165 259.54749 293.89078
263.0 0.00380 259.71173 294.38110
301.0 0.003322 259.87518 294.87527
296.0 0.003378 260.03778 295.37341
297.0 0.003367 260.19946 295.87546
264.0 0.00379 260.36035 296.38162
315.0 0.003175 260.52036 296.89197
271.0 0.00369 260.67947 297.40656
253.0 0.00395 260.83771 297.92551
283.0 0.00353 260.99512 298.44894
301.0 0.003322 261.15161 298.97690
276.0 0.00362 261.30716 299.50946
292.0 0.003425 261.46182 300.04681
290.0 0.003448 261.61554 300.58908
307.0 0.003257 261.76834 301.13626
297.0 0.003367 261.92020 301.68854
286.0 0.003497 262.07101 302.24594
296.0 0.003378 262.22098 302.80875
308.0 0.003247 262.37000 303.37692
295.0 0.003390 262.51801 303.95068
292.0 0.003425 262.66501 304.53009
331.0 0.003021 262.81100 305.11542
325.0 0.003077 262.95609 305.70660
296.0 0.003378 263.10016 306.30386
294.0 0.003401 263.24319 306.90750
295.0 0.003390 263.38519 307.51740
304.0 0.003289 263.52615 308.13385
305.0 0.003279 263.66611 308.75705
281.0 0.00356 263.80499 309.38705
295.0 0.003390 263.94293 310.02411
330.0 0.003030 264.07971 310.66837
288.0 0.003472 264.21548 311.31998
296.0 0.003378 264.35019 311.97913
307.0 0.003257 264.48380 312.64600
311.0 0.003215 264.61630 313.32083
301.0 0.003322 264.74774 314.00378
312.0 0.003205 264.87814 314.69507
304.0 0.003289 265.00732 315.39487
327.0 0.003058 265.13547 316.10342
305.0 0.003279 265.26248 316.82095
342.0 0.002924 265.38840 317.54770
282.0 0.00355 265.51315 318.28391
323.0 0.003096 265.63678 319.02975
328.0 0.003049 265.75925 319.78555
324.0 0.003086 265.88065 320.55154
338.0 0.002959 266.00085 321.32797
330.0 0.003030 266.11987 322.11514
324.0 0.003086 266.23776 322.91336
347.0 0.002882 266.35443 323.72284
347.0 0.002882 266.46991 324.54395
300.0 0.003333 266.58429 325.37692
322.0 0.003106 266.69742 326.22220
313.0 0.003195 266.80942 327.08005
320.0 0.003125 266.92014 327.95078
296.0 0.003378 267.02972 328.83478
361.0 0.002770 267.13809 329.73239
376.0 0.002660 267.24524 330.64404
351.0 0.002849 267.35114 331.57010
295.0 0.003390 267.45581 332.51089
341.0 0.002933 267.55927 333.46695
319.0 0.003135 267.66150 334.43866
301.0 0.003322 267.76245 335.42633
307.0 0.003257 267.86218 336.43069
343.0 0.002915 267.96057 337.45197
355.0 0.002817 268.05783 338.49081
314.0 0.003185 268.15384 339.54767
336.0 0.002976 268.24847 340.62305
347.0 0.002882 268.34195 341.71747
339.0 0.002950 268.43411 342.83157
325.0 0.003077 268.52496 343.96591
398.0 0.002513 268.61453 345.12109
358.0 0.002793 268.70282 346.29770
354.0 0.002825 268.78986 347.49643
372.0 0.002688 268.87555 348.71790
364.0 0.002747 268.95996 349.96286
362.0 0.002762 269.04303 352.52332
371.0 0.002695 269.12485 353.82373
377.0 0.002653 269.20535 355.14999
390.0 0.002564 269.28448 356.50284
368.0 0.002717 269.36234 358.52493
389.0 0.002571 269.43884 359.93658
376.0 0.002660 269.51410 361.37744
372.0 0.002688 269.58792 362.84839
382.0 0.002618 269.66043 364.35049
339.0 0.002950 269.73166 365.88474
380.0 0.002632 269.80148 367.45212
379.0 0.002639 269.86993 369.05386
378.0 0.002646 269.93710 370.69092
349.0 0.002865 270.00290 372.36462
340.0 0.002941 270.06735 374.07614
404.0 0.002475 270.13046 375.82684
362.0 0.002762 270.19214 377.61798
378.0 0.002646 270.25253 379.45084
420.0 0.002381 270.31146 381.32715
428.0 0.002336 270.36914 383.24826
416.0 0.002404 270.42542 385.21573
386.0 0.002591 270.48026 387.23126
420.0 0.002381 270.53378 389.29660
374.0 0.002674 270.58585 391.41348
385.0 0.002597 270.63663 393.58380
461.0 0.002169 270.68594 395.80951
388.0 0.002577 270.73389 398.09271
446.0 0.002242 270.78052 400.43555
407.0 0.002457 270.82562 402.84018
426.0 0.002347 270.86942 405.30908
432.0 0.002315 270.91174 407.84464
415.0 0.002410 270.95276 411.58298
409.0 0.002445 270.99234 414.26926
401.0 0.002494 271.03049 417.03036
462.0 0.002165 271.06732 419.86932
443.0 0.002257 271.10260 423.35449
472.0 0.002119 271.13660 426.36343
486.0 0.002058 271.16910 429.46014
468.0 0.002137 271.20026 432.64819
454.0 0.002203 271.22998 435.93130
490.0 0.002041 271.25824 439.31357
509.0 0.001965 271.28516 442.79916
485.0 0.002062 271.31061 446.39255
546.0 0.001832 271.33466 450.09830
509.0 0.001965 271.35730 453.92133
506.0 0.001976 271.37848 457.86700
539.0 0.001855 271.39822 461.94055
523.0 0.001912 271.41656 466.14780
513.0 0.001949 271.43350 470.49487
487.0 0.002053 271.44904 474.98822
470.0 0.002128 271.46310 479.63470
538.0 0.001859 271.47574 484.44144
519.0 0.001927 271.48691 489.41608
512.0 0.001953 271.49670 494.56677
488.0 0.002049 271.50510 499.90213
555.0 0.001802 271.51196 505.43115
546.0 0.001832 271.51746 511.16364
554.0 0.001805 271.52151 517.10980
560.0 0.001786 271.52411 523.28052
619.0 0.001616 271.52530 529.68756
561.0 0.001783 271.52499 536.34320
549.0 0.001821 271.52344 543.26086
558.0 0.001792 271.52026 550.45441
577.0 0.001733 271.51569 557.93909
581.0 0.001721 271.50970 565.73083
588.0 0.001701 271.50229 573.84705
617.0 0.001621 271.49344 582.30603
608.0 0.001645 271.48315 591.12775
608.0 0.001645 271.47144 600.33301
657.0 0.001522 271.45825 609.94489
652.0 0.001534 271.44363 619.98785
613.0 0.001631 271.42761 630.48816
701.0 0.001427 271.41019 641.47418
677.0 0.001477 271.39127 652.97650
670.0 0.001493 271.37091 665.02808
691.0 0.001447 271.34915 677.66473
739.0 0.001353 271.32593 690.92487
714.0 0.001401 271.30133 704.85077
702.0 0.001425 271.27527 719.48743
704.0 0.001420 271.24780 734.88434
738.0 0.001355 271.21887 751.09509
750.0 0.001333 271.18848 768.17834
774.0 0.001292 271.15671 786.19757
787.0 0.001271 271.12357 805.22272
813.0 0.001230 271.08890 825.33002
815.0 0.001227 271.05283 846.60303
876.0 0.001142 271.01538 869.13330
870.0 0.001149 270.97653 893.02240
885.0 0.001130 270.93616 918.38098
890.0 0.001124 270.89441 945.33203
931.0 0.001074 270.85126 974.01141
932.0 0.001073 270.80664 1004.56940
978.0 0.001022 270.76071 1037.17334
1071.0 0.000934 270.71326 1072.00903
1125.0 0.000889 270.66440 1109.28394
1066.0 0.000938 270.61417 1149.22961
1062.0 0.000942 270.56250 1192.10657
1122.0 0.000891 270.50946 1238.20642
1251.0 0.000799 270.45496 1287.85767
1260.0 0.000794 270.39911 1341.43274
1295.0 0.000772 270.34186 1399.35278
1318.0 0.000759 270.28320 1462.09790
1427.0 0.000701 270.22308 1530.21741
1465.0 0.000683 270.16162 1604.34338
1558.0 0.000642 270.09875 1685.21143
1681.0 0.000595 270.03445 1773.68384
1729.0 0.000578 269.96881 1870.78918
1878.0 0.000532 269.90173 1977.77625
2023.0 0.000494 269.83331 2096.19287
2175.0 0.000460 269.76349 2228.00415
2352.0 0.000425 269.69226 2375.75757
2384.0 0.000419 269.61966 2542.82178
2750.0 0.000364 269.54575 2733.70996
3031.0 0.0003299 269.47037 2954.50366
3287.0 0.0003042 269.39365 3213.38062
3654.0 0.0002737 269.31555 3521.24097
4010.0 0.0002494 269.23605 3892.37817
4558.0 0.0002194 269.15521 4345.13574
5150.0 0.0001942 269.07306 4902.41748
5671.0 0.0001763 268.98947 5591.91846
6645.0 0.0001505 268.90451 6445.87305
7618.0 0.0001313 268.81833 7500.18408
8868.0 0.0001128 268.73068 8792.74023
10386.0 0.0000963 268.64169 10360.88770
12111.0 0.0000826 268.55142 12237.98145
13841.0 0.0000722 268.45966 14449.05566
16451.0 0.0000608 268.36670 17005.52344
19151.0 0.0000522 268.27234 19898.65625
22306.0 0.0000448 268.17664 23091.25195
25481.0 0.0000392 268.07962 26507.08008
29136.0 0.00003432 267.98120 30018.84766
32797.0 0.00003049 267.88156 33439.04688
36522.0 0.00002738 267.78055 36523.87109
39488.0 0.00002532 267.67822 39002.82031
41886.0 0.00002387 267.57462 40636.12109
42882.0 0.00002332 267.46970 41277.38672
42747.0 0.00002339 267.36337 40905.55469
41520.0 0.00002408 267.25580 39613.02344
39545.0 0.00002529 267.14694 37571.79297
36163.0 0.00002765 267.03674 35001.67578
32586.0 0.00003069 266.92526 32141.80078
29362.0 0.00003406 266.81250 29220.25586
25855.0 0.0000387 266.69836 26426.91992
22777.0 0.0000439 266.58304 23898.30273
20284.0 0.0000493 266.46646 21715.12305
18572.0 0.0000538 266.34851 19907.19336
16739.0 0.0000597 266.22937 18460.08398
16142.0 0.0000620 266.10889 17321.55859
15841.0 0.0000631 265.98715 16409.61914
15424.0 0.0000648 265.86420 15625.88184
14895.0 0.0000671 265.73993 14875.66016
14524.0 0.0000689 265.61447 14088.04004
13778.0 0.0000726 265.48767 13225.31250
12860.0 0.0000778 265.35965 12279.20703
11674.0 0.0000857 265.23044 11262.49805
10747.0 0.0000930 265.09991 10202.72266
9349.0 0.0001070 264.96823 9136.36230
8071.0 0.0001239 264.83524 8101.16357
6935.0 0.0001442 264.70105 7128.94971
5912.0 0.0001691 264.56564 6241.86426
5225.0 0.0001914 264.42902 5452.10205
4367.0 0.0002290 264.29114 4763.51611
3946.0 0.0002534 264.15213 4173.65869
3424.0 0.0002921 264.01181 3675.71802
3112.0 0.0003213 263.87042 3260.15137
2872.0 0.0003482 263.72766 2916.05347
2519.0 0.000397 263.58383 2632.24683
2295.0 0.000436 263.43875 2398.08911
2119.0 0.000472 263.29254 2204.00977
1985.0 0.000504 263.14511 2041.79639
1815.0 0.000551 262.99649 1904.67358
1742.0 0.000574 262.84677 1787.23413
1626.0 0.000615 262.69580 1685.28003
1521.0 0.000657 262.54373 1595.61743
1467.0 0.000682 262.39044 1515.85022
1440.0 0.000694 262.23605 1444.19055
1273.0 0.000786 262.08051 1379.30005
1307.0 0.000765 261.92383 1320.16504
1213.0 0.000824 261.76596 1266.00317
1179.0 0.000848 261.60703 1216.19604
1137.0 0.000880 261.44687 1170.24304
1048.0 0.000954 261.28568 1127.72900
1020.0 0.000980 261.12329 1088.30347
1028.0 0.000973 260.95990 1051.66443
1007.0 0.000993 260.79535 1017.55005
938.0 0.001066 260.62961 985.73041
921.0 0.001086 260.46280 956.00250
921.0 0.001086 260.29495 928.18658
867.0 0.001153 260.12601 902.12213
830.0 0.001205 259.95596 877.66614
841.0 0.001189 259.78488 854.68988
841.0 0.001189 259.61264 833.07855
818.0 0.001222 259.43936 812.72791
754.0 0.001326 259.26505 793.54425
725.0 0.001379 259.08963 775.44293
740.0 0.001351 258.91318 758.34705
798.0 0.001253 258.73569 742.18707
712.0 0.001404 258.55710 726.89941
698.0 0.001433 258.37753 712.42651
653.0 0.001531 258.19693 698.71576
696.0 0.001437 258.01529 685.71912
720.0 0.001389 257.83264 673.39270
721.0 0.001387 257.64896 661.69647
660.0 0.001515 257.46423 650.59363
602.0 0.001661 257.27856 640.05066
671.0 0.001490 257.09189 630.03680
635.0 0.001575 256.90421 620.52356
656.0 0.001524 256.71545 611.48541
634.0 0.001577 256.52585 602.89874
594.0 0.001684 256.33517 594.74152
615.0 0.001626 256.14355 587.03473
597.0 0.001675 255.95094 579.67999
607.0 0.001647 255.75739 572.70099
584.0 0.001712 255.56290 566.08282
596.0 0.001678 255.36740 559.81232
572.0 0.001748 255.17099 553.89758
597.0 0.001675 254.97365 548.28809
569.0 0.001757 254.77534 542.99438
605.0 0.001653 254.57610 538.00873
552.0 0.001812 254.37596 533.32422
546.0 0.001832 254.17491 528.93536
631.0 0.001585 253.97296 524.83795
572.0 0.001748 253.77008 521.02911
535.0 0.001869 253.56631 517.50696
570.0 0.001754 253.36162 514.27136
540.0 0.001852 253.15611 511.32346
567.0 0.001764 252.94963 508.66562
523.0 0.001912 252.74229 506.30228
558.0 0.001792 252.53412 504.23914
534.0 0.001873 252.32509 502.48410
534.0 0.001873 252.11519 501.04709
560.0 0.001786 251.90439 499.94025
512.0 0.001953 251.69276 499.17838
573.0 0.001745 251.48030 498.77908
520.0 0.001923 251.26703 498.76334
525.0 0.001905 251.05289 499.15585
555.0 0.001802 250.83797 499.98566
522.0 0.001916 250.62218 501.28690
551.0 0.001815 250.40565 503.09927
543.0 0.001842 250.18820 505.46979
572.0 0.001748 249.97003 508.45294
569.0 0.001757 249.75111 512.11353
598.0 0.001672 249.53130 516.52777
550.0 0.001818 249.31075 521.78729
550.0 0.001818 249.08937 528.00269
581.0 0.001721 248.86736 535.31116
588.0 0.001701 248.64453 543.88916
584.0 0.001712 248.42087 553.97113
641.0 0.001560 248.19653 565.88385
667.0 0.001499 247.97136 580.10034
664.0 0.001506 247.74556 597.32648
673.0 0.001486 247.51895 619.67358
666.0 0.001502 247.29163 646.65845
780.0 0.001282 247.06358 681.69946
860.0 0.001163 246.83487 728.22107
949.0 0.001054 246.60539 790.97766
971.0 0.001030 246.37526 876.79736
1055.0 0.000948 246.14438 992.57330
1183.0 0.000845 245.91284 1148.18799
1297.0 0.000771 245.68059 1353.87109
1598.0 0.000626 245.44771 1619.70898
1850.0 0.000541 245.21414 1954.19727
2122.0 0.000471 244.97990 2362.43115
2575.0 0.000388 244.74501 2844.07251
3059.0 0.0003269 244.50946 3391.19092
3561.0 0.0002808 244.27324 3986.00781
4120.0 0.0002427 244.03645 4598.65527
4898.0 0.0002042 243.79893 5185.83301
5673.0 0.0001763 243.56088 5693.04102
6393.0 0.0001564 243.32214 6064.00391
6601.0 0.0001515 243.08276 6256.57373
6879.0 0.0001454 242.84286 6255.25195
6437.0 0.0001554 242.60229 6070.24414
6202.0 0.0001612 242.36118 5727.26660
5432.0 0.0001841 242.11942 5260.42773
4729.0 0.0002115 241.87714 4710.57715
4063.0 0.0002461 241.63425 4122.26465
3343.0 0.0002991 241.39079 3537.02881
2692.0 0.000371 241.14677 2987.36450
2175.0 0.000460 240.90215 2494.50684
1884.0 0.000531 240.65704 2069.32983
1450.0 0.000690 240.41135 1714.52502
1279.0 0.000782 240.16516 1426.94031
1195.0 0.000837 239.91840 1199.68604
915.0 0.001093 239.67110 1023.90656
857.0 0.001167 239.42332 890.18036
783.0 0.001277 239.17496 789.52533
749.0 0.001335 238.92619 714.02625
742.0 0.001348 238.67690 657.13232
635.0 0.001575 238.42705 613.70081
652.0 0.001534 238.17679 579.87292
599.0 0.001669 237.92598 552.86407
544.0 0.001838 237.67476 530.72693
557.0 0.001795 237.42303 512.13147
550.0 0.001818 237.17081 496.18069
534.0 0.001873 236.91821 482.27020
535.0 0.001869 236.66508 469.98657
501.0 0.001996 236.41154 459.03937
439.0 0.002278 236.15765 449.21689
424.0 0.002358 235.90324 440.35803
548.0 0.001825 235.64839 432.33588
459.0 0.002179 235.39317 425.04736
441.0 0.002268 235.13748 418.40652
438.0 0.002283 234.88144 412.34094
419.0 0.002387 234.62497 406.78867
463.0 0.002160 234.36812 401.69647
444.0 0.002252 234.11096 397.01843
395.0 0.002532 233.85333 392.71448
442.0 0.002262 233.59535 388.74988
394.0 0.002538 233.33698 385.09418
408.0 0.002451 233.07829 381.72076
384.0 0.002604 232.81920 378.60623
432.0 0.002315 232.55980 375.72998
397.0 0.002519 232.30002 373.07385
423.0 0.002364 232.04002 370.62201
409.0 0.002445 231.77960 368.36005
389.0 0.002571 231.51888 366.27560
393.0 0.002545 231.25783 364.35751
378.0 0.002646 230.99643 362.72119
404.0 0.002475 230.73476 361.10852
359.0 0.002786 230.47281 359.63620
376.0 0.002660 230.21054 358.29755
398.0 0.002513 229.94803 357.08682
324.0 0.003086 229.68532 356.06104
376.0 0.002660 229.42221 355.09161
402.0 0.002488 229.15886 354.23651
408.0 0.002451 228.89526 353.49283
367.0 0.002725 228.63142 352.85760
388.0 0.002577 228.36731 352.32864
401.0 0.002494 228.10300 351.90439
378.0 0.002646 227.83841 351.58347
378.0 0.002646 227.57364 351.36514
368.0 0.002717 227.30861 351.24878
382.0 0.002618 227.04344 351.23456
367.0 0.002725 226.77798 351.32275
355.0 0.002817 226.51237 351.51422
379.0 0.002639 226.24649 351.81003
342.0 0.002924 225.98048 352.21185
364.0 0.002747 225.71431 352.72150
363.0 0.002755 225.44795 353.34152
410.0 0.002439 225.18138 354.07449
361.0 0.002770 224.91467 354.92371
353.0 0.002833 224.64783 355.89294
372.0 0.002688 224.38081 356.98642
364.0 0.002747 224.11365 358.20868
407.0 0.002457 223.84636 359.56494
367.0 0.002725 223.57890 361.06107
358.0 0.002793 223.31139 362.70352
351.0 0.002849 223.04373 364.49942
410.0 0.002439 222.77592 366.45648
411.0 0.002433 222.50804 368.58334
361.0 0.002770 222.24002 370.88968
396.0 0.002525 221.97194 373.38571
391.0 0.002558 221.70377 376.08289
370.0 0.002703 221.43547 378.99396
379.0 0.002639 221.16716 382.13269
382.0 0.002618 220.89880 385.51431
368.0 0.002717 220.63034 389.15552
402.0 0.002488 220.36183 393.07486
419.0 0.002387 220.09323 397.29266
403.0 0.002481 219.82460 401.83145
400.0 0.002500 219.55592 406.71609
443.0 0.002257 219.28720 411.97397
404.0 0.002475 219.01843 417.63568
414.0 0.002415 218.74976 423.73505
423.0 0.002364 218.48102 430.30978
449.0 0.002227 218.21223 437.40176
430.0 0.002326 217.94347 445.05783
460.0 0.002174 217.67464 453.33069
419.0 0.002387 217.40590 462.27911
445.0 0.002247 217.13718 471.96942
476.0 0.002101 216.86839 482.47675
501.0 0.001996 216.59972 493.88635
424.0 0.002358 216.33105 506.29562
465.0 0.002151 216.06244 519.81689
503.0 0.001988 215.79387 534.58087
531.0 0.001883 215.52530 550.74182
578.0 0.001730 215.25682 568.48340
558.0 0.001792 214.98839 588.02972
569.0 0.001757 214.72008 609.65735
615.0 0.001626 214.45180 633.71332
644.0 0.001553 214.18364 660.63995
660.0 0.001515 213.91553 691.00574
661.0 0.001513 213.64748 725.54553
735.0 0.001361 213.37956 765.20966
796.0 0.001256 213.11174 811.22009
820.0 0.001220 212.84406 865.13422
885.0 0.001130 212.57648 928.90613
960.0 0.001042 212.30899 1004.94629
1164.0 0.000859 212.04169 1096.16187
1110.0 0.000901 211.77448 1205.97058
1332.0 0.000751 211.50739 1338.27563
1409.0 0.000710 211.24049 1497.38550
1577.0 0.000634 210.97371 1687.87012
1841.0 0.000543 210.70708 1914.34937
1992.0 0.000502 210.44060 2181.20068
2415.0 0.000414 210.17433 2492.18970
2673.0 0.000374 209.90819 2850.00854
3103.0 0.0003223 209.64230 3255.69775
3578.0 0.0002795 209.37653 3707.90332
4053.0 0.0002467 209.11093 4201.90820
4909.0 0.0002037 208.84560 4728.38867
5386.0 0.0001857 208.58040 5271.99805
6008.0 0.0001664 208.31544 5810.17725
6803.0 0.0001470 208.05067 6313.11621
7277.0 0.0001374 207.78610 6746.05029
7845.0 0.0001275 207.52180 7074.55957
8236.0 0.0001214 207.25777 7271.64600
8280.0 0.0001208 206.99391 7323.39844
8275.0 0.0001208 206.73030 7230.31396
7998.0 0.0001250 206.46695 7004.52295
7474.0 0.0001338 206.20380 6665.80713
6815.0 0.0001467 205.94096 6238.74756
6299.0 0.0001588 205.67833 5750.74170
5472.0 0.0001827 205.41603 5229.69727
4757.0 0.0002102 205.15401 4701.23682
4183.0 0.0002391 204.89218 4186.40234
3523.0 0.0002838 204.63072 3700.61841
3041.0 0.0003288 204.36942 3253.85400
2562.0 0.000390 204.10854 2851.49805
2195.0 0.000456 203.84793 2495.41309
1993.0 0.000502 203.58760 2184.91357
1654.0 0.000605 203.32761 1917.56335
1581.0 0.000633 203.06793 1689.80859
1372.0 0.000729 202.80856 1497.46472
1294.0 0.000773 202.54948 1336.09595
1188.0 0.000842 202.29077 1201.30078
986.0 0.001014 202.03244 1088.91772
964.0 0.001037 201.77434 995.16016
910.0 0.001099 201.51668 916.69354
837.0 0.001195 201.25932 850.66193
707.0 0.001414 201.00237 794.67786
723.0 0.001383 200.74574 746.78790
658.0 0.001520 200.48944 705.42157
655.0 0.001527 200.23357 669.33405
634.0 0.001577 199.97806 637.54871
541.0 0.001848 199.72293 609.30511
524.0 0.001908 199.46820 584.01086
520.0 0.001923 199.21379 561.20392
499.0 0.002004 198.95988 540.52100
505.0 0.001980 198.70636 521.67249
458.0 0.002183 198.45319 504.42581
454.0 0.002203 198.20047 488.58954
442.0 0.002262 197.94814 474.00473
464.0 0.002155 197.69623 460.53687
427.0 0.002342 197.44475 448.07120
399.0 0.002506 197.19371 436.50830
432.0 0.002315 196.94315 425.76117
380.0 0.002632 196.69299 415.75397
363.0 0.002755 196.44331 406.41891
397.0 0.002519 196.19402 397.69659
363.0 0.002755 195.94519 389.53354
354.0 0.002825 195.69684 381.88223
359.0 0.002786 195.44893 374.70004
366.0 0.002732 195.20154 367.94867
354.0 0.002825 194.95454 361.59354
315.0 0.003175 194.70815 355.60376
353.0 0.002833 194.46219 349.95099
297.0 0.003367 194.21669 344.61014
328.0 0.003049 193.97163 339.55771
302.0 0.003311 193.72714 334.77286
323.0 0.003096 193.48314 330.23663
300.0 0.003333 193.23964 325.93140
301.0 0.003322 192.99667 321.84143
304.0 0.003289 192.75421 317.95200
297.0 0.003367 192.51231 314.24997
304.0 0.003289 192.27087 310.72296
282.0 0.00355 192.02997 307.35971
289.0 0.003460 191.78960 304.14999
290.0 0.003448 191.54979 301.08435
293.0 0.003413 191.31046 298.15396
271.0 0.00369 191.07173 295.35059
280.0 0.00357 190.83357 292.66699
289.0 0.003460 190.59595 290.09610
272.0 0.00368 190.35890 287.63150
289.0 0.003460 190.12238 285.26724
270.0 0.00370 189.88644 282.99780
277.0 0.00361 189.65108 280.81808
271.0 0.00369 189.41624 278.72333
272.0 0.00368 189.18210 269.25140
283.0 0.00353 188.94843 267.35648
283.0 0.00353 188.71542 265.53372
245.0 0.00408 188.48303 263.77948
243.0 0.00412 188.25114 256.42737
244.0 0.00410 188.01993 254.83344
288.0 0.003472 187.78925 253.29829
243.0 0.00412 187.55925 251.81926
238.0 0.00420 187.32983 250.39369
230.0 0.00435 187.10106 249.01927
237.0 0.00422 186.87292 247.69371
230.0 0.00435 186.64537 246.41486
259.0 0.00386 186.41844 245.18073
237.0 0.00422 186.19215 243.98952
235.0 0.00426 185.96652 242.83943
234.0 0.00427 185.74149 241.72888
245.0 0.00408 185.51714 240.65623
251.0 0.00398 185.29341 239.62016
252.0 0.00397 185.07040 238.61923
236.0 0.00424 184.84802 237.65222
208.0 0.00481 184.62628 236.71785
211.0 0.00474 184.40520 235.81502
218.0 0.00459 184.18478 234.94266
253.0 0.00395 183.96506 234.09979
245.0 0.00408 183.74600 233.28554
214.0 0.00467 183.52763 232.49893
248.0 0.00403 183.30992 231.73920
243.0 0.00412 183.09299 231.00558
227.0 0.00441 182.87666 230.29733
212.0 0.00472 182.66103 229.61382
208.0 0.00481 182.44611 228.95435
231.0 0.00433 182.23186 228.31841
221.0 0.00452 182.01834 227.70546
232.0 0.00431 181.80554 227.11493
224.0 0.00446 181.59346 226.54642
229.0 0.00437 181.38211 225.99954
230.0 0.00435 181.17143 225.47380
218.0 0.00459 180.96149 224.96892
257.0 0.00389 180.75232 224.48457
198.0 0.00505 180.54382 224.24013
220.0 0.00455 180.33606 223.79730
222.0 0.00450 180.12901 223.37430
224.0 0.00446 179.92278 222.97093
195.0 0.00513 179.71718 222.58702
210.0 0.00476 179.51242 222.33160
227.0 0.00441 179.30841 221.98700
226.0 0.00442 179.10510 221.66164
200.0 0.00500 178.90260 221.35553
235.0 0.00426 178.70084 221.06870
219.0 0.00457 178.49980 220.80119
211.0 0.00474 178.29958 220.55316
231.0 0.00433 178.10007 220.82799
241.0 0.00415 177.90138 220.62161
206.0 0.00485 177.70348 220.43523
221.0 0.00452 177.50635 220.26915
229.0 0.00437 177.30995 220.12370
229.0 0.00437 177.11432 219.99921
210.0 0.00476 176.91953 220.14706
229.0 0.00437 176.72551 220.06711
213.0 0.00469 176.53226 220.00972
226.0 0.00442 176.33989 219.97552
207.0 0.00483 176.14822 219.96513
236.0 0.00424 175.95740 219.97946
237.0 0.00422 175.76735 220.01936
188.0 0.00532 175.57816 220.08580
219.0 0.00457 175.38982 220.18010
234.0 0.00427 175.20216 220.30330
216.0 0.00463 175.01538 220.45689
218.0 0.00459 174.82939 220.64253
202.0 0.00495 174.64430 220.86192
214.0 0.00467 174.45999 221.11707
212.0 0.00472 174.27644 221.41017
215.0 0.00465 174.09380 221.74385
212.0 0.00472 173.91194 222.12105
225.0 0.00444 173.73093 222.54509
215.0 0.00465 173.55078 223.02000
219.0 0.00457 173.37143 223.55035
212.0 0.00472 173.19299 224.14191
219.0 0.00457 173.01537 224.80147
236.0 0.00424 172.83855 225.53777
213.0 0.00469 172.66263 226.36162
232.0 0.00431 172.48749 227.28716
206.0 0.00485 172.31328 228.33223
240.0 0.00417 172.13986 229.52039
200.0 0.00500 171.96735 230.88148
278.0 0.00360 171.79570 232.45390
255.0 0.00392 171.62492 234.28580
230.0 0.00435 171.45499 236.43697
215.0 0.00465 171.28592 238.97993
220.0 0.00455 171.11769 242.00063
240.0 0.00417 170.95039 245.59805
258.0 0.00388 170.78391 249.88284
243.0 0.00412 170.61835 254.97380
264.0 0.00379 170.45364 260.99344
283.0 0.00353 170.28987 268.06107
256.0 0.00391 170.12692 276.28375
266.0 0.00376 169.96486 285.74606
266.0 0.00376 169.80374 296.49716
281.0 0.00356 169.64345 308.53540
321.0 0.003115 169.48407 321.78854
304.0 0.003289 169.32559 336.08997
323.0 0.003096 169.16800 351.14871
323.0 0.003096 169.01135 366.51846
365.0 0.002740 168.85551 381.57788
353.0 0.002833 168.70067 395.54449
365.0 0.002740 168.54669 407.54886
412.0 0.002427 168.39360 416.77542
387.0 0.002584 168.24141 422.62857
408.0 0.002451 168.09015 424.84586
424.0 0.002358 167.93979 423.49896
379.0 0.002639 167.79037 418.90582
375.0 0.002667 167.64185 411.53088
368.0 0.002717 167.49425 401.93030
370.0 0.002703 167.34755 390.72958
360.0 0.002778 167.20180 378.59207
315.0 0.003175 167.05693 366.16132
327.0 0.003058 166.91299 353.99991
354.0 0.002825 166.76997 342.54919
329.0 0.003040 166.62791 332.11893
288.0 0.003472 166.48679 322.89941
291.0 0.003436 166.34657 314.98383
277.0 0.00361 166.20724 308.39230
287.0 0.003484 166.06888 303.09177
294.0 0.003401 165.93155 299.01358
291.0 0.003436 165.79500 296.06699
294.0 0.003401 165.65947 294.15048
306.0 0.003268 165.52484 293.15964
261.0 0.00383 165.39125 292.99426
298.0 0.003356 165.25848 293.56247
263.0 0.00380 165.12671 294.78409
310.0 0.003226 164.99583 296.59201
305.0 0.003279 164.86592 298.93298
282.0 0.00355 164.73695 301.76712
314.0 0.003185 164.60896 305.06705
282.0 0.00355 164.48190 308.81714
315.0 0.003175 164.35583 313.01212
288.0 0.003472 164.23068 317.65561
351.0 0.002849 164.10649 322.75970
287.0 0.003484 163.98325 328.34402
331.0 0.003021 163.86096 334.43527
350.0 0.002857 163.73959 341.06677
359.0 0.002786 163.61923 348.27921
386.0 0.002591 163.49985 356.12036
354.0 0.002825 163.38135 364.64655
385.0 0.002597 163.26390 373.92334
371.0 0.002695 163.14734 384.02753
407.0 0.002457 163.03175 395.05002
409.0 0.002445 162.91711 407.09894
421.0 0.002375 162.80350 420.30502
412.0 0.002427 162.69083 434.82846
434.0 0.002304 162.57910 450.86868
499.0 0.002004 162.46832 468.67676
481.0 0.002079 162.35858 488.57266
545.0 0.001835 162.24976 510.96643
581.0 0.001721 162.14191 536.38544
648.0 0.001543 162.03506 565.50531
599.0 0.001669 161.92915 599.18695
693.0 0.001443 161.82419 638.51520
701.0 0.001427 161.72025 684.83685
724.0 0.001381 161.61726 739.79510
803.0 0.001245 161.51527 805.35309
948.0 0.001055 161.41425 883.80023
1019.0 0.000981 161.31419 977.73370
1085.0 0.000922 161.21509 1090.01001
1223.0 0.000818 161.11700 1223.65662
1325.0 0.000755 161.01982 1381.74512
1538.0 0.000650 160.92369 1567.21826
1698.0 0.000589 160.82852 1784.69116
1908.0 0.000524 160.73431 2032.12671
2164.0 0.000462 160.64114 2312.58911
2495.0 0.000401 160.54892 2625.80396
2811.0 0.000356 160.45763 2969.66455
3180.0 0.0003145 160.36734 3339.58936
3581.0 0.0002793 160.27805 3728.75439
4003.0 0.0002498 160.18976 4123.29443
4455.0 0.0002245 160.10243 4507.83838
4847.0 0.0002063 160.01608 4861.93311
5262.0 0.0001900 159.93071 5162.96289
5563.0 0.0001798 159.84634 5389.71973
5688.0 0.0001758 159.76292 5526.56885
5740.0 0.0001742 159.68053 5566.31152
5829.0 0.0001716 159.59911 5510.31885
5564.0 0.0001797 159.51866 5366.31934
5335.0 0.0001874 159.43913 5145.79492
5025.0 0.0001990 159.36067 4862.46191
4530.0 0.0002208 159.28322 4531.77002
4004.0 0.0002498 159.20670 4170.36621
3762.0 0.0002658 159.13115 3794.88940
3401.0 0.0002940 159.05658 3420.39600
3012.0 0.0003320 158.98302 3059.14429
2621.0 0.000382 158.91051 2720.09253
2177.0 0.000459 158.83891 2409.04858
2084.0 0.000480 158.76826 2129.17017
1693.0 0.000591 158.69864 1881.56458
1578.0 0.000634 158.63002 1665.85083
1352.0 0.000740 158.56238 1480.62427
1344.0 0.000744 158.49573 1323.83569
1185.0 0.000844 158.43001 1193.08411
1064.0 0.000940 158.36534 1085.84668
938.0 0.001066 158.30162 999.64935
886.0 0.001129 158.23891 933.04761
892.0 0.001121 158.17719 882.24377
896.0 0.001116 158.11636 846.28955
809.0 0.001236 158.05661 823.62769
816.0 0.001225 157.99783 812.91296
830.0 0.001205 157.94002 812.94818
816.0 0.001225 157.88316 822.59985
857.0 0.001167 157.82736 841.13116
797.0 0.001255 157.77249 866.36499
882.0 0.001134 157.71860 897.13776
921.0 0.001086 157.66570 931.44879
949.0 0.001054 157.61380 966.78839
1051.0 0.000951 157.56287 1000.14111
1055.0 0.000948 157.51289 1028.18958
1116.0 0.000896 157.46390 1047.76233
1132.0 0.000883 157.41595 1056.42322
1179.0 0.000848 157.36888 1052.91821
1160.0 0.000862 157.32288 1037.23303
1035.0 0.000966 157.27777 1010.27393
915.0 0.001093 157.23372 973.46082
946.0 0.001057 157.19060 928.49908
852.0 0.001174 157.14847 877.34076
838.0 0.001193 157.10730 822.15942
748.0 0.001337 157.06715 765.20471
682.0 0.001466 157.02789 708.57056
648.0 0.001543 156.98969 653.99463
588.0 0.001701 156.95244 602.76007
557.0 0.001795 156.91609 555.70001
516.0 0.001938 156.88083 513.25787
459.0 0.002179 156.84648 475.56863
432.0 0.002315 156.81308 442.53717
403.0 0.002481 156.78072 413.90570
365.0 0.002740 156.74925 389.30957
348.0 0.002874 156.71877 368.32346
350.0 0.002857 156.68929 350.49734
369.0 0.002710 156.66075 335.38538
332.0 0.003012 156.63322 322.56592
320.0 0.003125 156.60657 311.65570
313.0 0.003195 156.58090 302.31720
294.0 0.003401 156.55623 294.26157
290.0 0.003448 156.53255 287.24774
258.0 0.00388 156.50977 281.07892
271.0 0.00369 156.48796 275.59677
317.0 0.003155 156.46710 270.67633
277.0 0.00361 156.44724 266.21982
273.0 0.00366 156.42834 262.15125
297.0 0.003367 156.41035 258.41162
271.0 0.00369 156.39334 254.95486
247.0 0.00405 156.37726 251.74498
255.0 0.00392 156.36215 248.75301
250.0 0.00400 156.34799 245.95580
250.0 0.00400 156.33478 243.33403
247.0 0.00405 156.32257 240.87158
210.0 0.00476 156.31122 238.55467
244.0 0.00410 156.30086 236.37131
242.0 0.00413 156.29147 234.31102
235.0 0.00426 156.28299 232.36444
259.0 0.00386 156.27544 230.52338
238.0 0.00420 156.26884 228.78026
180.0 0.00556 156.26320 227.12845
244.0 0.00410 156.25851 225.56189
226.0 0.00442 156.25470 224.07484
230.0 0.00435 156.25191 222.66249
215.0 0.00465 156.25000 221.32014
205.0 0.00488 156.24902 220.04358
239.0 0.00418 156.24893 218.82893
229.0 0.00437 156.24991 217.67270
241.0 0.00415 156.25168 216.57159
225.0 0.00444 156.25443 215.52266
204.0 0.00490 156.25812 214.52301
206.0 0.00485 156.26273 213.57025
217.0 0.00461 156.26830 212.66193
204.0 0.00490 156.27475 211.79587
196.0 0.00510 156.28207 210.97005
205.0 0.00488 156.29037 210.18254
231.0 0.00433 156.29959 209.43167
228.0 0.00439 156.30971 208.71581
202.0 0.00495 156.32074 208.03336
233.0 0.00429 156.33267 207.38300
211.0 0.00474 156.34554 206.76335
190.0 0.00526 156.35933 206.17331
223.0 0.00448 156.37399 205.61162
231.0 0.00433 156.38960 205.07726
202.0 0.00495 156.40610 204.56923
251.0 0.00398 156.42349 204.08667
205.0 0.00488 156.44176 203.62860
186.0 0.00538 156.46095 203.19437
206.0 0.00485 156.48103 202.78314
225.0 0.00444 156.50201 202.39420
208.0 0.00481 156.52390 202.02698
211.0 0.00474 156.54668 201.68083
196.0 0.00510 156.57031 201.35522
211.0 0.00474 156.59486 201.04961
217.0 0.00461 156.62033 200.76358
204.0 0.00490 156.64661 200.49664
213.0 0.00469 156.67381 200.24840
199.0 0.00503 156.70192 200.01852
218.0 0.00459 156.73087 199.80667
211.0 0.00474 156.76070 199.61258
211.0 0.00474 156.79143 199.43591
183.0 0.00546 156.82303 199.27655
227.0 0.00441 156.85547 199.13417
228.0 0.00439 156.88881 199.00867
209.0 0.00478 156.92300 198.89992
219.0 0.00457 156.95805 198.80775
206.0 0.00485 156.99399 198.73215
209.0 0.00478 157.03073 198.67303
218.0 0.00459 157.06841 198.63039
186.0 0.00538 157.10687 198.60426
193.0 0.00518 157.14624 198.59459
209.0 0.00478 157.18646 198.60165
177.0 0.00565 157.22749 198.62535
193.0 0.00518 157.26942 198.66591
188.0 0.00532 157.31218 198.72356
216.0 0.00463 157.35577 198.79845
200.0 0.00500 157.40019 198.89084
213.0 0.00469 157.44547 199.00107
201.0 0.00498 157.49158 199.12944
205.0 0.00488 157.53853 199.27635
182.0 0.00549 157.58627 199.44228
197.0 0.00508 157.63489 199.62766
215.0 0.00465 157.68434 199.83302
206.0 0.00485 157.73460 200.05901
202.0 0.00495 157.78574 200.30632
219.0 0.00457 157.83762 200.57562
208.0 0.00481 157.89035 200.86778
180.0 0.00556 157.94388 201.18359
201.0 0.00498 157.99826 201.52422
241.0 0.00415 158.05342 201.89050
173.0 0.00578 158.10938 202.28386
207.0 0.00483 158.16618 202.70551
225.0 0.00444 158.22375 203.15688
202.0 0.00495 158.28217 203.63947
193.0 0.00518 158.34138 204.15506
205.0 0.00488 158.40135 203.41344
227.0 0.00441 158.46214 204.00734
219.0 0.00457 158.52373 204.64293
218.0 0.00459 158.58606 205.31792
227.0 0.00441 158.64922 206.03754
196.0 0.00510 158.71321 205.84114
191.0 0.00524 158.77792 206.66393
202.0 0.00495 158.84340 207.54175
211.0 0.00474 158.90970 208.47867
223.0 0.00448 158.97678 209.48074
213.0 0.00469 159.04454 210.55078
256.0 0.00391 159.11313 211.69582
235.0 0.00426 159.18253 212.92252
218.0 0.00459 159.25267 214.23816
223.0 0.00448 159.32355 215.65121
238.0 0.00420 159.39520 217.17114
251.0 0.00398 159.46759 218.80867
232.0 0.00431 159.54077 220.57635
229.0 0.00437 159.61465 222.48853
228.0 0.00439 159.68929 224.56245
238.0 0.00420 159.76468 226.81870
233.0 0.00429 159.84081 229.28273
207.0 0.00483 159.91771 231.98643
237.0 0.00422 159.99535 234.97110
248.0 0.00403 160.07373 238.29073
248.0 0.00403 160.15280 242.01749
269.0 0.00372 160.23257 246.24806
255.0 0.00392 160.31310 251.11295
279.0 0.00358 160.39441 256.78659
281.0 0.00356 160.47635 263.50012
271.0 0.00369 160.55907 271.55484
286.0 0.003497 160.64249 281.33585
320.0 0.003125 160.72661 293.32339
339.0 0.002950 160.81140 308.10013
342.0 0.002924 160.89700 326.35052
359.0 0.002786 160.98320 348.85007
378.0 0.002646 161.07018 376.44119
420.0 0.002381 161.15779 409.99283
437.0 0.002288 161.24615 450.34540
521.0 0.001919 161.33516 498.23877
541.0 0.001848 161.42490 554.22760
581.0 0.001721 161.51530 618.58496
621.0 0.001610 161.60638 691.19489
775.0 0.001290 161.69812 771.43048
827.0 0.001209 161.79060 858.01465
949.0 0.001054 161.88367 948.86047
995.0 0.001005 161.97746 1040.91553
1147.0 0.000872 162.07190 1130.08362
1313.0 0.000762 162.16702 1211.36963
1365.0 0.000733 162.26282 1279.41052
1489.0 0.000672 162.35925 1329.41052
1536.0 0.000651 162.45630 1358.17761
1527.0 0.000655 162.55409 1364.70251
1448.0 0.000691 162.65244 1349.93616
1438.0 0.000695 162.75151 1316.00354
1392.0 0.000718 162.85117 1265.47302
1235.0 0.000810 162.95151 1201.10693
1143.0 0.000875 163.05246 1125.98792
1044.0 0.000958 163.15405 1043.62390
922.0 0.001085 163.25626 957.75641
826.0 0.001211 163.35909 871.95477
762.0 0.001312 163.46255 789.22717
683.0 0.001464 163.56667 711.81891
616.0 0.001623 163.67139 641.19690
525.0 0.001905 163.77669 578.14850
495.0 0.002020 163.88264 522.92010
467.0 0.002141 163.98920 475.35287
486.0 0.002058 164.09634 435.00214
415.0 0.002410 164.20403 401.23706
377.0 0.002653 164.31242 373.32159
368.0 0.002717 164.42134 350.47958
338.0 0.002959 164.53090 331.94495
331.0 0.003021 164.64101 316.99789
355.0 0.002817 164.75172 304.98880
317.0 0.003155 164.86301 295.35117
311.0 0.003215 164.97490 287.60544
303.0 0.003300 165.08734 281.35675
263.0 0.00380 165.20035 276.28769
322.0 0.003106 165.31390 272.14804
308.0 0.003247 165.42807 268.74442
281.0 0.00356 165.54283 265.92944
325.0 0.003077 165.65805 263.59201
318.0 0.003145 165.77393 261.64859
263.0 0.00380 165.89026 260.03683
261.0 0.00383 166.00719 258.70959
256.0 0.00391 166.12466 257.63120
278.0 0.00360 166.24269 256.77417
293.0 0.003413 166.36124 256.11694
278.0 0.00360 166.48033 255.64247
270.0 0.00370 166.59995 255.33690
275.0 0.00364 166.72009 255.18901
290.0 0.003448 166.84076 255.18962
271.0 0.00369 166.96199 255.33118
267.0 0.00375 167.08363 255.74937
248.0 0.00403 167.20587 256.15622
279.0 0.00358 167.32861 256.68918
273.0 0.00366 167.45190 257.34525
274.0 0.00365 167.57562 258.12231
283.0 0.00353 167.69987 259.01938
270.0 0.00370 167.82465 260.03601
286.0 0.003497 167.94987 261.24310
280.0 0.00357 168.07556 262.50092
285.0 0.00351 168.20181 263.88153
293.0 0.003413 168.32851 265.38763
297.0 0.003367 168.45570 267.02240
305.0 0.003279 168.58336 268.78992
320.0 0.003125 168.71149 270.69504
253.0 0.00395 168.84010 272.74359
267.0 0.00375 168.96918 274.94202
299.0 0.003344 169.09869 277.29791
287.0 0.003484 169.22868 279.81985
279.0 0.00358 169.35912 282.51746
297.0 0.003367 169.49002 285.40179
292.0 0.003425 169.62134 288.48508
273.0 0.00366 169.75314 291.78113
328.0 0.003049 169.88535 295.30554
306.0 0.003268 170.01801 299.07578
312.0 0.003205 170.15115 303.11160
323.0 0.003096 170.28462 307.43518
329.0 0.003040 170.41862 312.07236
312.0 0.003205 170.55298 317.05209
314.0 0.003185 170.68779 322.40851
356.0 0.002809 170.82303 328.18115
354.0 0.002825 170.95862 334.41730
329.0 0.003040 171.09465 341.17361
344.0 0.002907 171.23109 348.51941
381.0 0.002625 171.36790 356.54013
375.0 0.002667 171.50514 365.34314
399.0 0.002506 171.64278 375.06308
395.0 0.002532 171.78079 385.87100
442.0 0.002262 171.91917 397.98294
416.0 0.002404 172.05798 411.67252
434.0 0.002304 172.19720 427.28241
467.0 0.002141 172.33673 445.23871
481.0 0.002079 172.47664 466.06406
512.0 0.001953 172.61687 490.38983
562.0 0.001779 172.75755 518.96539
550.0 0.001818 172.89851 552.66144
652.0 0.001534 173.03992 592.46753
655.0 0.001527 173.18164 639.47876
727.0 0.001376 173.32367 694.87274
722.0 0.001385 173.46611 759.87164
847.0 0.001181 173.60883 835.69244
834.0 0.001199 173.75194 923.48328
975.0 0.001026 173.89539 1024.24402
1054.0 0.000949 174.03911 1138.73535
1186.0 0.000843 174.18323 1267.36975
1322.0 0.000756 174.32765 1410.08240
1483.0 0.000674 174.47237 1566.13452
1615.0 0.000619 174.61743 1734.08081
1766.0 0.000566 174.76277 1911.29492
2008.0 0.000498 174.90845 2093.87549
2268.0 0.000441 175.05443 2276.39722
2462.0 0.000406 175.20070 2451.84717
2679.0 0.000373 175.34731 2612.01733
2846.0 0.000351 175.49414 2748.20142
3066.0 0.0003262 175.64130 2852.54077
3122.0 0.0003203 175.78873 2919.37695
3108.0 0.0003218 175.93646 2946.12305
3095.0 0.0003231 176.08446 2933.24878
3062.0 0.0003266 176.23271 2883.47827
2922.0 0.0003422 176.38126 2800.77588
2823.0 0.000354 176.53011 2689.69116
2567.0 0.000390 176.67920 2555.21460
2391.0 0.000418 176.82854 2402.86792
2300.0 0.000435 176.97812 2238.64038
2011.0 0.000497 177.12798 2068.63599
1777.0 0.000563 177.27806 1898.54529
1647.0 0.000607 177.42839 1733.19763
1465.0 0.000683 177.57898 1576.31372
1304.0 0.000767 177.72978 1430.48608
1203.0 0.000831 177.88084 1297.29456
1110.0 0.000901 178.03218 1177.48682
945.0 0.001058 178.18367 1071.16772
924.0 0.001082 178.33540 977.96405
815.0 0.001227 178.48735 897.16565
785.0 0.001274 178.63950 827.83905
748.0 0.001337 178.79187 768.92023
716.0 0.001397 178.94446 719.28760
707.0 0.001414 179.09726 677.81958
636.0 0.001572 179.25021 643.43878
648.0 0.001543 179.40341 615.14221
591.0 0.001692 179.55681 592.02277
572.0 0.001748 179.71036 573.27856
600.0 0.001667 179.86412 558.21741
560.0 0.001786 180.01799 546.25287
545.0 0.001835 180.17207 536.89801
530.0 0.001887 180.32639 529.75616
575.0 0.001739 180.48082 524.50861
530.0 0.001887 180.63544 520.90436
528.0 0.001894 180.79021 518.74921
541.0 0.001848 180.94514 517.89545
497.0 0.002012 181.10023 519.16656
513.0 0.001949 181.25545 520.62317
590.0 0.001695 181.41081 523.14050
546.0 0.001832 181.56636 526.68628
526.0 0.001901 181.72200 531.24530
537.0 0.001862 181.87779 536.81726
564.0 0.001773 182.03372 543.41528
563.0 0.001776 182.18976 551.52899
578.0 0.001730 182.34596 560.26923
656.0 0.001524 182.50221 570.14807
538.0 0.001859 182.65863 581.22852
642.0 0.001558 182.81516 593.58899
674.0 0.001484 182.97177 607.32507
606.0 0.001650 183.12852 622.55432
620.0 0.001613 183.28537 639.42072
641.0 0.001560 183.44228 658.10236
693.0 0.001443 183.59930 678.82111
695.0 0.001439 183.75644 701.85657
790.0 0.001266 183.91360 727.56281
833.0 0.001200 184.07092 756.39081
826.0 0.001211 184.22824 788.91656
912.0 0.001096 184.38571 825.87427
966.0 0.001035 184.54321 868.19586
1017.0 0.000983 184.70079 917.05579
979.0 0.001021 184.85841 973.91669
1137.0 0.000880 185.01611 1040.57751
1153.0 0.000867 185.17384 1119.21570
1267.0 0.000789 185.33163 1212.41785
1359.0 0.000736 185.48949 1323.19458
1494.0 0.000669 185.64737 1454.97021
1711.0 0.000584 185.80531 1611.53906
1788.0 0.000559 185.96327 1796.98315
2012.0 0.000497 186.12129 2015.54492
2195.0 0.000456 186.27931 2271.84253
2370.0 0.000422 186.43732 2569.08960
2676.0 0.000374 186.59540 2911.16504
3019.0 0.0003312 186.75349 3300.74146
3370.0 0.0002967 186.91161 3739.31030
3813.0 0.0002623 187.06970 4226.76318
4356.0 0.0002296 187.22784 4760.88086
4931.0 0.0002028 187.38596 5336.73145
5541.0 0.0001805 187.54407 5946.12451
6333.0 0.0001579 187.70218 6576.03223
7103.0 0.0001408 187.86028 7209.03516
7997.0 0.0001250 188.01837 7822.29688
8690.0 0.0001151 188.17647 8388.54004
9655.0 0.0001036 188.33453 8878.40332
10003.0 0.0001000 188.49258 9264.40625
10632.0 0.0000941 188.65059 9525.55469
10590.0 0.0000944 188.80856 9650.76758
10625.0 0.0000941 188.96646 9639.51855
9972.0 0.0001003 189.12437 9499.57227
9935.0 0.0001007 189.28226 9243.44141
9260.0 0.0001080 189.44006 8885.65820
8698.0 0.0001150 189.59781 8441.89063
8017.0 0.0001247 189.75554 7929.32715
7330.0 0.0001364 189.91318 7367.02148
6810.0 0.0001468 190.07082 6775.24951
5898.0 0.0001695 190.22836 6173.94092
5234.0 0.0001911 190.38576 5579.90088
4520.0 0.0002212 190.54318 5009.76465
4042.0 0.0002474 190.70047 4473.24512
3542.0 0.0002823 190.85773 3977.48193
3211.0 0.0003114 191.01486 3526.48242
2851.0 0.000351 191.17191 3121.09888
2582.0 0.000387 191.32892 2762.20142
2224.0 0.000450 191.48579 2447.30322
2065.0 0.000484 191.64259 2173.59033
1832.0 0.000546 191.79926 1937.61646
1560.0 0.000641 191.95580 1735.52905
1555.0 0.000643 192.11229 1563.54138
1459.0 0.000685 192.26863 1417.73877
1265.0 0.000791 192.42488 1294.45715
1271.0 0.000787 192.58102 1190.31641
1199.0 0.000834 192.73703 1102.27319
1085.0 0.000922 192.89291 1027.65125
1059.0 0.000944 193.04863 964.14270
993.0 0.001007 193.20425 909.79327
902.0 0.001109 193.35973 862.97571
797.0 0.001255 193.51505 822.35327
839.0 0.001192 193.67024 786.84131
820.0 0.001220 193.82527 755.56873
735.0 0.001361 193.98018 727.84076
711.0 0.001406 194.13490 703.10583
718.0 0.001393 194.28947 680.92633
700.0 0.001429 194.44389 660.95526
648.0 0.001543 194.59811 642.91559
655.0 0.001527 194.75221 626.58435
643.0 0.001555 194.90610 611.78088
570.0 0.001754 195.05988 598.35693
623.0 0.001605 195.21339 586.18964
583.0 0.001715 195.36678 575.17596
602.0 0.001661 195.51994 565.22894
560.0 0.001786 195.67288 556.27448
545.0 0.001835 195.82574 548.24957
577.0 0.001733 195.97833 541.10004
527.0 0.001898 196.13074 534.78040
545.0 0.001835 196.28290 529.25153
531.0 0.001883 196.43489 524.48120
593.0 0.001686 196.58670 520.44269
528.0 0.001894 196.73825 517.11517
531.0 0.001883 196.88956 514.48291
494.0 0.002024 197.04068 512.53491
522.0 0.001916 197.19160 511.26535
522.0 0.001916 197.34229 510.67355
552.0 0.001812 197.49274 510.76364
477.0 0.002096 197.64293 511.54477
530.0 0.001887 197.79291 513.03192
495.0 0.002020 197.94261 515.24597
533.0 0.001876 198.09206 518.21460
563.0 0.001776 198.24129 521.97339
562.0 0.001779 198.39026 526.56641
541.0 0.001848 198.53896 532.04913
514.0 0.001946 198.68745 540.08923
514.0 0.001946 198.83568 547.58099
559.0 0.001789 198.98363 556.22266
580.0 0.001724 199.13130 566.14679
535.0 0.001869 199.27864 577.51923
598.0 0.001672 199.42578 590.54767
572.0 0.001748 199.57259 605.49194
638.0 0.001567 199.71912 622.67639
660.0 0.001515 199.86543 643.29987
697.0 0.001435 200.01140 666.38361
696.0 0.001437 200.15710 693.09149
737.0 0.001357 200.30249 724.26630
803.0 0.001245 200.44763 760.77051
796.0 0.001256 200.59238 803.61212
814.0 0.001229 200.73688 853.94812
892.0 0.001121 200.88107 913.08014
966.0 0.001035 201.02495 982.44104
983.0 0.001017 201.16849 1063.62732
1092.0 0.000916 201.31177 1158.12622
1170.0 0.000855 201.45471 1267.61450
1312.0 0.000762 201.59723 1393.65393
1394.0 0.000717 201.73950 1537.67029
1574.0 0.000635 201.88142 1700.84985
1673.0 0.000598 202.02304 1884.01917
1894.0 0.000528 202.16432 2087.50000
2193.0 0.000456 202.30524 2310.92676
2423.0 0.000413 202.44586 2553.01367
2573.0 0.000389 202.58606 2811.27417
2967.0 0.0003370 202.72597 3081.67627
3293.0 0.0003037 202.86552 3358.30273
3514.0 0.0002846 203.00468 3633.09595
3912.0 0.0002556 203.14351 3895.89014
4172.0 0.0002397 203.28198 4134.93359
4460.0 0.0002242 203.42006 4338.07715
4680.0 0.0002137 203.55779 4494.48486
4895.0 0.0002043 203.69514 4596.39941
4809.0 0.0002079 203.83215 4640.26514
4818.0 0.0002076 203.96877 4626.69873
4801.0 0.0002083 204.10495 4559.41992
4725.0 0.0002116 204.24083 4443.82959
4409.0 0.0002268 204.37625 4285.95508
4131.0 0.0002421 204.51137 4092.14355
3851.0 0.0002597 204.64606 3869.23999
3634.0 0.0002752 204.78033 3624.79565
3422.0 0.0002922 204.91423 3367.52100
3043.0 0.0003286 205.04768 3104.24097
2799.0 0.000357 205.18074 2842.97583
2447.0 0.000409 205.31346 2589.90112
2246.0 0.000445 205.44569 2349.72168
2004.0 0.000499 205.57758 2125.67139
1749.0 0.000572 205.70903 1919.69055
1540.0 0.000649 205.84006 1732.65698
1424.0 0.000702 205.97067 1564.94739
1329.0 0.000752 206.10083 1415.39795
1221.0 0.000819 206.23061 1283.35901
1040.0 0.000962 206.35992 1167.58704
934.0 0.001071 206.48878 1066.67114
921.0 0.001086 206.61726 979.12091
860.0 0.001163 206.74525 903.43628
869.0 0.001151 206.87282 838.15930
843.0 0.001186 207.00000 781.91400
695.0 0.001439 207.12666 733.43164
657.0 0.001522 207.25293 691.56677
685.0 0.001460 207.37866 655.30579
624.0 0.001603 207.50403 623.76440
589.0 0.001698 207.62892 596.18439
557.0 0.001795 207.75333 571.92426
548.0 0.001825 207.87732 550.44647
504.0 0.001984 208.00079 531.30585
528.0 0.001894 208.12381 514.13666
490.0 0.002041 208.24635 498.63992
477.0 0.002096 208.36842 484.57169
469.0 0.002132 208.49005 471.73383
439.0 0.002278 208.61113 459.96405
445.0 0.002247 208.73184 449.13007
457.0 0.002188 208.85199 439.12225
472.0 0.002119 208.97165 429.84970
442.0 0.002262 209.09087 421.23578
411.0 0.002433 209.20958 413.21545
403.0 0.002481 209.32782 405.73300
385.0 0.002597 209.44547 398.73990
367.0 0.002725 209.56267 392.19388
373.0 0.002681 209.67941 386.05743
310.0 0.003226 209.79559 380.29739
398.0 0.002513 209.91129 374.88406
342.0 0.002924 210.02647 369.79068
340.0 0.002941 210.14119 364.99316
328.0 0.003049 210.25539 360.46970
362.0 0.002762 210.36900 356.20050
352.0 0.002841 210.48215 352.16760
328.0 0.003049 210.59476 348.35458
306.0 0.003268 210.70680 344.52753
313.0 0.003195 210.81842 341.11185
315.0 0.003175 210.92944 337.87485
331.0 0.003021 211.03998 334.80481
336.0 0.002976 211.14990 331.89130
305.0 0.003279 211.25932 329.01498
335.0 0.002985 211.36829 326.38660
309.0 0.003236 211.47658 323.88763
278.0 0.00360 211.58443 321.51047
296.0 0.003378 211.69173 319.24808
305.0 0.003279 211.79843 317.09387
314.0 0.003185 211.90463 315.04178
291.0 0.003436 212.01024 313.08603
277.0 0.00361 212.11537 311.22162
321.0 0.003115 212.21988 309.44360
330.0 0.003030 212.32385 307.74753
304.0 0.003289 212.42725 306.12909
316.0 0.003165 212.53009 304.58438
283.0 0.00353 212.63237 303.10983
286.0 0.003497 212.73405 301.70209
288.0 0.003472 212.83527 300.35785
307.0 0.003257 212.93585 299.07407
275.0 0.00364 213.03583 297.84811
303.0 0.003300 213.13524 296.67749
289.0 0.003460 213.23412 295.55963
297.0 0.003367 213.33243 294.49237
273.0 0.00366 213.43011 293.47336
277.0 0.00361 213.52719 292.50082
299.0 0.003344 213.62375 291.57275
287.0 0.003484 213.71974 290.68774
300.0 0.003333 213.81503 289.84381
273.0 0.00366 213.90984 289.03952
268.0 0.00373 214.00401 288.27356
293.0 0.003413 214.09758 287.54462
263.0 0.00380 214.19060 286.85129
247.0 0.00405 214.28297 286.19254
255.0 0.00392 214.37477 285.56726
278.0 0.00360 214.46593 284.97458
264.0 0.00379 214.55653 284.41345
294.0 0.003401 214.64653 283.88306
279.0 0.00358 214.73587 283.38272
240.0 0.00417 214.82460 282.91156
270.0 0.00370 214.91278 282.46930
251.0 0.00398 215.00031 282.05496
267.0 0.00375 215.08723 281.66837
261.0 0.00383 215.17357 281.30908
294.0 0.003401 215.25925 280.97675
242.0 0.00413 215.34428 280.67130
234.0 0.00427 215.42877 280.39246
290.0 0.003448 215.51259 280.14053
248.0 0.00403 215.59581 279.91550
269.0 0.00372 215.67834 279.71814
239.0 0.00418 215.76031 279.54883
258.0 0.00388 215.84161 279.40851
237.0 0.00422 215.92232 279.29855
256.0 0.00391 216.00237 279.22040
244.0 0.00410 216.08177 279.25906
263.0 0.00380 216.16058 279.25140
260.0 0.00385 216.23874 279.28290
263.0 0.00380 216.31622 279.35672
288.0 0.003472 216.39314 279.47681
245.0 0.00408 216.46936 279.64700
280.0 0.00357 216.54494 279.87195
229.0 0.00437 216.61984 280.15601
275.0 0.00364 216.69417 280.54526
268.0 0.00373 216.76779 280.96173
267.0 0.00375 216.84081 281.45053
263.0 0.00380 216.91313 282.01489
259.0 0.00386 216.98483 282.65726
261.0 0.00383 217.05591 283.37857
268.0 0.00373 217.12624 284.17767
256.0 0.00391 217.19603 285.05103
252.0 0.00397 217.26509 285.99185
266.0 0.00376 217.33350 286.98944
252.0 0.00397 217.40125 288.02814
252.0 0.00397 217.46829 289.08667
270.0 0.00370 217.53476 290.13834
268.0 0.00373 217.60051 291.15231
282.0 0.00355 217.66563 292.09732
262.0 0.00382 217.73006 292.94507
274.0 0.00365 217.79382 293.67554
268.0 0.00373 217.85692 294.28000
273.0 0.00366 217.91930 294.76083
277.0 0.00361 217.98109 295.12955
253.0 0.00395 218.04216 295.40179
290.0 0.003448 218.10258 295.59503
293.0 0.003413 218.16231 295.72690
278.0 0.00360 218.22139 295.81641
280.0 0.00357 218.27977 295.88388
273.0 0.00366 218.33748 295.95239
313.0 0.003195 218.39452 296.04596
305.0 0.003279 218.45087 296.18869
284.0 0.00352 218.50655 296.40222
304.0 0.003289 218.56151 296.70532
312.0 0.003205 218.61581 297.11331
281.0 0.00356 218.66943 297.63831
289.0 0.003460 218.72238 298.28949
301.0 0.003322 218.77461 299.07477
271.0 0.00369 218.82620 300.00024
313.0 0.003195 218.87708 301.07205
309.0 0.003236 218.92725 302.29611
287.0 0.003484 218.97678 303.67963
308.0 0.003247 219.02557 305.23083
305.0 0.003279 219.07368 306.96078
302.0 0.003311 219.12112 308.88354
293.0 0.003413 219.16788 311.01730
319.0 0.003135 219.21391 313.38614
270.0 0.00370 219.25925 316.02103
330.0 0.003030 219.30392 318.96225
333.0 0.003003 219.34790 322.26123
360.0 0.002778 219.39117 325.98312
341.0 0.002933 219.43375 330.20941
348.0 0.002874 219.47557 335.04099
334.0 0.002994 219.51675 340.60065
353.0 0.002833 219.55725 347.03561
360.0 0.002778 219.59702 354.51892
364.0 0.002747 219.63609 363.25043
376.0 0.002660 219.67447 373.45544
406.0 0.002463 219.71214 385.38208
457.0 0.002188 219.74911 399.29602
385.0 0.002597 219.78542 415.47290
448.0 0.002232 219.82097 434.18811
476.0 0.002101 219.85582 455.70352
483.0 0.002070 219.88998 480.25171
496.0 0.002016 219.92345 508.01782
513.0 0.001949 219.95624 539.11713
621.0 0.001610 219.98827 573.57007
612.0 0.001634 220.01961 611.27075
688.0 0.001453 220.05025 651.94794
681.0 0.001468 220.08017 695.11890
759.0 0.001318 220.10942 740.03430
836.0 0.001196 220.13795 785.62677
892.0 0.001121 220.16576 830.48157
971.0 0.001030 220.19286 872.86340
1009.0 0.000991 220.21924 910.83740
1087.0 0.000920 220.24495 942.49976
1092.0 0.000916 220.26994 966.28119
1109.0 0.000902 220.29420 981.22125
1026.0 0.000975 220.31776 987.08759
1091.0 0.000917 220.34067 984.28717
1056.0 0.000947 220.36279 973.61914
999.0 0.001001 220.38425 956.01270
1050.0 0.000952 220.40495 932.36908
986.0 0.001014 220.42500 903.55591
926.0 0.001080 220.44429 870.49017
849.0 0.001178 220.46291 834.22070
841.0 0.001189 220.48077 795.93024
798.0 0.001253 220.49796 756.85522
722.0 0.001385 220.51448 718.16638
709.0 0.001410 220.53021 680.86627
640.0 0.001563 220.54526 645.73224
646.0 0.001548 220.55962 613.30829
660.0 0.001515 220.57321 583.92816
529.0 0.001890 220.58615 557.75208
552.0 0.001812 220.59837 534.80560
489.0 0.002045 220.60986 515.01617
484.0 0.002066 220.62067 498.24197
486.0 0.002058 220.63077 484.29608
472.0 0.002119 220.64012 472.96469
478.0 0.002092 220.64879 464.02310
450.0 0.002222 220.65671 457.24707
428.0 0.002336 220.66400 452.42178
488.0 0.002049 220.67053 449.34927
454.0 0.002203 220.67638 447.85297
445.0 0.002247 220.68147 447.78101
482.0 0.002075 220.68591 449.00854
453.0 0.002208 220.68959 451.43872
480.0 0.002083 220.69258 455.00336
448.0 0.002232 220.69490 459.66391
495.0 0.002020 220.69647 465.41187
465.0 0.002151 220.69734 472.27155
476.0 0.002101 220.69749 480.30292
513.0 0.001949 220.69696 489.60696
521.0 0.001919 220.69572 500.33322
489.0 0.002045 220.69379 512.68970
567.0 0.001764 220.69112 526.95642
563.0 0.001776 220.68781 543.50079
589.0 0.001698 220.68372 562.79651
629.0 0.001590 220.67892 585.44391
610.0 0.001639 220.67348 612.19250
674.0 0.001484 220.66730 643.95844
700.0 0.001429 220.66042 681.84497
743.0 0.001346 220.65288 727.14990
869.0 0.001151 220.64462 781.36804
844.0 0.001185 220.63560 846.17798
920.0 0.001087 220.62593 923.41321
1014.0 0.000986 220.61557 1015.01337
1082.0 0.000924 220.60451 1122.95483
1145.0 0.000873 220.59274 1249.16101
1274.0 0.000785 220.58026 1395.38916
1404.0 0.000712 220.56709 1563.10291
1567.0 0.000638 220.55324 1753.32532
1705.0 0.000587 220.53870 1966.47449
1947.0 0.000514 220.52341 2202.18066
2228.0 0.000449 220.50745 2459.07739
2405.0 0.000416 220.49083 2734.55591
2757.0 0.000363 220.47350 3024.48145
3124.0 0.0003201 220.45552 3322.88794
3530.0 0.0002833 220.43677 3621.73120
3931.0 0.0002544 220.41740 3910.83423
4307.0 0.0002322 220.39728 4177.75146
4613.0 0.0002168 220.37651 4410.79346
4811.0 0.0002079 220.35503 4597.63818
4994.0 0.0002002 220.33289 4729.29199
5116.0 0.0001955 220.31003 4801.06738
5103.0 0.0001960 220.28654 4812.90039
4944.0 0.0002023 220.26233 4768.14746
4828.0 0.0002071 220.23744 4673.12256
4590.0 0.0002179 220.21187 4533.06543
4244.0 0.0002356 220.18558 4353.89648
4052.0 0.0002468 220.15868 4141.15967
3830.0 0.0002611 220.13106 3900.89551
3507.0 0.0002851 220.10277 3640.09204
3262.0 0.0003066 220.07384 3366.59497
2928.0 0.0003415 220.04419 3088.50757
2655.0 0.000377 220.01387 2813.40698
2354.0 0.000425 219.98291 2547.83301
2095.0 0.000477 219.95122 2296.48291
1921.0 0.000521 219.91893 2062.90625
1635.0 0.000612 219.88588 1849.17432
1505.0 0.000664 219.85220 1656.23120
1386.0 0.000722 219.81787 1484.13733
1226.0 0.000816 219.78288 1332.28723
1116.0 0.000896 219.74718 1199.59619
1028.0 0.000973 219.71089 1084.65527
963.0 0.001038 219.67387 985.85583
836.0 0.001196 219.63620 901.49390
899.0 0.001112 219.59792 829.85168
771.0 0.001297 219.55894 769.26208
760.0 0.001316 219.51930 718.15576
701.0 0.001427 219.47900 675.09406
675.0 0.001481 219.43811 638.78821
696.0 0.001437 219.39645 608.10864
631.0 0.001585 219.35425 582.08234
575.0 0.001739 219.31133 559.88727
600.0 0.001667 219.26779 540.83966
566.0 0.001767 219.22356 524.37738
543.0 0.001842 219.17874 510.04572
542.0 0.001845 219.13327 497.47943
490.0 0.002041 219.08710 486.38785
489.0 0.002045 219.04034 476.54102
489.0 0.002045 218.99292 467.75699
504.0 0.001984 218.94485 459.89252
464.0 0.002155 218.89619 452.83350
434.0 0.002304 218.84685 446.48907
429.0 0.002331 218.79689 440.78613
431.0 0.002320 218.74631 435.66516
459.0 0.002179 218.69508 431.07733
435.0 0.002299 218.64325 426.98218
413.0 0.002421 218.59073 423.34595
428.0 0.002336 218.53761 420.14017
444.0 0.002252 218.48393 415.32956
393.0 0.002545 218.42955 412.92651
449.0 0.002227 218.37457 410.89301
433.0 0.002309 218.31898 409.21545
403.0 0.002481 218.26277 407.88260
414.0 0.002415 218.20593 406.88626
404.0 0.002475 218.14850 405.21735
433.0 0.002309 218.09044 404.88321
453.0 0.002208 218.03181 404.87454
436.0 0.002294 217.97250 405.19284
402.0 0.002488 217.91263 405.84186
441.0 0.002268 217.85211 406.82837
401.0 0.002494 217.79103 408.16241
428.0 0.002336 217.72934 409.85748
415.0 0.002410 217.66705 411.93204
435.0 0.002299 217.60419 414.40930
410.0 0.002439 217.54068 417.31946
426.0 0.002347 217.47662 420.70084
443.0 0.002257 217.41196 424.60202
436.0 0.002294 217.34669 429.08447
456.0 0.002193 217.28082 434.22565
445.0 0.002247 217.21440 440.12256
420.0 0.002381 217.14740 446.89627
443.0 0.002257 217.07980 454.69669
488.0 0.002049 217.01161 463.70737
523.0 0.001912 216.94287 474.15158
525.0 0.001905 216.87354 486.29681
481.0 0.002079 216.80359 500.45966
544.0 0.001838 216.73314 517.00903
555.0 0.001802 216.66214 536.36804
570.0 0.001754 216.59047 559.01276
603.0 0.001658 216.51831 585.46777
615.0 0.001626 216.44559 616.30017
638.0 0.001567 216.37230 652.10474
709.0 0.001410 216.29839 693.49011
643.0 0.001555 216.22400 741.05536
754.0 0.001326 216.14897 795.36499
844.0 0.001185 216.07346 856.91870
917.0 0.001091 215.99742 926.11487
935.0 0.001070 215.92079 1003.21301
1019.0 0.000981 215.84363 1088.28528
1080.0 0.000926 215.76590 1181.16589
1224.0 0.000817 215.68765 1281.38599
1330.0 0.000752 215.60889 1388.09937
1421.0 0.000704 215.52954 1499.99268
1540.0 0.000649 215.44969 1615.19373
1729.0 0.000578 215.36929 1731.18799
1909.0 0.000524 215.28833 1844.79138
1990.0 0.000503 215.20695 1952.21875
2123.0 0.000471 215.12497 2049.31445
2163.0 0.000462 215.04248 2131.96387
2295.0 0.000436 214.95940 2196.62280
2409.0 0.000415 214.87592 2240.82935
2354.0 0.000425 214.79185 2263.51025
2369.0 0.000422 214.70734 2264.94702
2332.0 0.000429 214.62224 2246.43872
2278.0 0.000439 214.53664 2209.82715
2130.0 0.000469 214.45059 2157.09692
2157.0 0.000464 214.36401 2090.19629
2114.0 0.000473 214.27692 2011.08154
1990.0 0.000503 214.18932 1921.85925
1894.0 0.000528 214.10124 1824.90051
1706.0 0.000586 214.01270 1722.82202
1632.0 0.000613 213.92361 1618.33716
1483.0 0.000674 213.83409 1514.04004
1302.0 0.000768 213.74403 1412.21777
1211.0 0.000826 213.65353 1314.73108
1192.0 0.000839 213.56255 1222.97327
1135.0 0.000881 213.47107 1138.00903
1031.0 0.000970 213.37914 1060.17383
984.0 0.001016 213.28671 989.82703
951.0 0.001052 213.19383 926.96454
867.0 0.001153 213.10052 871.39362
795.0 0.001258 213.00670 822.78351
758.0 0.001319 212.91240 780.70850
751.0 0.001332 212.81767 744.68298
726.0 0.001377 212.72246 714.18866
726.0 0.001377 212.62683 688.75684
690.0 0.001449 212.53075 667.75824
676.0 0.001479 212.43423 650.75732
696.0 0.001437 212.33727 637.29614
647.0 0.001546 212.23981 626.95978
659.0 0.001517 212.14197 619.37799
604.0 0.001656 212.04366 614.22888
727.0 0.001376 211.94492 611.23816
694.0 0.001441 211.84578 610.17719
660.0 0.001515 211.74617 610.86090
738.0 0.001355 211.64613 613.14478
677.0 0.001477 211.54576 616.92065
650.0 0.001538 211.44492 622.11371
714.0 0.001401 211.34361 628.67993
704.0 0.001420 211.24193 636.60352
720.0 0.001389 211.13982 645.89569
714.0 0.001401 211.03731 656.59369
726.0 0.001377 210.93442 668.76270
853.0 0.001172 210.83110 682.49664
806.0 0.001241 210.72740 697.92328
811.0 0.001233 210.62331 715.20990
867.0 0.001153 210.51883 734.56995
864.0 0.001157 210.41391 756.27454
913.0 0.001095 210.30865 780.66467
866.0 0.001155 210.20300 808.16541
965.0 0.001036 210.09694 839.30475
1003.0 0.000997 209.99049 874.73206
1062.0 0.000942 209.88374 915.23914
1083.0 0.000923 209.77661 961.78101
1195.0 0.000837 209.66907 1015.49658
1223.0 0.000818 209.56117 1077.72351
1325.0 0.000755 209.45291 1150.01196
1329.0 0.000752 209.34428 1234.12695
1473.0 0.000679 209.23532 1332.04163
1579.0 0.000633 209.12598 1445.91772
1746.0 0.000573 209.01628 1578.06982
1934.0 0.000517 208.90634 1730.91516
2026.0 0.000494 208.79593 1906.90100
2202.0 0.000454 208.68523 2108.41846
2352.0 0.000425 208.57419 2337.69482
2566.0 0.000390 208.46277 2596.66675
2804.0 0.000357 208.35107 2886.83545
3088.0 0.0003238 208.23900 3209.09009
3381.0 0.0002958 208.12663 3563.51001
3850.0 0.0002597 208.01396 3949.11206
4204.0 0.0002379 207.90097 4363.54688
4565.0 0.0002191 207.78764 4802.73633
5165.0 0.0001936 207.67401 5260.44336
5567.0 0.0001796 207.56009 5727.88428
6118.0 0.0001635 207.44582 6193.43848
6720.0 0.0001488 207.33124 6642.74316
7119.0 0.0001405 207.21645 7059.37012
7430.0 0.0001346 207.10129 7426.27295
7942.0 0.0001259 206.98586 7727.92627
8249.0 0.0001212 206.87009 7952.62256
8203.0 0.0001219 206.75407 8094.12158
8397.0 0.0001191 206.63779 8151.96729
8102.0 0.0001234 206.52119 8130.32373
8066.0 0.0001240 206.40434 8035.88086
7846.0 0.0001275 206.28719 7875.85400
7521.0 0.0001330 206.16978 7656.82227
7201.0 0.0001389 206.05215 7384.73730
7006.0 0.0001427 205.93417 7065.73145
6506.0 0.0001537 205.81602 6707.17480
6251.0 0.0001600 205.69756 6317.75488
5710.0 0.0001751 205.57887 5907.78174
5292.0 0.0001890 205.45988 5487.92432
4826.0 0.0002072 205.34070 5068.27637
4432.0 0.0002256 205.22128 4657.51855
3996.0 0.0002503 205.10159 4262.47900
3752.0 0.0002665 204.98169 3888.10059
3320.0 0.0003012 204.86154 3537.84424
3054.0 0.0003274 204.74117 3213.28345
2818.0 0.000355 204.62054 2915.40942
2624.0 0.000381 204.49973 2644.38354
2444.0 0.000409 204.37868 2399.72461
2245.0 0.000445 204.25740 2180.47876
2062.0 0.000485 204.13591 1985.32910
1834.0 0.000545 204.01424 1812.68530
1706.0 0.000586 203.89238 1660.77258
1618.0 0.000618 203.77022 1527.72107
1488.0 0.000672 203.64795 1411.73450
1407.0 0.000711 203.52545 1310.76245
1346.0 0.000743 203.40277 1223.13464
1267.0 0.000789 203.27991 1147.20325
1227.0 0.000815 203.15681 1081.46252
1197.0 0.000835 203.03363 1024.55884
1099.0 0.000910 202.91017 975.29291
1030.0 0.000971 202.78659 932.61896
1019.0 0.000981 202.66283 894.76813
955.0 0.001047 202.53894 862.70276
907.0 0.001103 202.41481 834.90350
904.0 0.001106 202.29053 810.82776
845.0 0.001183 202.16612 790.02679
831.0 0.001203 202.04158 772.13556
803.0 0.001245 201.91687 756.43115
801.0 0.001248 201.79202 743.55011
839.0 0.001192 201.66696 732.88885
801.0 0.001248 201.54184 724.32910
796.0 0.001256 201.41658 717.80133
811.0 0.001233 201.29114 713.28278
798.0 0.001253 201.16563 710.79822
779.0 0.001284 201.03993 710.42072
792.0 0.001263 200.91415 712.27588
769.0 0.001300 200.78822 716.54468
774.0 0.001292 200.66223 723.46985
757.0 0.001321 200.53607 733.36115
812.0 0.001232 200.40984 746.60107
840.0 0.001190 200.28349 763.64929
873.0 0.001145 200.15704 785.04791
866.0 0.001155 200.03047 811.42200
937.0 0.001067 199.90384 843.47827
895.0 0.001117 199.77715 882.00043
1016.0 0.000984 199.65030 927.83844
988.0 0.001012 199.52344 981.89410
1055.0 0.000948 199.39644 1045.09839
1116.0 0.000896 199.26936 1118.38367
1155.0 0.000866 199.14221 1202.64807
1209.0 0.000827 199.01508 1298.71643
1282.0 0.000780 198.88780 1407.28638
1439.0 0.000695 198.76053 1528.87463
1523.0 0.000657 198.63309 1663.74902
1595.0 0.000627 198.50566 1811.85010
1848.0 0.000541 198.37820 1972.69910
1887.0 0.000530 198.25064 2145.28882
2075.0 0.000482 198.12309 2327.95532
2376.0 0.000421 197.99547 2518.23486
2510.0 0.000398 197.86783 2712.73218
2701.0 0.000370 197.74017 2907.01929
2970.0 0.0003367 197.61241 3095.64844
3247.0 0.0003080 197.48473 3272.32690
3367.0 0.0002970 197.35695 3430.33911
3691.0 0.0002709 197.22917 3563.19995
3729.0 0.0002682 197.10139 3665.45825
3842.0 0.0002603 196.97359 3733.41846
3830.0 0.0002611 196.84575 3765.55884
3805.0 0.0002628 196.71800 3762.60596
3648.0 0.0002741 196.59016 3726.45142
3643.0 0.0002745 196.46239 3660.29175
3435.0 0.0002911 196.33458 3567.39087
3281.0 0.0003048 196.20680 3450.88232
3094.0 0.0003232 196.07903 3313.76245
2988.0 0.0003347 195.95123 3159.11890
2898.0 0.0003451 195.82350 2990.37817
2722.0 0.000367 195.69585 2811.39868
2422.0 0.000413 195.56816 2626.35352
2309.0 0.000433 195.44049 2439.51831
2045.0 0.000489 195.31288 2254.65527
1867.0 0.000536 195.18530 2075.19189
1648.0 0.000607 195.05775 1903.78223
1601.0 0.000625 194.93031 1742.36133
1411.0 0.000709 194.80287 1592.19519
1251.0 0.000799 194.67552 1453.97888
1230.0 0.000813 194.54819 1327.94495
1120.0 0.000893 194.42093 1213.96484
1032.0 0.000969 194.29378 1111.63928
934.0 0.001071 194.16664 1020.37177
916.0 0.001092 194.03957 939.43127
873.0 0.001145 193.91258 868.00153
844.0 0.001185 193.78571 805.22302
772.0 0.001295 193.65889 750.22540
721.0 0.001387 193.53223 702.15424
659.0 0.001517 193.40558 660.19055
563.0 0.001776 193.27904 623.56610
600.0 0.001667 193.15260 591.57434
594.0 0.001684 193.02628 563.57434
559.0 0.001789 192.90002 538.99512
518.0 0.001931 192.77393 517.33392
566.0 0.001767 192.64787 498.15421
473.0 0.002114 192.52202 481.08127
468.0 0.002137 192.39624 465.79584
458.0 0.002183 192.27058 452.02960
464.0 0.002155 192.14505 439.55798
419.0 0.002387 192.01965 428.19418
464.0 0.002155 191.89435 417.78326
465.0 0.002151 191.76926 408.19757
450.0 0.002222 191.64424 399.33133
378.0 0.002646 191.51942 391.09708
389.0 0.002571 191.39471 383.42236
423.0 0.002364 191.27019 376.24658
375.0 0.002667 191.14583 369.51862
361.0 0.002770 191.02159 363.19589
399.0 0.002506 190.89748 357.24112
400.0 0.002500 190.77361 351.62271
413.0 0.002421 190.64986 346.31274
330.0 0.003030 190.52632 341.28711
331.0 0.003021 190.40298 336.52390
312.0 0.003205 190.27974 332.00375
317.0 0.003155 190.15674 327.70932
346.0 0.002890 190.03387 323.62479
354.0 0.002825 189.91125 319.73599
295.0 0.003390 189.78882 316.02975
286.0 0.003497 189.66653 312.49408
346.0 0.002890 189.54453 309.11844
325.0 0.003077 189.42265 305.89224
268.0 0.00373 189.30101 302.80655
328.0 0.003049 189.17961 299.85278
314.0 0.003185 189.05841 297.02301
320.0 0.003125 188.93739 294.30984
281.0 0.00356 188.81662 291.70660
314.0 0.003185 188.69609 289.20728
307.0 0.003257 188.57576 286.80576
249.0 0.00402 188.45572 284.49673
270.0 0.00370 188.33586 282.27533
289.0 0.003460 188.21625 280.13675
237.0 0.00422 188.09688 278.07645
289.0 0.003460 187.97774 276.09079
248.0 0.00403 187.85886 274.17572
289.0 0.003460 187.74025 272.32785
250.0 0.00400 187.62187 270.54370
244.0 0.00410 187.50380 268.82028
264.0 0.00379 187.38597 267.15479
251.0 0.00398 187.26839 265.54431
244.0 0.00410 187.15112 263.98645
258.0 0.00388 187.03403 262.47870
278.0 0.00360 186.91730 261.01880
282.0 0.00355 186.80083 259.60486
267.0 0.00375 186.68463 258.23453
240.0 0.00417 186.56874 256.90613
259.0 0.00386 186.45311 255.61795
275.0 0.00364 186.33781 254.36812
252.0 0.00397 186.22282 253.15524
270.0 0.00370 186.10806 251.97781
215.0 0.00465 185.99365 250.83424
249.0 0.00402 185.87955 249.72340
233.0 0.00429 185.76573 248.64151
228.0 0.00439 185.65224 247.59229
242.0 0.00413 185.53908 246.57214
251.0 0.00398 185.42622 245.57991
264.0 0.00379 185.31372 244.61476
235.0 0.00426 185.20152 243.67548
290.0 0.003448 185.08963 242.76022
229.0 0.00437 184.97810 241.87543
236.0 0.00424 184.86691 241.00903
244.0 0.00410 184.75601 240.16521
235.0 0.00426 184.64549 239.34338
215.0 0.00465 184.53535 238.54266
245.0 0.00408 184.42552 237.76245
250.0 0.00400 184.31607 237.00215
232.0 0.00431 184.20694 236.26108
205.0 0.00488 184.09819 235.53873
208.0 0.00481 183.98976 234.83447
234.0 0.00427 183.88174 234.15036
226.0 0.00442 183.77408 233.48088
214.0 0.00467 183.66679 232.82797
238.0 0.00420 183.55984 232.19127
253.0 0.00395 183.45332 231.57040
225.0 0.00444 183.34720 230.82275
227.0 0.00441 183.24142 230.23282
236.0 0.00424 183.13602 229.82893
204.0 0.00490 183.03101 229.26845
230.0 0.00435 182.92644 228.72185
230.0 0.00435 182.82222 228.18892
233.0 0.00429 182.71843 227.66922
231.0 0.00433 182.61499 227.09187
206.0 0.00485 182.51201 226.59824
196.0 0.00510 182.40941 226.11711
201.0 0.00498 182.30722 225.64816
210.0 0.00476 182.20547 225.19127
217.0 0.00461 182.10411 224.74623
196.0 0.00510 182.00316 224.39832
218.0 0.00459 181.90265 223.97659
234.0 0.00427 181.80260 223.56598
214.0 0.00467 181.70294 223.16641
214.0 0.00467 181.60373 222.77779
210.0 0.00476 181.50494 222.39993
210.0 0.00476 181.40657 222.03262
224.0 0.00446 181.30867 221.67586
222.0 0.00450 181.21123 221.32936
206.0 0.00485 181.11424 220.99324
206.0 0.00485 181.01765 220.66725
210.0 0.00476 180.92157 220.35132
195.0 0.00513 180.82590 220.04536
192.0 0.00521 180.73070 219.74939
177.0 0.00565 180.63597 219.46339
216.0 0.00463 180.54166 219.18716
211.0 0.00474 180.44789 218.92079
200.0 0.00500 180.35457 218.66406
206.0 0.00485 180.26170 218.41731
204.0 0.00490 180.16930 218.18015
225.0 0.00444 180.07739 217.95287
222.0 0.00450 179.98593 217.73534
203.0 0.00493 179.89502 216.59653
195.0 0.00513 179.80455 216.40324
214.0 0.00467 179.71458 216.21977
220.0 0.00455 179.62511 216.04614
208.0 0.00481 179.53613 215.88257
203.0 0.00493 179.44762 215.72903
202.0 0.00495 179.35963 215.58566
215.0 0.00465 179.27213 214.98805
221.0 0.00452 179.18517 214.86754
189.0 0.00529 179.09871 214.75763
208.0 0.00481 179.01270 214.65829
207.0 0.00483 178.92723 214.56972
199.0 0.00503 178.84230 214.49220
232.0 0.00431 178.75789 214.42586
212.0 0.00472 178.67398 214.37085
208.0 0.00481 178.59061 214.32741
212.0 0.00472 178.50775 214.29581
212.0 0.00472 178.42546 214.27631
180.0 0.00556 178.34366 214.26923
197.0 0.00508 178.26234 214.27483
226.0 0.00442 178.18164 214.29337
206.0 0.00485 178.10146 214.32526
239.0 0.00418 178.02182 214.37093
183.0 0.00546 177.94267 214.43077
211.0 0.00474 177.86411 214.50510
194.0 0.00515 177.78609 214.59438
218.0 0.00459 177.70859 214.69934
192.0 0.00521 177.63170 214.82024
212.0 0.00472 177.55534 214.95766
196.0 0.00510 177.47954 215.11244
204.0 0.00490 177.40428 215.28500
197.0 0.00508 177.32962 215.47607
199.0 0.00503 177.25548 215.68640
196.0 0.00510 177.18193 215.91682
232.0 0.00431 177.10895 216.16811
182.0 0.00549 177.03651 216.44127
201.0 0.00498 176.96466 216.73718
217.0 0.00461 176.89340 217.05687
227.0 0.00441 176.82269 217.40150
209.0 0.00478 176.75259 217.77225
236.0 0.00424 176.68304 218.17047
219.0 0.00457 176.61409 218.60370
221.0 0.00452 176.54575 219.06097
203.0 0.00493 176.47795 219.55014
240.0 0.00417 176.41077 220.07289
192.0 0.00521 176.34415 220.63118
198.0 0.00505 176.27817 221.22688
221.0 0.00452 176.21277 221.86224
254.0 0.00394 176.14795 222.53952
222.0 0.00450 176.08374 223.26132
257.0 0.00389 176.02011 224.03040
209.0 0.00478 175.95712 224.84970
230.0 0.00435 175.89473 225.72565
229.0 0.00437 175.83293 226.65543
209.0 0.00478 175.77177 227.64612
252.0 0.00397 175.71117 228.70172
220.0 0.00455 175.65123 229.82698
234.0 0.00427 175.59192 231.02692
244.0 0.00410 175.53317 232.30702
226.0 0.00442 175.47504 233.67349
232.0 0.00431 175.41762 235.13315
236.0 0.00424 175.36076 236.69362
267.0 0.00375 175.30450 238.36345
213.0 0.00469 175.24889 240.15230
268.0 0.00373 175.19389 242.07147
266.0 0.00376 175.13959 244.13376
250.0 0.00400 175.08580 246.82938
287.0 0.003484 175.03275 249.22723
238.0 0.00420 174.98033 251.82185
275.0 0.00364 174.92850 254.63864
276.0 0.00362 174.87733 257.70782
275.0 0.00364 174.82680 261.06613
279.0 0.00358 174.77690 264.75815
279.0 0.00358 174.72771 268.83807
297.0 0.003367 174.67909 273.37137
287.0 0.003484 174.63112 278.43707
306.0 0.003268 174.58379 284.12997
325.0 0.003077 174.53717 290.56268
335.0 0.002985 174.49113 298.10583
332.0 0.003012 174.44580 306.43872
334.0 0.002994 174.40109 315.97650
353.0 0.002833 174.35704 326.92068
395.0 0.002532 174.31367 339.49701
407.0 0.002457 174.27095 353.95291
396.0 0.002525 174.22888 370.55548
419.0 0.002387 174.18747 389.58661
482.0 0.002075 174.14670 411.33710
467.0 0.002141 174.10661 436.19785
501.0 0.001996 174.06721 464.25314
489.0 0.002045 174.02847 495.86417
522.0 0.001916 173.99040 531.25934
620.0 0.001613 173.95302 570.61737
606.0 0.001650 173.91624 614.05011
729.0 0.001372 173.88022 661.58002
748.0 0.001337 173.84483 713.11688
791.0 0.001264 173.81009 768.42450
825.0 0.001212 173.77606 827.08368
876.0 0.001142 173.74269 888.44885
937.0 0.001067 173.71001 951.65051
993.0 0.001007 173.67798 1015.35541
1073.0 0.000932 173.64668 1078.04602
1125.0 0.000889 173.61604 1137.84961
1215.0 0.000823 173.58609 1192.68872
1324.0 0.000755 173.55681 1240.46094
1329.0 0.000752 173.52820 1279.28979
1387.0 0.000721 173.50029 1307.78577
1387.0 0.000721 173.47305 1325.23596
1405.0 0.000712 173.44652 1331.65015
1293.0 0.000773 173.42067 1327.64111
1334.0 0.000750 173.39552 1314.19177
1317.0 0.000759 173.37103 1292.39258
1250.0 0.000800 173.34727 1263.24792
1280.0 0.000781 173.32417 1227.60083
1268.0 0.000789 173.30182 1186.17346
1192.0 0.000839 173.28011 1139.67822
1129.0 0.000886 173.25912 1088.93567
1036.0 0.000965 173.23882 1034.93616
1053.0 0.000950 173.21925 978.82281
896.0 0.001116 173.20027 921.81506
842.0 0.001188 173.18210 865.09882
852.0 0.001174 173.16460 809.73248
777.0 0.001287 173.14775 756.58649
718.0 0.001393 173.13162 706.31976
673.0 0.001486 173.11623 659.38629
594.0 0.001684 173.10155 616.05981
574.0 0.001742 173.08749 576.46674
585.0 0.001709 173.07423 540.61700
572.0 0.001748 173.06161 508.43549
464.0 0.002155 173.04973 479.78745
498.0 0.002008 173.03851 454.49927
477.0 0.002096 173.02803 432.37802
441.0 0.002268 173.01823 413.22601
442.0 0.002262 173.00914 396.85303
406.0 0.002463 173.00078 383.08597
414.0 0.002415 172.99316 371.77679
422.0 0.002370 172.98618 362.80707
396.0 0.002525 172.97995 356.35403
366.0 0.002732 172.97443 351.84085
378.0 0.002646 172.96956 349.51132
354.0 0.002825 172.96544 349.37778
366.0 0.002732 172.96205 351.47760
398.0 0.002513 172.95935 355.86554
370.0 0.002703 172.95735 362.60333
362.0 0.002762 172.95609 371.74744
393.0 0.002545 172.95549 383.33530
397.0 0.002519 172.95564 397.36984
422.0 0.002370 172.95647 413.80414
444.0 0.002252 172.95807 432.65649
486.0 0.002058 172.96033 453.46790
479.0 0.002088 172.96332 476.07086
487.0 0.002053 172.96703 500.04434
502.0 0.001992 172.97145 524.87927
525.0 0.001905 172.97656 549.74304
556.0 0.001799 172.98239 573.80884
613.0 0.001631 172.98894 596.06812
676.0 0.001479 172.99620 615.46545
690.0 0.001449 173.00418 631.02795
706.0 0.001416 173.01285 642.01862
707.0 0.001414 173.02225 648.06287
670.0 0.001493 173.03235 649.18683
680.0 0.001471 173.04314 645.74896
676.0 0.001479 173.05469 638.29767
652.0 0.001534 173.06694 627.43750
602.0 0.001661 173.07991 613.60925
632.0 0.001582 173.09357 597.21252
605.0 0.001653 173.10796 578.52856
598.0 0.001672 173.12303 557.43109
530.0 0.001887 173.13885 535.03094
517.0 0.001934 173.15535 511.36746
550.0 0.001818 173.17258 486.96866
447.0 0.002237 173.19051 462.40671
403.0 0.002481 173.20917 438.23227
418.0 0.002392 173.22849 414.92114
382.0 0.002618 173.24855 392.65073
333.0 0.003003 173.26930 372.07513
358.0 0.002793 173.29082 353.16196
310.0 0.003226 173.31299 335.99069
319.0 0.003135 173.33589 320.57465
316.0 0.003165 173.35951 306.87546
301.0 0.003322 173.38382 294.81714
322.0 0.003106 173.40878 284.29678
265.0 0.00377 173.43454 275.19293
273.0 0.00366 173.46098 267.37393
234.0 0.00427 173.48807 260.70328
250.0 0.00400 173.51593 255.04568
273.0 0.00366 173.54446 250.27045
225.0 0.00444 173.57372 246.25531
244.0 0.00410 173.60368 242.88818
228.0 0.00439 173.63432 240.06877
231.0 0.00433 173.66566 237.70926
210.0 0.00476 173.69774 235.73393
233.0 0.00429 173.73044 234.07889
211.0 0.00474 173.76390 232.69106
261.0 0.00383 173.79808 231.52711
232.0 0.00431 173.83293 230.55205
242.0 0.00413 173.86850 229.73801
195.0 0.00513 173.90469 229.06314
212.0 0.00472 173.94159 228.51031
215.0 0.00465 173.97929 228.06665
229.0 0.00437 174.01756 227.72192
205.0 0.00488 174.05659 227.46869
232.0 0.00431 174.09628 227.30139
225.0 0.00444 174.13669 227.21594
235.0 0.00426 174.17778 227.20950
213.0 0.00469 174.21954 227.28033
224.0 0.00446 174.26199 227.42746
215.0 0.00465 174.30518 227.65073
222.0 0.00450 174.34900 227.95085
210.0 0.00476 174.39351 228.32898
229.0 0.00437 174.43875 228.78725
211.0 0.00474 174.48463 229.32869
225.0 0.00444 174.53116 229.95708
234.0 0.00427 174.57845 230.67720
205.0 0.00488 174.62634 231.49545
248.0 0.00403 174.67500 232.41945
223.0 0.00448 174.72427 233.45876
233.0 0.00429 174.77423 234.62506
260.0 0.00385 174.82483 235.93275
231.0 0.00433 174.87617 237.63039
227.0 0.00441 174.92815 239.27739
231.0 0.00433 174.98079 241.12962
257.0 0.00389 175.03413 243.21739
254.0 0.00394 175.08810 245.57654
262.0 0.00382 175.14276 248.24959
239.0 0.00418 175.19809 251.28545
268.0 0.00373 175.25407 254.74097
248.0 0.00403 175.31070 258.77530
249.0 0.00402 175.36803 263.27261
264.0 0.00379 175.42603 268.40784
277.0 0.00361 175.48460 274.26944
269.0 0.00372 175.54390 281.06836
305.0 0.003279 175.60382 288.67480
313.0 0.003195 175.66443 297.30865
277.0 0.00361 175.72571 307.07626
301.0 0.003322 175.78755 318.08316
341.0 0.002933 175.85013 330.43015
324.0 0.003086 175.91331 344.20984
352.0 0.002841 175.97719 359.50256
370.0 0.002703 176.04164 376.41806
383.0 0.002611 176.10680 394.90231
411.0 0.002433 176.17253 415.01279
399.0 0.002506 176.23891 436.72345
429.0 0.002331 176.30597 459.96313
462.0 0.002165 176.37361 484.60419
496.0 0.002016 176.44199 510.45139
539.0 0.001855 176.51091 535.63129
562.0 0.001779 176.58051 562.97162
569.0 0.001757 176.65068 590.39227
618.0 0.001618 176.72153 617.35284
673.0 0.001486 176.79295 643.08502
721.0 0.001387 176.86504 666.88812
754.0 0.001326 176.93771 688.00824
777.0 0.001287 177.01106 705.75354
749.0 0.001335 177.08499 718.78082
811.0 0.001233 177.15950 728.22064
797.0 0.001255 177.23471 733.39911
814.0 0.001229 177.31044 734.30609
765.0 0.001307 177.38687 731.21210
801.0 0.001248 177.46385 724.47461
710.0 0.001408 177.54141 714.46899
719.0 0.001391 177.61964 701.56403
685.0 0.001460 177.69841 686.04449
710.0 0.001408 177.77783 668.11414
617.0 0.001621 177.85782 648.20142
616.0 0.001623 177.93846 626.57611
618.0 0.001618 178.01962 603.61914
572.0 0.001748 178.10139 579.75684
548.0 0.001825 178.18373 555.43988
476.0 0.002101 178.26669 531.11017
463.0 0.002160 178.35023 507.17252
472.0 0.002119 178.43433 483.97424
433.0 0.002309 178.51906 461.79352
419.0 0.002387 178.60429 440.83771
416.0 0.002404 178.69014 421.24976
389.0 0.002571 178.77658 403.11557
360.0 0.002778 178.86356 386.47406
350.0 0.002857 178.95111 371.32617
328.0 0.003049 179.03922 357.64362
335.0 0.002985 179.12791 345.37576
339.0 0.002950 179.21713 334.45615
328.0 0.003049 179.30696 324.80710
307.0 0.003257 179.39732 316.34402
299.0 0.003344 179.48825 308.97870
270.0 0.00370 179.57968 302.62228
308.0 0.003247 179.67163 297.18713
299.0 0.003344 179.76422 292.63882
306.0 0.003268 179.85732 288.79880
289.0 0.003460 179.95097 285.84805
285.0 0.00351 180.04514 283.31042
270.0 0.00370 180.13986 281.33081
271.0 0.00369 180.23508 279.85693
242.0 0.00413 180.33087 278.84430
283.0 0.00353 180.42715 278.25677
270.0 0.00370 180.52397 278.06519
276.0 0.00362 180.62137 278.24869
278.0 0.00360 180.71919 278.79431
278.0 0.00360 180.81760 279.69684
244.0 0.00410 180.91650 280.95911
280.0 0.00357 181.01593 282.59274
243.0 0.00412 181.11581 284.72040
285.0 0.00351 181.21623 287.16806
277.0 0.00361 181.31718 290.07794
283.0 0.00353 181.41858 293.50131
281.0 0.00356 181.52052 297.50195
318.0 0.003145 181.62294 302.15619
316.0 0.003165 181.72586 307.55399
335.0 0.002985 181.82927 313.79929
336.0 0.002976 181.93321 321.01120
319.0 0.003135 182.03754 329.32181
337.0 0.002967 182.14236 338.87753
365.0 0.002740 182.24771 349.83688
392.0 0.002551 182.35352 362.36807
395.0 0.002532 182.45982 376.64700
361.0 0.002770 182.56654 392.85211
412.0 0.002427 182.67380 411.16159
413.0 0.002421 182.78145 431.74631
478.0 0.002092 182.88959 454.76440
429.0 0.002331 182.99817 480.35324
497.0 0.002012 183.10719 508.62183
512.0 0.001953 183.21672 539.64099
575.0 0.001739 183.32664 573.43225
564.0 0.001773 183.43706 609.95514
609.0 0.001642 183.54787 649.09058
653.0 0.001531 183.65916 690.62390
688.0 0.001453 183.77087 734.22095
814.0 0.001229 183.88293 779.40344
848.0 0.001179 183.99557 825.52753
814.0 0.001229 184.10852 871.76160
902.0 0.001109 184.22197 917.08539
1031.0 0.000970 184.33572 960.31177
1036.0 0.000965 184.45001 1000.14502
1068.0 0.000936 184.56467 1035.28235
1125.0 0.000889 184.67978 1064.54773
1174.0 0.000852 184.79520 1087.03137
1165.0 0.000858 184.91104 1102.19824
1110.0 0.000901 185.02736 1109.93274
1122.0 0.000891 185.14406 1110.49976
1135.0 0.000881 185.26114 1104.43469
1100.0 0.000909 185.37859 1092.40442
1066.0 0.000938 185.49648 1075.08044
1085.0 0.000922 185.61467 1053.05347
1051.0 0.000951 185.73326 1026.81677
1017.0 0.000983 185.85222 996.80225
951.0 0.001052 185.97160 963.43921
987.0 0.001013 186.09132 927.22113
952.0 0.001050 186.21141 888.73981
943.0 0.001060 186.33191 848.68188
854.0 0.001171 186.45268 807.79041
739.0 0.001353 186.57387 766.81116
744.0 0.001344 186.69539 726.43640
721.0 0.001387 186.81725 687.26587
600.0 0.001667 186.93950 649.78253
574.0 0.001742 187.06203 614.34863
609.0 0.001642 187.18497 581.21503
527.0 0.001898 187.30821 550.53284
521.0 0.001919 187.43176 522.37177
506.0 0.001976 187.55568 496.73853
491.0 0.002037 187.67992 473.58926
458.0 0.002183 187.80443 452.84412
431.0 0.002320 187.92924 433.76862
393.0 0.002545 188.05447 417.50186
397.0 0.002519 188.17992 403.28098
367.0 0.002725 188.30574 391.17734
372.0 0.002688 188.43179 380.65027
405.0 0.002469 188.55820 371.78000
372.0 0.002688 188.68486 364.45267
352.0 0.002841 188.81181 358.56818
371.0 0.002695 188.93915 353.72977
406.0 0.002463 189.06671 350.42252
356.0 0.002809 189.19455 348.44284
326.0 0.003067 189.32262 347.68866
347.0 0.002882 189.45107 348.15720
347.0 0.002882 189.57967 349.86691
328.0 0.003049 189.70865 352.85770
368.0 0.002717 189.83775 357.18811
377.0 0.002653 189.96724 363.03726
385.0 0.002597 190.09694 370.29187
371.0 0.002695 190.22684 379.15738
391.0 0.002558 190.35707 389.74457
389.0 0.002571 190.48752 402.16714
388.0 0.002577 190.61823 416.53732
440.0 0.002273 190.74915 432.95944
496.0 0.002016 190.88031 451.52301
448.0 0.002232 191.01166 472.29669
487.0 0.002053 191.14323 495.32080
525.0 0.001905 191.27507 520.59814
501.0 0.001996 191.40714 548.08472
565.0 0.001770 191.53938 577.67938
622.0 0.001608 191.67184 609.21124
628.0 0.001592 191.80455 642.42352
663.0 0.001508 191.93739 676.96002
683.0 0.001464 192.07047 712.34692
780.0 0.001282 192.20372 747.98016
814.0 0.001229 192.33720 783.12024
825.0 0.001212 192.47081 816.90588
939.0 0.001065 192.60461 848.38531
969.0 0.001032 192.73865 876.58331
954.0 0.001048 192.87285 900.58704
979.0 0.001021 193.00722 919.64838
1019.0 0.000981 193.14168 933.27008
1001.0 0.000999 193.27638 941.25555
931.0 0.001074 193.41125 943.70129
925.0 0.001081 193.54620 940.93646
943.0 0.001060 193.68135 933.42957
962.0 0.001040 193.81659 921.68835
914.0 0.001094 193.95212 906.18762
997.0 0.001003 194.08766 887.33514
930.0 0.001075 194.22340 865.47772
871.0 0.001148 194.35921 840.93958
816.0 0.001225 194.49513 814.06903
859.0 0.001164 194.63124 785.27405
775.0 0.001290 194.76746 755.03418
753.0 0.001328 194.90381 723.88727
689.0 0.001451 195.04019 692.39264
681.0 0.001468 195.17680 661.09210
638.0 0.001567 195.31342 630.47064
613.0 0.001631 195.45012 600.93304
576.0 0.001736 195.58699 572.79108
563.0 0.001776 195.72386 546.26324
548.0 0.001825 195.86092 521.48297
493.0 0.002028 195.99802 498.51071
483.0 0.002070 196.13522 477.35022
456.0 0.002193 196.27245 457.96277
470.0 0.002128 196.40982 440.28308
406.0 0.002463 196.54713 424.23062
405.0 0.002469 196.68462 409.71719
461.0 0.002169 196.82217 396.65225
394.0 0.002538 196.95966 384.94260
420.0 0.002381 197.09738 374.49380
388.0 0.002577 197.23495 365.20786
392.0 0.002551 197.37268 356.98569
318.0 0.003145 197.51042 349.72839
312.0 0.003205 197.64824 343.34143
341.0 0.002933 197.78604 337.73782
344.0 0.002907 197.92384 332.84134
320.0 0.003125 198.06172 328.58917
316.0 0.003165 198.19958 324.93079
361.0 0.002770 198.33752 321.82837
304.0 0.003289 198.47537 319.25366
323.0 0.003096 198.61330 317.18777
332.0 0.003012 198.75117 315.61938
344.0 0.002907 198.88905 314.54410
333.0 0.003003 199.02699 313.96542
305.0 0.003279 199.16484 313.89429
310.0 0.003226 199.30278 314.35123
357.0 0.002801 199.44061 315.36716
353.0 0.002833 199.57841 316.98392
340.0 0.002941 199.71620 319.25623
310.0 0.003226 199.85399 322.25317
376.0 0.002660 199.99171 326.05728
342.0 0.002924 200.12939 330.76788
355.0 0.002817 200.26706 336.49930
369.0 0.002710 200.40465 343.38120
411.0 0.002433 200.54225 351.55814
390.0 0.002564 200.67969 361.18658
388.0 0.002577 200.81718 372.43387
375.0 0.002667 200.95454 385.47153
445.0 0.002247 201.09183 400.47449
449.0 0.002227 201.22905 417.61194
458.0 0.002183 201.36617 437.04242
493.0 0.002028 201.50327 458.90485
512.0 0.001953 201.64021 483.31046
542.0 0.001845 201.77716 510.33273
545.0 0.001835 201.91396 539.99457
558.0 0.001792 202.05069 572.25647
569.0 0.001757 202.18726 606.99939
703.0 0.001422 202.32376 644.00415
674.0 0.001484 202.46017 682.92975
746.0 0.001340 202.59644 723.28815
789.0 0.001267 202.73259 764.40924
854.0 0.001171 202.86864 805.43719
892.0 0.001121 203.00456 845.32098
906.0 0.001104 203.14032 882.84888
1039.0 0.000962 203.27597 916.72760
927.0 0.001079 203.41148 945.70605
1012.0 0.000988 203.54684 968.73102
1141.0 0.000876 203.68208 985.09631
1057.0 0.000946 203.81712 994.53558
1099.0 0.000910 203.95207 997.22595
1001.0 0.000999 204.08682 993.69666
1041.0 0.000961 204.22145 984.67474
1057.0 0.000946 204.35583 970.91827
995.0 0.001005 204.49014 953.08429
963.0 0.001038 204.62421 931.67279
907.0 0.001103 204.75809 907.03217
927.0 0.001079 204.89186 879.42352
877.0 0.001140 205.02536 849.11328
864.0 0.001157 205.15872 816.45123
802.0 0.001247 205.29185 781.91571
736.0 0.001359 205.42482 746.10516
703.0 0.001422 205.55754 709.69104
748.0 0.001337 205.69009 673.35321
656.0 0.001524 205.82242 637.77600
690.0 0.001449 205.95453 603.37225
614.0 0.001629 206.08644 570.61224
562.0 0.001779 206.21811 539.78949
489.0 0.002045 206.34958 511.09109
506.0 0.001976 206.48074 484.61282
438.0 0.002283 206.61176 460.37842
458.0 0.002183 206.74248 438.35608
442.0 0.002262 206.87296 418.47162
410.0 0.002439 207.00323 400.62192
374.0 0.002674 207.13322 384.68228
376.0 0.002660 207.26300 370.51544
375.0 0.002667 207.39243 357.97662
359.0 0.002786 207.52170 346.91885
328.0 0.003049 207.65065 337.19595
302.0 0.003311 207.77936 328.66693
297.0 0.003367 207.90773 321.19711
322.0 0.003106 208.03580 314.66046
298.0 0.003356 208.16371 308.94095
295.0 0.003390 208.29123 303.93274
308.0 0.003247 208.41858 299.54095
276.0 0.00362 208.54555 295.68121
286.0 0.003497 208.67221 292.27975
248.0 0.00403 208.79857 289.27219
291.0 0.003436 208.92465 286.60333
321.0 0.003115 209.05045 284.22626
249.0 0.00402 209.17586 282.10074
260.0 0.00385 209.30103 280.19327
284.0 0.00352 209.42580 278.60657
269.0 0.00372 209.55029 277.05576
254.0 0.00394 209.67444 275.65204
269.0 0.00372 209.79831 274.37860
233.0 0.00429 209.92181 273.22195
260.0 0.00385 210.04492 272.17032
225.0 0.00444 210.16776 271.21442
231.0 0.00433 210.29019 270.34586
245.0 0.00408 210.41231 269.55768
231.0 0.00433 210.53407 268.84357
234.0 0.00427 210.65547 268.19864
256.0 0.00391 210.77647 267.61786
235.0 0.00426 210.89719 267.09753
241.0 0.00415 211.01743 266.63400
241.0 0.00415 211.13731 266.22412
233.0 0.00429 211.25694 265.86502
237.0 0.00422 211.37607 265.55432
225.0 0.00444 211.49483 265.28946
235.0 0.00426 211.61324 265.06882
237.0 0.00422 211.73126 264.89038
247.0 0.00405 211.84885 264.75244
241.0 0.00415 211.96600 264.65402
237.0 0.00422 212.08284 264.59357
214.0 0.00467 212.19923 264.57022
191.0 0.00524 212.31525 264.58310
204.0 0.00490 212.43079 264.63144
222.0 0.00450 212.54597 264.71484
229.0 0.00437 212.66066 264.83304
226.0 0.00442 212.77501 264.98599
225.0 0.00444 212.88885 265.17361
231.0 0.00433 213.00233 265.39639
246.0 0.00407 213.11534 265.65515
251.0 0.00398 213.22789 265.95065
227.0 0.00441 213.34001 266.28427
221.0 0.00452 213.45171 266.65765
228.0 0.00439 213.56299 267.07285
236.0 0.00424 213.67377 267.53229
213.0 0.00469 213.78410 268.03925
234.0 0.00427 213.89398 268.59720
200.0 0.00500 214.00336 269.21005
223.0 0.00448 214.11237 269.88275
234.0 0.00427 214.22078 270.61993
230.0 0.00435 214.32881 271.42737
250.0 0.00400 214.43631 272.31131
222.0 0.00450 214.54340 273.27780
227.0 0.00441 214.64995 274.33331
245.0 0.00408 214.75600 275.48419
227.0 0.00441 214.86165 276.77826
260.0 0.00385 214.96671 278.13940
230.0 0.00435 215.07133 279.61407
226.0 0.00442 215.17543 281.20679
236.0 0.00424 215.27907 282.92096
247.0 0.00405 215.38213 284.75858
251.0 0.00398 215.48474 286.71954
254.0 0.00394 215.58682 288.80145
239.0 0.00418 215.68837 290.99896
254.0 0.00394 215.78944 293.30283
299.0 0.003344 215.88991 295.69955
291.0 0.003436 215.98997 298.17035
241.0 0.00415 216.08940 300.69034
279.0 0.00358 216.18840 303.22858
299.0 0.003344 216.28680 305.76935
291.0 0.003436 216.38469 308.23129
274.0 0.00365 216.48198 310.59454
305.0 0.003279 216.57877 312.82269
287.0 0.003484 216.67505 314.88803
304.0 0.003289 216.77068 316.77606
288.0 0.003472 216.86589 318.48703
270.0 0.00370 216.96045 320.03519
289.0 0.003460 217.05449 321.44583
305.0 0.003279 217.14793 322.74924
297.0 0.003367 217.24089 323.97711
284.0 0.00352 217.33321 325.15842
314.0 0.003185 217.42500 326.31857
291.0 0.003436 217.51619 327.47949
306.0 0.003268 217.60681 328.66306
317.0 0.003155 217.69690 329.93365
294.0 0.003401 217.78638 331.24008
278.0 0.00360 217.87524 332.65988
321.0 0.003115 217.96355 334.23792
329.0 0.003040 218.05119 336.02661
338.0 0.002959 218.13840 338.08411
323.0 0.003096 218.22488 340.47394
351.0 0.002849 218.31087 343.26270
342.0 0.002924 218.39615 346.52081
331.0 0.003021 218.48091 350.32251
350.0 0.002857 218.56499 354.74631
357.0 0.002801 218.64853 359.87469
353.0 0.002833 218.73145 365.79553
336.0 0.002976 218.81372 372.62057
358.0 0.002793 218.89545 380.40494
386.0 0.002591 218.97647 389.26599
388.0 0.002577 219.05693 399.30194
424.0 0.002358 219.13675 410.60782
410.0 0.002439 219.21594 423.27460
436.0 0.002294 219.29449 437.38336
433.0 0.002309 219.37242 453.00320
435.0 0.002299 219.44972 470.18524
519.0 0.001927 219.52640 488.95828
529.0 0.001890 219.60243 509.32187
530.0 0.001887 219.67783 531.23981
620.0 0.001613 219.75259 554.62982
638.0 0.001567 219.82664 579.35565
634.0 0.001577 219.90016 605.21149
656.0 0.001524 219.97293 631.91150
728.0 0.001374 220.04509 659.07428
744.0 0.001344 220.11658 686.21863
811.0 0.001233 220.18747 712.76324
859.0 0.001164 220.25761 738.04932
865.0 0.001156 220.32716 761.37988
866.0 0.001155 220.39603 782.08746
944.0 0.001059 220.46425 799.61273
963.0 0.001038 220.53175 813.58038
939.0 0.001065 220.59863 823.84839
959.0 0.001043 220.66483 830.51276
1007.0 0.000993 220.73038 833.86768
950.0 0.001053 220.79524 834.32770
883.0 0.001133 220.85941 832.34418
929.0 0.001076 220.92288 828.33197
919.0 0.001088 220.98572 822.62610
888.0 0.001126 221.04782 815.47705
938.0 0.001066 221.10924 807.07233
922.0 0.001085 221.17000 797.58228
932.0 0.001073 221.23007 787.20929
899.0 0.001112 221.28946 776.22339
864.0 0.001157 221.34813 764.97968
832.0 0.001202 221.40614 753.90869
826.0 0.001211 221.46344 743.49170
840.0 0.001190 221.52007 734.22998
837.0 0.001195 221.57591 726.61670
825.0 0.001212 221.63112 721.11896
794.0 0.001259 221.68562 718.17322
820.0 0.001220 221.73938 718.18457
868.0 0.001152 221.79256 721.53699
858.0 0.001166 221.84486 728.60175
844.0 0.001185 221.89656 739.74701
813.0 0.001230 221.94749 755.34595
823.0 0.001215 221.99774 775.78302
892.0 0.001121 222.04727 801.45441
916.0 0.001092 222.09607 832.77112
973.0 0.001028 222.14417 870.18311
953.0 0.001049 222.19154 914.05731
975.0 0.001026 222.23819 964.84656
1097.0 0.000912 222.28410 1022.95996
1121.0 0.000892 222.32935 1088.78296
1214.0 0.000824 222.37381 1162.65796
1266.0 0.000790 222.41759 1244.87207
1368.0 0.000731 222.46063 1335.63269
1314.0 0.000761 222.50291 1435.04639
1520.0 0.000658 222.54451 1543.09131
1674.0 0.000597 222.58534 1659.58813
1695.0 0.000590 222.62543 1784.16296
1851.0 0.000540 222.66483 1916.20959
2032.0 0.000492 222.70348 2054.84961
2175.0 0.000460 222.74138 2198.89990
2338.0 0.000428 222.77852 2346.85474
2524.0 0.000396 222.81497 2496.83521
2691.0 0.000372 222.85065 2646.69214
2722.0 0.000367 222.88560 2794.01855
2950.0 0.0003390 222.91980 2936.26416
3140.0 0.0003185 222.95329 3070.84595
3344.0 0.0002990 222.98601 3195.27026
3426.0 0.0002919 223.01799 3307.21948
3558.0 0.0002811 223.04922 3404.60645
3633.0 0.0002753 223.07968 3485.32983
3720.0 0.0002688 223.10945 3548.44507
3699.0 0.0002703 223.13843 3592.50854
3818.0 0.0002619 223.16669 3616.79468
3875.0 0.0002581 223.19415 3621.07471
3720.0 0.0002688 223.22093 3605.66235
3611.0 0.0002769 223.24690 3571.39111
3593.0 0.0002783 223.27214 3519.53809
3460.0 0.0002890 223.29660 3451.69922
3427.0 0.0002918 223.32030 3369.64453
3366.0 0.0002971 223.34329 3275.18555
3158.0 0.0003167 223.36554 3170.07129
3044.0 0.0003285 223.38699 3055.94580
2859.0 0.0003498 223.40768 2934.34741
2784.0 0.000359 223.42764 2806.75244
2715.0 0.000368 223.44685 2674.62988
2535.0 0.000394 223.46529 2539.47827
2263.0 0.000442 223.48294 2402.84302
2300.0 0.000435 223.49986 2266.51978
2132.0 0.000469 223.51602 2131.53882
1904.0 0.000525 223.53143 1999.54114
1815.0 0.000551 223.54602 1871.75732
1761.0 0.000568 223.55992 1749.20862
1596.0 0.000627 223.57304 1632.68628
1535.0 0.000651 223.58543 1522.75635
1363.0 0.000734 223.59700 1419.77515
1371.0 0.000729 223.60785 1323.91614
1125.0 0.000889 223.61792 1235.19861
1159.0 0.000863 223.62718 1153.51501
1088.0 0.000919 223.63576 1078.66492
994.0 0.001006 223.64351 1010.36963
978.0 0.001022 223.65051 948.30054
965.0 0.001036 223.65678 892.21198
858.0 0.001166 223.66226 841.47644
818.0 0.001222 223.66701 795.81628
773.0 0.001294 223.67096 754.83276
751.0 0.001332 223.67413 718.13464
726.0 0.001377 223.67659 685.34326
695.0 0.001439 223.67824 656.09772
663.0 0.001508 223.67915 630.05835
630.0 0.001587 223.67931 606.90997
620.0 0.001613 223.67868 586.36371
607.0 0.001647 223.67729 568.15692
553.0 0.001808 223.67519 552.05530
561.0 0.001783 223.67224 537.85223
543.0 0.001842 223.66856 525.36908
533.0 0.001876 223.66414 514.45343
560.0 0.001786 223.65892 504.97882
509.0 0.001965 223.65297 496.84351
518.0 0.001931 223.64627 489.96863
509.0 0.001965 223.63875 484.29675
540.0 0.001852 223.63058 479.78943
509.0 0.001965 223.62154 476.42584
491.0 0.002037 223.61179 474.19974
504.0 0.001984 223.60124 473.11713
489.0 0.002045 223.58997 473.19379
457.0 0.002188 223.57793 474.45129
498.0 0.002008 223.56514 476.91544
492.0 0.002033 223.55157 480.61139
492.0 0.002033 223.53729 485.56171
518.0 0.001931 223.52219 491.78168
515.0 0.001942 223.50635 499.27618
529.0 0.001890 223.48976 508.03564
473.0 0.002114 223.47243 518.03156
509.0 0.001965 223.45433 529.21124
535.0 0.001869 223.43552 541.49377
561.0 0.001783 223.41586 554.76123
551.0 0.001815 223.39554 568.85583
628.0 0.001592 223.37445 583.57416
587.0 0.001704 223.35258 598.66748
630.0 0.001587 223.32999 613.84637
654.0 0.001529 223.30664 628.79749
699.0 0.001431 223.28247 643.20789
641.0 0.001560 223.25768 656.79639
684.0 0.001462 223.23206 669.34723
728.0 0.001374 223.20575 680.73108
706.0 0.001416 223.17870 690.90833
722.0 0.001385 223.15086 699.91119
675.0 0.001481 223.12231 707.81104
746.0 0.001340 223.09300 714.67346
701.0 0.001427 223.06293 720.52551
718.0 0.001393 223.03217 725.32898
764.0 0.001309 223.00066 728.97626
756.0 0.001323 222.96844 731.30322
700.0 0.001429 222.93541 732.11768
724.0 0.001381 222.90166 731.23608
728.0 0.001374 222.86723 728.52484
736.0 0.001359 222.83206 723.93140
777.0 0.001287 222.79613 717.50037
702.0 0.001425 222.75949 709.36835
716.0 0.001397 222.72209 699.74579
730.0 0.001370 222.68402 688.88727
669.0 0.001495 222.64516 677.05884
716.0 0.001397 222.60565 664.50946
614.0 0.001629 222.56534 651.45343
605.0 0.001653 222.52435 638.06042
658.0 0.001520 222.48268 624.45905
588.0 0.001701 222.44025 610.74438
631.0 0.001585 222.39706 596.99200
560.0 0.001786 222.35326 583.27252
572.0 0.001748 222.30867 569.66119
552.0 0.001812 222.26341 556.24506
522.0 0.001916 222.21744 543.12146
500.0 0.002000 222.17072 530.39471
517.0 0.001934 222.12329 518.17023
476.0 0.002101 222.07521 506.54541
502.0 0.001992 222.02641 495.60556
531.0 0.001883 221.97693 485.42050
497.0 0.002012 221.92668 476.04245
466.0 0.002146 221.87579 467.50818
425.0 0.002353 221.82419 459.83997
466.0 0.002146 221.77191 453.04907
452.0 0.002212 221.71896 447.13785
456.0 0.002193 221.66528 442.10370
447.0 0.002237 221.61090 437.82718
473.0 0.002114 221.55583 434.52985
441.0 0.002268 221.50015 432.09311
432.0 0.002315 221.44371 430.51648
456.0 0.002193 221.38666 429.92972
454.0 0.002203 221.32886 430.09521
426.0 0.002347 221.27046 431.15811
467.0 0.002141 221.21132 433.14993
462.0 0.002165 221.15155 436.11411
456.0 0.002193 221.09108 440.01865
468.0 0.002137 221.02998 445.11276
452.0 0.002212 220.96823 451.39487
501.0 0.001996 220.90572 458.96841
502.0 0.001992 220.84262 467.95514
517.0 0.001934 220.77890 478.49356
539.0 0.001855 220.71448 490.73962
531.0 0.001883 220.64935 504.86554
589.0 0.001698 220.58371 521.05780
626.0 0.001597 220.51730 539.57825
599.0 0.001669 220.45027 560.51050
649.0 0.001541 220.38264 584.13123
655.0 0.001527 220.31433 610.65588
657.0 0.001522 220.24538 640.29523
701.0 0.001427 220.17581 673.24969
719.0 0.001391 220.10556 709.70221
817.0 0.001224 220.03473 749.80847
789.0 0.001267 219.96327 793.68860
836.0 0.001196 219.89120 841.41541
867.0 0.001153 219.81847 893.00116
983.0 0.001017 219.74516 948.38080
1015.0 0.000985 219.67119 1007.39349
1048.0 0.000954 219.59659 1069.76135
1079.0 0.000927 219.52141 1135.06445
1175.0 0.000851 219.44563 1202.71570
1261.0 0.000793 219.36920 1271.94263
1363.0 0.000734 219.29221 1341.77173
1379.0 0.000725 219.21458 1411.03845
1470.0 0.000680 219.13640 1478.42029
1548.0 0.000646 219.05760 1542.50134
1621.0 0.000617 218.97818 1601.87109
1661.0 0.000602 218.89818 1655.23779
1746.0 0.000573 218.81763 1701.54370
1720.0 0.000581 218.73643 1740.04370
1734.0 0.000577 218.65471 1770.33105
1782.0 0.000561 218.57242 1792.30029
1846.0 0.000542 218.48949 1806.07043
1787.0 0.000560 218.40601 1811.87817
1876.0 0.000533 218.32201 1809.99805
1774.0 0.000564 218.23734 1800.69043
1760.0 0.000568 218.15216 1784.19678
1741.0 0.000574 218.06642 1760.76709
1776.0 0.000563 217.98015 1730.71216
1712.0 0.000584 217.89331 1694.44250
1693.0 0.000591 217.80591 1652.50427
1579.0 0.000633 217.71794 1605.57715
1586.0 0.000631 217.62947 1554.45386
1481.0 0.000675 217.54042 1499.99438
1468.0 0.000681 217.45082 1443.07007
1391.0 0.000719 217.36075 1384.51904
1366.0 0.000732 217.27008 1325.11096
1318.0 0.000759 217.17892 1265.53503
1217.0 0.000822 217.08723 1206.40479
1148.0 0.000871 216.99500 1148.27051
1115.0 0.000897 216.90227 1091.62488
1032.0 0.000969 216.80899 1036.91211
990.0 0.001010 216.71524 984.52209
1036.0 0.000965 216.62093 934.82520
951.0 0.001052 216.52615 888.00854
827.0 0.001209 216.43086 844.30774
834.0 0.001199 216.33507 803.85175
873.0 0.001145 216.23878 766.70782
800.0 0.001250 216.14197 732.89038
790.0 0.001266 216.04475 702.37085
740.0 0.001351 215.94698 675.08911
706.0 0.001416 215.84875 650.96344
718.0 0.001393 215.75003 629.89954
668.0 0.001497 215.65088 611.79846
658.0 0.001520 215.55122 596.56378
641.0 0.001560 215.45105 584.10516
659.0 0.001517 215.35046 574.13586
627.0 0.001595 215.24939 567.01288
653.0 0.001531 215.14792 562.48047
646.0 0.001548 215.04593 560.51160
635.0 0.001575 214.94356 561.09760
575.0 0.001739 214.84062 564.24878
624.0 0.001603 214.73737 569.99292
636.0 0.001572 214.63367 578.37231
656.0 0.001524 214.52943 589.44244
684.0 0.001462 214.42490 603.26721
672.0 0.001488 214.31981 619.81799
691.0 0.001447 214.21439 639.35950
723.0 0.001383 214.10847 661.85681
696.0 0.001437 214.00218 687.36279
747.0 0.001339 213.89551 715.91071
811.0 0.001233 213.78839 747.50970
793.0 0.001261 213.68088 782.22125
896.0 0.001116 213.57297 819.80341
871.0 0.001148 213.46463 860.21997
935.0 0.001070 213.35588 903.27991
926.0 0.001080 213.24681 948.71027
1031.0 0.000970 213.13728 996.13867
1040.0 0.000962 213.02745 1045.07629
1135.0 0.000881 212.91725 1094.90283
1214.0 0.000824 212.80658 1144.85315
1230.0 0.000813 212.69560 1194.01941
1267.0 0.000789 212.58424 1241.36682
1286.0 0.000778 212.47256 1285.77124
1413.0 0.000708 212.36043 1326.08264
1477.0 0.000677 212.24803 1361.21228
1391.0 0.000719 212.13521 1390.23145
1398.0 0.000715 212.02209 1412.46033
1521.0 0.000657 211.90871 1427.53284
1499.0 0.000667 211.79485 1435.41516
1540.0 0.000649 211.68079 1436.37415
1452.0 0.000689 211.56627 1430.90344
1441.0 0.000694 211.45152 1419.62231
1370.0 0.000730 211.33640 1403.17627
1387.0 0.000721 211.22098 1382.16003
1395.0 0.000717 211.10524 1357.06433
1302.0 0.000768 210.98915 1328.27063
1280.0 0.000781 210.87280 1296.07324
1234.0 0.000810 210.75616 1260.72729
1266.0 0.000790 210.63922 1222.50122
1213.0 0.000824 210.52193 1181.72412
1134.0 0.000882 210.40443 1138.81348
1131.0 0.000884 210.28659 1094.27527
1062.0 0.000942 210.16852 1048.68506
1001.0 0.000999 210.05019 1002.65033
935.0 0.001070 209.93153 956.81854
913.0 0.001095 209.81262 911.65765
872.0 0.001147 209.69341 867.70178
823.0 0.001215 209.57404 825.35718
800.0 0.001250 209.45435 784.94128
775.0 0.001290 209.33441 746.68738
729.0 0.001372 209.21420 710.75201
669.0 0.001495 209.09380 677.22742
690.0 0.001449 208.97314 646.15051
640.0 0.001563 208.85222 617.51483
657.0 0.001522 208.73116 591.27942
632.0 0.001582 208.60974 567.37805
553.0 0.001808 208.48825 545.72491
556.0 0.001799 208.36642 526.22089
555.0 0.001802 208.24445 508.75946
555.0 0.001802 208.12225 493.25116
512.0 0.001953 207.99985 479.53955
472.0 0.002119 207.87726 467.53815
508.0 0.001969 207.75446 457.14331
522.0 0.001916 207.63148 448.25958
500.0 0.002000 207.50830 440.80042
469.0 0.002132 207.38495 434.69226
471.0 0.002123 207.26144 429.87393
464.0 0.002155 207.13777 426.29968
464.0 0.002155 207.01390 423.93948
464.0 0.002155 206.88986 422.77948
482.0 0.002075 206.76567 422.82404
472.0 0.002119 206.64133 424.09454
517.0 0.001934 206.51686 426.63031
500.0 0.002000 206.39223 430.48746
508.0 0.001969 206.26743 435.73926
475.0 0.002105 206.14253 442.47333
517.0 0.001934 206.01749 450.79105
514.0 0.001946 205.89236 460.80511
493.0 0.002028 205.76703 472.63669
509.0 0.001965 205.64160 486.41211
565.0 0.001770 205.51607 502.25925
570.0 0.001754 205.39046 520.31671
580.0 0.001724 205.26468 540.67505
603.0 0.001658 205.13887 563.45245
646.0 0.001548 205.01294 588.73480
610.0 0.001639 204.88687 616.60565
675.0 0.001481 204.76079 647.04596
746.0 0.001340 204.63460 680.06519
782.0 0.001279 204.50829 715.59631
807.0 0.001239 204.38193 753.50958
833.0 0.001200 204.25551 793.59540
856.0 0.001168 204.12898 835.54749
916.0 0.001092 204.00244 878.94641
993.0 0.001007 203.87585 923.23901
1014.0 0.000986 203.74918 967.72717
1096.0 0.000912 203.62251 1011.56091
1143.0 0.000875 203.49570 1053.75439
1166.0 0.000858 203.36890 1093.22900
1173.0 0.000853 203.24205 1128.85217
1168.0 0.000856 203.11528 1159.57214
1243.0 0.000805 202.98833 1184.51099
1287.0 0.000777 202.86142 1203.02429
1269.0 0.000788 202.73454 1214.84131
1330.0 0.000752 202.60762 1220.03210
1313.0 0.000762 202.48067 1218.97791
1324.0 0.000755 202.35371 1212.28235
1251.0 0.000799 202.22679 1200.65173
1288.0 0.000776 202.09982 1184.78235
1173.0 0.000853 201.97295 1165.27722
1215.0 0.000823 201.84604 1142.59167
1140.0 0.000877 201.71910 1117.03259
1165.0 0.000858 201.59225 1088.79150
1138.0 0.000879 201.46541 1057.99683
1049.0 0.000953 201.33859 1024.78699
992.0 0.001008 201.21182 989.36646
1003.0 0.000997 201.08513 952.04291
967.0 0.001034 200.95845 913.23328
932.0 0.001073 200.83183 873.44342
883.0 0.001133 200.70525 833.22668
889.0 0.001125 200.57872 793.13916
808.0 0.001238 200.45227 753.69568
706.0 0.001416 200.32587 715.34485
714.0 0.001401 200.19957 678.45001
706.0 0.001416 200.07329 643.28668
645.0 0.001550 199.94719 610.04834
591.0 0.001692 199.82106 578.85480
623.0 0.001605 199.69511 549.76465
531.0 0.001883 199.56923 522.78723
525.0 0.001905 199.44344 497.89368
479.0 0.002088 199.31776 475.02411
483.0 0.002070 199.19212 453.98279
439.0 0.002278 199.06670 434.90268
452.0 0.002212 198.94128 417.56018
413.0 0.002421 198.81610 401.84134
393.0 0.002545 198.69101 387.62735
399.0 0.002506 198.56598 374.79907
400.0 0.002500 198.44119 363.23877
369.0 0.002710 198.31644 352.83148
402.0 0.002488 198.19188 343.46683
334.0 0.002994 198.06746 335.04050
336.0 0.002976 197.94316 327.16641
316.0 0.003165 197.81903 320.32944
320.0 0.003125 197.69511 314.15747
325.0 0.003077 197.57132 308.57358
323.0 0.003096 197.44765 303.50906
336.0 0.002976 197.32420 298.90216
271.0 0.00369 197.20090 294.69772
300.0 0.003333 197.07785 290.84760
290.0 0.003448 196.95486 287.30914
266.0 0.00376 196.83217 284.04510
250.0 0.00400 196.70959 281.02359
274.0 0.00365 196.58722 278.21692
295.0 0.003390 196.46515 275.60110
233.0 0.00429 196.34319 273.15543
273.0 0.00366 196.22145 270.86227
236.0 0.00424 196.09991 268.70679
269.0 0.00372 195.97861 266.67575
255.0 0.00392 195.85753 264.76962
227.0 0.00441 195.73674 262.95560
263.0 0.00380 195.61610 261.23672
271.0 0.00369 195.49570 259.60605
237.0 0.00422 195.37553 258.05661
264.0 0.00379 195.25558 256.58331
216.0 0.00463 195.13596 255.18097
255.0 0.00392 195.01648 253.84517
212.0 0.00472 194.89737 252.57219
230.0 0.00435 194.77841 251.35837
216.0 0.00463 194.65979 250.20061
263.0 0.00380 194.54141 249.09642
219.0 0.00457 194.42331 248.06863
221.0 0.00452 194.30545 247.06421
261.0 0.00383 194.18788 246.10672
224.0 0.00446 194.07060 245.19472
238.0 0.00420 193.95358 244.32669
218.0 0.00459 193.83688 243.50163
211.0 0.00474 193.72044 242.71864
209.0 0.00478 193.60431 241.97714
213.0 0.00469 193.48853 241.27670
206.0 0.00485 193.37300 240.61719
219.0 0.00457 193.25780 239.99847
215.0 0.00465 193.14285 239.42094
206.0 0.00485 193.02826 238.88492
199.0 0.00503 192.91399 238.39076
209.0 0.00478 192.80006 237.93916
209.0 0.00478 192.68645 237.53099
189.0 0.00529 192.57317 237.17955
225.0 0.00444 192.46019 236.88577
176.0 0.00568 192.34755 236.61179
218.0 0.00459 192.23529 236.38400
232.0 0.00431 192.12329 236.20256
207.0 0.00483 192.01173 236.06775
216.0 0.00463 191.90045 235.97922
194.0 0.00515 191.78961 235.93678
198.0 0.00505 191.67912 235.93919
207.0 0.00483 191.56892 235.98474
193.0 0.00518 191.45914 236.07117
200.0 0.00500 191.34969 236.19504
205.0 0.00488 191.24062 236.35194
192.0 0.00521 191.13194 236.53607
208.0 0.00481 191.02364 236.74036
218.0 0.00459 190.91568 236.95581
214.0 0.00467 190.80820 237.17262
208.0 0.00481 190.70108 237.37917
209.0 0.00478 190.59427 237.56340
185.0 0.00541 190.48790 237.71356
214.0 0.00467 190.38190 237.81889
217.0 0.00461 190.27638 237.87103
193.0 0.00518 190.17120 237.86475
195.0 0.00513 190.06651 237.79858
202.0 0.00495 189.96216 237.67471
232.0 0.00431 189.85825 237.49797
218.0 0.00459 189.75475 237.27544
233.0 0.00429 189.65161 237.01498
192.0 0.00521 189.54900 236.73869
209.0 0.00478 189.44673 236.42352
215.0 0.00465 189.34497 236.08893
196.0 0.00510 189.24359 235.73811
192.0 0.00521 189.14267 235.37323
209.0 0.00478 189.04218 234.99586
206.0 0.00485 188.94208 234.60757
205.0 0.00488 188.84251 234.21086
211.0 0.00474 188.74335 233.80914
189.0 0.00529 188.64464 233.40710
209.0 0.00478 188.54637 233.01041
242.0 0.00413 188.44861 232.62538
204.0 0.00490 188.35124 232.25845
211.0 0.00474 188.25441 231.91576
220.0 0.00455 188.15800 231.60297
204.0 0.00490 188.06204 231.32466
201.0 0.00498 187.96660 231.09222
193.0 0.00518 187.87158 230.89394
201.0 0.00498 187.77711 230.73975
207.0 0.00483 187.68303 230.63098
212.0 0.00472 187.58952 230.56924
202.0 0.00495 187.49646 230.55542
196.0 0.00510 187.40378 230.58981
214.0 0.00467 187.31174 230.67351
217.0 0.00461 187.22011 230.80630
207.0 0.00483 187.12900 230.98883
235.0 0.00426 187.03836 231.22157
190.0 0.00526 186.94826 231.50475
215.0 0.00465 186.85861 231.83928
170.0 0.00588 186.76955 232.22592
211.0 0.00474 186.68092 232.66589
224.0 0.00446 186.59282 233.16066
211.0 0.00474 186.50525 233.71178
214.0 0.00467 186.41812 234.32162
206.0 0.00485 186.33157 235.18773
196.0 0.00510 186.24551 235.91800
214.0 0.00467 186.16002 236.72322
227.0 0.00441 186.07500 237.60175
208.0 0.00481 185.99054 238.55919
214.0 0.00467 185.90660 239.60217
218.0 0.00459 185.82315 240.73845
235.0 0.00426 185.74025 241.97720
236.0 0.00424 185.65785 243.32893
253.0 0.00395 185.57607 244.80603
228.0 0.00439 185.49475 246.42282
272.0 0.00368 185.41400 248.19269
241.0 0.00415 185.33380 250.14076
256.0 0.00391 185.25410 252.28549
222.0 0.00450 185.17497 254.65144
260.0 0.00385 185.09636 257.26614
247.0 0.00405 185.01831 260.16083
264.0 0.00379 184.94087 263.46762
254.0 0.00394 184.86389 267.02908
239.0 0.00418 184.78749 270.98422
258.0 0.00388 184.71167 275.37839
268.0 0.00373 184.63638 280.26007
293.0 0.003413 184.56168 285.68069
296.0 0.003378 184.48750 291.69516
268.0 0.00373 184.41388 298.35980
292.0 0.003425 184.34085 305.73361
302.0 0.003311 184.26837 313.87610
292.0 0.003425 184.19647 322.84769
340.0 0.002941 184.12505 332.70731
305.0 0.003279 184.05434 343.51242
331.0 0.003021 183.98412 355.31671
405.0 0.002469 183.91444 368.16888
403.0 0.002481 183.84535 382.11041
380.0 0.002632 183.77684 397.17361
385.0 0.002597 183.70892 413.37912
419.0 0.002387 183.64157 430.73355
461.0 0.002169 183.57478 449.22678
425.0 0.002353 183.50861 468.82816
458.0 0.002183 183.44298 489.48373
481.0 0.002079 183.37794 511.11154
511.0 0.001957 183.31345 533.59711
537.0 0.001862 183.24957 556.78845
560.0 0.001786 183.18625 580.49036
605.0 0.001653 183.12352 604.46136
636.0 0.001572 183.06140 628.40918
693.0 0.001443 182.99985 651.99109
736.0 0.001359 182.93892 674.81982
756.0 0.001323 182.87854 696.47302
790.0 0.001266 182.81870 716.51349
810.0 0.001235 182.75948 734.51361
831.0 0.001203 182.70091 750.08606
878.0 0.001139 182.64288 762.91638
833.0 0.001200 182.58545 772.78729
838.0 0.001193 182.52858 779.59631
806.0 0.001241 182.47229 783.35687
836.0 0.001196 182.41667 784.18665
879.0 0.001138 182.36160 782.28064
753.0 0.001328 182.30714 777.87970
777.0 0.001287 182.25322 771.23724
772.0 0.001295 182.19994 762.59302
738.0 0.001355 182.14720 752.15247
780.0 0.001282 182.09512 740.08191
726.0 0.001377 182.04366 726.50946
803.0 0.001245 181.99271 711.55762
789.0 0.001267 181.94237 695.28583
726.0 0.001377 181.89262 677.81738
640.0 0.001563 181.84352 659.28082
662.0 0.001511 181.79497 639.83691
644.0 0.001553 181.74704 619.67822
611.0 0.001637 181.69965 599.02277
589.0 0.001698 181.65294 578.10400
564.0 0.001773 181.60677 557.15619
552.0 0.001812 181.56119 536.40350
476.0 0.002101 181.51625 516.04828
460.0 0.002174 181.47185 496.26666
457.0 0.002188 181.42805 477.20313
456.0 0.002193 181.38486 458.97202
434.0 0.002304 181.34227 441.65790
408.0 0.002451 181.30029 425.31949
393.0 0.002545 181.25888 409.99249
394.0 0.002538 181.21808 395.70233
381.0 0.002625 181.17786 382.43216
363.0 0.002755 181.13823 370.17886
387.0 0.002584 181.09917 358.92133
349.0 0.002865 181.06076 348.62988
316.0 0.003165 181.02290 339.27036
309.0 0.003236 180.98564 330.80487
314.0 0.003185 180.94899 323.19244
314.0 0.003185 180.91289 316.39221
292.0 0.003425 180.87741 310.36267
321.0 0.003115 180.84248 305.06406
305.0 0.003279 180.80817 300.45856
295.0 0.003390 180.77441 296.51074
288.0 0.003472 180.74129 293.18890
294.0 0.003401 180.70874 290.46494
297.0 0.003367 180.67676 288.31516
268.0 0.00373 180.64534 286.71997
292.0 0.003425 180.61455 285.66501
283.0 0.00353 180.58434 285.14001
277.0 0.00361 180.55463 285.14014
255.0 0.00392 180.52563 285.66425
279.0 0.00358 180.49709 286.71579
258.0 0.00388 180.46921 288.30212
291.0 0.003436 180.44186 290.43408
297.0 0.003367 180.41508 293.12497
293.0 0.003413 180.38887 296.39063
304.0 0.003289 180.36327 300.24826
294.0 0.003401 180.33824 304.71545
281.0 0.00356 180.31372 309.80994
307.0 0.003257 180.28983 315.54807
318.0 0.003145 180.26649 321.94370
314.0 0.003185 180.24371 329.00760
306.0 0.003268 180.22147 336.74570
325.0 0.003077 180.19984 345.15744
318.0 0.003145 180.17874 354.23431
320.0 0.003125 180.15820 363.95801
349.0 0.002865 180.13821 374.29779
385.0 0.002597 180.11877 385.20871
420.0 0.002381 180.09991 396.62927
402.0 0.002488 180.08162 408.47787
434.0 0.002304 180.06381 420.65427
412.0 0.002427 180.04666 433.03635
450.0 0.002222 180.02997 445.54883
471.0 0.002123 180.01385 457.90823
464.0 0.002155 179.99828 470.01758
470.0 0.002128 179.98325 481.71835
497.0 0.002012 179.96875 492.86505
546.0 0.001832 179.95477 503.33649
476.0 0.002101 179.94133 513.04163
532.0 0.001880 179.92848 521.92407
579.0 0.001727 179.91611 529.95435
486.0 0.002058 179.90424 537.12579
527.0 0.001898 179.89299 543.43671
526.0 0.001901 179.88223 548.88068
533.0 0.001876 179.87193 553.43396
573.0 0.001745 179.86221 557.04858
560.0 0.001786 179.85301 559.65259
563.0 0.001776 179.84427 561.15735
566.0 0.001767 179.83615 561.46753
552.0 0.001812 179.82840 560.49902
575.0 0.001739 179.82127 558.19489
576.0 0.001736 179.81465 554.57013
578.0 0.001730 179.80841 549.59180
574.0 0.001742 179.80278 543.37317
522.0 0.001916 179.79764 536.03711
529.0 0.001890 179.79297 527.73590
503.0 0.001988 179.78882 518.63525
472.0 0.002119 179.78519 508.90002
501.0 0.001996 179.78197 498.68106
539.0 0.001855 179.77924 488.10742
473.0 0.002114 179.77699 477.28281
444.0 0.002252 179.77531 466.28806
452.0 0.002212 179.77403 455.18494
446.0 0.002242 179.77325 444.02380
414.0 0.002415 179.77293 432.84952
418.0 0.002392 179.77312 421.70822
423.0 0.002364 179.77373 410.65005
412.0 0.002427 179.77480 399.73111
383.0 0.002611 179.77634 389.01120
390.0 0.002564 179.77832 378.55222
372.0 0.002688 179.78081 368.41434
343.0 0.002915 179.78371 358.65137
317.0 0.003155 179.78700 349.30972
342.0 0.002924 179.79082 340.42627
337.0 0.002967 179.79507 332.02780
344.0 0.002907 179.79976 324.13089
329.0 0.003040 179.80484 316.74359
314.0 0.003185 179.81041 309.86545
270.0 0.00370 179.81635 303.48978
284.0 0.00352 179.82275 297.60452
293.0 0.003413 179.82954 292.19363
303.0 0.003300 179.83678 287.23773
287.0 0.003484 179.84444 282.71573
270.0 0.00370 179.85249 278.60504
243.0 0.00412 179.86096 274.88217
270.0 0.00370 179.86984 271.52359
270.0 0.00370 179.87912 268.50568
248.0 0.00403 179.88873 265.80576
257.0 0.00389 179.89883 263.40109
253.0 0.00395 179.90926 260.79544
276.0 0.00362 179.92009 258.92026
253.0 0.00395 179.93134 257.27979
268.0 0.00373 179.94292 255.85579
264.0 0.00379 179.95490 254.63170
265.0 0.00377 179.96721 253.59187
238.0 0.00420 179.97992 252.72215
238.0 0.00420 179.99298 252.00970
248.0 0.00403 180.00641 251.44281
240.0 0.00417 180.02022 251.01115
225.0 0.00444 180.03438 250.70523
264.0 0.00379 180.04886 249.89476
240.0 0.00417 180.06364 249.81943
234.0 0.00427 180.07884 249.84851
251.0 0.00398 180.09435 249.97696
213.0 0.00469 180.11018 250.20070
219.0 0.00457 180.12636 250.51598
220.0 0.00455 180.14290 250.92049
253.0 0.00395 180.15965 251.41203
222.0 0.00450 180.17677 251.98941
242.0 0.00413 180.19420 252.65187
289.0 0.003460 180.21194 253.39955
276.0 0.00362 180.22998 254.25993
270.0 0.00370 180.24837 255.18036
261.0 0.00383 180.26701 256.18948
236.0 0.00424 180.28596 257.28964
267.0 0.00375 180.30515 258.48380
244.0 0.00410 180.32465 259.77594
275.0 0.00364 180.34444 261.17035
274.0 0.00365 180.36449 262.67270
261.0 0.00383 180.38481 264.28922
268.0 0.00373 180.40536 266.02768
280.0 0.00357 180.42618 267.89706
310.0 0.003226 180.44731 269.90759
314.0 0.003185 180.46866 272.07196
295.0 0.003390 180.49030 274.40469
296.0 0.003378 180.51210 276.95456
277.0 0.00361 180.53416 279.67807
293.0 0.003413 180.55652 282.62985
291.0 0.003436 180.57903 285.83716
321.0 0.003115 180.60181 289.33099
307.0 0.003257 180.62477 293.16043
297.0 0.003367 180.64795 297.33966
347.0 0.002882 180.67140 301.92834
348.0 0.002874 180.69498 306.97903
353.0 0.002833 180.71880 312.55005
346.0 0.002890 180.74278 318.70657
380.0 0.002632 180.76695 325.52011
402.0 0.002488 180.79137 333.06866
368.0 0.002717 180.81593 341.43604
397.0 0.002519 180.84068 350.71243
390.0 0.002564 180.86559 360.99268
458.0 0.002183 180.89067 372.37582
445.0 0.002247 180.91592 384.96371
460.0 0.002174 180.94131 398.86008
460.0 0.002174 180.96687 414.18484
500.0 0.002000 180.99255 431.00851
512.0 0.001953 181.01842 449.44553
543.0 0.001842 181.04439 469.58884
576.0 0.001736 181.07053 491.52374
601.0 0.001664 181.09671 515.32422
633.0 0.001580 181.12312 541.05042
602.0 0.001661 181.14961 568.74591
655.0 0.001527 181.17619 598.43237
666.0 0.001502 181.20290 630.10547
729.0 0.001372 181.22972 663.72864
833.0 0.001200 181.25664 699.22791
854.0 0.001171 181.28363 736.48322
859.0 0.001164 181.31071 775.32373
898.0 0.001114 181.33786 815.52222
959.0 0.001043 181.36510 856.79523
991.0 0.001009 181.39249 898.80823
1016.0 0.000984 181.41988 941.18860
1089.0 0.000918 181.44728 983.55109
1159.0 0.000863 181.47482 1025.52930
1273.0 0.000786 181.50237 1066.81470
1230.0 0.000813 181.52997 1107.18945
1244.0 0.000804 181.55766 1146.58325
1262.0 0.000792 181.58537 1184.96033
1258.0 0.000795 181.61307 1222.48328
1340.0 0.000746 181.64081 1259.36218
1338.0 0.000747 181.66859 1295.83228
1433.0 0.000698 181.69635 1332.10693
1448.0 0.000691 181.72418 1368.34058
1411.0 0.000709 181.75201 1404.47571
1555.0 0.000643 181.77979 1440.52319
1540.0 0.000649 181.80759 1476.16077
1654.0 0.000605 181.83539 1510.96838
1675.0 0.000597 181.86317 1544.38806
1698.0 0.000589 181.89095 1575.74841
1755.0 0.000570 181.91872 1604.30688
1820.0 0.000549 181.94638 1629.29480
1896.0 0.000527 181.97403 1649.96985
1864.0 0.000536 182.00172 1665.67224
1920.0 0.000521 182.02930 1675.87927
1822.0 0.000549 182.05678 1680.23657
1838.0 0.000544 182.08429 1678.64014
1825.0 0.000548 182.11172 1671.16821
1794.0 0.000557 182.13905 1658.11902
1872.0 0.000534 182.16634 1639.96289
1759.0 0.000569 182.19356 1617.28357
1722.0 0.000581 182.22066 1590.71411
1721.0 0.000581 182.24774 1560.87756
1692.0 0.000591 182.27464 1528.33521
1616.0 0.000619 182.30148 1493.52893
1580.0 0.000633 182.32823 1456.80493
1543.0 0.000648 182.35486 1418.39294
1488.0 0.000672 182.38136 1378.43311
1440.0 0.000694 182.40776 1337.01196
1432.0 0.000698 182.43402 1294.20093
1306.0 0.000766 182.46016 1250.09399
1326.0 0.000754 182.48616 1204.83655
1253.0 0.000798 182.51202 1158.64258
1248.0 0.000801 182.53780 1111.79077
1147.0 0.000872 182.56334 1064.61865
1052.0 0.000951 182.58878 1017.49738
1099.0 0.000910 182.61401 970.80707
1050.0 0.000952 182.63911 924.91455
941.0 0.001063 182.66402 880.15265
934.0 0.001071 182.68878 836.80878
911.0 0.001098 182.71335 795.11560
851.0 0.001175 182.73770 755.25330
747.0 0.001339 182.76190 717.34802
762.0 0.001312 182.78589 681.48108
696.0 0.001437 182.80966 647.69177
663.0 0.001508 182.83322 615.98621
688.0 0.001453 182.85658 586.34277
669.0 0.001495 182.87976 558.71747
607.0 0.001647 182.90269 533.04895
596.0 0.001678 182.92538 509.26373
562.0 0.001779 182.94785 487.27759
523.0 0.001912 182.97003 467.00024
522.0 0.001916 182.99203 448.33682
495.0 0.002020 183.01378 431.18933
431.0 0.002320 183.03525 415.46008
471.0 0.002123 183.05646 401.05075
466.0 0.002146 183.07739 387.86551
380.0 0.002632 183.09811 375.80942
454.0 0.002203 183.11853 364.79269
403.0 0.002481 183.13867 354.72800
383.0 0.002611 183.15851 345.53293
358.0 0.002793 183.17809 337.12939
410.0 0.002439 183.19736 329.44449
355.0 0.002817 183.21631 322.40979
345.0 0.002899 183.23497 315.96280
321.0 0.003115 183.25333 310.04526
372.0 0.002688 183.27141 304.60458
318.0 0.003145 183.28909 299.59219
312.0 0.003205 183.30655 294.96484
322.0 0.003106 183.32362 290.68295
336.0 0.002976 183.34036 286.71164
273.0 0.00366 183.35680 283.01935
250.0 0.00400 183.37280 279.34683
308.0 0.003247 183.38858 276.13275
297.0 0.003367 183.40393 273.12268
304.0 0.003289 183.41893 270.29782
296.0 0.003378 183.43361 267.64069
260.0 0.00385 183.44788 265.25183
256.0 0.00391 183.46178 262.88705
281.0 0.00356 183.47533 260.55536
261.0 0.00383 183.48848 258.43594
269.0 0.00372 183.50125 256.42471
264.0 0.00379 183.51363 254.51335
256.0 0.00391 183.52567 252.57921
269.0 0.00372 183.53722 250.84738
240.0 0.00417 183.54848 249.19594
268.0 0.00373 183.55920 247.61987
235.0 0.00426 183.56958 246.11426
227.0 0.00441 183.57957 244.67509
223.0 0.00448 183.58913 243.29811
233.0 0.00429 183.59821 241.98003
273.0 0.00366 183.60689 240.67030
230.0 0.00435 183.61514 239.46049
214.0 0.00467 183.62294 238.30034
247.0 0.00405 183.63033 237.18747
240.0 0.00417 183.63727 236.11935
239.0 0.00418 183.64372 235.09378
225.0 0.00444 183.64978 234.10854
236.0 0.00424 183.65533 233.22050
229.0 0.00437 183.66042 232.31071
256.0 0.00391 183.66505 231.45898
223.0 0.00448 183.66922 230.63120
213.0 0.00469 183.67293 229.82187
231.0 0.00433 183.67612 229.04298
192.0 0.00521 183.67885 228.29332
192.0 0.00521 183.68106 227.57150
206.0 0.00485 183.68283 226.87642
214.0 0.00467 183.68410 226.20697
206.0 0.00485 183.68484 225.56215
219.0 0.00457 183.68512 224.94083
179.0 0.00559 183.68488 224.34227
202.0 0.00495 183.68407 223.76544
207.0 0.00483 183.68280 223.20952
231.0 0.00433 183.68102 222.67375
190.0 0.00526 183.67874 222.15749
190.0 0.00526 183.67586 221.65990
191.0 0.00524 183.67250 221.18024
199.0 0.00503 183.66859 220.71805
187.0 0.00535 183.66415 220.27277
198.0 0.00505 183.65919 219.84351
193.0 0.00518 183.65367 219.44173
208.0 0.00481 183.64761 219.04359
214.0 0.00467 183.64102 218.66025
189.0 0.00529 183.63387 218.29112
201.0 0.00498 183.62613 217.93573
190.0 0.00526 183.61784 217.59402
190.0 0.00526 183.60904 217.26535
208.0 0.00481 183.59962 216.94933
213.0 0.00469 183.58971 216.67575
183.0 0.00546 183.57913 216.38438
192.0 0.00521 183.56802 216.10469
185.0 0.00541 183.55634 215.83656
181.0 0.00552 183.54410 215.57974
200.0 0.00500 183.53122 215.33376
193.0 0.00518 183.51779 215.09871
205.0 0.00488 183.50374 214.87411
195.0 0.00513 183.48915 214.65999
184.0 0.00543 183.47397 214.45598
207.0 0.00483 183.45816 214.26212
183.0 0.00546 183.44171 214.07797
183.0 0.00546 183.42476 213.90364
201.0 0.00498 183.40714 213.73900
156.0 0.00641 183.38887 213.58374
222.0 0.00450 183.37012 213.43810
210.0 0.00476 183.35062 213.30164
197.0 0.00508 183.33060 213.17453
182.0 0.00549 183.30995 213.05667
190.0 0.00526 183.28865 212.94781
177.0 0.00565 183.26674 212.84834
186.0 0.00538 183.24423 212.75778
185.0 0.00541 183.22107 212.67651
186.0 0.00538 183.19731 212.60437
198.0 0.00505 183.17291 212.54137
181.0 0.00552 183.14789 212.48767
209.0 0.00478 183.12219 212.44318
180.0 0.00556 183.09589 212.40820
183.0 0.00546 183.06895 212.38243
187.0 0.00535 183.04137 212.36629
192.0 0.00521 183.01312 212.35994
190.0 0.00526 182.98430 212.36333
197.0 0.00508 182.95480 212.37659
187.0 0.00535 182.92465 212.40010
209.0 0.00478 182.89386 212.43384
203.0 0.00493 182.86241 212.47821
175.0 0.00571 182.83035 212.53320
158.0 0.00633 182.79761 212.59940
202.0 0.00495 182.76424 212.67679
182.0 0.00549 182.73021 212.76581
178.0 0.00562 182.69551 212.86682
226.0 0.00442 182.66013 212.98016
187.0 0.00535 182.62415 213.10619
200.0 0.00500 182.58749 213.24532
195.0 0.00513 182.55020 213.39801
227.0 0.00441 182.51222 213.56488
213.0 0.00469 182.47357 213.74615
186.0 0.00538 182.43430 213.94286
192.0 0.00521 182.39432 214.15518
191.0 0.00524 182.35373 214.38409
199.0 0.00503 182.31244 214.63019
196.0 0.00510 182.27049 214.89429
211.0 0.00474 182.22791 215.17732
216.0 0.00463 182.18466 215.48018
177.0 0.00565 182.14073 215.75990
200.0 0.00500 182.09610 216.10596
223.0 0.00448 182.05089 216.47502
211.0 0.00474 182.00494 216.86903
192.0 0.00521 181.95836 217.28908
199.0 0.00503 181.91110 217.73723
213.0 0.00469 181.86320 218.21541
213.0 0.00469 181.81462 218.72565
206.0 0.00485 181.76540 219.27068
212.0 0.00472 181.71548 219.85329
209.0 0.00478 181.66490 220.47676
228.0 0.00439 181.61366 221.14487
201.0 0.00498 181.56180 221.55170
225.0 0.00444 181.50926 222.32387
210.0 0.00476 181.45604 223.15585
241.0 0.00415 181.40218 224.05428
238.0 0.00420 181.34764 225.02710
210.0 0.00476 181.29242 226.08299
207.0 0.00483 181.23654 227.23213
227.0 0.00441 181.18004 228.48639
237.0 0.00422 181.12283 229.85887
225.0 0.00444 181.06506 231.36447
248.0 0.00403 181.00650 233.02017
252.0 0.00397 180.94740 234.84480
210.0 0.00476 180.88760 236.85963
225.0 0.00444 180.82716 239.08745
236.0 0.00424 180.76605 241.55357
243.0 0.00412 180.70435 244.28535
241.0 0.00415 180.64194 247.31224
240.0 0.00417 180.57887 250.66553
272.0 0.00368 180.51520 254.37733
273.0 0.00366 180.45088 258.48190
288.0 0.003472 180.38594 263.06039
302.0 0.003311 180.32030 267.84866
275.0 0.00364 180.25410 273.33929
304.0 0.003289 180.18718 279.38083
323.0 0.003096 180.11966 285.96140
336.0 0.002976 180.05148 293.13046
308.0 0.003247 179.98273 300.91290
339.0 0.002950 179.91333 309.32788
289.0 0.003460 179.84328 318.38889
347.0 0.002882 179.77266 328.10141
364.0 0.002747 179.70137 338.46185
383.0 0.002611 179.62947 349.48676
401.0 0.002494 179.55693 361.08633
376.0 0.002660 179.48384 373.24759
403.0 0.002481 179.41010 385.80600
445.0 0.002247 179.33572 398.88144
405.0 0.002469 179.26082 412.26147
409.0 0.002445 179.18521 425.80756
440.0 0.002273 179.10905 439.35052
501.0 0.001996 179.03235 452.69116
476.0 0.002101 178.95502 465.60266
502.0 0.001992 178.87703 477.83823
502.0 0.001992 178.79854 489.15341
547.0 0.001828 178.71942 499.28113
596.0 0.001678 178.63976 508.01501
572.0 0.001748 178.55951 515.18817
541.0 0.001848 178.47864 520.69958
551.0 0.001815 178.39726 524.52466
532.0 0.001880 178.31526 526.71545
586.0 0.001706 178.23274 527.38977
545.0 0.001835 178.14961 526.81610
564.0 0.001773 178.06598 524.98566
520.0 0.001923 177.98178 522.21234
567.0 0.001764 177.89702 518.64771
539.0 0.001855 177.81175 514.46075
540.0 0.001852 177.72586 509.76724
516.0 0.001938 177.63951 504.64481
488.0 0.002049 177.55260 499.24454
544.0 0.001838 177.46516 493.36960
505.0 0.001980 177.37721 487.13290
553.0 0.001808 177.28873 480.53998
472.0 0.002119 177.19974 473.60971
510.0 0.001961 177.11028 466.38452
474.0 0.002110 177.02019 458.93420
507.0 0.001972 176.92972 451.35742
498.0 0.002008 176.83871 443.77533
497.0 0.002012 176.74722 436.32489
434.0 0.002304 176.65526 429.14926
473.0 0.002114 176.56279 422.38910
473.0 0.002114 176.46985 416.17502
488.0 0.002049 176.37646 410.62448
428.0 0.002336 176.28256 405.83789
446.0 0.002242 176.18828 401.89905
419.0 0.002387 176.09338 398.87454
474.0 0.002110 175.99823 396.81638
408.0 0.002451 175.90253 395.76245
413.0 0.002421 175.80643 395.73892
459.0 0.002179 175.70988 396.76035
416.0 0.002404 175.61287 398.83212
451.0 0.002217 175.51549 401.95010
419.0 0.002387 175.41765 406.15622
471.0 0.002123 175.31946 411.31979
449.0 0.002227 175.22079 417.48425
470.0 0.002128 175.12180 424.56931
485.0 0.002062 175.02231 432.54434
499.0 0.002004 174.92250 441.34644
519.0 0.001927 174.82234 450.89978
516.0 0.001938 174.72171 461.11432
503.0 0.001988 174.62077 471.88287
529.0 0.001890 174.51950 483.08130
556.0 0.001799 174.41785 494.56561
540.0 0.001852 174.31583 506.17319
572.0 0.001748 174.21349 517.72284
592.0 0.001689 174.11081 529.01801
623.0 0.001605 174.00783 539.85016
669.0 0.001495 173.90446 550.00897
711.0 0.001406 173.80080 559.28625
671.0 0.001490 173.69684 567.49292
630.0 0.001587 173.59258 574.46466
684.0 0.001462 173.48805 580.07623
668.0 0.001497 173.38318 584.24487
667.0 0.001499 173.27808 586.93909
712.0 0.001404 173.17268 588.17303
670.0 0.001493 173.06702 588.00262
686.0 0.001458 172.96109 586.51697
671.0 0.001490 172.85487 583.82581
665.0 0.001504 172.74850 580.05707
628.0 0.001592 172.64183 575.30725
631.0 0.001585 172.53494 569.69031
640.0 0.001563 172.42786 563.29327
653.0 0.001531 172.32050 556.18500
623.0 0.001605 172.21303 548.41663
616.0 0.001623 172.10527 540.02338
575.0 0.001739 171.99736 531.03375
554.0 0.001805 171.88924 521.47473
582.0 0.001718 171.78093 511.37778
559.0 0.001789 171.67252 500.78491
569.0 0.001757 171.56390 489.75137
547.0 0.001828 171.45515 478.34772
530.0 0.001887 171.34625 466.65680
517.0 0.001934 171.23724 454.77280
486.0 0.002058 171.12804 442.79395
460.0 0.002174 171.01880 430.82080
422.0 0.002370 170.90936 418.94931
388.0 0.002577 170.79991 407.26904
425.0 0.002353 170.69029 395.86005
381.0 0.002625 170.58063 384.79050
384.0 0.002604 170.47090 374.11768
403.0 0.002481 170.36108 363.88742
355.0 0.002817 170.25122 354.13434
376.0 0.002660 170.14127 344.88339
356.0 0.002809 170.03128 336.15216
294.0 0.003401 169.92133 327.94986
351.0 0.002849 169.81131 320.28018
322.0 0.003106 169.70126 313.14233
320.0 0.003125 169.59122 306.53033
293.0 0.003413 169.48117 300.43646
298.0 0.003356 169.37114 294.84949
326.0 0.003067 169.26114 289.75684
290.0 0.003448 169.15112 285.14389
313.0 0.003195 169.04121 280.99588
297.0 0.003367 168.93127 277.29639
309.0 0.003236 168.82146 274.02914
263.0 0.00380 168.71173 271.17691
271.0 0.00369 168.60199 268.72302
290.0 0.003448 168.49242 266.65070
272.0 0.00368 168.38284 264.94272
292.0 0.003425 168.27344 263.58203
249.0 0.00402 168.16411 262.55194
311.0 0.003215 168.05496 261.85474
279.0 0.00358 167.94588 261.43564
257.0 0.00389 167.83702 261.29657
273.0 0.00366 167.72827 261.42035
290.0 0.003448 167.61967 261.78900
270.0 0.00370 167.51125 262.38431
289.0 0.003460 167.40300 263.18640
253.0 0.00395 167.29494 264.17484
260.0 0.00385 167.18709 265.32687
277.0 0.00361 167.07945 266.61838
264.0 0.00379 166.97205 268.02237
260.0 0.00385 166.86484 269.51019
280.0 0.00357 166.75787 271.05042
282.0 0.00355 166.65112 272.60880
284.0 0.00352 166.54471 274.15082
287.0 0.003484 166.43851 275.64020
268.0 0.00373 166.33264 277.04178
265.0 0.00377 166.22701 278.32196
261.0 0.00383 166.12169 279.45218
299.0 0.003344 166.01669 280.40845
284.0 0.00352 165.91196 281.17386
269.0 0.00372 165.80762 281.74017
271.0 0.00369 165.70361 282.10641
288.0 0.003472 165.59993 282.27942
262.0 0.00382 165.49658 282.28159
282.0 0.00355 165.39366 282.11099
283.0 0.00353 165.29108 281.79675
288.0 0.003472 165.18889 281.35928
278.0 0.00360 165.08713 280.81781
306.0 0.003268 164.98573 280.18924
256.0 0.00391 164.88483 279.48752
254.0 0.00394 164.78426 278.72330
275.0 0.00364 164.68420 277.90564
279.0 0.00358 164.58456 277.04071
310.0 0.003226 164.48540 276.13474
270.0 0.00370 164.38672 275.19397
283.0 0.00353 164.28848 274.22559
274.0 0.00365 164.19075 273.23999
276.0 0.00362 164.09349 272.24945
291.0 0.003436 163.99678 271.26962
304.0 0.003289 163.90057 270.31836
299.0 0.003344 163.80495 269.41562
278.0 0.00360 163.70978 268.58298
285.0 0.00351 163.61523 267.84293
283.0 0.00353 163.52124 267.21744
289.0 0.003460 163.42780 266.72867
267.0 0.00375 163.33493 266.39801
278.0 0.00360 163.24271 266.24628
274.0 0.00365 163.15102 266.29388
300.0 0.003333 163.05997 266.55994
267.0 0.00375 162.96953 267.06412
283.0 0.00353 162.87976 267.85699
274.0 0.00365 162.79063 268.89670
297.0 0.003367 162.70216 270.23480
322.0 0.003106 162.61432 271.89349
306.0 0.003268 162.52719 273.89587
332.0 0.003012 162.44072 276.27448
306.0 0.003268 162.35498 279.04175
315.0 0.003175 162.26991 282.23462
310.0 0.003226 162.18553 285.88495
322.0 0.003106 162.10194 290.02802
348.0 0.002874 162.01898 294.70154
323.0 0.003096 161.93690 299.94681
335.0 0.002985 161.85548 305.80792
380.0 0.002632 161.77487 312.33331
327.0 0.003058 161.69499 319.57379
350.0 0.002857 161.61598 327.58459
361.0 0.002770 161.53763 336.42203
402.0 0.002488 161.46021 346.14716
396.0 0.002525 161.38354 356.82141
411.0 0.002433 161.30769 368.50739
385.0 0.002597 161.23270 381.26785
380.0 0.002632 161.15854 395.16403
407.0 0.002457 161.08528 410.25418
436.0 0.002294 161.01279 426.59201
409.0 0.002445 160.94119 444.22537
438.0 0.002283 160.87051 463.21133
449.0 0.002227 160.80074 483.55298
456.0 0.002193 160.73181 505.29413
485.0 0.002062 160.66379 528.45660
497.0 0.002012 160.59674 553.06366
560.0 0.001786 160.53058 579.12354
549.0 0.001821 160.46539 606.65601
529.0 0.001890 160.40109 635.67114
535.0 0.001869 160.33781 666.17487
546.0 0.001832 160.27547 698.15985
565.0 0.001770 160.21410 731.59705
614.0 0.001629 160.15367 766.42480
658.0 0.001520 160.09428 802.53729
616.0 0.001623 160.03586 839.77411
678.0 0.001475 159.97845 877.90558
671.0 0.001490 159.92209 916.62451
686.0 0.001458 159.86673 955.54004
731.0 0.001368 159.81245 994.17505
742.0 0.001348 159.75919 1031.97058
830.0 0.001205 159.70692 1068.30347
798.0 0.001253 159.65575 1102.50659
839.0 0.001192 159.60565 1133.91113
894.0 0.001119 159.55658 1161.88867
839.0 0.001192 159.50868 1185.89648
876.0 0.001142 159.46181 1205.52905
858.0 0.001166 159.41606 1220.54382
902.0 0.001109 159.37143 1230.87476
871.0 0.001148 159.32791 1236.62866
889.0 0.001125 159.28551 1238.05273
881.0 0.001135 159.24420 1235.49939
855.0 0.001170 159.20403 1229.37659
890.0 0.001124 159.16508 1220.10950
840.0 0.001190 159.12723 1208.09814
806.0 0.001241 159.09056 1193.69385
858.0 0.001166 159.05504 1177.18433
870.0 0.001149 159.02068 1158.78357
782.0 0.001279 158.98755 1138.64050
770.0 0.001299 158.95560 1116.84033
789.0 0.001267 158.92480 1093.43286
813.0 0.001230 158.89526 1068.44763
719.0 0.001391 158.86687 1041.91980
738.0 0.001355 158.83972 1013.91156
721.0 0.001387 158.81381 984.52765
658.0 0.001520 158.78914 953.92444
751.0 0.001332 158.76563 922.30676
686.0 0.001458 158.74342 889.91827
659.0 0.001517 158.72246 857.02740
657.0 0.001522 158.70271 823.91321
633.0 0.001580 158.68427 790.84796
615.0 0.001626 158.66702 758.09015
596.0 0.001678 158.65109 725.87457
565.0 0.001770 158.63640 694.41058
539.0 0.001855 158.62305 663.87994
566.0 0.001767 158.61092 634.43524
473.0 0.002114 158.60010 606.20282
508.0 0.001969 158.59059 579.28143
460.0 0.002174 158.58235 553.74628
454.0 0.002203 158.57542 529.64874
481.0 0.002079 158.56984 507.01959
443.0 0.002257 158.56551 485.87073
437.0 0.002288 158.56255 466.19775
428.0 0.002336 158.56088 447.98181
442.0 0.002262 158.56052 431.19370
441.0 0.002268 158.56151 415.79391
395.0 0.002532 158.56387 401.73318
408.0 0.002451 158.56749 389.00610
372.0 0.002688 158.57246 377.47083
356.0 0.002809 158.57877 367.10974
353.0 0.002833 158.58649 357.86264
338.0 0.002959 158.59552 349.66824
352.0 0.002841 158.60587 342.46521
355.0 0.002817 158.61763 336.19379
347.0 0.002882 158.63072 330.79407
349.0 0.002865 158.64511 326.20828
329.0 0.003040 158.66093 322.38052
329.0 0.003040 158.67812 319.25565
330.0 0.003030 158.69661 316.78119
327.0 0.003058 158.71651 314.90503
325.0 0.003077 158.73776 313.57660
277.0 0.00361 158.76039 312.74588
319.0 0.003135 158.78439 312.42825
329.0 0.003040 158.80977 312.44336
334.0 0.002994 158.83649 312.80508
336.0 0.002976 158.86458 313.46112
307.0 0.003257 158.89409 314.35672
324.0 0.003086 158.92499 315.43567
344.0 0.002907 158.95721 316.63892
323.0 0.003096 158.99075 317.90567
307.0 0.003257 159.02574 319.17374
346.0 0.002890 159.06209 320.23291
291.0 0.003436 159.09979 321.32056
298.0 0.003356 159.13892 322.23157
329.0 0.003040 159.17934 322.91589
360.0 0.002778 159.22118 323.33197
313.0 0.003195 159.26439 323.44861
318.0 0.003145 159.30893 323.24634
333.0 0.003003 159.35484 322.71725
305.0 0.003279 159.40211 321.86496
289.0 0.003460 159.45078 320.70267
299.0 0.003344 159.50075 319.25076
318.0 0.003145 159.55215 317.53488
298.0 0.003356 159.60486 315.58203
289.0 0.003460 159.65889 313.54254
303.0 0.003300 159.71432 311.19427
297.0 0.003367 159.77106 308.68170
298.0 0.003356 159.82915 306.05341
295.0 0.003390 159.88855 303.25439
303.0 0.003300 159.94931 300.32614
288.0 0.003472 160.01141 297.27356
289.0 0.003460 160.07477 294.10037
273.0 0.00366 160.13954 290.81097
289.0 0.003460 160.20554 287.41071
291.0 0.003436 160.27296 283.90793
269.0 0.00372 160.34158 280.31506
291.0 0.003436 160.41153 276.64685
262.0 0.00382 160.48276 272.92227
281.0 0.00356 160.55530 269.16208
265.0 0.00377 160.62909 265.38892
306.0 0.003268 160.70418 261.62607
240.0 0.00417 160.78055 257.89612
291.0 0.003436 160.85818 254.21983
266.0 0.00376 160.93703 250.61693
258.0 0.00388 161.01712 247.10416
273.0 0.00366 161.09846 243.69559
249.0 0.00402 161.18109 240.40239
270.0 0.00370 161.26488 237.23378
249.0 0.00402 161.34987 234.19612
254.0 0.00394 161.43607 231.35629
275.0 0.00364 161.52354 228.59196
228.0 0.00439 161.61211 225.96611
242.0 0.00413 161.70190 223.47841
265.0 0.00377 161.79288 221.12695
238.0 0.00420 161.88503 218.90944
266.0 0.00376 161.97827 216.82222
256.0 0.00391 162.07263 214.86151
237.0 0.00422 162.16815 213.02278
236.0 0.00424 162.26483 211.30138
213.0 0.00469 162.36264 209.69228
269.0 0.00372 162.46147 208.18991
241.0 0.00415 162.56143 206.78934
231.0 0.00433 162.66246 205.48506
229.0 0.00437 162.76454 204.27159
216.0 0.00463 162.86765 203.14374
235.0 0.00426 162.97180 202.09636
228.0 0.00439 163.07701 201.12436
218.0 0.00459 163.18320 200.22267
225.0 0.00444 163.29044 199.38690
243.0 0.00412 163.39864 198.61205
227.0 0.00441 163.50780 197.89433
248.0 0.00403 163.61787 197.22929
235.0 0.00426 163.72896 196.61305
219.0 0.00457 163.84093 196.04218
226.0 0.00442 163.95381 195.51303
228.0 0.00439 164.06763 195.02260
227.0 0.00441 164.18224 194.56805
212.0 0.00472 164.29785 194.14636
217.0 0.00461 164.41425 193.75520
226.0 0.00442 164.53148 193.39238
215.0 0.00465 164.64951 193.05559
210.0 0.00476 164.76834 192.74306
239.0 0.00418 164.88802 192.45285
219.0 0.00457 165.00839 192.18338
229.0 0.00437 165.12958 191.93338
234.0 0.00427 165.25142 191.70132
209.0 0.00478 165.37404 191.44528
206.0 0.00485 165.49731 191.24605
204.0 0.00490 165.62129 191.06157
218.0 0.00459 165.74594 190.89090
206.0 0.00485 165.87117 190.73343
223.0 0.00448 165.99706 190.58832
216.0 0.00463 166.12355 190.45491
216.0 0.00463 166.25066 190.33267
199.0 0.00503 166.37827 190.22086
247.0 0.00405 166.50642 190.11929
190.0 0.00526 166.63510 190.02711
209.0 0.00478 166.76433 189.94426
211.0 0.00474 166.89392 189.87001
225.0 0.00444 167.02405 189.80431
198.0 0.00505 167.15462 189.67561
208.0 0.00481 167.28552 189.62589
213.0 0.00469 167.41685 189.58385
231.0 0.00433 167.54858 189.54895
216.0 0.00463 167.68066 189.52098
212.0 0.00472 167.81296 189.49977
202.0 0.00495 167.94560 189.48499
209.0 0.00478 168.07855 189.47668
218.0 0.00459 168.21170 189.47429
203.0 0.00493 168.34512 189.47810
190.0 0.00526 168.47868 189.48734
226.0 0.00442 168.61244 189.50224
203.0 0.00493 168.74634 189.52258
219.0 0.00457 168.88039 189.54822
216.0 0.00463 169.01450 189.57890
226.0 0.00442 169.14865 189.61455
210.0 0.00476 169.28287 189.65508
243.0 0.00412 169.41710 189.70023
194.0 0.00515 169.55136 189.75009
195.0 0.00513 169.68553 189.80438
199.0 0.00503 169.81970 189.86308
218.0 0.00459 169.95370 189.92601
211.0 0.00474 170.08763 189.99319
212.0 0.00472 170.22133 190.06433
209.0 0.00478 170.35490 190.13950
208.0 0.00481 170.48828 190.21866
210.0 0.00476 170.62143 190.30154
216.0 0.00463 170.75429 190.38826
192.0 0.00521 170.88681 190.47853
195.0 0.00513 171.01913 190.57256
199.0 0.00503 171.15097 190.67001
223.0 0.00448 171.28246 190.77097
218.0 0.00459 171.41354 190.87544
195.0 0.00513 171.54416 190.98329
215.0 0.00465 171.67433 191.09439
199.0 0.00503 171.80391 191.20877
216.0 0.00463 171.93304 191.32649
219.0 0.00457 172.06154 191.44733
208.0 0.00481 172.18945 191.57126
227.0 0.00441 172.31671 191.69839
207.0 0.00483 172.44324 191.82866
208.0 0.00481 172.56917 191.96207
202.0 0.00495 172.69426 192.09840
209.0 0.00478 172.81868 192.23798
186.0 0.00538 172.94223 192.38043
206.0 0.00485 173.06496 192.52585
232.0 0.00431 173.18675 192.67432
208.0 0.00481 173.30774 192.82591
210.0 0.00476 173.42769 192.98044
185.0 0.00541 173.54665 193.13797
198.0 0.00505 173.66470 193.29858
217.0 0.00461 173.78156 193.46220
224.0 0.00446 173.89745 193.62888
209.0 0.00478 174.01216 193.79868
193.0 0.00518 174.12572 193.97163
212.0 0.00472 174.23808 194.14769
227.0 0.00441 174.34921 194.32683
229.0 0.00437 174.45911 194.50931
186.0 0.00538 174.56767 194.69505
194.0 0.00515 174.67490 194.88414
220.0 0.00455 174.78073 195.07661
229.0 0.00437 174.88518 195.27243
180.0 0.00556 174.98810 195.47202
222.0 0.00450 175.08961 195.67506
213.0 0.00469 175.18953 195.88177
229.0 0.00437 175.28789 196.09239
212.0 0.00472 175.38469 196.30705
232.0 0.00431 175.47977 196.52553
196.0 0.00510 175.57326 196.74823
214.0 0.00467 175.66492 196.97523
201.0 0.00498 175.75487 197.20667
226.0 0.00442 175.84299 197.44281
200.0 0.00500 175.92931 197.68372
211.0 0.00474 176.01373 197.92937
209.0 0.00478 176.09616 198.18024
209.0 0.00478 176.17674 198.43654
217.0 0.00461 176.25525 198.69846
205.0 0.00488 176.33171 198.96614
196.0 0.00510 176.40613 199.23991
206.0 0.00485 176.47841 199.52016
207.0 0.00483 176.54849 199.80724
189.0 0.00529 176.61638 200.10133
210.0 0.00476 176.68207 200.40285
205.0 0.00488 176.74541 200.71222
229.0 0.00437 176.80647 201.02988
201.0 0.00498 176.86513 201.35643
208.0 0.00481 176.92139 201.69235
228.0 0.00439 176.97517 202.03818
253.0 0.00395 177.02649 202.39487
221.0 0.00452 177.07527 202.76302
223.0 0.00448 177.12144 203.14339
216.0 0.00463 177.16504 203.53719
209.0 0.00478 177.20589 203.94531
228.0 0.00439 177.24413 204.36897
209.0 0.00478 177.27960 204.80984
210.0 0.00476 177.31229 205.26929
222.0 0.00450 177.34215 205.74924
212.0 0.00472 177.36911 206.25166
221.0 0.00452 177.39317 206.77888
233.0 0.00429 177.41428 207.33388
232.0 0.00431 177.43242 207.91919
216.0 0.00463 177.44746 208.53864
232.0 0.00431 177.45950 209.19579
236.0 0.00424 177.46835 209.89473
239.0 0.00418 177.47408 210.64066
230.0 0.00435 177.47662 211.43854
211.0 0.00474 177.47581 212.29451
257.0 0.00389 177.47179 213.21454
212.0 0.00472 177.46442 214.20583
238.0 0.00420 177.45369 215.27591
250.0 0.00400 177.43953 216.43295
216.0 0.00463 177.42189 217.68546
241.0 0.00415 177.40079 219.04291
243.0 0.00412 177.37614 220.51448
215.0 0.00465 177.34789 222.11058
231.0 0.00433 177.31606 223.84111
212.0 0.00472 177.28050 225.71683
239.0 0.00418 177.24132 227.74796
237.0 0.00422 177.19832 229.94498
208.0 0.00481 177.15152 232.31793
214.0 0.00467 177.10092 234.87659
247.0 0.00405 177.04649 237.62965
238.0 0.00420 176.98810 240.58543
242.0 0.00413 176.92578 243.75069
242.0 0.00413 176.85950 247.13095
254.0 0.00394 176.78915 250.73009
263.0 0.00380 176.71477 254.55011
268.0 0.00373 176.63625 258.58994
258.0 0.00388 176.55360 262.84656
266.0 0.00376 176.46677 267.31271
253.0 0.00395 176.37572 271.97772
249.0 0.00402 176.28041 276.82553
292.0 0.003425 176.18076 281.83551
280.0 0.00357 176.07681 286.97989
291.0 0.003436 175.96848 292.22424
291.0 0.003436 175.85576 297.52646
304.0 0.003289 175.73854 302.83566
286.0 0.003497 175.61690 308.09381
308.0 0.003247 175.49068 313.23505
301.0 0.003322 175.35994 318.18924
332.0 0.003012 175.22464 322.88318
383.0 0.002611 175.08463 327.24600
304.0 0.003289 174.94002 331.21375
321.0 0.003115 174.79068 334.73392
313.0 0.003195 174.63663 337.77164
333.0 0.003003 174.47780 340.31122
304.0 0.003289 174.31419 342.36017
366.0 0.002732 174.14571 343.94681
340.0 0.002941 173.97243 345.11850
337.0 0.002967 173.79431 345.93637
330.0 0.003030 173.61113 346.47089
318.0 0.003145 173.42313 346.79538
316.0 0.003165 173.23001 346.98132
324.0 0.003086 173.03198 347.09332
318.0 0.003145 172.82886 347.18719
324.0 0.003086 172.62071 347.30716
284.0 0.00352 172.40750 347.48682
322.0 0.003106 172.18907 347.74811
320.0 0.003125 171.96555 348.10358
322.0 0.003106 171.73685 348.55975
350.0 0.002857 171.50298 349.11832
334.0 0.002994 171.26376 349.78061
328.0 0.003049 171.01944 350.55057
300.0 0.003333 170.76974 351.43671
334.0 0.002994 170.51482 352.42548
337.0 0.002967 170.25462 353.59860
318.0 0.003145 169.98897 354.95685
348.0 0.002874 169.71806 356.53577
335.0 0.002985 169.44170 358.37375
321.0 0.003115 169.16002 360.51053
339.0 0.002950 168.87282 362.98331
326.0 0.003067 168.58032 365.82590
339.0 0.002950 168.28223 369.06537
332.0 0.003012 167.97882 372.72296
315.0 0.003175 167.66992 376.81104
340.0 0.002941 167.35550 381.33365
352.0 0.002841 167.03563 386.28610
358.0 0.002793 166.71013 391.65427
335.0 0.002985 166.37924 397.40067
352.0 0.002841 166.04269 403.52139
349.0 0.002865 165.70078 409.95914
381.0 0.002625 165.35327 416.66080
344.0 0.002907 165.00008 423.56207
375.0 0.002667 164.64153 430.58972
363.0 0.002755 164.27725 437.65952
372.0 0.002688 163.90749 444.67847
364.0 0.002747 163.53210 451.54565
400.0 0.002500 163.15128 458.15601
416.0 0.002404 162.76472 464.40070
415.0 0.002410 162.37273 470.17456
399.0 0.002506 161.97522 475.37653
402.0 0.002488 161.57198 479.91751
396.0 0.002525 161.16338 483.72314
419.0 0.002387 160.74908 486.73691
405.0 0.002469 160.32936 488.92477
387.0 0.002584 159.90402 490.27341
384.0 0.002604 159.47328 490.79257
417.0 0.002398 159.03693 490.51031
378.0 0.002646 158.59521 489.47089
383.0 0.002611 158.14804 487.72995
429.0 0.002331 157.69527 485.34888
397.0 0.002519 157.23718 482.19830
389.0 0.002571 156.77356 478.72559
413.0 0.002421 156.30469 474.79236
378.0 0.002646 155.83026 470.44461
378.0 0.002646 155.35068 465.71951
372.0 0.002688 154.86578 460.64481
348.0 0.002874 154.37546 455.23959
369.0 0.002710 153.88000 449.31989
402.0 0.002488 153.37914 443.28912
374.0 0.002674 152.87326 436.95737
357.0 0.002801 152.36206 430.33374
332.0 0.003012 151.84592 423.43204
351.0 0.002849 151.32446 416.27130
354.0 0.002825 150.79813 408.87772
383.0 0.002611 150.26689 401.28491
377.0 0.002653 149.73044 393.53287
315.0 0.003175 149.18930 385.66769
339.0 0.002950 148.64301 377.73856
361.0 0.002770 148.09222 369.79770
334.0 0.002994 147.53641 361.89630
334.0 0.002994 146.97614 354.08490
329.0 0.003040 146.41095 346.40991
357.0 0.002801 145.84142 338.91568
308.0 0.003247 145.26736 331.64001
344.0 0.002907 144.68855 324.61722
304.0 0.003289 144.10565 317.87646
304.0 0.003289 143.51813 311.44156
308.0 0.003247 142.92661 305.33340
313.0 0.003195 142.33063 299.56766
324.0 0.003086 141.73076 294.15796
280.0 0.00357 141.12691 289.11438
321.0 0.003115 140.51881 284.44446
286.0 0.003497 139.90710 280.15482
270.0 0.00370 139.29135 276.24899
291.0 0.003436 138.67215 272.73108
304.0 0.003289 138.04907 269.60248
281.0 0.00356 137.42268 266.86600
295.0 0.003390 136.79263 264.52167
310.0 0.003226 136.15950 262.57129
282.0 0.00355 135.52310 261.01538
305.0 0.003279 134.88341 259.85428
294.0 0.003401 134.24094 259.08957
314.0 0.003185 133.59526 258.72116
306.0 0.003268 132.94704 258.75089
288.0 0.003472 132.29591 259.17917
299.0 0.003344 131.64244 260.00729
298.0 0.003356 130.98625 261.23642
334.0 0.002994 130.32802 262.86749
281.0 0.00356 129.66757 264.90146
307.0 0.003257 129.00485 267.33813
318.0 0.003145 128.34042 270.17850
331.0 0.003021 127.67395 273.42075
325.0 0.003077 127.00609 277.06342
339.0 0.002950 126.33643 281.10336
285.0 0.00351 125.66570 285.53568
302.0 0.003311 124.99377 290.35376
300.0 0.003333 124.32046 295.54813
350.0 0.002857 123.64658 301.10687
344.0 0.002907 122.97167 307.01428
357.0 0.002801 122.29640 313.25198
366.0 0.002732 121.62053 319.79608
352.0 0.002841 120.94466 326.61966
372.0 0.002688 120.26845 333.69077
386.0 0.002591 119.59263 340.97363
370.0 0.002703 118.91714 348.42801
388.0 0.002577 118.24187 356.01019
359.0 0.002786 117.56753 363.67456
374.0 0.002674 116.89380 371.37244
390.0 0.002564 116.22144 379.05579
393.0 0.002545 115.55005 386.67599
387.0 0.002584 114.88043 394.18640
390.0 0.002564 114.21227 401.54147
411.0 0.002433 113.54626 408.69852
415.0 0.002410 112.88237 415.61572
447.0 0.002237 112.22064 422.25226
452.0 0.002212 111.56168 428.56741
428.0 0.002336 110.90536 434.51877
451.0 0.002217 110.25233 440.06259
454.0 0.002203 109.60230 445.15182
465.0 0.002151 108.95614 449.73843
456.0 0.002193 108.31374 453.77298
422.0 0.002370 107.67517 457.20712
444.0 0.002252 107.04118 459.99908
495.0 0.002020 106.41151 462.11230
436.0 0.002294 105.78696 463.52362
427.0 0.002342 105.16730 464.22244
481.0 0.002079 104.55331 464.21545
449.0 0.002227 103.94478 463.52512
455.0 0.002198 103.34246 462.19052
468.0 0.002137 102.74644 460.26541
409.0 0.002445 102.15679 457.81464
416.0 0.002404 101.57427 454.91193
466.0 0.002146 100.99876 451.63486
434.0 0.002304 100.43099 448.06250
471.0 0.002123 99.87087 444.27017
469.0 0.002132 99.31917 440.32901
444.0 0.002252 98.77576 436.30148
444.0 0.002252 98.24143 432.24249
451.0 0.002217 97.71630 428.19708
448.0 0.002232 97.20060 424.20160
415.0 0.002410 96.69495 420.28531
407.0 0.002457 96.19940 416.47086
420.0 0.002381 95.71473 412.77704
420.0 0.002381 95.24092 409.22018
434.0 0.002304 94.77872 405.81659
437.0 0.002288 94.32829 402.58249
398.0 0.002513 93.88990 399.53531
411.0 0.002433 93.46433 396.69357
403.0 0.002481 93.05158 394.07562
426.0 0.002347 92.65246 391.69849
418.0 0.002392 92.26702 389.57520
407.0 0.002457 91.89604 387.71417
407.0 0.002457 91.53962 386.11584
434.0 0.002304 91.19849 384.77344
440.0 0.002273 90.87302 383.66998
397.0 0.002519 90.56345 382.78040
385.0 0.002597 90.27055 382.07266
398.0 0.002513 89.99458 381.50900
418.0 0.002392 89.73615 381.05087
386.0 0.002591 89.49563 380.66113
395.0 0.002532 89.27365 380.30777
409.0 0.002445 89.07056 379.96756
402.0 0.002488 88.88702 379.62671
403.0 0.002481 88.72347 379.28192
436.0 0.002294 88.58036 378.93866
379.0 0.002639 88.45837 378.60831
411.0 0.002433 88.35792 378.30582
392.0 0.002551 88.27960 378.04465
397.0 0.002519 88.22399 377.83475
412.0 0.002427 88.19163 377.68057
410.0 0.002439 88.18310 377.57846
378.0 0.002646 88.19897 377.51837
398.0 0.002513 88.23984 377.48328
406.0 0.002463 88.30628 377.45215
413.0 0.002421 88.39892 377.40152
399.0 0.002506 88.51839 377.30884
429.0 0.002331 88.66530 377.15515
417.0 0.002398 88.84032 376.92688
407.0 0.002457 89.04393 376.61914
395.0 0.002532 89.27695 376.23560
359.0 0.002786 89.54005 375.78989
381.0 0.002625 89.83376 375.30478
365.0 0.002740 90.15894 374.81042
393.0 0.002545 90.51608 374.34344
373.0 0.002681 90.90609 373.94247
375.0 0.002667 91.32941 373.64642
401.0 0.002494 91.78706 373.49179
358.0 0.002793 92.27948 373.50815
373.0 0.002681 92.80749 373.71869
390.0 0.002564 93.37213 374.13730
383.0 0.002611 93.97367 374.76779
396.0 0.002525 94.61336 375.60547
414.0 0.002415 95.29152 376.63498
379.0 0.002639 96.00940 377.83502
380.0 0.002632 96.76731 379.17572
418.0 0.002392 97.56628 380.62369
382.0 0.002618 98.40748 382.14221
375.0 0.002667 99.29107 383.69305
381.0 0.002625 100.21859 385.24051
395.0 0.002532 101.19023 386.75208
391.0 0.002558 102.20753 388.20239
411.0 0.002433 103.27058 389.57471
397.0 0.002519 104.38113 390.86426
430.0 0.002326 105.53921 392.07864
369.0 0.002710 106.74616 393.24033
382.0 0.002618 108.00339 394.38547
405.0 0.002469 109.31082 395.56122
434.0 0.002304 110.67047 396.82651
378.0 0.002646 112.08223 398.24564
395.0 0.002532 113.54819 399.88797
392.0 0.002551 115.06811 401.82117
387.0 0.002584 116.64422 404.11185
400.0 0.002500 118.27634 406.81903
387.0 0.002584 119.96603 409.99518
417.0 0.002398 121.71508 413.68469
421.0 0.002375 123.52311 417.92023
389.0 0.002571 125.39264 422.72775
444.0 0.002252 127.32322 428.12222
419.0 0.002387 129.31757 434.11353
406.0 0.002463 131.37509 440.70279
439.0 0.002278 133.49773 447.88870
416.0 0.002404 135.68750 455.66757
413.0 0.002421 137.94382 464.03278
391.0 0.002558 140.26958 472.98035
436.0 0.002294 142.66415 482.50430
433.0 0.002309 145.13062 492.60275
437.0 0.002288 147.66823 503.27078
457.0 0.002188 150.28012 514.50549
448.0 . . .
