#------------------------------------------------------------------------------
#$Date: 2021-04-26 20:55:38 +0300 (Mon, 26 Apr 2021) $
#$Revision: 264550 $
#$URL: file:///home/coder/svn-repositories/cod/cif/7/21/92/7219232.cif $
#------------------------------------------------------------------------------
#
# This file is available in the Crystallography Open Database (COD),
# http://www.crystallography.net/
#
# All data on this site have been placed in the public domain by the
# contributors.
#
data_7219232
loop_
_publ_author_name
'Gon\,calves, R. F.'
'Cavalcante, L. S.'
'Nogueira, I. C.'
'Longo, E.'
'Godinho, M. J.'
'Sczancoski, J. C.'
'Mastelaro, V. R.'
'Pinatti, I. M.'
'Rosa, I. L. V.'
'Marques, A. P. A.'
_publ_section_title
;
 Rietveld refinement, cluster modelling, growth mechanism and
 photoluminescence properties of CaWO4:Eu3+microcrystals
;
_journal_issue                   7
_journal_name_full               CrystEngComm
_journal_page_first              1654
_journal_paper_doi               10.1039/C4CE02279C
_journal_volume                  17
_journal_year                    2015
_chemical_compound_source        Scheelite
_chemical_formula_analytical     'Ca0.96 Eu0.04 O4 W'
_chemical_formula_moiety         'Ca0.96 Eu0.04 O4 W'
_chemical_formula_structural     'Ca0.96 Eu0.04 O4 W'
_chemical_formula_sum            'Ca0.96 Eu0.04 O4 W'
_chemical_formula_weight         292.08
_chemical_melting_point          1886
_chemical_name_common            'Calcium europium tungstate'
_space_group_IT_number           88
_symmetry_cell_setting           tetragonal
_symmetry_space_group_name_Hall  '-I 4ad'
_symmetry_space_group_name_H-M   'I 41/a :2'
_audit_creation_date             2014-08-13T14:31
_audit_creation_method           'from EXP file using GSAS2CIF'
_audit_update_record
;
2014-12-23 deposited with the CCDC.
2015-01-05 downloaded from the CCDC.
;
_cell_angle_alpha                90.0
_cell_angle_beta                 90.0
_cell_angle_gamma                90.0
_cell_formula_units_Z            4
_cell_length_a                   5.24682(4)
_cell_length_b                   5.24682
_cell_length_c                   11.38143(16)
_cell_measurement_temperature    298
_cell_volume                     313.321(5)
_computing_data_collection       Jade
_computing_data_reduction        Jade
_computing_structure_refinement  GSAS
_computing_structure_solution    xx
_diffrn_ambient_temperature      298
_diffrn_detector                 scintillation
_diffrn_detector_type            scintillation
_diffrn_measurement_device_type  'Rigaku AFC-7R'
_diffrn_radiation_monochromator  xx
_diffrn_radiation_polarisn_ratio 0.5
_diffrn_radiation_probe          x-ray
_diffrn_source                   Cu
_diffrn_source_target            Cu
_diffrn_source_type              Copper
_exptl_absorpt_correction_T_max  0.97834
_exptl_absorpt_correction_T_min  0.68270
_exptl_absorpt_process_details
;   GSAS Absorption/surface roughness correction: function number 3
 Surface roughness abs. correction (Suortti)
Terms =     0.53915        0.37748    
Correction is refined.
;
_exptl_crystal_density_diffrn    6.12
_exptl_crystal_density_meas      6.12
_exptl_crystal_density_method    'not measured'
_exptl_crystal_F_000             276
_pd_block_id                     2014-08-13T14:31|4%EU|Icamira|Rigaku
_pd_calc_method                  'Rietveld Refinement'
_pd_char_colour                  white
_pd_char_particle_morphology     irregular
_pd_instr_location               ' ?'
_pd_meas_2theta_range_inc        0.02
_pd_meas_2theta_range_max        110.0
_pd_meas_2theta_range_min        10.0
_pd_meas_number_of_points        5001
_pd_meas_scan_method             disp
_pd_phase_name
'from C:/Ref_CaWO4/CW-4%Eu/EntryWithCollCode18135.cif'
_pd_prep_cool_rate               1
_pd_prep_pressure                100
_pd_prep_temperature             298
_pd_proc_2theta_range_inc        0.02
_pd_proc_2theta_range_max        110.0
_pd_proc_2theta_range_min        10.0
_pd_proc_info_data_reduction     Jade
_pd_proc_info_datetime           2014-10-03T14:31:47
_pd_proc_info_excluded_regions   ' ?'
_pd_proc_ls_background_function
;   GSAS Background function number 1 with  6 terms.
 Shifted Chebyshev function of 1st kind
      1:    235.825     2:   -96.3610     3:    58.8736     4:   -16.6930    
      5:    13.0885     6:    2.54907    
;
_pd_proc_ls_peak_cutoff          0.00030
_pd_proc_ls_profile_function
;
 CW Profile function number 4 with  17 terms
 Pseudovoigt profile coefficients as parameterized in
 P. Thompson, D.E. Cox & J.B. Hastings (1987). J. Appl. Cryst.,20,79-83.
 Asymmetry correction of L.W. Finger, D.E. Cox & A. P. Jephcoat (1994).
 J. Appl. Cryst.,27,892-900.
 Microstrain broadening by P.W. Stephens,  (1999). J. Appl. Cryst.,32,281-289.
 Peak tails are ignored  where the intensity is below 0.0003 times the peak
   Aniso. broadening axis   0.0   0.0   1.0
;
_pd_proc_number_of_points        5001
_pd_spec_mounting                ' ?'
_refine_ls_goodness_of_fit_all   1.97
_refine_ls_goodness_of_fit_ref   1.97
_refine_ls_matrix_type           full
_refine_ls_number_parameters     18
_refine_ls_number_restraints     0
_refine_ls_R_factor_all          0.0472
_refine_ls_R_factor_gt           0.0322
_refine_ls_R_Fsqd_factor         0.02350
_refine_ls_shift/su_max          0.10
_refine_ls_shift/su_mean         0.02
_refine_ls_wR_factor_gt          0.0633
_reflns_d_resolution_high        0.944
_reflns_d_resolution_low         4.765
_reflns_limit_h_max              5
_reflns_limit_h_min              0
_reflns_limit_k_max              5
_reflns_limit_k_min              0
_reflns_limit_l_max              12
_reflns_limit_l_min              0
_reflns_number_total             204
_cod_data_source_file            c4ce02279c2.cif
_cod_data_source_block           4%EU_publ
_cod_depositor_comments
;
The following automatic conversions were performed:

'_geom_bond_publ_flag' value 'N' changed to 'n' according to
/usr/data/users/saulius/crontab/automatic-downloads/rss-feeds/RSC/lib/dictionaries/cif_core.dic
dictionary named 'cif_core.dic' version 2.4.2 from 2011-04-26 (49
times).

'_geom_angle_publ_flag' value 'N' changed to 'n' according
to
/usr/data/users/saulius/crontab/automatic-downloads/rss-feeds/RSC/lib/dictionaries/cif_core.dic
dictionary named 'cif_core.dic' version 2.4.2 from 2011-04-26 (183
times).

Automatic conversion script
Id: cif_fix_values 2935 2014-11-11 08:27:57Z andrius 

 Adding full bibliography for 7219229--7219232.cif.

 Removed the _chemical_name_systematic data item since
 it had an incorrect value 'xx'.

 Antanas Vaitkus,
 2021-04-26
;
_cod_original_cell_volume        313.321(7)
_cod_original_sg_symbol_Hall     -I4ad
_cod_original_sg_symbol_H-M      'I 41/a'
_cod_database_code               7219232
loop_
_symmetry_equiv_pos_site_id
_symmetry_equiv_pos_as_xyz
1 +x,+y,+z
2 -y+3/4,+x+1/4,+z+1/4
3 -x+1/2,-y,+z+1/2
4 +y+3/4,-x+3/4,+z+3/4
-1 -x,-y,-z
-2 +y+1/4,-x+3/4,-z+3/4
-3 +x+1/2,+y,-z+1/2
-4 -y+1/4,+x+1/4,-z+1/4
101 +x+1/2,+y+1/2,+z+1/2
102 -y+1/4,+x+3/4,+z+3/4
103 -x,-y+1/2,+z
104 +y+1/4,-x+1/4,+z+1/4
-101 -x+1/2,-y+1/2,-z+1/2
-102 +y+3/4,-x+1/4,-z+1/4
-103 +x,+y+1/2,-z
-104 -y+3/4,+x+3/4,-z+3/4
loop_
_atom_site_type_symbol
_atom_site_label
_atom_site_fract_x
_atom_site_fract_y
_atom_site_fract_z
_atom_site_occupancy
_atom_site_thermal_displace_type
_atom_site_U_iso_or_equiv
_atom_site_symmetry_multiplicity
Ca Ca1 0.0 0.25 0.625 0.96289 Uiso 0.01306 4
W W1 0.0 0.25 0.125 1.0 Uiso 0.01342 4
O O1 0.15111 0.01461 0.2089 1.0 Uiso 0.02403 16
Eu EU1 0.0 0.25 0.625 0.03711 Uiso 0.03426 4
loop_
_atom_type_symbol
_atom_type_number_in_cell
_atom_type_scat_dispersion_real
_atom_type_scat_dispersion_imag
_atom_type_scat_Cromer_Mann_a1
_atom_type_scat_Cromer_Mann_a2
_atom_type_scat_Cromer_Mann_a3
_atom_type_scat_Cromer_Mann_a4
_atom_type_scat_Cromer_Mann_b1
_atom_type_scat_Cromer_Mann_b2
_atom_type_scat_Cromer_Mann_b3
_atom_type_scat_Cromer_Mann_b4
_atom_type_scat_Cromer_Mann_c
_atom_type_scat_source
Ca 3.852 0.000 0.000 15.6348 -0.0074 7.95180 0.60890 8.43720 10.3116 0.85370
25.9905 -14.875 International_Tables_Vol_C
W 4.0 0.000 0.000 29.4936 1.42755 19.3763 0.10462 13.0544 5.93667 5.06412
11.1972 1.01074 International_Tables_Vol_C
O 16.0 0.000 0.000 3.76936 15.0797 2.53342 6.30430 1.91579 40.3445 1.55094
0.31291 0.22789 International_Tables_Vol_C
Eu 0.148 0.000 0.000 24.6274 2.38790 19.0886 0.19420 13.7603 13.7546 2.92270
123.174 2.57450 International_Tables_Vol_C
loop_
_diffrn_radiation_wavelength
_diffrn_radiation_wavelength_wt
_diffrn_radiation_type
_diffrn_radiation_wavelength_id
1.540500 1.000 CuK\a 1
1.544300 0.500 CuK\a 2
loop_
_geom_angle_atom_site_label_1
_geom_angle_atom_site_label_2
_geom_angle_atom_site_label_3
_geom_angle
_geom_angle_site_symmetry_1
_geom_angle_site_symmetry_3
_geom_angle_publ_flag
Ca1 Ca1 Ca1 85.3519(9) 2_455 2_555 n
Ca1 Ca1 Ca1 122.7189(6) 2_455 4_444 n
Ca1 Ca1 Ca1 122.7189(6) 2_455 4_454 n
Ca1 Ca1 O1 100.4422(9) 2_455 2_455 n
Ca1 Ca1 O1 102.5059(7) 2_455 3_555 n
Ca1 Ca1 O1 38.8829(4) 2_455 -1_556 n
Ca1 Ca1 O1 131.33250(10) 2_455 -2_555 n
Ca1 Ca1 O1 38.6568 2_455 101_455 n
Ca1 Ca1 EU1 0.0 2_455 2_455 n
Ca1 Ca1 EU1 85.3519(9) 2_455 2_555 n
Ca1 Ca1 EU1 122.7189(6) 2_455 4_444 n
Ca1 Ca1 EU1 122.7189(6) 2_455 4_454 n
Ca1 Ca1 Ca1 122.7189(6) 2_555 4_444 n
Ca1 Ca1 Ca1 122.7189(6) 2_555 4_454 n
Ca1 Ca1 O1 160.29930(20) 2_555 2_455 n
Ca1 Ca1 O1 38.6568 2_555 3_555 n
Ca1 Ca1 O1 69.8621(7) 2_555 -1_556 n
Ca1 Ca1 O1 84.4873(6) 2_555 -2_555 n
Ca1 Ca1 O1 102.5059(7) 2_555 101_455 n
Ca1 Ca1 O1 131.33250(10) 2_555 -104_445 n
Ca1 Ca1 EU1 85.3519(9) 2_555 2_455 n
Ca1 Ca1 EU1 0.0 2_555 2_555 n
Ca1 Ca1 EU1 122.7189(6) 2_555 4_444 n
Ca1 Ca1 EU1 122.7189(6) 2_555 4_454 n
Ca1 Ca1 Ca1 85.3519(9) 4_444 4_454 n
Ca1 Ca1 O1 69.8621(7) 4_444 2_455 n
Ca1 Ca1 O1 84.4873(6) 4_444 3_555 n
Ca1 Ca1 O1 100.4422(9) 4_444 -1_556 n
Ca1 Ca1 O1 102.5059(7) 4_444 -2_555 n
Ca1 Ca1 O1 131.33250(10) 4_444 101_455 n
Ca1 Ca1 EU1 122.7189(6) 4_444 2_455 n
Ca1 Ca1 EU1 122.7189(6) 4_444 2_555 n
Ca1 Ca1 EU1 0.0 4_444 4_444 n
Ca1 Ca1 EU1 85.3519(9) 4_444 4_454 n
Ca1 Ca1 O1 38.8829(4) 4_454 2_455 n
Ca1 Ca1 O1 131.33250(10) 4_454 3_555 n
Ca1 Ca1 O1 160.29930(20) 4_454 -1_556 n
Ca1 Ca1 O1 38.6568 4_454 -2_555 n
Ca1 Ca1 O1 84.4873(6) 4_454 101_455 n
Ca1 Ca1 O1 69.8621(7) 4_454 104_333 n
Ca1 Ca1 O1 102.5059(7) 4_454 -104_445 n
Ca1 Ca1 EU1 122.7189(6) 4_454 2_455 n
Ca1 Ca1 EU1 122.7189(6) 4_454 2_555 n
Ca1 Ca1 EU1 85.3519(9) 4_454 4_444 n
Ca1 Ca1 EU1 0.0 4_454 4_454 n
O1 Ca1 O1 152.16890(10) 2_455 3_555 n
O1 Ca1 O1 125.6615(6) 2_455 -1_556 n
O1 Ca1 O1 77.5397(4) 2_455 -2_555 n
O1 Ca1 O1 72.6499(8) 2_455 101_455 n
O1 Ca1 O1 68.26250(30) 2_455 -104_445 n
O1 Ca1 EU1 100.4422(9) 2_455 2_455 n
O1 Ca1 EU1 160.29930(20) 2_455 2_555 n
O1 Ca1 EU1 69.8621(7) 2_455 4_444 n
O1 Ca1 EU1 38.8829(4) 2_455 4_454 n
O1 Ca1 O1 68.26250(30) 3_555 -1_556 n
O1 Ca1 O1 98.47130(20) 3_555 -2_555 n
O1 Ca1 O1 134.8596(7) 3_555 101_455 n
O1 Ca1 O1 98.47130(20) 3_555 -104_445 n
O1 Ca1 EU1 102.5059(7) 3_555 2_455 n
O1 Ca1 EU1 38.6568 3_555 2_555 n
O1 Ca1 EU1 84.4873(6) 3_555 4_444 n
O1 Ca1 EU1 131.33250(10) 3_555 4_454 n
O1 Ca1 O1 152.16879(10) -1_556 -2_555 n
O1 Ca1 O1 77.5397(4) -1_556 101_455 n
O1 Ca1 O1 72.6499(8) -1_556 -104_445 n
O1 Ca1 EU1 38.8829(4) -1_556 2_455 n
O1 Ca1 EU1 69.8621(7) -1_556 2_555 n
O1 Ca1 EU1 100.4422(9) -1_556 4_444 n
O1 Ca1 EU1 160.29930(20) -1_556 4_454 n
O1 Ca1 O1 98.47130(20) -2_555 101_455 n
O1 Ca1 O1 134.8596(7) -2_555 -104_445 n
O1 Ca1 EU1 38.6568 -2_766 4_454 n
O1 Ca1 O1 98.47130(20) 101_455 -104_445 n
O1 Ca1 EU1 38.6568 101_455 2_455 n
O1 Ca1 EU1 102.5059(7) 101_455 2_555 n
O1 Ca1 EU1 131.33250(10) 101_455 4_444 n
O1 Ca1 EU1 84.4873(6) 101_455 4_454 n
O1 Ca1 EU1 84.4873(6) -104_656 2_455 n
O1 Ca1 EU1 38.6568 -104_656 4_444 n
EU1 Ca1 EU1 85.3519(9) 2_455 2_555 n
EU1 Ca1 EU1 122.7189(6) 2_455 4_444 n
EU1 Ca1 EU1 122.7189(6) 2_455 4_454 n
EU1 Ca1 EU1 122.7189(6) 2_555 4_444 n
EU1 Ca1 EU1 122.7189(6) 2_555 4_454 n
EU1 Ca1 EU1 85.3519(9) 4_444 4_454 n
O1 W1 O1 107.3038(4) 1_555 -4_555 n
Ca1 O1 Ca1 102.4603(4) 3_554 4_444 n
Ca1 O1 W1 121.1594(7) 3_554 1_555 n
Ca1 O1 EU1 0.0 3_554 3_554 n
Ca1 O1 EU1 102.4603(4) 3_554 4_444 n
Ca1 O1 W1 131.83170(30) 4_444 1_555 n
Ca1 O1 EU1 102.4603(4) 4_444 3_554 n
Ca1 O1 EU1 0.0 4_444 4_444 n
W1 O1 EU1 121.1594(7) 1_555 3_554 n
W1 O1 EU1 131.83170(30) 1_555 4_444 n
EU1 O1 EU1 102.4603(4) 3_554 4_444 n
Ca1 EU1 Ca1 85.3519(9) 2_455 2_555 n
Ca1 EU1 Ca1 122.7189(6) 2_455 4_444 n
Ca1 EU1 Ca1 122.7189(6) 2_455 4_454 n
Ca1 EU1 O1 100.4422(9) 2_455 2_455 n
Ca1 EU1 O1 102.5059(7) 2_455 3_555 n
Ca1 EU1 O1 38.8829(4) 2_455 -1_556 n
Ca1 EU1 O1 131.33250(10) 2_455 -2_555 n
Ca1 EU1 O1 38.6568 2_455 101_455 n
Ca1 EU1 O1 84.4873(6) 2_455 -104_445 n
Ca1 EU1 EU1 0.0 2_455 2_455 n
Ca1 EU1 EU1 85.3519(9) 2_455 2_555 n
Ca1 EU1 EU1 122.7189(6) 2_455 4_444 n
Ca1 EU1 EU1 122.7189(6) 2_455 4_454 n
Ca1 EU1 Ca1 122.7189(6) 2_555 4_444 n
Ca1 EU1 Ca1 122.7189(6) 2_555 4_454 n
Ca1 EU1 O1 160.29930(20) 2_555 2_455 n
Ca1 EU1 O1 38.6568 2_555 3_555 n
Ca1 EU1 O1 69.8621(7) 2_555 -1_556 n
Ca1 EU1 O1 84.4873(6) 2_555 -2_555 n
Ca1 EU1 O1 102.5059(7) 2_555 101_455 n
Ca1 EU1 O1 131.33250(10) 2_555 -104_445 n
Ca1 EU1 EU1 85.3519(9) 2_555 2_455 n
Ca1 EU1 EU1 0.0 2_555 2_555 n
Ca1 EU1 EU1 122.7189(6) 2_555 4_444 n
Ca1 EU1 EU1 122.7189(6) 2_555 4_454 n
Ca1 EU1 Ca1 85.3519(9) 4_444 4_454 n
Ca1 EU1 O1 69.8621(7) 4_444 2_455 n
Ca1 EU1 O1 84.4873(6) 4_444 3_555 n
Ca1 EU1 O1 100.4422(9) 4_444 -1_556 n
Ca1 EU1 O1 102.5059(7) 4_444 -2_555 n
Ca1 EU1 O1 131.33250(10) 4_444 101_455 n
Ca1 EU1 O1 38.6568 4_444 -104_445 n
Ca1 EU1 EU1 122.7189(6) 4_444 2_455 n
Ca1 EU1 EU1 122.7189(6) 4_444 2_555 n
Ca1 EU1 EU1 0.0 4_444 4_444 n
Ca1 EU1 EU1 85.3519(9) 4_444 4_454 n
Ca1 EU1 O1 38.8829(4) 4_454 2_455 n
Ca1 EU1 O1 131.33250(10) 4_454 3_555 n
Ca1 EU1 O1 160.29930(20) 4_454 -1_556 n
Ca1 EU1 O1 38.6568 4_454 -2_555 n
Ca1 EU1 O1 84.4873(6) 4_454 101_455 n
Ca1 EU1 O1 69.8621(7) 4_454 104_333 n
Ca1 EU1 O1 102.5059(7) 4_454 -104_445 n
Ca1 EU1 EU1 122.7189(6) 4_454 2_455 n
Ca1 EU1 EU1 122.7189(6) 4_454 2_555 n
Ca1 EU1 EU1 85.3519(9) 4_454 4_444 n
Ca1 EU1 EU1 0.0 4_454 4_454 n
O1 EU1 O1 152.16890(10) 2_455 3_555 n
O1 EU1 O1 125.6615(6) 2_455 -1_556 n
O1 EU1 O1 77.5397(4) 2_455 -2_555 n
O1 EU1 O1 72.6499(8) 2_455 101_455 n
O1 EU1 O1 68.26250(30) 2_455 -104_445 n
O1 EU1 EU1 100.4422(9) 2_455 2_455 n
O1 EU1 EU1 160.29930(20) 2_455 2_555 n
O1 EU1 EU1 69.8621(7) 2_455 4_444 n
O1 EU1 EU1 38.8829(4) 2_455 4_454 n
O1 EU1 O1 68.26250(30) 3_555 -1_556 n
O1 EU1 O1 98.47130(20) 3_555 -2_555 n
O1 EU1 O1 134.8596(7) 3_555 101_455 n
O1 EU1 O1 98.47130(20) 3_555 -104_445 n
O1 EU1 EU1 102.5059(7) 3_555 2_455 n
O1 EU1 EU1 38.6568 3_555 2_555 n
O1 EU1 EU1 84.4873(6) 3_555 4_444 n
O1 EU1 EU1 131.33250(10) 3_555 4_454 n
O1 EU1 O1 152.16879(10) -1_556 -2_555 n
O1 EU1 O1 77.5397(4) -1_556 101_455 n
O1 EU1 O1 72.6499(8) -1_556 -104_445 n
O1 EU1 EU1 38.8829(4) -1_556 2_455 n
O1 EU1 EU1 69.8621(7) -1_556 2_555 n
O1 EU1 EU1 100.4422(9) -1_556 4_444 n
O1 EU1 EU1 160.29930(20) -1_556 4_454 n
O1 EU1 O1 98.47130(20) -2_555 101_455 n
O1 EU1 O1 134.8596(7) -2_555 -104_445 n
O1 EU1 EU1 38.6568 -2_766 4_454 n
O1 EU1 O1 98.47130(20) 101_455 -104_445 n
O1 EU1 EU1 38.6568 101_455 2_455 n
O1 EU1 EU1 102.5059(7) 101_455 2_555 n
O1 EU1 EU1 131.33250(10) 101_455 4_444 n
O1 EU1 EU1 84.4873(6) 101_455 4_454 n
O1 EU1 EU1 84.4873(6) -104_656 2_455 n
O1 EU1 EU1 38.6568 -104_656 4_444 n
EU1 EU1 EU1 85.3519(9) 2_455 2_555 n
EU1 EU1 EU1 122.7189(6) 2_455 4_444 n
EU1 EU1 EU1 122.7189(6) 2_455 4_454 n
EU1 EU1 EU1 122.7189(6) 2_555 4_444 n
EU1 EU1 EU1 122.7189(6) 2_555 4_454 n
EU1 EU1 EU1 85.3519(9) 4_444 4_454 n
loop_
_geom_bond_atom_site_label_1
_geom_bond_atom_site_label_2
_geom_bond_distance
_geom_bond_site_symmetry_2
_geom_bond_publ_flag
Ca1 Ca1 3.870190(30) 2_455 n
Ca1 Ca1 3.870190(30) 2_555 n
Ca1 Ca1 3.870190(30) 4_444 n
Ca1 Ca1 3.870190(30) 4_454 n
Ca1 W1 3.710060(30) 3_455 n
Ca1 W1 3.710060(30) 3_465 n
Ca1 W1 3.710060(30) 3_555 n
Ca1 W1 3.710060(30) 3_565 n
Ca1 O1 2.475840(20) 2_455 n
Ca1 O1 2.488040(20) 3_555 n
Ca1 O1 2.475840(20) -1_556 n
Ca1 O1 2.488040(20) -2_555 n
Ca1 O1 2.488040(20) 101_455 n
Ca1 O1 2.475840(20) 104_555 n
Ca1 EU1 3.870190(30) 2_455 n
Ca1 EU1 3.870190(30) 2_555 n
Ca1 EU1 3.870190(30) 4_444 n
Ca1 EU1 3.870190(30) 4_454 n
W1 Ca1 3.710060(30) 3_454 n
W1 Ca1 3.710060(30) 3_464 n
W1 Ca1 3.710060(30) 3_554 n
W1 Ca1 3.710060(30) 3_564 n
W1 EU1 3.710060(30) 3_454 n
W1 EU1 3.710060(30) 3_464 n
W1 EU1 3.710060(30) 3_554 n
W1 EU1 3.710060(30) 3_564 n
O1 Ca1 2.488040(20) 3_554 n
O1 Ca1 2.475840(20) 4_444 n
O1 W1 1.750980(10) 1_555 n
O1 EU1 2.488040(20) 3_554 n
O1 EU1 2.475840(20) 4_444 n
EU1 Ca1 3.870190(30) 2_455 n
EU1 Ca1 3.870190(30) 2_555 n
EU1 Ca1 3.870190(30) 4_444 n
EU1 Ca1 3.870190(30) 4_454 n
EU1 W1 3.710060(30) 3_455 n
EU1 W1 3.710060(30) 3_465 n
EU1 W1 3.710060(30) 3_555 n
EU1 W1 3.710060(30) 3_565 n
EU1 O1 2.475840(20) 2_455 n
EU1 O1 2.488040(20) 3_555 n
EU1 O1 2.475840(20) -1_556 n
EU1 O1 2.488040(20) -2_555 n
EU1 O1 2.488040(20) 101_455 n
EU1 O1 2.475840(20) 104_555 n
EU1 EU1 3.870190(30) 2_455 n
EU1 EU1 3.870190(30) 2_555 n
EU1 EU1 3.870190(30) 4_444 n
EU1 EU1 3.870190(30) 4_454 n
loop_
_pd_meas_counts_total
_pd_proc_ls_weight
_pd_proc_intensity_bkg_calc
_pd_calc_intensity_total
557.0 0.001795 418.29202 418.28104
465.0 0.002151 418.04099 418.03012
496.0 0.002016 417.79007 417.77930
484.0 0.002066 417.53937 417.52869
498.0 0.002008 417.28891 417.27829
465.0 0.002151 417.03854 417.02808
510.0 0.001961 416.78845 416.77811
465.0 0.002151 416.53848 416.52826
488.0 0.002049 416.28873 416.27856
452.0 0.002212 416.03915 416.02908
476.0 0.002101 415.78979 415.77988
475.0 0.002105 415.54062 415.53073
480.0 0.002083 415.29156 415.28183
464.0 0.002155 415.04279 415.03311
451.0 0.002217 414.79413 414.78458
499.0 0.002004 414.54568 414.53625
472.0 0.002119 414.29742 414.28812
485.0 0.002062 414.04935 414.04010
474.0 0.002110 413.80145 413.79236
472.0 0.002119 413.55383 413.54477
486.0 0.002058 413.30624 413.29733
481.0 0.002079 413.05893 413.05008
467.0 0.002141 412.81186 412.80307
446.0 0.002242 412.56485 412.55621
418.0 0.002392 412.31812 412.30957
480.0 0.002083 412.07150 412.06305
482.0 0.002075 411.82513 411.81677
455.0 0.002198 411.57895 411.57065
466.0 0.002146 411.33292 411.32474
455.0 0.002198 411.08710 411.07901
458.0 0.002183 410.84140 410.83347
477.0 0.002096 410.59598 410.58813
483.0 0.002070 410.35071 410.34293
487.0 0.002053 410.10562 410.09796
466.0 0.002146 409.86072 409.85315
464.0 0.002155 409.61600 409.60849
471.0 0.002123 409.37146 409.36407
478.0 0.002092 409.12717 409.11987
488.0 0.002049 408.88300 408.87579
492.0 0.002033 408.63901 408.63193
481.0 0.002079 408.39523 408.38824
459.0 0.002179 408.15167 408.14471
431.0 0.002320 407.90820 407.90140
406.0 0.002463 407.66501 407.65826
425.0 0.002353 407.42197 407.41534
447.0 0.002237 407.17911 407.17255
431.0 0.002320 406.93646 406.92999
446.0 0.002242 406.69397 406.68759
504.0 0.001984 406.45166 406.44537
430.0 0.002326 406.20953 406.20340
455.0 0.002198 405.96759 405.96155
431.0 0.002320 405.72589 405.71985
437.0 0.002288 405.48428 405.47839
426.0 0.002347 405.24295 405.23712
423.0 0.002364 405.00177 404.99603
424.0 0.002358 404.76074 404.75513
381.0 0.002625 404.51993 404.51437
439.0 0.002278 404.27933 404.27386
446.0 0.002242 404.03888 404.03351
456.0 0.002193 403.79858 403.79330
417.0 0.002398 403.55850 403.55334
441.0 0.002268 403.31860 403.31354
426.0 0.002347 403.07892 403.07391
405.0 0.002469 402.83939 402.83447
464.0 0.002155 402.60004 402.59521
405.0 0.002469 402.36090 402.35611
401.0 0.002494 402.12195 402.11728
444.0 0.002252 401.88315 401.87857
424.0 0.002358 401.64453 401.64008
384.0 0.002604 401.40613 401.40173
438.0 0.002283 401.16788 401.16357
441.0 0.002268 400.92984 400.92560
440.0 0.002273 400.69199 400.68781
459.0 0.002179 400.45428 400.45026
405.0 0.002469 400.21680 400.21283
387.0 0.002584 399.97952 399.97565
440.0 0.002273 399.74237 399.73859
424.0 0.002358 399.50537 399.50171
421.0 0.002375 399.26868 399.26501
401.0 0.002494 399.03207 399.02856
387.0 0.002584 398.79572 398.79221
447.0 0.002237 398.55951 398.55612
437.0 0.002288 398.32346 398.32016
442.0 0.002262 398.08765 398.08438
412.0 0.002427 397.85196 397.84882
425.0 0.002353 397.61649 397.61346
438.0 0.002283 397.38120 397.37820
413.0 0.002421 397.14609 397.14319
432.0 0.002315 396.91116 396.90836
411.0 0.002433 396.67642 396.67371
425.0 0.002353 396.44183 396.43921
413.0 0.002421 396.20749 396.20493
417.0 0.002398 395.97327 395.97083
415.0 0.002410 395.73932 395.73688
379.0 0.002639 395.50546 395.50314
413.0 0.002421 395.27179 395.26956
393.0 0.002545 395.03833 395.03613
384.0 0.002604 394.80508 394.80298
445.0 0.002247 394.57199 394.56998
396.0 0.002525 394.33911 394.33716
412.0 0.002427 394.10635 394.10452
419.0 0.002387 393.87378 393.87204
380.0 0.002632 393.64142 393.63971
369.0 0.002710 393.40921 393.40762
391.0 0.002558 393.17725 393.17572
361.0 0.002770 392.94543 392.94397
395.0 0.002532 392.71384 392.71243
365.0 0.002740 392.48233 392.48102
383.0 0.002611 392.25107 392.24988
358.0 0.002793 392.01999 392.01883
399.0 0.002506 391.78906 391.78796
392.0 0.002551 391.55832 391.55737
375.0 0.002667 391.32782 391.32693
406.0 0.002463 391.09741 391.09659
410.0 0.002439 390.86725 390.86652
374.0 0.002674 390.63724 390.63663
409.0 0.002445 390.40750 394.79211
384.0 0.002604 390.17780 394.59033
377.0 0.002653 389.94836 396.56836
385.0 0.002597 389.71909 396.38132
371.0 0.002695 389.49005 396.19482
414.0 0.002415 389.26108 396.00891
408.0 0.002451 389.03238 395.82361
391.0 0.002558 388.80383 395.63892
406.0 0.002463 388.57550 395.45486
388.0 0.002577 388.34729 395.27130
371.0 0.002695 388.11929 395.08847
370.0 0.002703 387.89145 394.90625
357.0 0.002801 387.66385 394.72452
352.0 0.002841 387.43640 394.54361
386.0 0.002591 387.20911 394.36328
414.0 0.002415 386.98196 394.18350
372.0 0.002688 386.75507 394.00449
385.0 0.002597 386.52832 393.82611
336.0 0.002976 386.30182 393.64838
377.0 0.002653 386.07541 393.47131
336.0 0.002976 385.84924 393.29495
350.0 0.002857 385.62320 393.11923
381.0 0.002625 385.39737 392.94424
398.0 0.002513 385.17172 392.76990
378.0 0.002646 384.94626 392.59631
399.0 0.002506 384.72101 392.42343
376.0 0.002660 384.49588 392.25125
374.0 0.002674 384.27094 392.07980
365.0 0.002740 384.04620 391.90906
375.0 0.002667 383.82162 391.73911
350.0 0.002857 383.59723 391.56985
379.0 0.002639 383.37305 391.40143
382.0 0.002618 383.14899 391.23370
380.0 0.002632 382.92514 391.06680
392.0 0.002551 382.70145 390.90063
377.0 0.002653 382.47797 390.73529
390.0 0.002564 382.25467 390.57071
405.0 0.002469 382.03152 390.40698
357.0 0.002801 381.80856 390.24408
368.0 0.002717 381.58578 390.08188
355.0 0.002817 381.36322 389.92065
409.0 0.002445 381.14075 389.76022
354.0 0.002825 380.91858 389.60062
353.0 0.002833 380.69650 389.44193
356.0 0.002809 380.47464 389.28409
372.0 0.002688 380.25296 389.12717
362.0 0.002762 380.03143 388.97107
360.0 0.002778 379.81012 388.81592
344.0 0.002907 379.58896 388.66162
352.0 0.002841 379.36795 388.50833
371.0 0.002695 379.14719 388.35596
347.0 0.002882 378.92651 388.20450
358.0 0.002793 378.70609 388.05402
382.0 0.002618 378.48584 387.90451
382.0 0.002618 378.26572 387.75601
348.0 0.002874 378.04587 387.60846
363.0 0.002755 377.82608 387.46198
384.0 0.002604 377.60651 387.31647
402.0 0.002488 377.38721 387.17203
369.0 0.002710 377.16800 387.02863
375.0 0.002667 376.94894 386.88626
385.0 0.002597 376.73016 386.74496
407.0 0.002457 376.51151 386.60483
355.0 0.002817 376.29297 386.46570
348.0 0.002874 376.07468 386.32776
356.0 0.002809 375.85657 386.19089
394.0 0.002538 375.63864 386.05518
367.0 0.002725 375.42084 385.92068
368.0 0.002717 375.20325 385.78732
404.0 0.002475 374.98581 385.65518
380.0 0.002632 374.76859 385.52423
344.0 0.002907 374.55154 385.39456
374.0 0.002674 374.33466 385.26602
403.0 0.002481 374.11798 385.13882
398.0 0.002513 373.90143 385.01288
380.0 0.002632 373.68509 384.88821
393.0 0.002545 373.46893 384.76492
357.0 0.002801 373.25296 384.64297
381.0 0.002625 373.03708 384.52234
389.0 0.002571 372.82144 384.40308
367.0 0.002725 372.60599 384.28519
363.0 0.002755 372.39075 384.16873
382.0 0.002618 372.17560 384.05377
378.0 0.002646 371.96072 383.94019
395.0 0.002532 371.74591 383.82809
377.0 0.002653 371.53134 383.71753
404.0 0.002475 371.31693 383.60846
359.0 0.002786 371.10275 383.50098
414.0 0.002415 370.88864 383.39505
390.0 0.002564 370.67480 383.29074
377.0 0.002653 370.46109 383.18799
382.0 0.002618 370.24759 383.08688
392.0 0.002551 370.03424 382.98752
394.0 0.002538 369.82104 382.88983
388.0 0.002577 369.60812 382.79379
370.0 0.002703 369.39529 382.69968
382.0 0.002618 369.18265 382.60715
401.0 0.002494 368.97015 382.51654
374.0 0.002674 368.75790 382.42776
397.0 0.002519 368.54581 382.34082
420.0 0.002381 368.33386 382.25583
368.0 0.002717 368.12207 382.17279
393.0 0.002545 367.91049 382.09164
377.0 0.002653 367.69910 382.01251
355.0 0.002817 367.48782 381.93546
396.0 0.002525 367.27682 381.86044
374.0 0.002674 367.06595 381.78754
327.0 0.003058 366.85522 381.71677
357.0 0.002801 366.64468 381.64819
366.0 0.002732 366.43436 381.58179
344.0 0.002907 366.22415 381.51773
370.0 0.002703 366.01416 381.45590
350.0 0.002857 365.80432 381.39639
376.0 0.002660 365.59467 381.33936
373.0 0.002681 365.38516 381.28461
372.0 0.002688 365.17590 381.23242
346.0 0.002890 364.96677 381.18274
395.0 0.002532 364.75784 381.13562
346.0 0.002890 364.54904 381.09109
347.0 0.002882 364.34042 381.04922
360.0 0.002778 364.13202 381.01007
385.0 0.002597 363.92374 380.97369
374.0 0.002674 363.71567 380.94012
353.0 0.002833 363.50775 380.90936
386.0 0.002591 363.30002 380.88153
354.0 0.002825 363.09244 380.85675
331.0 0.003021 362.88504 380.83493
381.0 0.002625 362.67789 380.81628
355.0 0.002817 362.47083 380.80072
336.0 0.002976 362.26398 380.78839
345.0 0.002899 362.05728 380.77942
371.0 0.002695 361.85080 380.77374
372.0 0.002688 361.64441 380.77148
397.0 0.002519 361.43826 380.77274
345.0 0.002899 361.23230 380.77750
335.0 0.002985 361.02643 380.78592
357.0 0.002801 360.82077 380.79810
361.0 0.002770 360.61536 380.81412
362.0 0.002762 360.41003 380.83389
329.0 0.003040 360.20499 380.85767
348.0 0.002874 359.99997 380.88553
333.0 0.003003 359.79520 380.91745
347.0 0.002882 359.59061 380.95364
360.0 0.002778 359.38614 380.99414
384.0 0.002604 359.18188 381.03897
311.0 0.003215 358.97784 381.08841
349.0 0.002865 358.77390 381.14243
317.0 0.003155 358.57016 381.20105
365.0 0.002740 358.36661 381.26468
348.0 0.002874 358.16321 381.33313
374.0 0.002674 357.95999 381.40659
340.0 0.002941 357.75696 381.48526
351.0 0.002849 357.55411 381.56921
371.0 0.002695 357.35135 381.65851
356.0 0.002809 357.14883 381.75342
402.0 0.002488 356.94647 381.85397
384.0 0.002604 356.74429 381.96030
396.0 0.002525 356.54230 382.07257
340.0 0.002941 356.34042 382.19092
359.0 0.002786 356.13876 382.31549
327.0 0.003058 355.93729 382.44644
321.0 0.003115 355.73593 382.58398
329.0 0.003040 355.53479 382.72818
383.0 0.002611 355.33380 382.87924
350.0 0.002857 355.13300 383.03745
342.0 0.002924 354.93237 383.20279
342.0 0.002924 354.73187 383.37558
325.0 0.003077 354.53165 383.55600
360.0 0.002778 354.33145 383.74417
336.0 0.002976 354.13156 383.94043
387.0 0.002584 353.93176 384.14490
381.0 0.002625 353.73218 384.35779
348.0 0.002874 353.53268 384.57938
346.0 0.002890 353.33344 384.80988
375.0 0.002667 353.13440 385.04950
386.0 0.002591 352.93542 385.29855
357.0 0.002801 352.73666 385.55728
344.0 0.002907 352.53809 385.82590
351.0 0.002849 352.33966 386.10477
353.0 0.002833 352.14148 386.39410
359.0 0.002786 351.94336 386.69427
351.0 0.002849 351.74545 387.00558
354.0 0.002825 351.54779 387.32828
398.0 0.002513 351.35019 387.66272
379.0 0.002639 351.15277 388.00937
352.0 0.002841 350.95560 388.36847
357.0 0.002801 350.75854 388.74042
335.0 0.002985 350.56165 389.12564
398.0 0.002513 350.36499 389.52448
400.0 0.002500 350.16843 389.93732
380.0 0.002632 349.97205 390.36481
371.0 0.002695 349.77588 390.80713
363.0 0.002755 349.57986 391.26489
366.0 0.002732 349.38400 391.73862
354.0 0.002825 349.18829 392.22873
359.0 0.002786 348.99280 392.73575
351.0 0.002849 348.79745 393.26038
395.0 0.002532 348.60223 393.80301
369.0 0.002710 348.40726 394.36432
352.0 0.002841 348.21246 394.94498
340.0 0.002941 348.01779 395.54559
338.0 0.002959 347.82324 396.16672
378.0 0.002646 347.62891 396.80927
370.0 0.002703 347.43478 397.47391
381.0 0.002625 347.24078 398.16138
388.0 0.002577 347.04700 398.87250
394.0 0.002538 346.85330 399.60809
359.0 0.002786 346.65985 400.36911
384.0 0.002604 346.46652 401.15637
350.0 0.002857 346.27338 401.97086
360.0 0.002778 346.08041 402.81354
361.0 0.002770 345.88760 403.68564
365.0 0.002740 345.69495 404.58813
425.0 0.002353 345.50247 405.52216
360.0 0.002778 345.31015 406.48898
372.0 0.002688 345.11801 407.48987
382.0 0.002618 344.92606 408.52606
359.0 0.002786 344.73428 409.59906
412.0 0.002427 344.54263 410.71030
351.0 0.002849 344.35120 411.86130
397.0 0.002519 344.15991 413.05371
405.0 0.002469 343.96881 414.28925
388.0 0.002577 343.77783 415.56964
401.0 0.002494 343.58704 416.89682
409.0 0.002445 343.39639 418.27280
396.0 0.002525 343.20599 419.69968
399.0 0.002506 343.01575 421.17953
411.0 0.002433 342.82553 422.71484
389.0 0.002571 342.63562 424.30804
397.0 0.002519 342.44583 425.96167
426.0 0.002347 342.25623 427.67853
403.0 0.002481 342.06680 429.46146
413.0 0.002421 341.87753 431.31360
437.0 0.002288 341.68839 433.23819
447.0 0.002237 341.49945 435.23859
424.0 0.002358 341.31067 437.31860
404.0 0.002475 341.12207 439.48206
445.0 0.002247 340.93362 441.73294
421.0 0.002375 340.74533 444.07584
401.0 0.002494 340.55725 446.51517
419.0 0.002387 340.36929 449.05603
446.0 0.002242 340.18158 451.70370
458.0 0.002183 339.99393 454.46371
462.0 0.002165 339.80646 457.34210
437.0 0.002288 339.61917 460.34531
452.0 0.002212 339.43210 463.48007
479.0 0.002088 339.24515 466.75372
419.0 0.002387 339.05838 470.17407
456.0 0.002193 338.87177 473.74951
455.0 0.002198 338.68530 477.48901
456.0 0.002193 338.49905 481.40225
472.0 0.002119 338.31293 485.49954
442.0 0.002262 338.12698 489.79202
453.0 0.002208 337.94119 494.29169
471.0 0.002123 337.75558 499.01144
501.0 0.001996 337.57013 503.96518
454.0 0.002203 337.38486 509.16815
503.0 0.001988 337.19974 514.63647
503.0 0.001988 337.01480 520.38782
545.0 0.001835 336.82999 526.44141
536.0 0.001866 336.64532 532.81787
526.0 0.001901 336.46091 539.53992
549.0 0.001821 336.27664 546.63214
530.0 0.001887 336.09244 554.12115
534.0 0.001873 335.90854 562.03638
542.0 0.001845 335.72473 570.40985
563.0 0.001776 335.54114 579.27649
565.0 0.001770 335.35764 588.67474
601.0 0.001664 335.17435 598.64697
574.0 0.001742 334.99121 609.23969
575.0 0.001739 334.80823 620.50409
580.0 0.001724 334.62543 632.49695
631.0 0.001585 334.44278 645.28107
597.0 0.001675 334.26031 658.92596
685.0 0.001460 334.07800 673.50922
599.0 0.001669 333.89584 689.11694
671.0 0.001490 333.71387 705.84558
670.0 0.001493 333.53204 723.80292
697.0 0.001435 333.35037 743.11023
705.0 0.001418 333.16891 763.90350
666.0 0.001502 332.98761 786.33667
803.0 0.001245 332.80637 810.58344
828.0 0.001208 332.62537 836.84155
764.0 0.001309 332.44455 865.33545
845.0 0.001183 332.26389 896.32190
896.0 0.001116 332.08340 930.09515
893.0 0.001120 331.90302 966.99341
959.0 0.001043 331.72284 1007.40735
966.0 0.001035 331.54288 1051.78955
1021.0 0.000979 331.36301 1100.66724
1117.0 0.000895 331.18329 1154.65625
1210.0 0.000826 331.00378 1214.48071
1190.0 0.000840 330.82440 1280.99683
1323.0 0.000756 330.64520 1355.22290
1423.0 0.000703 330.46619 1438.38257
1544.0 0.000648 330.28729 1531.96008
1694.0 0.000590 330.10858 1637.78125
1866.0 0.000536 329.93005 1758.12903
1951.0 0.000513 329.75162 1895.90930
2241.0 0.000446 329.57343 2054.89038
2491.0 0.000401 329.39539 2240.03418
2823.0 0.000354 329.21747 2457.94409
3210.0 0.0003115 329.03973 2717.42896
3599.0 0.0002779 328.86215 3030.16406
4272.0 0.0002341 328.68475 3411.39355
4847.0 0.0002063 328.50751 3880.55518
5406.0 0.0001850 328.33038 4461.68066
6095.0 0.0001641 328.15347 5183.36084
7103.0 0.0001408 327.97675 6078.03613
8429.0 0.0001186 327.80017 7180.26563
9471.0 0.0001056 327.62366 8523.32910
10875.0 0.0000920 327.44736 10132.86230
12227.0 0.0000818 327.27127 12015.05566
13879.0 0.0000721 327.09537 14136.03418
15520.0 0.0000644 326.91949 16391.24023
16871.0 0.0000593 326.74390 18575.08984
18322.0 0.0000546 326.56845 20383.30273
19460.0 0.0000514 326.39313 21487.19336
19813.0 0.0000505 326.21799 21665.34180
20040.0 0.0000499 326.04300 20898.99219
19526.0 0.0000512 325.86819 19362.28906
18343.0 0.0000545 325.69351 17338.95313
16851.0 0.0000593 325.51901 15124.88574
14898.0 0.0000671 325.34467 12954.54199
12799.0 0.0000781 325.17053 10972.52539
10462.0 0.0000956 324.99643 9244.55371
8655.0 0.0001155 324.82260 7783.72852
6910.0 0.0001447 324.64893 6574.11670
5607.0 0.0001783 324.47540 5586.37109
4669.0 0.0002142 324.30200 4786.73145
3721.0 0.0002687 324.12881 4141.92822
3118.0 0.0003207 323.95572 3621.73657
2803.0 0.000357 323.78284 3200.16748
2418.0 0.000414 323.61008 2855.79517
2089.0 0.000479 323.43753 2571.54883
1914.0 0.000522 323.26511 2334.18140
1659.0 0.000603 323.09280 2133.60913
1634.0 0.000612 322.92078 1962.23511
1416.0 0.000706 322.74887 1814.35107
1340.0 0.000746 322.57706 1685.63916
1315.0 0.000760 322.40546 1572.79565
1218.0 0.000821 322.23404 1473.24829
1153.0 0.000867 322.06271 1384.95911
1092.0 0.000916 321.89157 1306.28516
1028.0 0.000973 321.72058 1235.88257
974.0 0.001027 321.54977 1172.63831
946.0 0.001057 321.37909 1115.62170
955.0 0.001047 321.20862 1064.04834
838.0 0.001193 321.03827 1017.25226
840.0 0.001190 320.86810 974.66589
826.0 0.001211 320.69812 935.80273
762.0 0.001312 320.52823 900.24347
810.0 0.001235 320.35855 867.62604
749.0 0.001335 320.18900 837.63605
810.0 0.001235 320.01962 809.99963
739.0 0.001353 319.85037 784.47742
684.0 0.001462 319.68130 760.85956
701.0 0.001427 319.51239 738.96124
675.0 0.001481 319.34363 718.61963
703.0 0.001422 319.17505 699.69037
650.0 0.001538 319.00659 682.04547
653.0 0.001531 318.83835 665.57104
666.0 0.001502 318.67023 650.16541
664.0 0.001506 318.50229 635.73761
620.0 0.001613 318.33447 622.20630
644.0 0.001553 318.16684 609.49829
623.0 0.001605 317.99936 597.54749
632.0 0.001582 317.83203 586.29449
653.0 0.001531 317.66483 575.68561
641.0 0.001560 317.49783 565.67206
559.0 0.001789 317.33096 556.20953
591.0 0.001692 317.16425 547.25806
565.0 0.001770 316.99771 538.78076
599.0 0.001669 316.83133 530.74445
567.0 0.001764 316.66516 523.11853
541.0 0.001848 316.49905 515.87494
573.0 0.001745 316.33316 508.98834
626.0 0.001597 316.16739 502.43503
564.0 0.001773 316.00180 496.19354
546.0 0.001832 315.83636 490.24387
521.0 0.001919 315.67105 484.56775
559.0 0.001789 315.50595 479.14819
476.0 0.002101 315.34100 473.96970
500.0 0.002000 315.17618 469.01773
486.0 0.002058 315.01154 464.27878
514.0 0.001946 314.84705 459.74069
463.0 0.002160 314.68265 455.39178
477.0 0.002096 314.51849 451.22128
465.0 0.002151 314.35446 447.21933
510.0 0.001961 314.19058 443.37659
479.0 0.002088 314.02689 439.68439
471.0 0.002123 313.86331 436.13477
448.0 0.002232 313.69995 432.72006
429.0 0.002331 313.53665 429.43320
459.0 0.002179 313.37354 426.26770
449.0 0.002227 313.21063 423.21738
412.0 0.002427 313.04785 420.27637
403.0 0.002481 312.88519 417.43933
437.0 0.002288 312.72275 414.70111
415.0 0.002410 312.56042 412.05685
413.0 0.002421 312.39825 409.50226
406.0 0.002463 312.23627 407.03287
393.0 0.002545 312.07440 404.64481
390.0 0.002564 311.91272 402.33435
396.0 0.002525 311.75119 400.09787
392.0 0.002551 311.58978 397.93210
410.0 0.002439 311.42856 395.83383
365.0 0.002740 311.26752 393.80014
406.0 0.002463 311.10654 391.82809
402.0 0.002488 310.94580 389.91516
369.0 0.002710 310.78519 388.05878
395.0 0.002532 310.62473 386.25647
363.0 0.002755 310.46439 384.50604
372.0 0.002688 310.30429 382.80542
378.0 0.002646 310.14429 381.15237
367.0 0.002725 309.98444 379.54523
351.0 0.002849 309.82480 377.98193
354.0 0.002825 309.66525 376.46075
351.0 0.002849 309.50589 374.98016
355.0 0.002817 309.34662 373.53848
355.0 0.002817 309.18756 372.13422
383.0 0.002611 309.02869 370.76605
347.0 0.002882 308.86990 369.43246
373.0 0.002681 308.71124 368.13223
343.0 0.002915 308.55286 366.86414
363.0 0.002755 308.39456 365.62692
329.0 0.003040 308.23639 364.41949
311.0 0.003215 308.07837 363.24088
324.0 0.003086 307.92056 362.08987
348.0 0.002874 307.76291 360.96561
354.0 0.002825 307.60532 359.86713
353.0 0.002833 307.44797 358.79355
306.0 0.003268 307.29077 357.74396
369.0 0.002710 307.13367 356.71759
317.0 0.003155 306.97675 355.71365
380.0 0.002632 306.82001 354.73132
397.0 0.002519 306.66336 353.77002
342.0 0.002924 306.50687 352.82892
318.0 0.003145 306.35056 351.90741
316.0 0.003165 306.19443 351.00482
332.0 0.003012 306.03845 350.12064
329.0 0.003040 305.88257 349.25415
354.0 0.002825 305.72684 348.40491
277.0 0.00361 305.57132 347.57227
343.0 0.002915 305.41589 346.75574
300.0 0.003333 305.26071 345.95486
325.0 0.003077 305.10559 352.98074
325.0 0.003077 304.95065 352.25146
330.0 0.003030 304.79584 351.53674
312.0 0.003205 304.64124 350.83621
292.0 0.003425 304.48676 354.04816
320.0 0.003125 304.33240 353.39554
308.0 0.003247 304.17819 352.75610
295.0 0.003390 304.02420 352.12946
298.0 0.003356 303.87030 351.51520
323.0 0.003096 303.71658 350.91312
314.0 0.003185 303.56299 350.32278
330.0 0.003030 303.40955 349.74396
304.0 0.003289 303.25629 349.17636
282.0 0.00355 303.10318 348.61951
332.0 0.003012 302.95016 348.07339
302.0 0.003311 302.79736 347.53754
310.0 0.003226 302.64474 348.41400
325.0 0.003077 302.49216 347.90558
337.0 0.002967 302.33978 347.40683
327.0 0.003058 302.18759 346.91745
297.0 0.003367 302.03549 347.13696
324.0 0.003086 301.88358 346.66953
322.0 0.003106 301.73184 346.21085
305.0 0.003279 301.58020 345.76086
310.0 0.003226 301.42871 345.31924
333.0 0.003003 301.27744 344.88580
269.0 0.00372 301.12625 344.46045
308.0 0.003247 300.97516 344.04291
334.0 0.002994 300.82431 343.63315
309.0 0.003236 300.67365 343.23083
319.0 0.003135 300.52307 342.83591
335.0 0.002985 300.37262 342.44821
320.0 0.003125 300.22238 342.06760
313.0 0.003195 300.07227 341.69397
291.0 0.003436 299.92230 341.32706
311.0 0.003215 299.77246 340.96686
331.0 0.003021 299.62283 340.61322
346.0 0.002890 299.47327 340.26587
332.0 0.003012 299.32388 339.92490
301.0 0.003322 299.17465 339.59009
316.0 0.003165 299.02560 339.26132
308.0 0.003247 298.87668 338.93854
315.0 0.003175 298.72791 338.62161
327.0 0.003058 298.57925 338.31042
319.0 0.003135 298.43079 338.00485
323.0 0.003096 298.28241 337.70493
314.0 0.003185 298.13425 337.41031
317.0 0.003155 297.98621 337.12112
306.0 0.003268 297.83832 336.83734
302.0 0.003311 297.69058 336.55869
294.0 0.003401 297.54297 336.28519
315.0 0.003175 297.39554 336.01669
328.0 0.003049 297.24823 335.75317
293.0 0.003413 297.10110 335.49457
286.0 0.003497 296.95410 335.24084
327.0 0.003058 296.80725 334.99185
276.0 0.00362 296.66052 334.74756
337.0 0.002967 296.51395 334.50800
297.0 0.003367 296.36755 334.27289
323.0 0.003096 296.22134 334.04236
315.0 0.003175 296.07516 333.81628
293.0 0.003413 295.92920 333.59467
342.0 0.002924 295.78339 333.37741
337.0 0.002967 295.63773 333.16443
327.0 0.003058 295.49216 332.95569
351.0 0.002849 295.34683 332.75119
327.0 0.003058 295.20160 332.55096
360.0 0.002778 295.05646 332.35474
396.0 0.002525 294.91153 332.16272
352.0 0.002841 294.76675 331.97461
355.0 0.002817 294.62210 331.79065
323.0 0.003096 294.47760 331.61066
307.0 0.003257 294.33325 331.43457
379.0 0.002639 294.18909 331.26239
354.0 0.002825 294.04498 331.09412
378.0 0.002646 293.90106 330.92969
349.0 0.002865 293.75729 330.76910
370.0 0.002703 293.61371 330.61227
314.0 0.003185 293.47018 330.45926
358.0 0.002793 293.32687 330.30997
368.0 0.002717 293.18365 330.16437
357.0 0.002801 293.04062 330.02255
371.0 0.002695 292.89777 329.88431
395.0 0.002532 292.75500 329.74985
354.0 0.002825 292.61243 329.61899
347.0 0.002882 292.46991 329.49170
372.0 0.002688 292.32761 329.36810
350.0 0.002857 292.18546 329.24808
347.0 0.002882 292.04346 329.13168
352.0 0.002841 291.90152 329.01877
357.0 0.002801 291.75983 328.90952
359.0 0.002786 291.61826 328.80377
369.0 0.002710 291.47681 328.70157
396.0 0.002525 291.33551 328.60291
374.0 0.002674 291.19434 328.50778
383.0 0.002611 291.05338 328.41623
361.0 0.002770 290.91248 328.32816
417.0 0.002398 290.77173 328.24356
374.0 0.002674 290.63116 328.16251
384.0 0.002604 290.49075 328.08505
385.0 0.002597 290.35046 328.01108
396.0 0.002525 290.21033 327.94058
345.0 0.002899 290.07031 327.87366
356.0 0.002809 289.93048 327.81024
365.0 0.002740 289.79074 327.75037
365.0 0.002740 289.65118 327.69403
359.0 0.002786 289.51175 327.64120
378.0 0.002646 289.37247 327.59198
371.0 0.002695 289.23334 327.54633
343.0 0.002915 289.09436 327.50421
379.0 0.002639 288.95551 327.46564
400.0 0.002500 288.81680 327.43079
334.0 0.002994 288.67825 327.39938
367.0 0.002725 288.53983 327.37170
342.0 0.002924 288.40152 327.34763
375.0 0.002667 288.26340 327.32715
334.0 0.002994 288.12543 327.31049
319.0 0.003135 287.98761 327.29736
361.0 0.002770 287.84985 327.28799
348.0 0.002874 287.71231 327.28235
355.0 0.002817 287.57492 327.28049
318.0 0.003145 287.43765 327.28232
320.0 0.003125 287.30045 327.28802
321.0 0.003115 287.16351 327.29749
323.0 0.003096 287.02664 327.31082
320.0 0.003125 286.88992 327.32803
310.0 0.003226 286.75333 327.34918
321.0 0.003115 286.61691 327.37421
327.0 0.003058 286.48068 327.40314
343.0 0.002915 286.34454 327.43619
347.0 0.002882 286.20850 327.47318
336.0 0.002976 286.07266 327.51422
342.0 0.002924 285.93701 327.55942
313.0 0.003195 285.80139 327.60864
289.0 0.003460 285.66595 327.66211
312.0 0.003205 285.53067 327.71976
317.0 0.003155 285.39554 327.78174
362.0 0.002762 285.26053 327.84793
329.0 0.003040 285.12561 327.91846
325.0 0.003077 284.99094 327.99332
307.0 0.003257 284.85629 328.07269
331.0 0.003021 284.72189 328.15652
312.0 0.003205 284.58759 328.24478
327.0 0.003058 284.45343 328.33774
310.0 0.003226 284.31943 328.43521
357.0 0.002801 284.18555 328.53745
350.0 0.002857 284.05182 328.64435
314.0 0.003185 283.91818 328.75610
330.0 0.003030 283.78476 328.87262
341.0 0.002933 283.65143 328.99411
326.0 0.003067 283.51828 329.12054
347.0 0.002882 283.38519 329.25195
326.0 0.003067 283.25229 329.38852
324.0 0.003086 283.11957 329.53030
323.0 0.003096 282.98694 329.67725
329.0 0.003040 282.85446 329.82953
313.0 0.003195 282.72211 329.98706
338.0 0.002959 282.59000 330.15018
322.0 0.003106 282.45789 330.31876
341.0 0.002933 282.32593 330.49295
351.0 0.002849 282.19415 330.67288
321.0 0.003115 282.06256 330.85852
340.0 0.002941 281.93103 331.05011
355.0 0.002817 281.79965 331.24753
316.0 0.003165 281.66846 331.45105
336.0 0.002976 281.53735 331.66058
297.0 0.003367 281.40643 331.87650
344.0 0.002907 281.27563 332.09866
327.0 0.003058 281.14496 332.32718
321.0 0.003115 281.01437 332.56232
359.0 0.002786 280.88403 332.80399
327.0 0.003058 280.75378 333.05249
362.0 0.002762 280.62366 333.30774
332.0 0.003012 280.49368 333.57004
362.0 0.002762 280.36383 333.83936
366.0 0.002732 280.23416 334.11588
331.0 0.003021 280.10458 334.39972
309.0 0.003236 279.97516 334.69101
346.0 0.002890 279.84589 334.98990
343.0 0.002915 279.71677 335.29648
367.0 0.002725 279.58771 335.61096
343.0 0.002915 279.45889 335.93332
357.0 0.002801 279.33014 336.26392
358.0 0.002793 279.20160 336.60275
351.0 0.002849 279.07309 336.95007
331.0 0.003021 278.94476 337.30603
347.0 0.002882 278.81662 337.67065
326.0 0.003067 278.68854 338.04419
336.0 0.002976 278.56064 334.04355
316.0 0.003165 278.43286 334.46304
352.0 0.002841 278.30524 332.70450
356.0 0.002809 278.17773 333.15625
352.0 0.002841 278.05038 333.61743
362.0 0.002762 277.92313 334.08832
351.0 0.002849 277.79605 334.56900
353.0 0.002833 277.66910 336.19400
338.0 0.002959 277.54233 336.70221
318.0 0.003145 277.41562 337.22110
331.0 0.003021 277.28906 337.75067
367.0 0.002725 277.16269 338.85608
367.0 0.002725 277.03638 339.41156
396.0 0.002525 276.91028 339.97864
360.0 0.002778 276.78430 340.55756
362.0 0.002762 276.65845 341.14856
387.0 0.002584 276.53268 341.75192
324.0 0.003086 276.40710 342.36792
357.0 0.002801 276.28165 342.99680
357.0 0.002801 276.15637 343.63898
387.0 0.002584 276.03116 344.29465
404.0 0.002475 275.90610 344.96417
408.0 0.002451 275.78122 345.64783
419.0 0.002387 275.65643 346.34604
411.0 0.002433 275.53177 347.05911
377.0 0.002653 275.40732 347.78738
341.0 0.002933 275.28293 348.53122
383.0 0.002611 275.15869 349.29099
361.0 0.002770 275.03455 350.06714
388.0 0.002577 274.91061 350.85992
372.0 0.002688 274.78680 351.66986
378.0 0.002646 274.66306 352.49744
385.0 0.002597 274.53952 353.34293
400.0 0.002500 274.41614 354.20688
399.0 0.002506 274.29279 355.08978
450.0 0.002222 274.16962 355.99210
375.0 0.002667 274.04663 356.91434
392.0 0.002551 273.92374 357.85699
409.0 0.002445 273.80096 358.82056
406.0 0.002463 273.67834 359.80560
470.0 0.002128 273.55585 360.81271
407.0 0.002457 273.43350 361.84247
434.0 0.002304 273.31128 362.89545
366.0 0.002732 273.18921 363.97229
386.0 0.002591 273.06726 365.07370
405.0 0.002469 272.94547 366.20026
414.0 0.002415 272.82373 367.35272
397.0 0.002519 272.70221 368.53168
413.0 0.002421 272.58078 369.73801
450.0 0.002222 272.45947 370.97241
439.0 0.002278 272.33832 372.23569
414.0 0.002415 272.21732 373.52878
421.0 0.002375 272.09647 374.85229
389.0 0.002571 271.97571 376.20734
423.0 0.002364 271.85507 378.94400
407.0 0.002457 271.73456 380.37137
413.0 0.002421 271.61420 381.83298
436.0 0.002294 271.49402 383.32996
416.0 0.002404 271.37390 385.53430
462.0 0.002165 271.25394 387.10852
452.0 0.002212 271.13412 388.72137
459.0 0.002179 271.01440 390.37421
427.0 0.002342 270.89487 392.06802
472.0 0.002119 270.77542 393.80429
440.0 0.002273 270.65613 395.58417
442.0 0.002262 270.53696 397.40915
467.0 0.002141 270.41788 399.28058
432.0 0.002315 270.29901 401.20010
465.0 0.002151 270.18024 403.16919
486.0 0.002058 270.06158 405.18948
454.0 0.002203 269.94308 407.26270
454.0 0.002203 269.82471 409.39038
483.0 0.002070 269.70645 411.57477
427.0 0.002342 269.58835 413.81732
465.0 0.002151 269.47040 416.12042
492.0 0.002033 269.35251 418.48584
461.0 0.002169 269.23480 420.91599
472.0 0.002119 269.11722 423.41296
505.0 0.001980 268.99976 425.97919
499.0 0.002004 268.88239 428.61710
484.0 0.002066 268.76520 431.32932
495.0 0.002020 268.64813 434.11865
494.0 0.002024 268.53122 436.98776
567.0 0.001764 268.41443 439.93958
542.0 0.001845 268.29773 442.97736
498.0 0.002008 268.18118 446.10425
517.0 0.001934 268.06473 449.32367
537.0 0.001862 267.94846 452.63910
561.0 0.001783 267.83231 456.05438
577.0 0.001733 267.71628 459.57333
568.0 0.001761 267.60037 463.20020
623.0 0.001605 267.48462 466.93921
583.0 0.001715 267.36896 470.79486
616.0 0.001623 267.25348 474.77200
605.0 0.001653 267.13812 478.87567
645.0 0.001550 267.02286 483.11105
654.0 0.001529 266.90771 487.48373
686.0 0.001458 266.79272 491.99963
656.0 0.001524 266.67789 496.66483
691.0 0.001447 266.56314 501.48590
686.0 0.001458 266.44858 506.46960
645.0 0.001550 266.33405 511.62335
645.0 0.001550 266.21973 516.95465
683.0 0.001464 266.10550 522.47168
713.0 0.001403 265.99142 528.18317
704.0 0.001420 265.87744 534.09778
679.0 0.001473 265.76358 540.22534
657.0 0.001522 265.64993 546.57611
659.0 0.001517 265.53629 553.16077
617.0 0.001621 265.42288 559.99072
709.0 0.001410 265.30954 567.07837
667.0 0.001499 265.19641 574.43646
659.0 0.001517 265.08331 582.07849
710.0 0.001408 264.97040 590.01953
741.0 0.001350 264.85757 598.27502
701.0 0.001427 264.74490 606.86151
725.0 0.001379 264.63232 615.79688
742.0 0.001348 264.51990 625.09979
744.0 0.001344 264.40762 634.79071
736.0 0.001359 264.29544 644.89148
733.0 0.001364 264.18341 655.42493
767.0 0.001304 264.07150 666.41602
770.0 0.001299 263.95969 677.89160
757.0 0.001321 263.84805 689.88025
822.0 0.001217 263.73651 702.41235
878.0 0.001139 263.62509 715.52179
845.0 0.001183 263.51379 729.24365
851.0 0.001175 263.40265 743.61658
861.0 0.001161 263.29163 758.68243
887.0 0.001127 263.18073 774.48590
922.0 0.001085 263.06995 791.07574
932.0 0.001073 262.95929 808.50464
917.0 0.001091 262.84882 826.82983
932.0 0.001073 262.73837 846.11340
1022.0 0.000978 262.62811 866.42322
1020.0 0.000980 262.51797 887.83301
1026.0 0.000975 262.40799 910.42316
1075.0 0.000930 262.29803 934.28162
1142.0 0.000876 262.18832 959.50452
1120.0 0.000893 262.07864 986.19781
1175.0 0.000851 261.96915 1014.47723
1216.0 0.000822 261.85974 1044.47021
1160.0 0.000862 261.75049 1076.31763
1256.0 0.000796 261.64136 1110.17493
1303.0 0.000767 261.53238 1146.21375
1304.0 0.000767 261.42346 1184.62476
1370.0 0.000730 261.31470 1225.61987
1393.0 0.000718 261.20609 1269.43469
1377.0 0.000726 261.09753 1316.33252
1466.0 0.000682 260.98917 1366.60742
1553.0 0.000644 260.88089 1420.59033
1561.0 0.000641 260.77277 1478.65210
1600.0 0.000625 260.66476 1541.21155
1591.0 0.000629 260.55685 1608.74182
1701.0 0.000588 260.44910 1681.77954
1741.0 0.000574 260.34143 1760.93518
1865.0 0.000536 260.23395 1846.90576
1842.0 0.000543 260.12656 1940.48877
1985.0 0.000504 260.01929 2042.60217
2067.0 0.000484 259.91214 2154.30615
2163.0 0.000462 259.80511 2276.83276
2254.0 0.000444 259.69821 2411.62256
2447.0 0.000409 259.59146 2560.37451
2437.0 0.000410 259.48477 2725.11255
2758.0 0.000363 259.37827 2908.27441
2953.0 0.0003386 259.27188 3112.83813
3189.0 0.0003136 259.16556 3342.49194
3463.0 0.0002888 259.05945 3601.86450
3763.0 0.0002657 258.95343 3896.83325
4008.0 0.0002495 258.84750 4234.91064
4428.0 0.0002258 258.74170 4625.72754
5035.0 0.0001986 258.63605 5081.59033
5530.0 0.0001808 258.53049 5618.07471
6098.0 0.0001640 258.42508 6254.61768
6962.0 0.0001436 258.31979 7014.99316
8087.0 0.0001237 258.21463 7927.59668
9316.0 0.0001073 258.10959 9025.36621
10830.0 0.0000923 258.00464 10345.22363
12265.0 0.0000815 257.89987 11926.81445
14109.0 0.0000709 257.79517 13810.21777
16387.0 0.0000610 257.69058 16032.02637
18903.0 0.0000529 257.58615 18618.64844
21658.0 0.0000462 257.48184 21575.06250
24786.0 0.0000403 257.37769 24866.82031
27882.0 0.0000359 257.27356 28394.81836
31143.0 0.00003211 257.16965 31968.58789
34266.0 0.00002918 257.06583 35296.27344
36937.0 0.00002707 256.96213 38019.45313
38693.0 0.00002584 256.85852 39804.79297
40191.0 0.00002488 256.75510 40452.71875
39984.0 0.00002501 256.65173 39948.48438
38973.0 0.00002566 256.54849 38429.43359
37175.0 0.00002690 256.44540 36121.78125
34933.0 0.00002863 256.34244 33297.25781
31356.0 0.00003189 256.23959 30241.48242
28214.0 0.0000354 256.13684 27215.05273
25155.0 0.0000398 256.03421 24418.21680
22148.0 0.0000452 255.93172 21976.93359
19715.0 0.0000507 255.82938 19949.71289
18186.0 0.0000550 255.72710 18342.35742
16469.0 0.0000607 255.62497 17120.19727
15654.0 0.0000639 255.52296 16214.81152
15015.0 0.0000666 255.42105 15529.11621
14712.0 0.0000680 255.31931 14948.79297
14445.0 0.0000692 255.21767 14365.25977
13977.0 0.0000715 255.11613 13702.28418
13343.0 0.0000749 255.01468 12928.29785
12595.0 0.0000794 254.91341 12047.83008
11646.0 0.0000859 254.81226 11086.25781
10459.0 0.0000956 254.71120 10080.95117
9303.0 0.0001075 254.61026 9075.68359
8395.0 0.0001191 254.50946 8112.21924
7060.0 0.0001416 254.40878 7221.91064
6257.0 0.0001598 254.30818 6422.29053
5340.0 0.0001873 254.20772 5718.77393
4667.0 0.0002143 254.10742 5108.48291
4104.0 0.0002437 254.00720 4583.87305
3722.0 0.0002687 253.90710 4135.28027
3222.0 0.0003104 253.80713 3752.50415
2922.0 0.0003422 253.70729 3425.71362
2944.0 0.0003397 253.60750 3145.92383
2598.0 0.000385 253.50787 2905.23145
2461.0 0.000406 253.40840 2696.88013
2248.0 0.000445 253.30905 2515.22656
2121.0 0.000471 253.20973 2355.64893
2071.0 0.000483 253.11060 2214.40820
1810.0 0.000552 253.01161 2088.51294
1847.0 0.000541 252.91263 1975.57373
1692.0 0.000591 252.81389 1873.68115
1601.0 0.000625 252.71521 1781.30078
1606.0 0.000623 252.61667 1697.18591
1509.0 0.000663 252.51819 1620.31262
1457.0 0.000686 252.41989 1549.86035
1456.0 0.000687 252.32170 1485.04883
1325.0 0.000755 252.22363 1425.29810
1320.0 0.000758 252.12563 1370.08337
1272.0 0.000786 252.02780 1318.94958
1274.0 0.000785 251.93008 1271.51514
1195.0 0.000837 251.83244 1227.40173
1192.0 0.000839 251.73494 1186.31897
1184.0 0.000845 251.63757 1147.99573
1071.0 0.000934 251.54034 1112.19263
1069.0 0.000935 251.44315 1078.69556
1071.0 0.000934 251.34615 1047.31421
1010.0 0.000990 251.24924 1017.87866
964.0 0.001037 251.15247 990.23572
953.0 0.001049 251.05573 964.24805
927.0 0.001079 250.95918 939.79181
934.0 0.001071 250.86278 916.75549
991.0 0.001009 250.76645 895.03790
888.0 0.001126 250.67021 874.54767
902.0 0.001109 250.57411 855.20166
907.0 0.001103 250.47813 836.92444
856.0 0.001168 250.38226 819.64734
780.0 0.001282 250.28650 803.30798
833.0 0.001200 250.19089 787.84924
793.0 0.001261 250.09538 773.21930
808.0 0.001238 249.99994 759.37048
736.0 0.001359 249.90469 746.25983
741.0 0.001350 249.80952 733.84729
764.0 0.001309 249.71442 722.09753
719.0 0.001391 249.61951 710.97705
753.0 0.001328 249.52469 700.45642
738.0 0.001355 249.43001 690.50812
700.0 0.001429 249.33537 681.10767
697.0 0.001435 249.24092 672.23273
778.0 0.001285 249.14658 663.86353
714.0 0.001401 249.05229 655.98218
723.0 0.001383 248.95816 648.57263
629.0 0.001590 248.86417 641.62122
738.0 0.001355 248.77026 635.11615
698.0 0.001433 248.67647 629.04694
725.0 0.001379 248.58278 624.31195
675.0 0.001481 248.48923 619.09613
660.0 0.001515 248.39580 614.29724
686.0 0.001458 248.30243 609.91260
672.0 0.001488 248.20920 605.94122
650.0 0.001538 248.11613 602.83612
677.0 0.001477 248.02316 599.69952
672.0 0.001488 247.93024 596.98663
631.0 0.001585 247.83749 594.70538
647.0 0.001546 247.74483 592.86627
629.0 0.001590 247.65228 591.48267
665.0 0.001504 247.55988 590.57129
640.0 0.001563 247.46758 590.15204
650.0 0.001538 247.37538 590.24866
637.0 0.001570 247.28329 590.88940
635.0 0.001575 247.19135 592.10742
639.0 0.001565 247.09949 593.94116
652.0 0.001534 247.00769 596.43640
667.0 0.001499 246.91609 599.64551
641.0 0.001560 246.82457 603.62982
695.0 0.001439 246.73317 608.46063
646.0 0.001548 246.64183 614.22144
694.0 0.001441 246.55069 621.00934
688.0 0.001453 246.45961 628.93811
680.0 0.001471 246.36867 638.14136
681.0 0.001468 246.27780 648.77655
718.0 0.001393 246.18710 661.02997
669.0 0.001495 246.09650 675.12262
725.0 0.001379 246.00597 691.31934
774.0 0.001292 245.91557 709.94000
744.0 0.001344 245.82527 731.37408
745.0 0.001342 245.73514 756.10468
816.0 0.001225 245.64505 784.74023
816.0 0.001225 245.55510 818.06476
855.0 0.001170 245.46526 857.10992
983.0 0.001017 245.37556 903.25977
961.0 0.001041 245.28592 958.39233
1050.0 0.000952 245.19641 1025.06470
1080.0 0.000926 245.10707 1106.72974
1251.0 0.000799 245.01776 1207.96460
1245.0 0.000803 244.92859 1334.66772
1552.0 0.000644 244.83954 1494.16956
1646.0 0.000608 244.75058 1695.17871
1968.0 0.000508 244.66173 1947.48840
2166.0 0.000462 244.57301 2261.32837
2615.0 0.000382 244.48441 2646.16602
3152.0 0.0003173 244.39590 3108.52148
3574.0 0.0002798 244.30751 3647.99170
4050.0 0.0002469 244.21922 4250.48828
4830.0 0.0002070 244.13104 4878.96484
5594.0 0.0001788 244.04295 5466.89648
6056.0 0.0001651 243.95503 5927.05469
6510.0 0.0001536 243.86720 6184.04541
6807.0 0.0001469 243.77945 6210.67920
6656.0 0.0001502 243.69180 6030.15625
6479.0 0.0001543 243.60429 5685.06885
5759.0 0.0001736 243.51694 5215.90674
5074.0 0.0001971 243.42960 4665.56543
4431.0 0.0002257 243.34241 4084.61353
3716.0 0.0002691 243.25534 3521.53809
3124.0 0.0003201 243.16838 3010.33765
2531.0 0.000395 243.08151 2567.37085
1993.0 0.000502 242.99475 2195.57764
1746.0 0.000573 242.90813 1890.14282
1387.0 0.000721 242.82161 1642.71533
1282.0 0.000780 242.73515 1443.91724
1185.0 0.000844 242.64885 1284.68652
1054.0 0.000949 242.56268 1156.93909
914.0 0.001094 242.47655 1053.83862
912.0 0.001096 242.39058 969.97925
826.0 0.001211 242.30467 900.71771
705.0 0.001418 242.21895 842.86224
765.0 0.001307 242.13324 793.90680
706.0 0.001416 242.04771 751.98773
682.0 0.001466 241.96223 715.78979
629.0 0.001590 241.87689 684.13116
624.0 0.001603 241.79169 656.29303
664.0 0.001506 241.70654 631.66260
643.0 0.001555 241.62155 609.75513
650.0 0.001538 241.53662 590.18018
565.0 0.001770 241.45183 572.61841
577.0 0.001733 241.36716 556.80505
595.0 0.001681 241.28252 542.51855
595.0 0.001681 241.19807 529.57214
572.0 0.001748 241.11371 517.80676
560.0 0.001786 241.02943 507.08746
526.0 0.001901 240.94531 497.29803
545.0 0.001835 240.86124 488.33859
532.0 0.001880 240.77730 480.12265
526.0 0.001901 240.69347 472.57532
512.0 0.001953 240.60973 465.63126
496.0 0.002016 240.52611 459.23361
531.0 0.001883 240.44260 453.33240
494.0 0.002024 240.35919 447.88364
507.0 0.001972 240.27585 442.84894
472.0 0.002119 240.19266 438.19409
496.0 0.002016 240.10959 433.88895
475.0 0.002105 240.02657 429.90680
490.0 0.002041 239.94370 426.22397
517.0 0.001934 239.86095 422.81931
484.0 0.002066 239.77831 419.67429
497.0 0.002012 239.69569 416.77194
462.0 0.002165 239.61325 414.09772
448.0 0.002232 239.53091 411.63824
450.0 0.002222 239.44864 409.38177
510.0 0.001961 239.36652 407.31796
464.0 0.002155 239.28447 405.43759
458.0 0.002183 239.20256 403.73245
450.0 0.002222 239.12073 402.19525
442.0 0.002262 239.03903 400.81995
405.0 0.002469 238.95738 399.60098
444.0 0.002252 238.87590 398.53360
455.0 0.002198 238.79446 397.61383
410.0 0.002439 238.71315 396.83859
413.0 0.002421 238.63197 396.20496
432.0 0.002315 238.55089 395.71109
481.0 0.002079 238.46991 395.35556
418.0 0.002392 238.38902 395.13721
450.0 0.002222 238.30826 395.05585
405.0 0.002469 238.22757 395.11179
411.0 0.002433 238.14699 395.30557
408.0 0.002451 238.06654 395.63858
432.0 0.002315 237.98616 396.11258
467.0 0.002141 237.90590 396.73007
466.0 0.002146 237.82576 397.49374
446.0 0.002242 237.74574 398.40750
440.0 0.002273 237.66579 399.47525
441.0 0.002268 237.58592 400.70197
449.0 0.002227 237.50620 402.09302
424.0 0.002358 237.42654 403.65475
444.0 0.002252 237.34698 405.39410
461.0 0.002169 237.26756 407.31888
455.0 0.002198 237.18826 409.43802
440.0 0.002273 237.10904 411.76105
437.0 0.002288 237.02992 414.29895
448.0 0.002232 236.95088 417.06360
407.0 0.002457 236.87196 420.06827
448.0 0.002232 236.79315 423.32755
463.0 0.002160 236.71445 426.85782
454.0 0.002203 236.63585 430.67691
448.0 0.002232 236.55733 434.80478
472.0 0.002119 236.47893 439.26318
502.0 0.001992 236.40065 444.07687
457.0 0.002188 236.32243 449.27264
528.0 0.001894 236.24434 454.88052
452.0 0.002212 236.16635 460.93402
490.0 0.002041 236.08844 467.47040
455.0 0.002198 236.01067 474.53098
470.0 0.002128 235.93294 482.16248
511.0 0.001957 235.85536 490.41666
484.0 0.002066 235.77791 499.35211
521.0 0.001919 235.70052 509.03433
518.0 0.001931 235.62321 519.53766
518.0 0.001931 235.54602 530.94568
510.0 0.001961 235.46895 543.35327
553.0 0.001808 235.39197 556.86859
574.0 0.001742 235.31508 571.61456
586.0 0.001706 235.23831 587.73230
641.0 0.001560 235.16164 605.38367
590.0 0.001695 235.08505 624.75562
618.0 0.001618 235.00858 646.06549
649.0 0.001541 234.93221 669.56708
693.0 0.001443 234.85588 695.56006
756.0 0.001323 234.77974 724.40143
766.0 0.001305 234.70366 756.52112
773.0 0.001294 234.62769 792.44550
826.0 0.001211 234.55183 832.82562
873.0 0.001145 234.47604 878.47729
937.0 0.001067 234.40038 930.43347
1015.0 0.000985 234.32483 990.01001
1047.0 0.000955 234.24930 1058.88318
1148.0 0.000871 234.17393 1139.18079
1287.0 0.000777 234.09869 1233.57690
1376.0 0.000727 234.02348 1345.38452
1597.0 0.000626 233.94839 1478.62927
1625.0 0.000615 233.87343 1638.09070
1906.0 0.000525 233.79857 1829.29041
2047.0 0.000489 233.72377 2058.40161
2424.0 0.000413 233.64909 2332.05957
2721.0 0.000368 233.57451 2657.01514
3081.0 0.0003246 233.50005 3039.56079
3526.0 0.0002836 233.42563 3484.56714
3965.0 0.0002522 233.35133 3993.88672
4562.0 0.0002192 233.27719 4563.79590
5116.0 0.0001955 233.20313 5181.29297
5699.0 0.0001755 233.12912 5819.76025
6221.0 0.0001607 233.05521 6436.07373
6655.0 0.0001503 232.98141 6973.21094
7139.0 0.0001401 232.90771 7371.79736
7640.0 0.0001309 232.83412 7587.95752
7706.0 0.0001298 232.76060 7606.49902
7603.0 0.0001315 232.68723 7439.62012
7323.0 0.0001366 232.61392 7114.84131
6836.0 0.0001463 232.54070 6664.95508
6310.0 0.0001585 232.46764 6125.81494
5804.0 0.0001723 232.39459 5536.46924
5094.0 0.0001963 232.32169 4935.66260
4395.0 0.0002275 232.24887 4355.93994
3832.0 0.0002610 232.17616 3819.75439
3379.0 0.0002959 232.10353 3339.24878
2929.0 0.0003414 232.03102 2918.45483
2530.0 0.000395 231.95862 2556.04297
2074.0 0.000482 231.88623 2247.61792
1938.0 0.000516 231.81403 1987.31152
1727.0 0.000579 231.74190 1768.77991
1438.0 0.000695 231.66985 1585.80127
1318.0 0.000759 231.59789 1432.61267
1259.0 0.000794 231.52603 1304.08179
1188.0 0.000842 231.45432 1195.77710
1053.0 0.000950 231.38271 1103.96655
990.0 0.001010 231.31108 1025.57178
988.0 0.001012 231.23964 958.09631
914.0 0.001094 231.16829 899.54279
807.0 0.001239 231.09700 848.32581
776.0 0.001289 231.02585 803.19336
793.0 0.001261 230.95477 763.15582
769.0 0.001300 230.88380 727.42737
667.0 0.001499 230.81288 695.37885
679.0 0.001473 230.74213 666.50098
632.0 0.001582 230.67140 640.37671
613.0 0.001631 230.60085 616.65961
575.0 0.001739 230.53032 595.05963
625.0 0.001600 230.45990 575.33087
569.0 0.001757 230.38959 557.26251
498.0 0.002008 230.31940 540.67358
483.0 0.002070 230.24925 525.40704
504.0 0.001984 230.17924 511.32632
489.0 0.002045 230.10931 498.31183
428.0 0.002336 230.03946 486.25858
426.0 0.002347 229.96973 475.07434
439.0 0.002278 229.90009 464.67749
459.0 0.002179 229.83051 454.99570
396.0 0.002525 229.76105 445.96484
417.0 0.002398 229.69170 437.52762
450.0 0.002222 229.62244 429.63297
435.0 0.002299 229.55327 422.23529
410.0 0.002439 229.48416 415.29352
381.0 0.002625 229.41518 408.77078
405.0 0.002469 229.34630 402.63397
392.0 0.002551 229.27747 397.08646
389.0 0.002571 229.20877 391.63544
380.0 0.002632 229.14018 386.48865
337.0 0.002967 229.07166 381.62372
343.0 0.002915 229.00320 377.02039
362.0 0.002762 228.93489 372.77612
311.0 0.003215 228.86665 368.64273
344.0 0.002907 228.79848 364.72031
344.0 0.002907 228.73044 360.99448
307.0 0.003257 228.66248 357.45261
352.0 0.002841 228.59462 354.08258
336.0 0.002976 228.52682 350.87366
323.0 0.003096 228.45915 347.81567
336.0 0.002976 228.39157 344.89938
305.0 0.003279 228.32405 342.11636
341.0 0.002933 228.25665 339.45847
310.0 0.003226 228.18933 336.91864
305.0 0.003279 228.12216 334.48999
319.0 0.003135 228.05498 332.16626
301.0 0.003322 227.98796 329.94174
343.0 0.002915 227.92105 327.81091
281.0 0.00356 227.85420 325.76883
330.0 0.003030 227.78740 323.81070
286.0 0.003497 227.72075 321.93222
312.0 0.003205 227.65419 320.12936
297.0 0.003367 227.58768 318.39835
311.0 0.003215 227.52129 316.73563
354.0 0.002825 227.45500 315.13785
327.0 0.003058 227.38879 313.60196
313.0 0.003195 227.32265 312.12509
279.0 0.00358 227.25664 310.70447
321.0 0.003115 227.19070 309.33755
314.0 0.003185 227.12483 308.02203
284.0 0.00352 227.05908 306.75571
281.0 0.00356 226.99344 305.53625
300.0 0.003333 226.92787 304.36197
280.0 0.00357 226.86240 303.23093
293.0 0.003413 226.79700 302.14130
294.0 0.003401 226.73169 301.09158
278.0 0.00360 226.66650 300.58289
290.0 0.003448 226.60133 299.61041
294.0 0.003401 226.53633 298.67361
298.0 0.003356 226.47137 297.77097
282.0 0.00355 226.40654 296.90146
281.0 0.00356 226.34177 296.06393
283.0 0.00353 226.27710 295.50769
289.0 0.003460 226.21252 294.73181
305.0 0.003279 226.14803 293.98502
262.0 0.00382 226.08363 293.26633
277.0 0.00361 226.01932 292.57474
279.0 0.00358 225.95512 291.90985
281.0 0.00356 225.89096 291.27060
247.0 0.00405 225.82692 290.65640
274.0 0.00365 225.76299 282.26379
307.0 0.003257 225.69910 281.73932
269.0 0.00372 225.63531 281.23795
276.0 0.00362 225.57166 276.85965
261.0 0.00383 225.50806 276.42346
287.0 0.003484 225.44453 276.00876
277.0 0.00361 225.38110 275.61511
275.0 0.00364 225.31779 275.24219
271.0 0.00369 225.25456 274.88968
272.0 0.00368 225.19138 274.55737
249.0 0.00402 225.12831 274.24493
308.0 0.003247 225.06535 273.95215
243.0 0.00412 225.00244 273.67896
260.0 0.00385 224.93965 273.42514
245.0 0.00408 224.87692 273.19055
261.0 0.00383 224.81432 272.97516
266.0 0.00376 224.75177 271.37802
277.0 0.00361 224.68933 271.20834
266.0 0.00376 224.62695 271.05789
263.0 0.00380 224.56470 270.22638
249.0 0.00402 224.50250 270.11816
252.0 0.00397 224.44040 270.02933
262.0 0.00382 224.37839 269.96014
269.0 0.00372 224.31647 269.91092
253.0 0.00395 224.25462 269.88190
293.0 0.003413 224.19287 269.87344
266.0 0.00376 224.13123 269.88580
242.0 0.00413 224.06963 269.91965
261.0 0.00383 224.00813 269.97546
243.0 0.00412 223.94675 270.05374
259.0 0.00386 223.88541 270.15533
245.0 0.00408 223.82417 270.28085
251.0 0.00398 223.76305 270.43121
268.0 0.00373 223.70200 270.60736
227.0 0.00441 223.64099 270.81049
242.0 0.00413 223.58012 271.04160
267.0 0.00375 223.51933 271.30215
254.0 0.00394 223.45862 271.59372
253.0 0.00395 223.39796 271.91794
253.0 0.00395 223.33745 272.27676
263.0 0.00380 223.27701 272.67224
245.0 0.00408 223.21660 273.10684
262.0 0.00382 223.15633 273.58337
241.0 0.00415 223.09613 274.10495
255.0 0.00392 223.03604 274.67496
284.0 0.00352 222.97598 275.29752
286.0 0.003497 222.91605 275.97726
259.0 0.00386 222.85619 276.71979
261.0 0.00383 222.79640 277.53125
283.0 0.00353 222.73672 278.41910
240.0 0.00417 222.67712 279.39233
238.0 0.00420 222.61761 280.46188
261.0 0.00383 222.55817 281.64096
267.0 0.00375 222.49883 282.94601
265.0 0.00377 222.43954 284.39737
283.0 0.00353 222.38036 286.02045
276.0 0.00362 222.32127 287.84723
281.0 0.00356 222.26225 289.91669
260.0 0.00385 222.20335 292.27716
276.0 0.00362 222.14450 294.98679
270.0 0.00370 222.08574 298.11490
297.0 0.003367 222.02707 301.74203
339.0 0.002950 221.96848 305.95947
255.0 0.00392 221.90996 310.86853
327.0 0.003058 221.85155 316.57675
332.0 0.003012 221.79321 323.19391
315.0 0.003175 221.73495 330.82379
330.0 0.003030 221.67677 339.55222
347.0 0.002882 221.61867 349.42700
327.0 0.003058 221.56068 360.42657
344.0 0.002907 221.50273 374.29697
379.0 0.002639 221.44490 386.97165
415.0 0.002410 221.38716 399.78537
411.0 0.002433 221.32950 411.95346
417.0 0.002398 221.27188 422.52615
383.0 0.002611 221.21440 430.58737
407.0 0.002457 221.15697 435.31116
476.0 0.002101 221.09964 436.92603
397.0 0.002519 221.04234 435.44391
435.0 0.002299 220.98518 431.30411
443.0 0.002257 220.92809 424.44345
410.0 0.002439 220.87105 416.52533
417.0 0.002398 220.81413 407.56064
389.0 0.002571 220.75729 398.16531
367.0 0.002725 220.70053 388.91766
336.0 0.002976 220.64383 380.27908
387.0 0.002584 220.58723 372.55759
356.0 0.002809 220.53072 365.91647
347.0 0.002882 220.47424 360.40814
321.0 0.003115 220.41789 356.01154
357.0 0.002801 220.36162 352.66275
336.0 0.002976 220.30542 350.27667
321.0 0.003115 220.24930 348.76120
337.0 0.002967 220.19327 348.02579
308.0 0.003247 220.13734 347.98669
352.0 0.002841 220.08147 348.56989
324.0 0.003086 220.02565 349.71265
321.0 0.003115 219.96996 351.36374
320.0 0.003125 219.91434 353.48325
364.0 0.002747 219.85880 356.04218
356.0 0.002809 219.80330 359.02094
330.0 0.003030 219.74792 362.40912
338.0 0.002959 219.69263 366.20370
337.0 0.002967 219.63739 370.40927
370.0 0.002703 219.58226 375.03632
358.0 0.002793 219.52718 380.10132
365.0 0.002740 219.47218 385.62668
386.0 0.002591 219.41727 391.63986
382.0 0.002618 219.36246 398.17447
389.0 0.002571 219.30771 405.26959
367.0 0.002725 219.25304 412.97101
393.0 0.002545 219.19844 421.33145
379.0 0.002639 219.14395 430.41156
435.0 0.002299 219.08954 440.28076
426.0 0.002347 219.03517 451.01880
412.0 0.002427 218.98093 462.71738
412.0 0.002427 218.92673 475.48215
505.0 0.001980 218.87263 489.43524
451.0 0.002217 218.81857 504.71890
466.0 0.002146 218.76463 521.50000
544.0 0.001838 218.71075 539.97571
555.0 0.001802 218.65694 560.38202
575.0 0.001739 218.60324 583.00421
622.0 0.001608 218.54961 608.19012
613.0 0.001631 218.49606 636.37018
643.0 0.001555 218.44257 668.07898
664.0 0.001506 218.38916 703.98492
727.0 0.001376 218.33585 744.92438
818.0 0.001222 218.28258 791.94000
799.0 0.001252 218.22942 846.32251
983.0 0.001017 218.17635 909.65167
1006.0 0.000994 218.12334 983.83203
1107.0 0.000903 218.07037 1071.11755
1275.0 0.000784 218.01752 1174.11951
1374.0 0.000728 217.96478 1295.78931
1504.0 0.000665 217.91206 1439.36621
1725.0 0.000580 217.85944 1608.28040
1873.0 0.000534 217.80688 1805.99158
2154.0 0.000464 217.75443 2035.73291
2477.0 0.000404 217.70203 2300.09912
2645.0 0.000378 217.64972 2600.38867
3038.0 0.0003292 217.59749 2935.58276
3351.0 0.0002984 217.54533 3300.86377
3656.0 0.0002735 217.49323 3685.75122
4013.0 0.0002492 217.44124 4072.39502
4636.0 0.0002157 217.38930 4435.24219
4593.0 0.0002177 217.33745 4743.77148
4958.0 0.0002017 217.28568 4968.96143
5207.0 0.0001920 217.23398 5091.33496
5246.0 0.0001906 217.18237 5105.77686
5304.0 0.0001885 217.13081 5019.83105
5000.0 0.0002000 217.07933 4847.56152
4751.0 0.0002105 217.02795 4604.38867
4531.0 0.0002207 216.97664 4305.98145
4106.0 0.0002435 216.92538 3969.47095
3810.0 0.0002625 216.87424 3613.60742
3327.0 0.0003006 216.82315 3256.76050
3048.0 0.0003281 216.77216 2914.24219
2621.0 0.000382 216.72118 2596.73389
2287.0 0.000437 216.67032 2310.23462
2022.0 0.000495 216.61955 2056.98584
1815.0 0.000551 216.56880 1836.63782
1638.0 0.000611 216.51820 1647.27734
1460.0 0.000685 216.46762 1486.17505
1277.0 0.000783 216.41710 1350.28381
1264.0 0.000791 216.36671 1236.55566
1044.0 0.000958 216.31639 1142.13074
1032.0 0.000969 216.26613 1064.44983
991.0 0.001009 216.21593 1001.31335
924.0 0.001082 216.16582 951.78442
874.0 0.001144 216.11580 912.64728
812.0 0.001232 216.06584 883.67987
792.0 0.001263 216.01593 864.08374
795.0 0.001258 215.96614 853.31195
834.0 0.001199 215.91640 851.00409
837.0 0.001195 215.86674 856.90472
836.0 0.001196 215.81711 871.20123
888.0 0.001126 215.76761 892.61285
870.0 0.001149 215.71820 920.83691
927.0 0.001079 215.66881 954.52332
979.0 0.001021 215.61952 991.43170
1057.0 0.000946 215.57030 1028.25208
1053.0 0.000950 215.52116 1060.75891
1104.0 0.000906 215.47206 1084.50171
1101.0 0.000908 215.42307 1095.92688
1194.0 0.000838 215.37415 1093.35754
1139.0 0.000878 215.32527 1077.15576
1084.0 0.000923 215.27649 1048.99365
1049.0 0.000953 215.22781 1010.92096
952.0 0.001050 215.17918 964.93781
961.0 0.001041 215.13058 913.12604
928.0 0.001078 215.08212 857.85339
748.0 0.001337 215.03369 801.65442
733.0 0.001364 214.98537 746.85529
628.0 0.001592 214.93706 695.23621
628.0 0.001592 214.88889 647.90778
635.0 0.001575 214.84076 605.38141
529.0 0.001890 214.79269 567.72559
527.0 0.001898 214.74472 534.72504
469.0 0.002132 214.69682 506.00467
433.0 0.002309 214.64900 481.11563
418.0 0.002392 214.60120 459.58939
379.0 0.002639 214.55351 440.97086
389.0 0.002571 214.50591 424.83725
383.0 0.002611 214.45833 410.80896
347.0 0.002882 214.41086 398.55289
385.0 0.002597 214.36346 387.78308
334.0 0.002994 214.31615 378.25824
373.0 0.002681 214.26888 369.77762
366.0 0.002732 214.22168 362.17603
317.0 0.003155 214.17456 355.31876
352.0 0.002841 214.12753 349.09637
330.0 0.003030 214.08052 343.41986
326.0 0.003067 214.03362 338.21698
341.0 0.002933 213.98679 333.42847
324.0 0.003086 213.94000 329.00558
309.0 0.003236 213.89333 324.90729
304.0 0.003289 213.84669 321.09955
327.0 0.003058 213.80016 317.55276
307.0 0.003257 213.75366 314.24194
306.0 0.003268 213.70724 311.14517
299.0 0.003344 213.66090 308.24338
303.0 0.003300 213.61461 305.51965
273.0 0.00366 213.56842 302.95920
273.0 0.00366 213.52231 300.54877
296.0 0.003378 213.47624 298.27655
306.0 0.003268 213.43025 296.13193
281.0 0.00356 213.38431 294.10532
283.0 0.00353 213.33849 292.18848
261.0 0.00383 213.29271 290.37338
257.0 0.00389 213.24696 288.65317
241.0 0.00415 213.20134 287.02151
269.0 0.00372 213.15578 285.47260
258.0 0.00388 213.11026 284.00110
258.0 0.00388 213.06482 282.60229
266.0 0.00376 213.01944 281.27182
233.0 0.00429 212.97417 280.00571
242.0 0.00413 212.92892 278.80020
253.0 0.00395 212.88376 277.65176
280.0 0.00357 212.83870 276.55753
246.0 0.00407 212.79362 275.51447
254.0 0.00394 212.74869 274.52014
242.0 0.00413 212.70381 273.57175
252.0 0.00397 212.65903 272.66739
247.0 0.00405 212.61427 271.80472
239.0 0.00418 212.56956 270.98184
265.0 0.00377 212.52498 270.19711
250.0 0.00400 212.48042 269.44873
262.0 0.00382 212.43594 268.73517
246.0 0.00407 212.39156 268.05515
225.0 0.00444 212.34721 267.40710
246.0 0.00407 212.30295 266.78989
243.0 0.00412 212.25871 266.20242
221.0 0.00452 212.21458 265.64359
240.0 0.00417 212.17053 265.11237
231.0 0.00433 212.12651 264.60794
234.0 0.00427 212.08260 264.12943
269.0 0.00372 212.03874 263.67596
250.0 0.00400 211.99495 263.24707
222.0 0.00450 211.95120 262.84186
237.0 0.00422 211.90753 262.45963
220.0 0.00455 211.86395 262.10010
267.0 0.00375 211.82042 261.76270
216.0 0.00463 211.77693 261.44684
241.0 0.00415 211.73355 261.15222
245.0 0.00408 211.69023 260.87833
213.0 0.00469 211.64697 260.62506
224.0 0.00446 211.60376 260.39194
212.0 0.00472 211.56062 260.17883
241.0 0.00415 211.51759 259.98547
251.0 0.00398 211.47456 259.81348
231.0 0.00433 211.43163 259.65924
248.0 0.00403 211.38878 259.52429
201.0 0.00498 211.34595 259.40881
221.0 0.00452 211.30322 259.31262
240.0 0.00417 211.26056 259.23572
228.0 0.00439 211.21799 259.17828
218.0 0.00459 211.17542 259.14130
232.0 0.00431 211.13297 259.12317
245.0 0.00408 211.09055 259.12485
217.0 0.00461 211.04820 259.14670
223.0 0.00448 211.00594 259.18900
241.0 0.00415 210.96373 259.25204
212.0 0.00472 210.92159 259.33627
237.0 0.00422 210.87953 259.44211
187.0 0.00535 210.83749 259.57001
229.0 0.00437 210.79553 259.72052
210.0 0.00476 210.75366 259.89444
246.0 0.00407 210.71184 260.09225
228.0 0.00439 210.67007 260.31482
258.0 0.00388 210.62839 260.56305
257.0 0.00389 210.58678 260.83780
244.0 0.00410 210.54520 261.14005
248.0 0.00403 210.50371 261.47101
241.0 0.00415 210.46228 261.83191
258.0 0.00388 210.42090 262.22403
218.0 0.00459 210.37959 262.64893
211.0 0.00474 210.33835 263.10825
244.0 0.00410 210.29718 263.60352
251.0 0.00398 210.25607 264.13696
236.0 0.00424 210.21501 264.71066
231.0 0.00433 210.17406 265.32697
247.0 0.00405 210.13313 265.98831
270.0 0.00370 210.09224 265.34943
277.0 0.00361 210.05147 266.11636
238.0 0.00420 210.01073 266.93762
269.0 0.00372 209.97005 267.81711
241.0 0.00415 209.92944 268.75870
263.0 0.00380 209.88890 269.09799
273.0 0.00366 209.84845 270.18179
265.0 0.00377 209.80801 271.34314
255.0 0.00392 209.76765 272.58817
254.0 0.00394 209.72737 273.92401
265.0 0.00377 209.68713 275.35837
245.0 0.00408 209.64697 276.89987
241.0 0.00415 209.60687 278.55823
298.0 0.003356 209.56685 280.34439
283.0 0.00353 209.52684 282.27051
273.0 0.00366 209.48694 284.35059
258.0 0.00388 209.44710 286.60007
243.0 0.00412 209.40732 289.03693
273.0 0.00366 209.36755 291.68134
273.0 0.00366 209.32790 294.55643
241.0 0.00415 209.28830 297.68878
283.0 0.00353 209.24878 301.10907
270.0 0.00370 209.20926 304.85294
294.0 0.003401 209.16985 308.96213
300.0 0.003333 209.13049 313.48584
269.0 0.00372 209.09119 318.48328
263.0 0.00380 209.05194 324.02594
318.0 0.003145 209.01279 330.20114
279.0 0.00358 208.97366 337.11798
316.0 0.003165 208.93462 344.91327
310.0 0.003226 208.89561 353.75970
348.0 0.002874 208.85670 363.94077
331.0 0.003021 208.81781 375.60660
353.0 0.002833 208.77901 389.17020
370.0 0.002703 208.74028 405.06580
347.0 0.002882 208.70158 423.82434
424.0 0.002358 208.66293 446.08160
447.0 0.002237 208.62439 472.58105
458.0 0.002183 208.58589 504.16821
528.0 0.001894 208.54745 541.77325
575.0 0.001739 208.50902 586.37787
603.0 0.001658 208.47070 638.96149
671.0 0.001490 208.43248 700.41138
708.0 0.001412 208.39426 771.37756
751.0 0.001332 208.35611 852.03326
909.0 0.001100 208.31804 941.70258
1044.0 0.000958 208.28001 1038.33203
1125.0 0.000889 208.24202 1137.88843
1217.0 0.000822 208.20412 1233.99133
1333.0 0.000750 208.16628 1318.33984
1429.0 0.000700 208.12846 1382.42114
1447.0 0.000691 208.09076 1420.15295
1485.0 0.000673 208.05310 1429.90417
1431.0 0.000699 208.01550 1414.27051
1416.0 0.000706 207.97792 1377.79797
1368.0 0.000731 207.94043 1324.61646
1227.0 0.000815 207.90302 1257.71887
1247.0 0.000802 207.86563 1179.83472
1087.0 0.000920 207.82831 1094.49561
967.0 0.001034 207.79106 1006.26910
920.0 0.001087 207.75386 919.32941
750.0 0.001333 207.71672 837.42108
717.0 0.001395 207.67963 762.83740
638.0 0.001567 207.64261 696.64355
608.0 0.001645 207.60565 638.99432
514.0 0.001946 207.56873 589.47418
534.0 0.001873 207.53191 547.35950
491.0 0.002037 207.49512 511.79446
481.0 0.002079 207.45837 481.89996
403.0 0.002481 207.42171 456.83463
385.0 0.002597 207.38509 435.82968
372.0 0.002688 207.34854 418.20480
371.0 0.002695 207.31203 403.37347
348.0 0.002874 207.27556 390.84079
385.0 0.002597 207.23920 380.19690
343.0 0.002915 207.20287 371.10733
295.0 0.003390 207.16658 363.30249
304.0 0.003289 207.13039 356.56726
351.0 0.002849 207.09422 350.73029
343.0 0.002915 207.05814 345.65564
322.0 0.003106 207.02208 341.23462
339.0 0.002950 206.98610 337.38025
359.0 0.002786 206.95018 334.02203
323.0 0.003096 206.91428 331.10239
308.0 0.003247 206.87846 328.57352
305.0 0.003279 206.84271 326.39587
310.0 0.003226 206.80699 324.53586
311.0 0.003215 206.77135 322.96542
295.0 0.003390 206.73576 321.66031
283.0 0.00353 206.70024 320.60025
274.0 0.00365 206.66475 319.76785
313.0 0.003195 206.62932 319.14819
331.0 0.003021 206.59398 318.72873
292.0 0.003425 206.55867 318.49921
312.0 0.003205 206.52338 318.45047
306.0 0.003268 206.48820 318.57562
308.0 0.003247 206.45306 318.86877
292.0 0.003425 206.41798 319.32550
317.0 0.003155 206.38293 319.94257
301.0 0.003322 206.34796 320.71786
303.0 0.003300 206.31306 321.65039
280.0 0.00357 206.27817 322.74005
324.0 0.003086 206.24338 323.98792
310.0 0.003226 206.20863 325.39597
325.0 0.003077 206.17393 326.96713
331.0 0.003021 206.13927 328.70541
307.0 0.003257 206.10466 330.61588
353.0 0.002833 206.07014 332.70462
343.0 0.002915 206.03566 334.97879
335.0 0.002985 206.00124 337.44675
297.0 0.003367 205.96687 340.11835
347.0 0.002882 205.93256 343.00458
341.0 0.002933 205.89827 346.11813
350.0 0.002857 205.86406 349.47327
355.0 0.002817 205.82994 353.08621
342.0 0.002924 205.79584 356.97510
364.0 0.002747 205.76178 361.16046
370.0 0.002703 205.72780 365.66534
368.0 0.002717 205.69385 370.51593
387.0 0.002584 205.65994 375.74142
375.0 0.002667 205.62613 381.37515
390.0 0.002564 205.59236 387.45447
397.0 0.002519 205.55864 394.02228
431.0 0.002320 205.52495 401.12741
412.0 0.002427 205.49135 408.82574
408.0 0.002451 205.45779 417.18195
482.0 0.002075 205.42429 427.23245
425.0 0.002353 205.39081 437.14737
444.0 0.002252 205.35742 447.98843
475.0 0.002105 205.32408 459.88068
477.0 0.002096 205.29079 472.97507
515.0 0.001942 205.25752 487.45462
496.0 0.002016 205.22435 503.54340
498.0 0.002008 205.19121 521.99341
579.0 0.001727 205.15811 542.18622
555.0 0.001802 205.12508 565.00714
556.0 0.001799 205.09210 590.95276
610.0 0.001639 205.05914 620.61945
646.0 0.001548 205.02628 654.71478
669.0 0.001495 204.99345 694.06610
667.0 0.001499 204.96071 739.62457
749.0 0.001335 204.92796 792.46332
900.0 0.001111 204.89529 853.76532
900.0 0.001111 204.86270 924.80322
930.0 0.001075 204.83011 1006.90210
1078.0 0.000928 204.79762 1101.38477
1201.0 0.000833 204.76515 1209.48633
1265.0 0.000791 204.73276 1332.22913
1415.0 0.000707 204.70038 1470.22278
1598.0 0.000626 204.66809 1623.37537
1790.0 0.000559 204.63583 1790.47327
1942.0 0.000515 204.60364 1968.63330
2091.0 0.000478 204.57147 2152.70581
2348.0 0.000426 204.53938 2334.85034
2551.0 0.000392 204.50732 2504.67920
2696.0 0.000371 204.47536 2650.39868
2837.0 0.000352 204.44337 2761.01904
2959.0 0.0003380 204.41148 2828.95459
2986.0 0.0003349 204.37962 2851.69165
2938.0 0.0003404 204.34784 2831.51147
2949.0 0.0003391 204.31607 2773.54004
2744.0 0.000364 204.28441 2683.56738
2633.0 0.000380 204.25273 2566.96680
2584.0 0.000387 204.22113 2428.93311
2437.0 0.000410 204.18961 2275.21387
2130.0 0.000469 204.15814 2112.35352
1923.0 0.000520 204.12669 1947.15344
1824.0 0.000548 204.09529 1785.76501
1611.0 0.000621 204.06395 1632.97778
1449.0 0.000690 204.03265 1491.96265
1343.0 0.000745 204.00140 1364.40405
1230.0 0.000813 203.97021 1250.82617
1143.0 0.000875 203.93909 1150.95117
1068.0 0.000936 203.90799 1063.99731
946.0 0.001057 203.87694 988.90503
962.0 0.001040 203.84592 924.48932
842.0 0.001188 203.81500 869.54120
771.0 0.001297 203.78409 822.89081
738.0 0.001355 203.75323 783.44727
773.0 0.001294 203.72246 750.18811
684.0 0.001462 203.69171 722.29620
732.0 0.001366 203.66098 698.97253
656.0 0.001524 203.63034 679.55908
716.0 0.001397 203.59975 663.50122
713.0 0.001403 203.56920 650.32031
659.0 0.001517 203.53868 639.66724
672.0 0.001488 203.50824 631.21698
663.0 0.001508 203.47783 624.72064
651.0 0.001536 203.44746 619.98047
632.0 0.001582 203.41714 616.84015
626.0 0.001597 203.38690 615.17908
637.0 0.001570 203.35667 615.32440
681.0 0.001468 203.32651 616.37177
684.0 0.001462 203.29639 618.69110
668.0 0.001497 203.26633 622.25293
649.0 0.001541 203.23628 627.04291
707.0 0.001414 203.20630 633.06110
719.0 0.001391 203.17639 640.32068
707.0 0.001414 203.14651 649.05560
708.0 0.001412 203.11667 658.88959
747.0 0.001339 203.08687 670.08185
709.0 0.001410 203.05716 682.69781
737.0 0.001357 203.02747 696.81775
735.0 0.001361 202.99779 712.53748
745.0 0.001342 202.96820 729.97101
773.0 0.001294 202.93867 749.25122
787.0 0.001271 202.90919 770.53461
804.0 0.001244 202.87970 794.00397
761.0 0.001314 202.85030 819.87335
858.0 0.001166 202.82094 848.39459
856.0 0.001168 202.79161 879.86603
960.0 0.001042 202.76236 914.64233
967.0 0.001034 202.73314 953.15039
1020.0 0.000980 202.70396 995.90540
1061.0 0.000943 202.67484 1043.53455
1127.0 0.000887 202.64577 1096.80566
1223.0 0.000818 202.61673 1156.65833
1166.0 0.000858 202.58772 1224.24536
1311.0 0.000763 202.55878 1300.97473
1405.0 0.000712 202.52989 1388.55518
1504.0 0.000665 202.50104 1489.04285
1500.0 0.000667 202.47221 1604.88318
1694.0 0.000590 202.44344 1738.94434
1850.0 0.000541 202.41475 1894.53259
2065.0 0.000484 202.38608 2075.39307
2188.0 0.000457 202.35745 2285.67773
2454.0 0.000407 202.32886 2529.87598
2673.0 0.000374 202.30035 2812.70435
2967.0 0.0003370 202.27184 3138.92969
3423.0 0.0002921 202.24339 3513.10278
3768.0 0.0002654 202.21501 3939.15259
4404.0 0.0002271 202.18668 4419.77588
4946.0 0.0002022 202.15833 4955.51172
5498.0 0.0001819 202.13010 5544.82764
6269.0 0.0001595 202.10188 6176.58887
6869.0 0.0001456 202.07368 6836.50732
7782.0 0.0001285 202.04558 7499.60889
8463.0 0.0001182 202.01749 8131.35352
8989.0 0.0001112 201.98946 8690.38770
9734.0 0.0001027 201.96143 9135.30859
10102.0 0.0000990 201.93352 9433.94531
10046.0 0.0000995 201.90561 9571.78906
10252.0 0.0000975 201.87775 9550.75977
10030.0 0.0000997 201.84990 9388.14648
9594.0 0.0001042 201.82216 9104.81934
9344.0 0.0001070 201.79445 8720.39648
8767.0 0.0001141 201.76674 8251.95605
8139.0 0.0001229 201.73907 7716.91113
7405.0 0.0001350 201.71150 7135.63428
6822.0 0.0001466 201.68396 6531.31885
6023.0 0.0001660 201.65642 5927.29590
5214.0 0.0001918 201.62897 5343.59424
4741.0 0.0002109 201.60153 4795.14844
4048.0 0.0002470 201.57414 4291.21143
3567.0 0.0002803 201.54683 3836.15161
3170.0 0.0003155 201.51953 3430.68262
2859.0 0.0003498 201.49228 3073.06494
2493.0 0.000401 201.46507 2760.07764
2335.0 0.000428 201.43790 2487.71777
2031.0 0.000492 201.41078 2251.67358
1901.0 0.000526 201.38373 2047.63000
1700.0 0.000588 201.35666 1871.46301
1609.0 0.000622 201.32970 1719.34900
1436.0 0.000696 201.30273 1587.83264
1325.0 0.000755 201.27583 1473.84888
1267.0 0.000789 201.24895 1374.72461
1197.0 0.000835 201.22214 1288.16394
1148.0 0.000871 201.19536 1212.21704
1080.0 0.000926 201.16861 1145.24878
1019.0 0.000981 201.14192 1085.89697
984.0 0.001016 201.11528 1033.03516
954.0 0.001048 201.08867 985.73505
918.0 0.001089 201.06209 943.23303
861.0 0.001161 201.03555 904.90045
874.0 0.001144 201.00908 870.21729
867.0 0.001153 200.98262 838.75226
775.0 0.001290 200.95622 810.14417
795.0 0.001258 200.92989 784.08929
711.0 0.001406 200.90356 760.32971
723.0 0.001383 200.87729 738.64471
754.0 0.001326 200.85104 718.84485
711.0 0.001406 200.82484 700.76587
696.0 0.001437 200.79869 684.26501
693.0 0.001443 200.77257 669.21820
653.0 0.001531 200.74651 654.61243
663.0 0.001508 200.72049 642.16608
626.0 0.001597 200.69447 630.88763
635.0 0.001575 200.66855 620.70551
621.0 0.001610 200.64262 611.55725
608.0 0.001645 200.61678 602.79626
593.0 0.001686 200.59093 595.56567
581.0 0.001721 200.56514 589.23145
587.0 0.001704 200.53941 583.76208
614.0 0.001629 200.51369 579.06195
556.0 0.001799 200.48804 575.25476
568.0 0.001761 200.46240 572.25616
628.0 0.001592 200.43681 570.05975
584.0 0.001712 200.41127 568.66437
581.0 0.001721 200.38577 568.07544
607.0 0.001647 200.36031 568.30365
597.0 0.001675 200.33490 569.36755
584.0 0.001712 200.30949 571.29144
546.0 0.001832 200.28415 574.10760
618.0 0.001618 200.25885 577.85620
597.0 0.001675 200.23358 582.58606
591.0 0.001692 200.20834 588.35760
605.0 0.001653 200.18317 595.24152
630.0 0.001587 200.15804 603.32361
665.0 0.001504 200.13290 612.70544
654.0 0.001529 200.10783 623.50922
660.0 0.001515 200.08281 635.88116
660.0 0.001515 200.05780 649.99835
636.0 0.001572 200.03285 666.07562
733.0 0.001364 200.00797 685.02612
728.0 0.001374 199.98308 705.87048
771.0 0.001297 199.95824 729.65112
747.0 0.001339 199.93346 756.85114
807.0 0.001239 199.90868 788.05951
849.0 0.001178 199.88399 823.99231
905.0 0.001105 199.85928 865.51166
930.0 0.001075 199.83464 913.64398
1018.0 0.000982 199.81006 969.91901
1066.0 0.000938 199.78549 1035.08313
1141.0 0.000876 199.76094 1111.04370
1167.0 0.000857 199.73647 1199.56445
1314.0 0.000761 199.71201 1302.56555
1453.0 0.000688 199.68758 1422.08069
1510.0 0.000662 199.66322 1560.19299
1645.0 0.000608 199.63889 1718.93494
1793.0 0.000558 199.61458 1900.13965
2050.0 0.000488 199.59030 2105.21948
2285.0 0.000438 199.56607 2334.82495
2472.0 0.000405 199.54189 2588.34888
2796.0 0.000358 199.51776 2863.23608
3059.0 0.0003269 199.49362 3154.11426
3249.0 0.0003078 199.46957 3451.91675
3625.0 0.0002759 199.44553 3743.38721
3836.0 0.0002607 199.42151 4011.58374
4201.0 0.0002380 199.39755 4237.96729
4389.0 0.0002278 199.37363 4406.02490
4459.0 0.0002243 199.34975 4505.20605
4454.0 0.0002245 199.32587 4533.14697
4551.0 0.0002197 199.30206 4494.79932
4376.0 0.0002285 199.27831 4399.08594
4210.0 0.0002375 199.25453 4255.24658
3909.0 0.0002558 199.23083 4070.98608
3855.0 0.0002594 199.20717 3852.89404
3583.0 0.0002791 199.18356 3608.01709
3197.0 0.0003128 199.15991 3344.94165
3077.0 0.0003250 199.13638 3073.52539
2761.0 0.000362 199.11285 2803.59863
2510.0 0.000398 199.08934 2543.56982
2192.0 0.000456 199.06590 2299.59546
2037.0 0.000491 199.04250 2075.45190
1829.0 0.000547 199.01912 1872.87476
1692.0 0.000591 198.99579 1692.07947
1504.0 0.000665 198.97244 1532.26257
1362.0 0.000734 198.94917 1392.00574
1226.0 0.000816 198.92596 1269.56628
1150.0 0.000870 198.90273 1163.07593
1092.0 0.000916 198.87956 1070.66467
1003.0 0.000997 198.85643 990.54547
881.0 0.001135 198.83334 921.05927
865.0 0.001156 198.81029 860.70209
802.0 0.001247 198.78726 808.13623
791.0 0.001264 198.76425 762.19128
750.0 0.001333 198.74132 721.85785
715.0 0.001399 198.71838 686.27527
650.0 0.001538 198.69550 654.71796
622.0 0.001608 198.67264 626.57898
633.0 0.001580 198.64983 601.35425
639.0 0.001565 198.62706 578.62659
605.0 0.001653 198.60431 558.05133
557.0 0.001795 198.58160 539.34271
548.0 0.001825 198.55891 522.26471
540.0 0.001852 198.53629 506.62021
513.0 0.001949 198.51366 492.24329
473.0 0.002114 198.49110 478.99396
520.0 0.001923 198.46857 466.75281
525.0 0.001905 198.44606 455.41696
473.0 0.002114 198.42357 444.89774
463.0 0.002160 198.40114 435.11713
460.0 0.002174 198.37874 426.00699
447.0 0.002237 198.35635 417.50693
427.0 0.002342 198.33401 409.56375
442.0 0.002262 198.31172 402.12982
429.0 0.002331 198.28946 395.16241
438.0 0.002283 198.26721 388.62338
442.0 0.002262 198.24503 382.47861
402.0 0.002488 198.22282 376.69720
417.0 0.002398 198.20071 371.25107
384.0 0.002604 198.17860 366.11517
403.0 0.002481 198.15652 361.26660
384.0 0.002604 198.13451 356.68460
377.0 0.002653 198.11249 352.35028
386.0 0.002591 198.09052 348.24628
372.0 0.002688 198.06859 344.35712
376.0 0.002660 198.04669 340.66812
370.0 0.002703 198.02480 337.16638
397.0 0.002519 198.00299 333.83972
351.0 0.002849 197.98116 330.67715
354.0 0.002825 197.95938 327.66846
349.0 0.002865 197.93765 324.80423
367.0 0.002725 197.91594 322.07581
319.0 0.003135 197.89426 319.47537
329.0 0.003040 197.87263 316.99530
377.0 0.002653 197.85100 314.62903
362.0 0.002762 197.82944 312.37018
340.0 0.002941 197.80788 310.21277
329.0 0.003040 197.78636 308.15158
347.0 0.002882 197.76488 306.18149
325.0 0.003077 197.74344 304.29767
366.0 0.002732 197.72200 302.49603
322.0 0.003106 197.70062 300.77234
335.0 0.002985 197.67926 299.12280
328.0 0.003049 197.65793 297.54419
322.0 0.003106 197.63666 296.03268
333.0 0.003003 197.61539 294.58569
305.0 0.003279 197.59415 293.20023
305.0 0.003279 197.57294 291.87338
325.0 0.003077 197.55179 290.70541
295.0 0.003390 197.53065 289.48953
309.0 0.003236 197.50954 288.32529
323.0 0.003096 197.48846 287.21106
328.0 0.003049 197.46742 286.14450
315.0 0.003175 197.44640 285.12408
302.0 0.003311 197.42545 284.14807
290.0 0.003448 197.40448 283.21475
325.0 0.003077 197.38354 282.37396
296.0 0.003378 197.36264 281.52255
299.0 0.003344 197.34180 280.70972
313.0 0.003195 197.32097 279.93457
318.0 0.003145 197.30016 279.19595
308.0 0.003247 197.27940 278.49295
280.0 0.00357 197.25867 277.82443
305.0 0.003279 197.23795 277.18967
278.0 0.00360 197.21729 276.58783
313.0 0.003195 197.19662 276.01828
307.0 0.003257 197.17601 275.48032
273.0 0.00366 197.15543 274.97339
262.0 0.00382 197.13486 274.49695
277.0 0.00361 197.11435 274.05063
290.0 0.003448 197.09383 273.63416
289.0 0.003460 197.07336 273.24707
289.0 0.003460 197.05295 272.88925
307.0 0.003257 197.03253 272.56064
281.0 0.00356 197.01213 272.26120
281.0 0.00356 196.99176 271.99103
291.0 0.003436 196.97147 271.75024
286.0 0.003497 196.95116 271.53943
288.0 0.003472 196.93091 271.35913
285.0 0.00351 196.91069 271.20981
276.0 0.00362 196.89046 271.09271
322.0 0.003106 196.87029 271.00897
284.0 0.00352 196.85016 270.96014
313.0 0.003195 196.83003 270.94791
292.0 0.003425 196.80992 270.97455
314.0 0.003185 196.78987 270.80908
287.0 0.003484 196.76982 270.92245
301.0 0.003322 196.74985 271.08347
303.0 0.003300 196.72984 271.29544
280.0 0.00357 196.70992 271.56235
285.0 0.00351 196.68999 271.88824
327.0 0.003058 196.67009 272.16095
313.0 0.003195 196.65024 272.61722
284.0 0.00352 196.63039 273.14395
294.0 0.003401 196.61060 273.74356
308.0 0.003247 196.59082 274.41739
284.0 0.00352 196.57104 275.16412
312.0 0.003205 196.55135 275.97903
330.0 0.003030 196.53165 276.85245
302.0 0.003311 196.51198 277.76828
281.0 0.00356 196.49234 278.70355
322.0 0.003106 196.47275 279.62912
286.0 0.003497 196.45313 280.51358
310.0 0.003226 196.43359 281.32852
321.0 0.003115 196.41405 282.05536
361.0 0.002770 196.39456 282.68906
320.0 0.003125 196.37508 283.23795
308.0 0.003247 196.35564 283.71887
287.0 0.003484 196.33620 284.15085
341.0 0.002933 196.31683 284.55096
306.0 0.003268 196.29744 284.93372
333.0 0.003003 196.27811 285.31299
286.0 0.003497 196.25879 285.70505
332.0 0.003012 196.23950 286.12921
347.0 0.002882 196.22026 286.60657
344.0 0.002907 196.20102 287.15811
355.0 0.002817 196.18181 287.80255
302.0 0.003311 196.16263 288.55484
357.0 0.002801 196.14349 289.42664
344.0 0.002907 196.12436 290.42709
323.0 0.003096 196.10524 291.56296
324.0 0.003086 196.08620 292.84061
326.0 0.003067 196.06714 294.26596
338.0 0.002959 196.04810 295.84518
357.0 0.002801 196.02910 297.58563
402.0 0.002488 196.01015 299.49582
358.0 0.002793 195.99120 301.58609
344.0 0.002907 195.97227 303.86871
352.0 0.002841 195.95338 306.35880
391.0 0.002558 195.93451 309.07431
377.0 0.002653 195.91568 312.03745
364.0 0.002747 195.89685 315.27454
368.0 0.002717 195.87805 318.81802
388.0 0.002577 195.85930 322.70715
355.0 0.002817 195.84056 326.99005
395.0 0.002532 195.82185 331.72522
430.0 0.002326 195.80318 336.98401
436.0 0.002294 195.78452 342.85297
399.0 0.002506 195.76585 349.43646
410.0 0.002439 195.74724 356.85922
416.0 0.002404 195.72867 365.26938
438.0 0.002283 195.71011 374.83948
401.0 0.002494 195.69154 385.76883
400.0 0.002500 195.67303 398.28296
471.0 0.002123 195.65456 412.63306
468.0 0.002137 195.63609 429.09290
507.0 0.001972 195.61766 447.95325
539.0 0.001855 195.59923 469.51447
491.0 0.002037 195.58087 494.07388
547.0 0.001828 195.56248 521.90845
607.0 0.001647 195.54414 553.24774
601.0 0.001664 195.52582 588.23492
667.0 0.001499 195.50754 626.86804
735.0 0.001361 195.48926 668.91760
710.0 0.001408 195.47102 713.81720
770.0 0.001299 195.45280 760.54077
824.0 0.001214 195.43460 807.50079
889.0 0.001125 195.41643 852.75061
977.0 0.001024 195.39828 893.27405
1007.0 0.000993 195.38016 926.67859
1024.0 0.000977 195.36205 950.87445
1077.0 0.000929 195.34396 964.78613
1041.0 0.000961 195.32591 968.52954
1048.0 0.000954 195.30788 963.15497
1015.0 0.000985 195.28987 950.10986
1036.0 0.000965 195.27190 930.73126
952.0 0.001050 195.25392 906.12811
951.0 0.001052 195.23601 876.84143
922.0 0.001085 195.21808 843.76318
856.0 0.001168 195.20018 807.91290
815.0 0.001227 195.18231 770.56897
827.0 0.001209 195.16447 733.11456
801.0 0.001248 195.14665 696.82452
656.0 0.001524 195.12883 662.70959
630.0 0.001587 195.11108 631.45526
637.0 0.001570 195.09332 603.44366
617.0 0.001621 195.07561 578.81348
582.0 0.001718 195.05788 557.53259
552.0 0.001812 195.04019 539.45801
550.0 0.001818 195.02254 524.38416
531.0 0.001883 195.00488 512.07593
504.0 0.001984 194.98729 502.29065
509.0 0.001965 194.96967 494.79248
516.0 0.001938 194.95210 489.36469
471.0 0.002123 194.93454 485.80524
514.0 0.001946 194.91704 483.94409
530.0 0.001887 194.89949 483.63477
488.0 0.002049 194.88200 484.75806
521.0 0.001919 194.86455 487.22113
530.0 0.001887 194.84712 490.95630
462.0 0.002165 194.82970 495.92041
522.0 0.001916 194.81230 502.09317
560.0 0.001786 194.79491 509.47818
494.0 0.002024 194.77756 518.09668
502.0 0.001992 194.76024 527.99481
532.0 0.001880 194.74290 539.23993
535.0 0.001869 194.72562 551.92206
585.0 0.001709 194.70834 566.15759
616.0 0.001623 194.69110 582.09271
607.0 0.001647 194.67389 599.90881
607.0 0.001647 194.65665 619.82953
607.0 0.001647 194.63948 642.13202
631.0 0.001585 194.62231 667.15906
728.0 0.001374 194.60518 695.33447
702.0 0.001425 194.58806 727.18341
714.0 0.001401 194.57094 763.35248
817.0 0.001224 194.55386 804.63647
821.0 0.001218 194.53680 852.00189
915.0 0.001093 194.51976 906.61188
943.0 0.001060 194.50273 969.84875
1053.0 0.000950 194.48573 1043.32727
1138.0 0.000879 194.46877 1128.90247
1217.0 0.000822 194.45181 1228.65906
1263.0 0.000792 194.43488 1344.88904
1421.0 0.000704 194.41794 1480.04297
1555.0 0.000643 194.40105 1636.65649
1701.0 0.000588 194.38419 1817.23352
1839.0 0.000544 194.36732 2024.07581
2098.0 0.000477 194.35046 2259.01392
2424.0 0.000413 194.33366 2523.01392
2624.0 0.000381 194.31686 2815.55518
2977.0 0.0003359 194.30009 3133.77441
3458.0 0.0002892 194.28333 3471.35767
3715.0 0.0002692 194.26659 3817.37207
4143.0 0.0002414 194.24989 4155.58740
4393.0 0.0002276 194.23318 4465.14014
4676.0 0.0002139 194.21649 4723.35059
4947.0 0.0002021 194.19983 4910.68652
5039.0 0.0001985 194.18320 5016.05127
5195.0 0.0001925 194.16658 5039.55127
5130.0 0.0001949 194.14998 4990.77734
4859.0 0.0002058 194.13339 4883.57520
4675.0 0.0002139 194.11685 4730.45654
4580.0 0.0002183 194.10028 4539.57666
4406.0 0.0002270 194.08377 4315.27734
4048.0 0.0002470 194.06725 4060.99170
3674.0 0.0002722 194.05078 3782.21289
3525.0 0.0002837 194.03432 3487.60400
3116.0 0.0003209 194.01785 3187.92212
2761.0 0.000362 194.00142 2893.86328
2598.0 0.000385 193.98500 2614.20605
2290.0 0.000437 193.96861 2354.95483
2048.0 0.000488 193.95224 2119.38892
1788.0 0.000559 193.93590 1908.60352
1623.0 0.000616 193.91954 1722.16736
1501.0 0.000666 193.90323 1558.69885
1352.0 0.000740 193.88693 1416.29321
1225.0 0.000816 193.87064 1292.81543
1176.0 0.000850 193.85437 1186.08533
1093.0 0.000915 193.83813 1093.99438
963.0 0.001038 193.82190 1014.57263
864.0 0.001157 193.80568 946.02625
878.0 0.001139 193.78951 886.75519
840.0 0.001190 193.77332 835.35541
809.0 0.001236 193.75717 790.61475
761.0 0.001314 193.74103 751.50000
694.0 0.001441 193.72490 717.14050
699.0 0.001431 193.70880 686.30511
672.0 0.001488 193.69272 659.40332
671.0 0.001490 193.67665 635.43280
639.0 0.001565 193.66058 613.98578
589.0 0.001698 193.64456 594.72736
612.0 0.001634 193.62854 577.38135
606.0 0.001650 193.61253 561.46887
578.0 0.001730 193.59657 547.30249
527.0 0.001898 193.58060 534.47076
532.0 0.001880 193.56465 522.83862
550.0 0.001818 193.54872 512.39825
527.0 0.001898 193.53281 502.83777
496.0 0.002016 193.51689 494.17859
538.0 0.001859 193.50102 486.34744
546.0 0.001832 193.48515 479.28030
482.0 0.002075 193.46928 472.92157
474.0 0.002110 193.45349 467.22290
536.0 0.001866 193.43768 462.14240
512.0 0.001953 193.42188 457.64352
495.0 0.002020 193.40610 453.74808
473.0 0.002114 193.39032 450.32327
482.0 0.002075 193.37457 447.39929
462.0 0.002165 193.35886 444.95752
517.0 0.001934 193.34312 442.98294
481.0 0.002079 193.32744 441.46362
487.0 0.002053 193.31174 440.39130
472.0 0.002119 193.29610 439.76074
464.0 0.002155 193.28041 439.56989
495.0 0.002020 193.26480 439.81970
507.0 0.001972 193.24918 440.51468
466.0 0.002146 193.23358 441.66254
512.0 0.001953 193.21799 443.27438
463.0 0.002160 193.20242 445.36536
504.0 0.001984 193.18686 447.95511
471.0 0.002123 193.17133 451.06750
488.0 0.002049 193.15579 454.73236
468.0 0.002137 193.14029 458.98547
530.0 0.001887 193.12483 463.87039
549.0 0.001821 193.10931 469.43976
531.0 0.001883 193.09386 475.75681
527.0 0.001898 193.07840 482.89822
485.0 0.002062 193.06297 490.95703
529.0 0.001890 193.04756 500.04520
558.0 0.001792 193.03217 510.29871
578.0 0.001730 193.01678 521.88141
539.0 0.001855 193.00139 534.99060
535.0 0.001869 192.98605 549.86237
592.0 0.001689 192.97070 566.77625
618.0 0.001618 192.95537 586.06158
633.0 0.001580 192.94008 608.10071
692.0 0.001445 192.92477 633.33337
716.0 0.001397 192.90947 662.25653
690.0 0.001449 192.89420 695.42468
735.0 0.001361 192.87897 733.44440
827.0 0.001209 192.86372 776.96759
861.0 0.001161 192.84851 826.67761
817.0 0.001224 192.83330 883.27075
975.0 0.001026 192.81807 947.42914
1020.0 0.000980 192.80290 1019.78180
1102.0 0.000907 192.78773 1100.84656
1213.0 0.000824 192.77257 1190.95020
1316.0 0.000760 192.75743 1290.10815
1405.0 0.000712 192.74231 1397.85889
1543.0 0.000648 192.72720 1513.05249
1611.0 0.000621 192.71210 1633.59851
1744.0 0.000573 192.69702 1756.23425
1937.0 0.000516 192.68195 1876.41528
2018.0 0.000496 192.66689 1988.48108
2159.0 0.000463 192.65186 2086.23193
2286.0 0.000437 192.63681 2163.91724
2365.0 0.000423 192.62180 2217.39111
2446.0 0.000409 192.60680 2244.95532
2387.0 0.000419 192.59181 2247.46899
2330.0 0.000429 192.57686 2227.64453
2357.0 0.000424 192.56187 2188.89136
2185.0 0.000458 192.54692 2134.31177
2218.0 0.000451 192.53198 2066.24194
2034.0 0.000492 192.51707 1986.43628
1932.0 0.000518 192.50217 1896.60242
1872.0 0.000534 192.48726 1798.90625
1811.0 0.000552 192.47238 1696.12097
1701.0 0.000588 192.45752 1591.40759
1553.0 0.000644 192.44267 1487.88831
1445.0 0.000692 192.42780 1388.25098
1286.0 0.000778 192.41298 1292.64026
1255.0 0.000797 192.39816 1206.13940
1178.0 0.000849 192.38336 1127.55127
1065.0 0.000939 192.36855 1057.07642
970.0 0.001031 192.35378 994.56683
985.0 0.001015 192.33902 939.64850
910.0 0.001099 192.32425 891.05951
932.0 0.001073 192.30951 849.73407
829.0 0.001206 192.29477 814.31616
794.0 0.001259 192.28006 784.21558
823.0 0.001215 192.26537 758.87073
785.0 0.001274 192.25067 737.75952
791.0 0.001264 192.23598 720.40814
732.0 0.001366 192.22131 706.39362
734.0 0.001362 192.20665 695.34460
653.0 0.001531 192.19199 687.03253
720.0 0.001389 192.17737 681.00323
715.0 0.001399 192.16273 677.12213
767.0 0.001304 192.14813 675.20538
709.0 0.001410 192.13351 675.10675
711.0 0.001406 192.11896 676.71399
748.0 0.001337 192.10437 679.94617
701.0 0.001427 192.08978 684.74890
712.0 0.001404 192.07526 691.09247
749.0 0.001335 192.06070 698.96997
741.0 0.001350 192.04617 708.39478
716.0 0.001397 192.03166 719.40070
765.0 0.001307 192.01715 732.04114
817.0 0.001224 192.00266 746.38965
836.0 0.001196 191.98817 762.54144
815.0 0.001227 191.97369 780.61487
865.0 0.001156 191.95923 800.75543
875.0 0.001143 191.94478 823.13977
943.0 0.001060 191.93036 847.98035
910.0 0.001099 191.91592 875.53461
939.0 0.001065 191.90147 906.11188
977.0 0.001024 191.88708 940.08582
1016.0 0.000984 191.87270 977.90717
1070.0 0.000935 191.85831 1020.11792
1123.0 0.000890 191.84392 1067.37036
1214.0 0.000824 191.82956 1120.44324
1344.0 0.000744 191.81520 1180.26428
1345.0 0.000743 191.80087 1247.92493
1359.0 0.000736 191.78653 1324.70410
1400.0 0.000714 191.77222 1412.20398
1547.0 0.000646 191.75790 1511.85730
1679.0 0.000596 191.74359 1625.68787
1788.0 0.000559 191.72931 1755.79834
2039.0 0.000490 191.71503 1904.48071
2197.0 0.000455 191.70073 2074.18408
2383.0 0.000420 191.68648 2267.46753
2525.0 0.000396 191.67223 2486.92432
2707.0 0.000369 191.65799 2735.08569
2918.0 0.0003427 191.64375 3014.33203
3243.0 0.0003084 191.62952 3326.43311
3467.0 0.0002884 191.61531 3672.61011
3797.0 0.0002634 191.60110 4052.85059
4314.0 0.0002318 191.58691 4465.36377
4698.0 0.0002129 191.57275 4905.80371
5105.0 0.0001959 191.55856 5366.37646
5644.0 0.0001772 191.54440 5835.04395
6041.0 0.0001655 191.53023 6295.15918
6429.0 0.0001555 191.51610 6726.13916
6949.0 0.0001439 191.50195 7105.54102
7258.0 0.0001378 191.48782 7412.59326
7549.0 0.0001325 191.47372 7632.26221
7570.0 0.0001321 191.45959 7758.23828
7652.0 0.0001307 191.44553 7793.32813
7706.0 0.0001298 191.43143 7746.96777
7313.0 0.0001367 191.41734 7631.06006
7272.0 0.0001375 191.40327 7456.17578
6952.0 0.0001438 191.38922 7229.69189
6704.0 0.0001492 191.37517 6956.30225
6397.0 0.0001563 191.36111 6640.12012
6174.0 0.0001620 191.34708 6286.93506
5631.0 0.0001776 191.33304 5905.38672
5318.0 0.0001880 191.31903 5506.55566
4861.0 0.0002057 191.30502 5102.42334
4645.0 0.0002153 191.29102 4704.10596
4162.0 0.0002403 191.27702 4320.53662
3828.0 0.0002612 191.26305 3957.96509
3283.0 0.0003046 191.24907 3620.09082
3170.0 0.0003155 191.23512 3308.61084
2846.0 0.000351 191.22115 3023.84399
2686.0 0.000372 191.20718 2765.26904
2369.0 0.000422 191.19325 2531.87671
2196.0 0.000455 191.17932 2322.35938
2118.0 0.000472 191.16537 2135.20801
1893.0 0.000528 191.15147 1968.76489
1743.0 0.000574 191.13756 1821.27893
1685.0 0.000593 191.12366 1690.96399
1576.0 0.000635 191.10977 1576.05481
1395.0 0.000717 191.09590 1474.85632
1341.0 0.000746 191.08200 1385.78101
1310.0 0.000763 191.06815 1307.37280
1201.0 0.000833 191.05426 1238.32019
1259.0 0.000794 191.04042 1177.45850
1064.0 0.000940 191.02657 1123.76501
1096.0 0.000912 191.01271 1076.35327
997.0 0.001003 190.99890 1033.57214
956.0 0.001046 190.98509 996.54871
987.0 0.001013 190.97127 963.83923
966.0 0.001035 190.95744 934.97736
869.0 0.001151 190.94365 909.57245
878.0 0.001139 190.92986 887.30060
886.0 0.001129 190.91606 867.89307
877.0 0.001140 190.90228 850.69086
846.0 0.001182 190.88852 836.40259
762.0 0.001312 190.87474 824.44885
826.0 0.001211 190.86101 814.72723
841.0 0.001189 190.84723 807.33801
816.0 0.001225 190.83348 801.90485
757.0 0.001321 190.81975 798.58862
765.0 0.001307 190.80602 797.41406
804.0 0.001244 190.79230 798.43787
791.0 0.001264 190.77859 801.75397
866.0 0.001155 190.76488 807.49683
851.0 0.001175 190.75117 815.84436
851.0 0.001175 190.73749 827.02667
878.0 0.001139 190.72379 841.32837
900.0 0.001111 190.71010 859.18268
883.0 0.001133 190.69643 880.83911
925.0 0.001081 190.68275 906.87494
967.0 0.001034 190.66908 937.86487
987.0 0.001013 190.65543 974.46655
997.0 0.001003 190.64180 1017.42560
1069.0 0.000935 190.62813 1067.57117
1097.0 0.000912 190.61452 1125.81287
1151.0 0.000869 190.60086 1193.13086
1242.0 0.000805 190.58723 1270.55981
1324.0 0.000755 190.57362 1359.16345
1357.0 0.000737 190.55998 1459.99963
1439.0 0.000695 190.54640 1574.06726
1540.0 0.000649 190.53279 1702.23132
1718.0 0.000582 190.51918 1845.11328
1884.0 0.000531 190.50560 2002.93982
2070.0 0.000483 190.49202 2175.33228
2190.0 0.000457 190.47842 2361.03833
2401.0 0.000416 190.46484 2557.60669
2588.0 0.000386 190.45129 2761.05762
2812.0 0.000356 190.43771 2965.62744
3063.0 0.0003265 190.42416 3163.74854
3222.0 0.0003104 190.41061 3346.41333
3335.0 0.0002999 190.39706 3504.05103
3551.0 0.0002816 190.38353 3627.87207
3628.0 0.0002756 190.37000 3711.38770
3695.0 0.0002706 190.35646 3751.61548
3624.0 0.0002759 190.34291 3749.48901
3519.0 0.0002842 190.32941 3709.32129
3505.0 0.0002853 190.31589 3636.60522
3483.0 0.0002871 190.30237 3537.26392
3426.0 0.0002919 190.28888 3415.86377
3190.0 0.0003135 190.27539 3275.58521
3010.0 0.0003322 190.26189 3118.82959
2980.0 0.0003356 190.24840 2948.13281
2594.0 0.000386 190.23491 2766.85938
2531.0 0.000395 190.22142 2579.36230
2351.0 0.000425 190.20795 2390.56812
2044.0 0.000489 190.19449 2205.36719
1932.0 0.000518 190.18102 2027.65393
1672.0 0.000598 190.16756 1860.47314
1570.0 0.000637 190.15411 1705.65723
1412.0 0.000708 190.14064 1564.06567
1357.0 0.000737 190.12721 1435.81982
1267.0 0.000789 190.11375 1320.52942
1106.0 0.000904 190.10031 1217.48022
1075.0 0.000930 190.08687 1125.77075
1017.0 0.000983 190.07347 1044.41089
918.0 0.001089 190.06003 972.38684
928.0 0.001078 190.04662 908.70374
835.0 0.001198 190.03319 852.41296
780.0 0.001282 190.01976 802.63159
782.0 0.001279 190.00638 758.54932
728.0 0.001374 189.99297 719.43530
659.0 0.001517 189.97958 684.63678
625.0 0.001600 189.96617 653.57904
662.0 0.001511 189.95279 625.75940
604.0 0.001656 189.93938 600.74268
622.0 0.001608 189.92601 578.15417
597.0 0.001675 189.91261 557.67419
507.0 0.001972 189.89925 539.03021
564.0 0.001773 189.88588 521.99017
540.0 0.001852 189.87250 506.35825
525.0 0.001905 189.85913 491.96783
483.0 0.002070 189.84575 478.67773
495.0 0.002020 189.83240 466.36755
452.0 0.002212 189.81905 454.93423
427.0 0.002342 189.80571 444.28934
416.0 0.002404 189.79234 434.35641
435.0 0.002299 189.77898 425.06894
404.0 0.002475 189.76566 416.36874
466.0 0.002146 189.75233 408.20468
425.0 0.002353 189.73898 400.53140
411.0 0.002433 189.72563 393.30890
357.0 0.002801 189.71233 386.50089
377.0 0.002653 189.69899 380.07547
356.0 0.002809 189.68568 374.00336
402.0 0.002488 189.67233 368.25824
396.0 0.002525 189.65903 362.81650
363.0 0.002755 189.64572 357.65637
379.0 0.002639 189.63240 352.75821
376.0 0.002660 189.61908 348.10413
346.0 0.002890 189.60576 343.67749
355.0 0.002817 189.59250 339.46353
323.0 0.003096 189.57918 335.44818
377.0 0.002653 189.56589 331.61893
353.0 0.002833 189.55258 327.96408
321.0 0.003115 189.53929 324.47272
339.0 0.002950 189.52600 321.13535
354.0 0.002825 189.51273 317.95074
348.0 0.002874 189.49944 314.89395
319.0 0.003135 189.48615 311.96545
301.0 0.003322 189.47287 309.15784
327.0 0.003058 189.45958 306.46466
327.0 0.003058 189.44632 303.87927
319.0 0.003135 189.43304 301.39609
300.0 0.003333 189.41977 299.00970
271.0 0.00369 189.40651 296.71490
303.0 0.003300 189.39322 294.50696
298.0 0.003356 189.37996 292.38580
318.0 0.003145 189.36668 290.33875
291.0 0.003436 189.35344 288.36639
282.0 0.00355 189.34016 286.46484
301.0 0.003322 189.32692 284.63083
279.0 0.00358 189.31366 282.86115
278.0 0.00360 189.30038 281.15280
288.0 0.003472 189.28714 279.50305
289.0 0.003460 189.27390 277.90924
264.0 0.00379 189.26065 276.36887
287.0 0.003484 189.24741 274.87955
284.0 0.00352 189.23416 273.43912
290.0 0.003448 189.22090 272.04575
287.0 0.003484 189.20767 270.69711
271.0 0.00369 189.19443 269.39148
257.0 0.00389 189.18118 268.12711
273.0 0.00366 189.16795 266.90231
274.0 0.00365 189.15472 265.71564
265.0 0.00377 189.14146 264.56552
264.0 0.00379 189.12822 263.45062
274.0 0.00365 189.11502 262.36966
298.0 0.003356 189.10178 261.32111
258.0 0.00388 189.08855 260.30408
279.0 0.00358 189.07529 259.31729
276.0 0.00362 189.06207 258.35965
241.0 0.00415 189.04884 257.43036
262.0 0.00382 189.03563 256.52811
256.0 0.00391 189.02240 255.65227
251.0 0.00398 189.00917 254.80177
240.0 0.00417 188.99596 253.97592
237.0 0.00422 188.98273 253.17384
255.0 0.00392 188.96951 252.39478
245.0 0.00408 188.95628 251.63817
247.0 0.00405 188.94305 250.90306
242.0 0.00413 188.92984 250.18907
271.0 0.00369 188.91663 249.49541
221.0 0.00452 188.90341 248.82159
221.0 0.00452 188.89018 248.16701
259.0 0.00386 188.87697 247.53111
234.0 0.00427 188.86377 246.91986
256.0 0.00391 188.85054 246.32001
234.0 0.00427 188.83731 245.73734
253.0 0.00395 188.82411 245.17152
218.0 0.00459 188.81088 244.62213
257.0 0.00389 188.79767 244.08875
268.0 0.00373 188.78445 243.57103
250.0 0.00400 188.77124 243.06863
245.0 0.00408 188.75803 242.58122
256.0 0.00391 188.74481 242.10840
244.0 0.00410 188.73160 241.64999
252.0 0.00397 188.71837 241.20882
252.0 0.00397 188.70515 240.77817
262.0 0.00382 188.69196 240.35941
236.0 0.00424 188.67873 239.95567
224.0 0.00446 188.66551 239.56496
271.0 0.00369 188.65228 239.18712
249.0 0.00402 188.63907 238.82199
254.0 0.00394 188.62587 238.46936
235.0 0.00426 188.61266 238.12802
244.0 0.00410 188.59941 237.79976
230.0 0.00435 188.58621 237.48358
262.0 0.00382 188.57298 237.17915
243.0 0.00412 188.55980 236.88657
223.0 0.00448 188.54657 236.60562
235.0 0.00426 188.53334 236.33618
196.0 0.00510 188.52013 236.07816
232.0 0.00431 188.50691 235.83157
261.0 0.00383 188.49370 235.59631
209.0 0.00478 188.48045 235.37227
242.0 0.00413 188.46724 235.15953
230.0 0.00435 188.45403 234.95793
259.0 0.00386 188.44081 234.76756
242.0 0.00413 188.42758 234.58838
208.0 0.00481 188.41435 234.42046
228.0 0.00439 188.40112 234.26360
214.0 0.00467 188.38789 234.11807
228.0 0.00439 188.37466 233.98392
238.0 0.00420 188.36142 233.86105
246.0 0.00407 188.34821 233.74963
239.0 0.00418 188.33498 233.64975
227.0 0.00441 188.32175 233.56152
258.0 0.00388 188.30850 233.48500
210.0 0.00476 188.29527 233.42047
230.0 0.00435 188.28206 233.36789
234.0 0.00427 188.26881 233.32748
229.0 0.00437 188.25557 233.41455
223.0 0.00448 188.24234 233.39954
242.0 0.00413 188.22910 233.39732
225.0 0.00444 188.21584 233.40816
247.0 0.00405 188.20261 233.43228
229.0 0.00437 188.18935 233.47003
227.0 0.00441 188.17612 233.52179
234.0 0.00427 188.16286 233.58754
247.0 0.00405 188.14961 233.66801
230.0 0.00435 188.13637 233.76340
194.0 0.00515 188.12311 233.87411
197.0 0.00508 188.10986 234.05809
211.0 0.00474 188.09660 234.20110
233.0 0.00429 188.08336 234.36095
225.0 0.00444 188.07011 234.53809
239.0 0.00418 188.05684 234.73309
220.0 0.00455 188.04356 235.47551
185.0 0.00541 188.03029 235.70979
250.0 0.00400 188.01704 235.96402
252.0 0.00397 188.00375 236.23895
226.0 0.00442 187.99048 236.53535
231.0 0.00433 187.97723 236.85399
250.0 0.00400 187.96396 237.19604
217.0 0.00461 187.95067 237.56232
238.0 0.00420 187.93739 237.95396
247.0 0.00405 187.92412 238.37204
230.0 0.00435 187.91083 238.81787
244.0 0.00410 187.89755 239.55669
218.0 0.00459 187.88425 240.06281
201.0 0.00498 187.87094 240.60100
212.0 0.00472 187.85767 240.98344
251.0 0.00398 187.84438 241.59135
243.0 0.00412 187.83109 242.23662
228.0 0.00439 187.81778 242.92125
235.0 0.00426 187.80447 243.64738
215.0 0.00465 187.79117 244.41750
232.0 0.00431 187.77786 245.23415
236.0 0.00424 187.76456 246.10008
228.0 0.00439 187.75124 247.01839
253.0 0.00395 187.73793 247.99220
262.0 0.00382 187.72462 249.02522
232.0 0.00431 187.71129 250.12128
228.0 0.00439 187.69798 251.28448
251.0 0.00398 187.68465 252.51949
237.0 0.00422 187.67131 253.83124
236.0 0.00424 187.65797 255.22517
240.0 0.00417 187.64465 256.70728
282.0 0.00355 187.63132 258.28418
264.0 0.00379 187.61798 259.96268
225.0 0.00444 187.60461 261.75113
260.0 0.00385 187.59126 263.65802
263.0 0.00380 187.57794 265.69290
241.0 0.00415 187.56458 267.86661
278.0 0.00360 187.55121 270.19104
275.0 0.00364 187.53787 272.67944
280.0 0.00357 187.52451 274.38394
277.0 0.00361 187.51114 277.25165
282.0 0.00355 187.49779 280.33459
312.0 0.003205 187.48439 283.65527
291.0 0.003436 187.47104 287.29257
288.0 0.003472 187.45764 291.16934
308.0 0.003247 187.44426 295.37357
320.0 0.003125 187.43089 299.94583
308.0 0.003247 187.41751 304.45584
296.0 0.003378 187.40410 309.91809
313.0 0.003195 187.39070 315.91873
342.0 0.002924 187.37732 322.53635
336.0 0.002976 187.36392 329.86288
365.0 0.002740 187.35051 338.00620
362.0 0.002762 187.33711 347.09119
391.0 0.002558 187.32368 357.28882
408.0 0.002451 187.31027 368.71103
389.0 0.002571 187.29684 381.57135
414.0 0.002415 187.28343 396.07843
420.0 0.002381 187.27000 412.46277
427.0 0.002342 187.25656 430.97549
461.0 0.002169 187.24315 451.88562
503.0 0.001988 187.22969 475.47580
506.0 0.001976 187.21626 502.03763
540.0 0.001852 187.20279 531.86328
574.0 0.001742 187.18935 565.23413
606.0 0.001650 187.17590 602.40741
641.0 0.001560 187.16245 643.59338
701.0 0.001427 187.14897 688.92731
720.0 0.001389 187.13551 738.42767
742.0 0.001348 187.12204 791.94122
791.0 0.001264 187.10858 849.07074
809.0 0.001236 187.09509 909.09009
954.0 0.001048 187.08160 970.85742
1023.0 0.000978 187.06812 1033.06360
1065.0 0.000939 187.05463 1092.97449
1139.0 0.000878 187.04114 1148.41675
1189.0 0.000841 187.02762 1196.77478
1217.0 0.000822 187.01413 1235.67407
1200.0 0.000833 187.00061 1263.39954
1150.0 0.000870 186.98711 1279.20447
1293.0 0.000773 186.97359 1283.38196
1214.0 0.000824 186.96005 1277.05737
1242.0 0.000805 186.94653 1261.78381
1201.0 0.000833 186.93301 1239.10620
1178.0 0.000849 186.91946 1210.40955
1193.0 0.000838 186.90593 1176.19287
1181.0 0.000847 186.89238 1137.12354
1110.0 0.000901 186.87885 1093.63293
1085.0 0.000922 186.86528 1046.30579
988.0 0.001012 186.85172 996.00659
958.0 0.001044 186.83815 943.86780
875.0 0.001143 186.82458 891.16528
833.0 0.001200 186.81102 839.15234
757.0 0.001321 186.79744 788.91760
712.0 0.001404 186.78386 741.30432
746.0 0.001340 186.77026 696.89044
639.0 0.001565 186.75668 656.00922
622.0 0.001608 186.74309 618.79346
547.0 0.001828 186.72948 585.22589
571.0 0.001751 186.71588 555.18237
497.0 0.002012 186.70226 528.47034
532.0 0.001880 186.68864 504.85620
477.0 0.002096 186.67503 484.09009
470.0 0.002128 186.66141 465.92242
461.0 0.002169 186.64778 450.11719
449.0 0.002227 186.63414 436.46152
438.0 0.002283 186.62048 424.77075
430.0 0.002326 186.60684 414.89066
421.0 0.002375 186.59319 406.69772
406.0 0.002463 186.57953 400.10074
357.0 0.002801 186.56586 395.26462
367.0 0.002725 186.55219 391.72458
348.0 0.002874 186.53853 389.72659
378.0 0.002646 186.52484 389.34427
372.0 0.002688 186.51115 390.70673
375.0 0.002667 186.49747 394.00232
445.0 0.002247 186.48378 399.47836
396.0 0.002525 186.47008 407.43793
379.0 0.002639 186.45636 418.32465
438.0 0.002283 186.44266 432.33667
418.0 0.002392 186.42894 449.96661
420.0 0.002381 186.41522 471.60098
461.0 0.002169 186.40149 497.68369
516.0 0.001938 186.38776 528.20807
508.0 0.001969 186.37402 563.28558
545.0 0.001835 186.36026 602.54663
578.0 0.001730 186.34651 645.03455
596.0 0.001678 186.33275 688.94843
679.0 0.001473 186.31902 731.46442
707.0 0.001414 186.30524 768.85718
732.0 0.001366 186.29147 797.22235
763.0 0.001311 186.27769 813.49408
731.0 0.001368 186.26390 816.89661
752.0 0.001330 186.25012 809.09851
700.0 0.001429 186.23630 793.45703
700.0 0.001429 186.22250 773.61365
684.0 0.001462 186.20869 752.28723
688.0 0.001453 186.19487 730.69189
624.0 0.001603 186.18106 708.58142
634.0 0.001577 186.16724 684.77557
598.0 0.001672 186.15338 657.99597
571.0 0.001751 186.13956 627.67358
529.0 0.001890 186.12572 594.33124
467.0 0.002141 186.11186 559.36194
515.0 0.001942 186.09801 524.45502
479.0 0.002088 186.08415 491.07462
439.0 0.002278 186.07030 460.21335
403.0 0.002481 186.05640 432.38742
390.0 0.002564 186.04251 407.75107
342.0 0.002924 186.02861 386.22430
356.0 0.002809 186.01472 367.59509
321.0 0.003115 186.00082 351.58719
313.0 0.003195 185.98692 337.90085
299.0 0.003344 185.97299 326.23727
300.0 0.003333 185.95908 316.31226
290.0 0.003448 185.94518 307.86508
290.0 0.003448 185.93123 300.66260
288.0 0.003472 185.91730 294.50089
263.0 0.00380 185.90335 289.20663
284.0 0.00352 185.88940 284.63409
256.0 0.00391 185.87544 280.66321
245.0 0.00408 185.86147 277.19669
279.0 0.00358 185.84750 274.15628
266.0 0.00376 185.83353 271.47925
275.0 0.00364 185.81955 269.11578
250.0 0.00400 185.80556 267.02576
253.0 0.00395 185.79156 265.17709
236.0 0.00424 185.77756 263.54407
236.0 0.00424 185.76353 262.10522
237.0 0.00422 185.74953 260.84317
220.0 0.00455 185.73549 259.74335
223.0 0.00448 185.72145 258.79382
253.0 0.00395 185.70741 257.98431
269.0 0.00372 185.69336 257.30652
272.0 0.00368 185.67934 256.33536
252.0 0.00397 185.66527 255.90298
243.0 0.00412 185.65121 255.58511
278.0 0.00360 185.63715 255.37820
222.0 0.00450 185.62305 255.27954
243.0 0.00412 185.60896 255.48369
228.0 0.00439 185.59488 255.59789
222.0 0.00450 185.58076 255.66150
267.0 0.00375 185.56668 255.98882
234.0 0.00427 185.55254 256.42419
232.0 0.00431 185.53842 256.96994
231.0 0.00433 185.52431 257.62970
253.0 0.00395 185.51018 258.40741
248.0 0.00403 185.49602 259.30884
236.0 0.00424 185.48189 260.34045
262.0 0.00382 185.46773 261.51028
248.0 0.00403 185.45355 262.82813
268.0 0.00373 185.43938 264.40350
245.0 0.00408 185.42522 266.05423
245.0 0.00408 185.41101 267.92093
283.0 0.00353 185.39684 269.97064
269.0 0.00372 185.38264 272.25192
270.0 0.00370 185.36844 274.79239
256.0 0.00391 185.35420 277.62396
247.0 0.00405 185.33998 280.78400
286.0 0.003497 185.32574 284.31604
257.0 0.00389 185.31154 288.27039
293.0 0.003413 185.29729 292.70526
279.0 0.00358 185.28304 297.68671
280.0 0.00357 185.26877 303.28918
280.0 0.00357 185.25452 309.59610
264.0 0.00379 185.24022 316.69931
333.0 0.003003 185.22594 324.69901
314.0 0.003185 185.21167 333.70337
352.0 0.002841 185.19736 343.82651
326.0 0.003067 185.18307 355.18787
380.0 0.002632 185.16876 367.90875
385.0 0.002597 185.15443 382.10980
387.0 0.002584 185.14012 397.90674
395.0 0.002532 185.12578 415.40417
419.0 0.002387 185.11145 434.68765
453.0 0.002208 185.09706 455.81229
455.0 0.002198 185.08273 478.78848
498.0 0.002008 185.06837 503.56055
550.0 0.001818 185.05400 529.98132
534.0 0.001873 185.03963 557.78217
582.0 0.001718 185.02524 586.53857
634.0 0.001577 185.01083 615.64343
650.0 0.001538 184.99641 644.29596
676.0 0.001479 184.98204 671.52209
743.0 0.001346 184.96761 696.30658
720.0 0.001389 184.95317 717.45294
765.0 0.001307 184.93875 734.11926
749.0 0.001335 184.92429 745.70917
798.0 0.001253 184.90985 752.02783
772.0 0.001295 184.89539 753.27850
733.0 0.001364 184.88094 749.96796
741.0 0.001350 184.86646 742.74866
752.0 0.001330 184.85197 732.25928
748.0 0.001337 184.83748 719.01245
696.0 0.001437 184.82298 703.35822
652.0 0.001534 184.80847 685.55328
661.0 0.001513 184.79396 665.71191
605.0 0.001653 184.77945 644.08972
587.0 0.001704 184.76492 621.01166
572.0 0.001748 184.75038 596.91510
545.0 0.001835 184.73582 572.31573
538.0 0.001859 184.72130 547.74811
502.0 0.001992 184.70673 523.70612
475.0 0.002105 184.69214 500.60239
487.0 0.002053 184.67757 478.74643
445.0 0.002247 184.66296 458.34573
404.0 0.002475 184.64838 439.51697
413.0 0.002421 184.63379 422.30396
413.0 0.002421 184.61917 406.69516
393.0 0.002545 184.60455 392.64056
296.0 0.003378 184.58995 380.06470
339.0 0.002950 184.57527 368.87631
362.0 0.002762 184.56065 358.97672
328.0 0.003049 184.54599 350.26419
337.0 0.002967 184.53133 342.84833
302.0 0.003311 184.51668 336.21323
290.0 0.003448 184.50200 330.47684
273.0 0.00366 184.48732 325.55457
264.0 0.00379 184.47263 321.36884
283.0 0.00353 184.45790 317.85010
323.0 0.003096 184.44321 314.93628
292.0 0.003425 184.42850 312.57309
269.0 0.00372 184.41376 310.71365
272.0 0.00368 184.39903 309.31833
272.0 0.00368 184.38428 308.35452
302.0 0.003311 184.36954 307.79605
265.0 0.00377 184.35478 307.62299
298.0 0.003356 184.34001 307.92621
283.0 0.00353 184.32524 308.48743
294.0 0.003401 184.31042 309.40866
275.0 0.00364 184.29564 310.69281
280.0 0.00357 184.28082 312.34793
269.0 0.00372 184.26604 314.38834
322.0 0.003106 184.25121 316.83444
293.0 0.003413 184.23637 319.71344
299.0 0.003344 184.22154 323.06027
313.0 0.003195 184.20668 326.91769
332.0 0.003012 184.19183 331.33719
315.0 0.003175 184.17697 336.38107
307.0 0.003257 184.16209 342.12170
315.0 0.003175 184.14720 348.64346
367.0 0.002725 184.13234 356.04361
354.0 0.002825 184.11743 364.43176
353.0 0.002833 184.10252 373.93140
400.0 0.002500 184.08762 384.67953
399.0 0.002506 184.07269 396.82571
439.0 0.002278 184.05775 410.53174
380.0 0.002632 184.04280 425.96967
449.0 0.002227 184.02786 443.31955
429.0 0.002331 184.01291 461.33273
446.0 0.002242 183.99794 483.06708
486.0 0.002058 183.98296 507.26376
507.0 0.001972 183.96799 534.09009
523.0 0.001912 183.95299 563.68896
579.0 0.001727 183.93799 596.16577
615.0 0.001626 183.92297 631.56726
676.0 0.001479 183.90793 669.85626
685.0 0.001460 183.89291 710.16193
737.0 0.001357 183.87787 753.50104
789.0 0.001267 183.86284 798.82349
880.0 0.001136 183.84778 845.25006
851.0 0.001175 183.83270 891.71057
920.0 0.001087 183.81764 936.84912
916.0 0.001092 183.80257 979.08173
1086.0 0.000921 183.78748 1016.72626
1043.0 0.000959 183.77235 1048.20203
1075.0 0.000930 183.75723 1072.20801
1087.0 0.000920 183.74213 1088.11682
1097.0 0.000912 183.72701 1095.77917
1174.0 0.000852 183.71185 1095.67126
1152.0 0.000868 183.69672 1088.66809
1119.0 0.000894 183.68156 1075.80383
1097.0 0.000912 183.66641 1058.04138
1064.0 0.000940 183.65121 1036.12964
1017.0 0.000983 183.63603 1010.56354
982.0 0.001018 183.62085 981.65643
974.0 0.001027 183.60564 949.66351
999.0 0.001001 183.59045 914.91492
915.0 0.001093 183.57523 877.90247
851.0 0.001175 183.56001 839.28448
792.0 0.001263 183.54475 799.84863
735.0 0.001361 183.52951 760.41559
687.0 0.001456 183.51427 721.75281
662.0 0.001511 183.49901 684.50891
561.0 0.001783 183.48372 649.18097
610.0 0.001639 183.46843 616.11230
551.0 0.001815 183.45317 585.50482
520.0 0.001923 183.43787 557.44659
527.0 0.001898 183.42255 531.93848
437.0 0.002288 183.40724 508.91873
485.0 0.002062 183.39189 488.28494
463.0 0.002160 183.37656 469.90366
465.0 0.002151 183.36121 453.63278
411.0 0.002433 183.34586 439.32269
435.0 0.002299 183.33047 426.82516
413.0 0.002421 183.31511 415.99796
409.0 0.002445 183.29973 406.70724
366.0 0.002732 183.28436 398.83075
387.0 0.002584 183.26895 392.25894
392.0 0.002551 183.25352 386.89688
414.0 0.002415 183.23810 382.66412
370.0 0.002703 183.22267 379.49652
368.0 0.002717 183.20723 377.34671
390.0 0.002564 183.19179 376.18326
362.0 0.002762 183.17632 375.99319
391.0 0.002558 183.16086 376.78162
359.0 0.002786 183.14539 378.57147
355.0 0.002817 183.12990 381.40503
396.0 0.002525 183.11441 385.34311
405.0 0.002469 183.09891 390.46600
363.0 0.002755 183.08337 396.87216
413.0 0.002421 183.06786 404.67902
413.0 0.002421 183.05232 414.02081
412.0 0.002427 183.03679 425.04736
405.0 0.002469 183.02124 437.92239
449.0 0.002227 183.00568 452.81958
467.0 0.002141 182.99010 469.91870
472.0 0.002119 182.97452 489.40073
490.0 0.002041 182.95894 511.43988
495.0 0.002020 182.94333 536.19391
560.0 0.001786 182.92772 563.79126
603.0 0.001658 182.91209 594.31024
604.0 0.001656 182.89650 627.75476
629.0 0.001590 182.88086 664.01910
676.0 0.001479 182.86520 702.84216
742.0 0.001348 182.84955 743.75513
786.0 0.001272 182.83389 786.02448
794.0 0.001259 182.81824 828.60956
847.0 0.001181 182.80252 870.15179
945.0 0.001058 182.78685 908.37933
949.0 0.001054 182.77112 942.85114
962.0 0.001040 182.75542 971.27112
988.0 0.001012 182.73970 992.36884
983.0 0.001017 182.72398 1005.47784
1032.0 0.000969 182.70824 1010.64063
1004.0 0.000996 182.69249 1008.53784
985.0 0.001015 182.67673 1000.26196
983.0 0.001017 182.66093 986.59479
976.0 0.001025 182.64519 969.43622
922.0 0.001085 182.62938 949.09912
881.0 0.001135 182.61360 925.98224
865.0 0.001156 182.59778 900.23804
872.0 0.001147 182.58197 871.94196
837.0 0.001195 182.56613 841.25977
856.0 0.001168 182.55031 808.56256
715.0 0.001399 182.53447 774.44794
697.0 0.001435 182.51860 739.67731
684.0 0.001462 182.50275 705.06909
677.0 0.001477 182.48688 671.38647
600.0 0.001667 182.47099 639.25702
586.0 0.001706 182.45511 609.13434
635.0 0.001575 182.43919 581.28937
558.0 0.001792 182.42328 555.82690
506.0 0.001976 182.40736 532.71143
510.0 0.001961 182.39143 511.80258
500.0 0.002000 182.37547 492.89172
438.0 0.002283 182.35954 475.74332
430.0 0.002326 182.34357 460.13632
485.0 0.002062 182.32761 445.89423
435.0 0.002299 182.31163 432.89627
378.0 0.002646 182.29564 421.07053
418.0 0.002392 182.27966 410.36951
401.0 0.002494 182.26364 400.74695
415.0 0.002410 182.24763 392.13934
407.0 0.002457 182.23160 384.45999
390.0 0.002564 182.21555 377.60355
406.0 0.002463 182.19949 371.46024
385.0 0.002597 182.18346 365.93280
389.0 0.002571 182.16740 360.95111
393.0 0.002545 182.15132 356.47818
367.0 0.002725 182.13522 352.50842
370.0 0.002703 182.11916 349.19644
355.0 0.002817 182.10304 346.28607
350.0 0.002857 182.08693 343.94168
349.0 0.002865 182.07080 342.18445
329.0 0.003040 182.05467 341.03094
363.0 0.002755 182.03853 340.49661
347.0 0.002882 182.02238 340.59665
331.0 0.003021 182.00623 341.35028
374.0 0.002674 181.99005 342.78326
362.0 0.002762 181.97386 344.92868
351.0 0.002849 181.95769 347.83023
351.0 0.002849 181.94148 351.54221
343.0 0.002915 181.92526 356.13217
371.0 0.002695 181.90904 361.75043
364.0 0.002747 181.89282 368.35141
392.0 0.002551 181.87660 376.11365
416.0 0.002404 181.86034 385.15994
412.0 0.002427 181.84409 395.62683
394.0 0.002538 181.82784 407.66260
417.0 0.002398 181.81152 421.42682
431.0 0.002320 181.79526 437.08698
473.0 0.002114 181.77895 454.81464
461.0 0.002169 181.76265 474.78128
501.0 0.001996 181.74634 497.15225
528.0 0.001894 181.73003 522.07709
515.0 0.001942 181.71370 549.67871
564.0 0.001773 181.69736 580.03668
614.0 0.001629 181.68097 613.16541
641.0 0.001560 181.66463 648.98560
625.0 0.001600 181.64824 687.28381
721.0 0.001387 181.63187 727.67090
714.0 0.001401 181.61548 769.52887
785.0 0.001274 181.59908 811.97241
827.0 0.001209 181.58267 853.82654
933.0 0.001072 181.56625 893.65588
917.0 0.001091 181.54982 929.85724
936.0 0.001068 181.53337 960.83203
959.0 0.001043 181.51694 985.21069
1043.0 0.000959 181.50046 1002.08185
993.0 0.001007 181.48399 1011.14246
977.0 0.001024 181.46753 1012.71661
976.0 0.001025 181.45102 1007.62268
962.0 0.001040 181.43452 996.93860
960.0 0.001042 181.41801 981.74329
942.0 0.001062 181.40152 962.95544
900.0 0.001111 181.38499 941.06281
881.0 0.001135 181.36845 916.39575
874.0 0.001144 181.35188 889.05933
842.0 0.001188 181.33536 859.12909
825.0 0.001212 181.31877 826.79028
777.0 0.001287 181.30222 792.42316
789.0 0.001267 181.28563 756.60529
707.0 0.001414 181.26903 720.05219
630.0 0.001587 181.25246 683.51990
601.0 0.001664 181.23584 647.71265
590.0 0.001695 181.21921 613.22070
587.0 0.001704 181.20258 580.48596
552.0 0.001812 181.18593 549.82495
471.0 0.002123 181.16928 521.35895
477.0 0.002096 181.15263 495.16794
457.0 0.002188 181.13596 471.23212
458.0 0.002183 181.11928 449.47528
414.0 0.002415 181.10262 429.78580
391.0 0.002558 181.08591 412.02890
396.0 0.002525 181.06918 396.05933
387.0 0.002584 181.05247 381.72720
353.0 0.002833 181.03575 368.88419
350.0 0.002857 181.01901 357.38663
347.0 0.002882 181.00226 347.09796
323.0 0.003096 180.98552 337.89044
341.0 0.002933 180.96875 329.64587
327.0 0.003058 180.95198 322.25592
313.0 0.003195 180.93520 315.62256
319.0 0.003135 180.91840 309.65753
286.0 0.003497 180.90161 304.28210
313.0 0.003195 180.88480 299.42661
304.0 0.003289 180.86797 295.02994
281.0 0.00356 180.85115 291.03857
280.0 0.00357 180.83432 287.40576
283.0 0.00353 180.81746 284.09113
273.0 0.00366 180.80058 281.05984
285.0 0.00351 180.78374 278.28177
261.0 0.00383 180.76683 275.73071
265.0 0.00377 180.74998 273.38458
251.0 0.00398 180.73306 271.22391
271.0 0.00369 180.71617 269.23184
254.0 0.00394 180.69928 267.39404
267.0 0.00375 180.68233 265.69745
263.0 0.00380 180.66541 264.13126
272.0 0.00368 180.64845 262.68552
274.0 0.00365 180.63153 261.35141
268.0 0.00373 180.61456 260.12152
245.0 0.00408 180.59756 258.98889
251.0 0.00398 180.58060 257.94745
280.0 0.00357 180.56361 256.99167
276.0 0.00362 180.54660 256.11658
221.0 0.00452 180.52962 255.31779
257.0 0.00389 180.51259 254.59143
252.0 0.00397 180.49557 253.93385
253.0 0.00395 180.47855 253.34189
259.0 0.00386 180.46149 252.81236
235.0 0.00426 180.44443 252.34308
259.0 0.00386 180.42735 251.93150
251.0 0.00398 180.41029 251.57565
265.0 0.00377 180.39322 251.27376
269.0 0.00372 180.37611 251.02426
261.0 0.00383 180.35902 250.82573
239.0 0.00418 180.34190 250.67702
261.0 0.00383 180.32481 250.57741
275.0 0.00364 180.30768 250.52596
255.0 0.00392 180.29053 250.52238
233.0 0.00429 180.27338 250.56633
255.0 0.00392 180.25624 250.65781
275.0 0.00364 180.23906 250.79703
236.0 0.00424 180.22191 250.98450
248.0 0.00403 180.20471 251.22081
247.0 0.00405 180.18753 251.50732
263.0 0.00380 180.17033 251.84523
238.0 0.00420 180.15312 252.28555
264.0 0.00379 180.13589 252.73232
256.0 0.00391 180.11865 253.23689
277.0 0.00361 180.10144 253.80234
269.0 0.00372 180.08418 254.43237
240.0 0.00417 180.06694 255.13063
263.0 0.00380 180.04967 255.90164
240.0 0.00417 180.03241 256.75040
247.0 0.00405 180.01512 257.68198
257.0 0.00389 179.99782 258.70245
282.0 0.00355 179.98051 259.81775
273.0 0.00366 179.96321 261.03445
292.0 0.003425 179.94589 262.35910
241.0 0.00415 179.92856 263.82306
258.0 0.00388 179.91124 265.38376
268.0 0.00373 179.89389 267.30518
268.0 0.00373 179.87656 269.12671
281.0 0.00356 179.85918 271.11649
266.0 0.00376 179.84181 273.21573
288.0 0.003472 179.82442 275.45505
242.0 0.00413 179.80702 277.83124
293.0 0.003413 179.78964 280.33572
304.0 0.003289 179.77223 282.95404
276.0 0.00362 179.75482 285.66406
290.0 0.003448 179.73740 288.43549
278.0 0.00360 179.71997 291.22925
279.0 0.00358 179.70253 294.00000
313.0 0.003195 179.68507 296.69968
320.0 0.003125 179.66762 299.28314
270.0 0.00370 179.65012 301.83276
342.0 0.002924 179.63266 304.09656
365.0 0.002740 179.61517 306.20724
307.0 0.003257 179.59769 308.15451
328.0 0.003049 179.58020 309.98782
308.0 0.003247 179.56267 311.74942
314.0 0.003185 179.54515 313.48093
300.0 0.003333 179.52760 315.21829
335.0 0.002985 179.51006 316.99054
302.0 0.003311 179.49254 318.81805
329.0 0.003040 179.47499 320.71832
338.0 0.002959 179.45741 322.70892
371.0 0.002695 179.43985 324.81281
341.0 0.002933 179.42227 327.06088
344.0 0.002907 179.40466 329.49387
332.0 0.003012 179.38707 332.16010
333.0 0.003003 179.36948 335.11420
333.0 0.003003 179.35185 338.41437
382.0 0.002618 179.33421 342.12125
383.0 0.002611 179.31657 346.29633
343.0 0.002915 179.29897 351.00299
360.0 0.002778 179.28130 356.30637
370.0 0.002703 179.26364 362.27490
393.0 0.002545 179.24599 368.98080
374.0 0.002674 179.22832 376.50089
386.0 0.002591 179.21063 384.91736
423.0 0.002364 179.19292 394.31702
396.0 0.002525 179.17523 404.79153
408.0 0.002451 179.15753 416.43646
454.0 0.002203 179.13980 429.34924
493.0 0.002028 179.12209 443.62775
462.0 0.002165 179.10435 459.36758
500.0 0.002000 179.08661 476.65805
550.0 0.001818 179.06888 495.57681
498.0 0.002008 179.05110 516.18323
543.0 0.001842 179.03333 538.51007
572.0 0.001748 179.01558 562.54822
596.0 0.001678 178.99779 588.23242
642.0 0.001558 178.98000 615.42035
653.0 0.001531 178.96220 643.86877
660.0 0.001515 178.94438 673.21051
687.0 0.001456 178.92657 702.93414
748.0 0.001337 178.90874 732.37921
837.0 0.001195 178.89093 760.75500
822.0 0.001217 178.87306 787.19043
845.0 0.001183 178.85522 810.82288
867.0 0.001153 178.83737 830.91003
918.0 0.001089 178.81952 846.94623
894.0 0.001119 178.80165 858.74017
917.0 0.001091 178.78377 866.43506
909.0 0.001100 178.76588 870.45416
903.0 0.001107 178.74797 871.39325
887.0 0.001127 178.73007 869.88928
917.0 0.001091 178.71216 866.50610
932.0 0.001073 178.69424 861.66382
932.0 0.001073 178.67632 855.62299
866.0 0.001155 178.65839 848.51599
832.0 0.001202 178.64043 840.41620
837.0 0.001195 178.62248 831.41418
906.0 0.001104 178.60454 821.68378
898.0 0.001114 178.58656 811.51208
830.0 0.001205 178.56860 801.29663
842.0 0.001188 178.55060 791.50977
801.0 0.001248 178.53261 782.65314
872.0 0.001147 178.51460 775.21484
813.0 0.001230 178.49660 769.63684
800.0 0.001250 178.47861 766.30695
744.0 0.001344 178.46059 765.55579
823.0 0.001215 178.44255 767.67133
792.0 0.001263 178.42451 772.91180
827.0 0.001209 178.40648 781.52570
827.0 0.001209 178.38841 793.76465
831.0 0.001203 178.37033 809.89813
872.0 0.001147 178.35228 830.22595
868.0 0.001152 178.33421 855.08356
879.0 0.001138 178.31613 884.85095
943.0 0.001060 178.29807 919.95331
989.0 0.001011 178.27995 960.86371
1102.0 0.000907 178.26183 1008.10065
1051.0 0.000951 178.24373 1062.22485
1106.0 0.000904 178.22560 1123.82996
1193.0 0.000838 178.20747 1193.53491
1310.0 0.000763 178.18935 1271.96448
1297.0 0.000771 178.17122 1359.73462
1496.0 0.000668 178.15308 1457.41638
1559.0 0.000641 178.13492 1565.50317
1625.0 0.000615 178.11676 1684.35120
1728.0 0.000579 178.09859 1814.11096
1908.0 0.000524 178.08040 1954.63269
1951.0 0.000513 178.06219 2105.35254
2214.0 0.000452 178.04402 2265.16309
2387.0 0.000419 178.02580 2432.29565
2564.0 0.000390 178.00761 2604.23413
2713.0 0.000369 177.98943 2777.72363
2868.0 0.0003487 177.97118 2948.90210
3097.0 0.0003229 177.95297 3113.58008
3364.0 0.0002973 177.93472 3267.62427
3492.0 0.0002864 177.91649 3407.33105
3506.0 0.0002852 177.89824 3529.69287
3578.0 0.0002795 177.87997 3632.45972
3631.0 0.0002754 177.86172 3714.04761
3711.0 0.0002695 177.84346 3773.39014
3808.0 0.0002626 177.82518 3809.62476
3799.0 0.0002632 177.80688 3822.98022
3812.0 0.0002623 177.78860 3813.52979
3735.0 0.0002677 177.77031 3782.12476
3648.0 0.0002741 177.75200 3730.16870
3549.0 0.0002818 177.73367 3659.52661
3501.0 0.0002856 177.71536 3572.38525
3390.0 0.0002950 177.69705 3471.07471
3231.0 0.0003095 177.67874 3357.89648
3100.0 0.0003226 177.66039 3234.86108
2964.0 0.0003374 177.64203 3104.05103
2829.0 0.000353 177.62369 2966.99658
2759.0 0.000362 177.60532 2825.20483
2603.0 0.000384 177.58698 2680.18823
2479.0 0.000403 177.56859 2533.54883
2343.0 0.000427 177.55023 2387.00439
2250.0 0.000444 177.53185 2242.31323
2016.0 0.000496 177.51343 2101.17090
1913.0 0.000523 177.49504 1965.08337
1780.0 0.000562 177.47664 1835.28088
1632.0 0.000613 177.45824 1712.67297
1504.0 0.000665 177.43982 1597.84375
1437.0 0.000696 177.42140 1491.08557
1390.0 0.000719 177.40298 1392.44324
1309.0 0.000764 177.38454 1301.77332
1201.0 0.000833 177.36609 1218.78552
1112.0 0.000899 177.34763 1143.10278
1093.0 0.000915 177.32918 1074.28003
952.0 0.001050 177.31073 1011.84143
944.0 0.001059 177.29225 955.30139
911.0 0.001098 177.27380 904.17706
870.0 0.001149 177.25534 858.00122
803.0 0.001245 177.23683 816.32745
757.0 0.001321 177.21834 778.73621
763.0 0.001311 177.19983 744.83557
773.0 0.001294 177.18134 714.26764
745.0 0.001342 177.16283 686.70209
657.0 0.001522 177.14432 661.83997
683.0 0.001464 177.12579 639.41290
640.0 0.001563 177.10725 619.17999
658.0 0.001520 177.08875 600.92865
577.0 0.001733 177.07019 584.47113
583.0 0.001715 177.05165 569.64478
562.0 0.001779 177.03310 556.30939
572.0 0.001748 177.01454 544.34674
518.0 0.001931 176.99599 533.65778
518.0 0.001931 176.97742 524.16479
539.0 0.001855 176.95885 515.80695
545.0 0.001835 176.94026 508.54233
544.0 0.001838 176.92168 502.34708
528.0 0.001894 176.90308 497.21423
494.0 0.002024 176.88448 493.15436
512.0 0.001953 176.86589 490.19531
501.0 0.001996 176.84727 488.38208
534.0 0.001873 176.82867 487.77469
533.0 0.001876 176.81004 488.44952
522.0 0.001916 176.79143 490.49603
514.0 0.001946 176.77281 494.01489
526.0 0.001901 176.75417 499.11581
556.0 0.001799 176.73553 505.91223
594.0 0.001684 176.71686 514.51617
550.0 0.001818 176.69824 525.03046
556.0 0.001799 176.67955 537.53705
546.0 0.001832 176.66093 552.08014
610.0 0.001639 176.64226 568.64197
573.0 0.001745 176.62358 587.11212
594.0 0.001684 176.60492 607.24213
637.0 0.001570 176.58623 628.60345
667.0 0.001499 176.56752 650.55267
699.0 0.001431 176.54883 672.23224
669.0 0.001495 176.53015 692.63940
730.0 0.001370 176.51146 710.77863
743.0 0.001346 176.49274 725.87537
736.0 0.001359 176.47403 737.57544
762.0 0.001312 176.45531 746.03772
754.0 0.001326 176.43660 751.85968
719.0 0.001391 176.41786 755.86963
746.0 0.001340 176.39911 758.87299
729.0 0.001372 176.38040 761.60236
732.0 0.001366 176.36165 763.96161
740.0 0.001351 176.34291 765.95691
824.0 0.001214 176.32417 767.11877
755.0 0.001325 176.30542 766.79028
760.0 0.001316 176.28665 764.30225
744.0 0.001344 176.26788 759.15399
737.0 0.001357 176.24913 751.14825
713.0 0.001403 176.23035 740.42810
748.0 0.001337 176.21155 727.41943
697.0 0.001435 176.19278 712.70837
695.0 0.001439 176.17398 696.91125
706.0 0.001416 176.15521 680.57690
640.0 0.001563 176.13641 664.12939
686.0 0.001458 176.11761 647.93243
663.0 0.001508 176.09882 631.98419
615.0 0.001626 176.08000 616.42365
608.0 0.001645 176.06119 601.25128
582.0 0.001718 176.04236 586.44391
569.0 0.001757 176.02354 571.98657
546.0 0.001832 176.00471 557.89142
578.0 0.001730 175.98590 544.20471
558.0 0.001792 175.96709 531.00238
536.0 0.001866 175.94824 518.37842
532.0 0.001880 175.92940 506.43097
509.0 0.001965 175.91055 495.25095
535.0 0.001869 175.89171 484.91379
532.0 0.001880 175.87283 475.47424
510.0 0.001961 175.85399 466.96762
507.0 0.001972 175.83514 459.41180
500.0 0.002000 175.81625 452.87906
469.0 0.002132 175.79739 447.22427
456.0 0.002193 175.77853 442.50330
484.0 0.002066 175.75966 438.69894
472.0 0.002119 175.74077 435.79388
461.0 0.002169 175.72189 433.77209
493.0 0.002028 175.70300 432.62082
489.0 0.002045 175.68413 432.33231
479.0 0.002088 175.66522 433.00101
480.0 0.002083 175.64632 434.43982
476.0 0.002101 175.62743 436.75818
485.0 0.002062 175.60854 439.97928
483.0 0.002070 175.58963 444.13586
511.0 0.001957 175.57072 449.27179
473.0 0.002114 175.55180 455.44339
499.0 0.002004 175.53287 462.71912
486.0 0.002058 175.51396 471.21567
525.0 0.001905 175.49506 480.95999
552.0 0.001812 175.47610 492.09686
530.0 0.001887 175.45718 504.75140
586.0 0.001706 175.43826 519.06262
612.0 0.001634 175.41934 535.18341
587.0 0.001704 175.40038 553.28033
647.0 0.001546 175.38144 573.53064
605.0 0.001653 175.36249 596.17133
654.0 0.001529 175.34355 621.29993
620.0 0.001613 175.32462 649.16486
748.0 0.001337 175.30563 679.96478
780.0 0.001282 175.28671 713.89313
756.0 0.001323 175.26773 751.13031
787.0 0.001271 175.24876 791.83221
882.0 0.001134 175.22980 836.11890
882.0 0.001134 175.21086 884.05640
1020.0 0.000980 175.19189 935.63440
991.0 0.001009 175.17291 990.73993
1105.0 0.000905 175.15395 1049.12390
1106.0 0.000904 175.13496 1110.36633
1173.0 0.000853 175.11600 1173.83960
1252.0 0.000799 175.09702 1238.68652
1318.0 0.000759 175.07802 1303.80774
1364.0 0.000733 175.05905 1367.88794
1435.0 0.000697 175.04002 1429.45923
1536.0 0.000651 175.02106 1487.00586
1521.0 0.000657 175.00204 1539.10913
1632.0 0.000613 174.98306 1584.58728
1603.0 0.000624 174.96408 1622.61267
1649.0 0.000606 174.94507 1652.75952
1597.0 0.000626 174.92609 1674.97314
1734.0 0.000577 174.90707 1689.46570
1728.0 0.000579 174.88808 1696.58521
1751.0 0.000571 174.86905 1696.68945
1662.0 0.000602 174.85005 1690.07263
1652.0 0.000605 174.83104 1676.94751
1620.0 0.000617 174.81204 1657.48816
1647.0 0.000607 174.79301 1631.89270
1633.0 0.000612 174.77402 1600.45898
1495.0 0.000669 174.75499 1563.63208
1504.0 0.000665 174.73598 1522.02075
1451.0 0.000689 174.71695 1476.37744
1395.0 0.000717 174.69794 1427.54150
1416.0 0.000706 174.67891 1376.37390
1308.0 0.000765 174.65988 1323.69434
1305.0 0.000766 174.64085 1270.23840
1240.0 0.000806 174.62183 1216.63806
1208.0 0.000828 174.60281 1163.43823
1106.0 0.000904 174.58379 1111.11438
1030.0 0.000971 174.56476 1060.09387
992.0 0.001008 174.54572 1010.76910
938.0 0.001066 174.52667 963.49622
928.0 0.001078 174.50764 918.58801
911.0 0.001098 174.48860 876.29889
888.0 0.001126 174.46957 836.82013
823.0 0.001215 174.45053 800.27490
829.0 0.001206 174.43152 766.72223
736.0 0.001359 174.41246 736.16620
715.0 0.001399 174.39343 708.56647
712.0 0.001404 174.37439 683.85016
663.0 0.001508 174.35533 661.92279
659.0 0.001517 174.33630 642.67841
668.0 0.001497 174.31726 625.90027
676.0 0.001479 174.29823 611.69666
590.0 0.001695 174.27917 599.86188
659.0 0.001517 174.26013 590.31042
633.0 0.001580 174.24109 582.97040
680.0 0.001471 174.22203 577.78864
630.0 0.001587 174.20300 574.72931
620.0 0.001613 174.18396 573.77557
605.0 0.001653 174.16490 574.93134
616.0 0.001623 174.14584 578.21887
657.0 0.001522 174.12682 583.62634
577.0 0.001733 174.10776 591.31921
634.0 0.001577 174.08873 601.31934
654.0 0.001529 174.06969 613.71600
629.0 0.001590 174.05063 628.61005
684.0 0.001462 174.03157 646.11169
733.0 0.001364 174.01250 666.33435
703.0 0.001422 173.99347 689.39288
720.0 0.001389 173.97441 715.39496
829.0 0.001206 173.95538 744.43512
781.0 0.001280 173.93634 776.58398
872.0 0.001147 173.91730 811.87604
867.0 0.001153 173.89825 850.29279
868.0 0.001152 173.87920 891.74286
901.0 0.001110 173.86017 936.03668
977.0 0.001024 173.84109 982.85626
1017.0 0.000983 173.82205 1031.72363
1116.0 0.000896 173.80301 1081.97046
1159.0 0.000863 173.78397 1132.71606
1269.0 0.000788 173.76494 1182.85913
1277.0 0.000783 173.74588 1231.10620
1270.0 0.000787 173.72685 1276.02905
1369.0 0.000730 173.70781 1316.17297
1336.0 0.000749 173.68877 1350.19153
1393.0 0.000718 173.66974 1377.00452
1506.0 0.000664 173.65068 1395.92395
1424.0 0.000702 173.63165 1406.73706
1453.0 0.000688 173.61263 1409.70459
1413.0 0.000708 173.59360 1405.47607
1410.0 0.000709 173.57455 1394.97754
1378.0 0.000726 173.55553 1379.13464
1335.0 0.000749 173.53650 1358.88159
1379.0 0.000725 173.51746 1334.94238
1302.0 0.000768 173.49843 1307.81311
1212.0 0.000825 173.47940 1277.77551
1250.0 0.000800 173.46039 1244.97961
1189.0 0.000841 173.44135 1209.47083
1206.0 0.000829 173.42232 1171.38550
1144.0 0.000874 173.40332 1130.95972
1044.0 0.000958 173.38429 1088.58032
1062.0 0.000942 173.36528 1044.77881
970.0 0.001031 173.34627 1000.18964
933.0 0.001072 173.32722 955.48743
913.0 0.001095 173.30823 911.32953
913.0 0.001095 173.28922 868.30377
882.0 0.001134 173.27022 826.91071
799.0 0.001252 173.25122 787.49805
761.0 0.001314 173.23221 750.34253
730.0 0.001370 173.21320 715.60535
680.0 0.001471 173.19420 683.36603
655.0 0.001527 173.17520 653.63580
642.0 0.001558 173.15620 626.37744
602.0 0.001661 173.13719 601.52570
583.0 0.001715 173.11821 578.96570
593.0 0.001686 173.09921 558.59320
576.0 0.001736 173.08025 540.28723
557.0 0.001795 173.06125 523.92444
541.0 0.001848 173.04228 509.38327
523.0 0.001912 173.02330 496.54639
512.0 0.001953 173.00432 485.30322
548.0 0.001825 172.98535 475.55209
456.0 0.002193 172.96635 467.20062
499.0 0.002004 172.94740 460.16806
481.0 0.002079 172.92844 454.38452
513.0 0.001949 172.90947 449.79340
519.0 0.001927 172.89052 446.35022
519.0 0.001927 172.87157 444.02429
497.0 0.002012 172.85262 442.79889
506.0 0.001976 172.83366 442.67062
476.0 0.002101 172.81471 443.85422
491.0 0.002037 172.79576 445.78369
523.0 0.001912 172.77682 449.06873
466.0 0.002146 172.75787 453.57761
530.0 0.001887 172.73895 459.37582
489.0 0.002045 172.72002 466.54156
489.0 0.002045 172.70110 475.16428
576.0 0.001736 172.68217 485.36169
549.0 0.001821 172.66325 497.20892
541.0 0.001848 172.64433 510.84027
579.0 0.001727 172.62540 526.37793
619.0 0.001616 172.60651 543.80652
639.0 0.001565 172.58760 563.53064
630.0 0.001587 172.56870 585.52924
655.0 0.001527 172.54980 609.91144
668.0 0.001497 172.53090 636.76947
635.0 0.001575 172.51202 666.27100
684.0 0.001462 172.49313 698.23981
790.0 0.001266 172.47427 732.75287
727.0 0.001376 172.45537 769.71222
809.0 0.001236 172.43651 808.92535
928.0 0.001078 172.41762 850.07507
885.0 0.001130 172.39876 892.69415
924.0 0.001082 172.37990 936.16705
918.0 0.001089 172.36104 979.60632
1079.0 0.000927 172.34221 1021.99731
1086.0 0.000921 172.32335 1062.16565
1105.0 0.000905 172.30450 1098.84167
1084.0 0.000923 172.28568 1130.77869
1172.0 0.000853 172.26683 1156.89050
1210.0 0.000826 172.24800 1176.38281
1211.0 0.000826 172.22919 1188.85925
1213.0 0.000824 172.21037 1194.36499
1152.0 0.000868 172.19156 1193.34656
1181.0 0.000847 172.17276 1186.54761
1209.0 0.000827 172.15396 1174.86133
1220.0 0.000820 172.13513 1159.17676
1138.0 0.000879 172.11635 1140.25293
1163.0 0.000860 172.09758 1118.64111
1050.0 0.000952 172.07880 1094.66577
1061.0 0.000943 172.06001 1068.47461
1072.0 0.000933 172.04126 1040.05542
1045.0 0.000957 172.02248 1009.41125
955.0 0.001047 172.00372 976.59619
955.0 0.001047 171.98497 941.78687
920.0 0.001087 171.96620 905.31085
889.0 0.001125 171.94745 867.63019
847.0 0.001181 171.92874 829.29498
772.0 0.001295 171.91000 790.88684
751.0 0.001332 171.89127 752.96167
715.0 0.001399 171.87257 716.00787
710.0 0.001408 171.85384 680.42273
654.0 0.001529 171.83514 646.50348
611.0 0.001637 171.81642 614.44983
587.0 0.001704 171.79773 584.38007
558.0 0.001792 171.77905 556.34119
502.0 0.001992 171.76035 530.32684
508.0 0.001969 171.74168 506.29047
516.0 0.001938 171.72302 484.15768
463.0 0.002160 171.70436 463.83456
463.0 0.002160 171.68570 445.21460
453.0 0.002208 171.66704 428.18588
426.0 0.002347 171.64841 412.63354
400.0 0.002500 171.62975 398.44354
424.0 0.002358 171.61113 385.50470
405.0 0.002469 171.59250 373.70914
359.0 0.002786 171.57390 362.95538
387.0 0.002584 171.55530 353.14679
360.0 0.002778 171.53668 344.19363
302.0 0.003311 171.51808 336.01282
362.0 0.002762 171.49950 328.52774
330.0 0.003030 171.48091 321.66794
310.0 0.003226 171.46236 315.37003
300.0 0.003333 171.44377 309.57635
313.0 0.003195 171.42522 304.23514
314.0 0.003185 171.40668 299.29984
310.0 0.003226 171.38812 294.72949
294.0 0.003401 171.36958 290.48737
280.0 0.00357 171.35106 286.54077
280.0 0.00357 171.33253 282.86139
279.0 0.00358 171.31404 279.42392
291.0 0.003436 171.29552 276.20593
277.0 0.00361 171.27701 273.18781
278.0 0.00360 171.25853 270.35251
279.0 0.00358 171.24005 267.68457
284.0 0.00352 171.22157 265.17075
255.0 0.00392 171.20311 262.79880
273.0 0.00366 171.18465 260.55865
259.0 0.00386 171.16621 258.44022
292.0 0.003425 171.14777 256.43542
255.0 0.00392 171.12933 254.53673
270.0 0.00370 171.11092 252.73734
259.0 0.00386 171.09248 251.03114
269.0 0.00372 171.07410 249.41243
247.0 0.00405 171.05569 247.87627
220.0 0.00455 171.03732 246.41837
255.0 0.00392 171.01894 245.03439
219.0 0.00457 171.00055 243.72089
250.0 0.00400 170.98221 242.33916
237.0 0.00422 170.96385 241.15697
245.0 0.00408 170.94550 240.03613
252.0 0.00397 170.92715 238.97420
262.0 0.00382 170.90883 237.96922
238.0 0.00420 170.89050 237.01927
268.0 0.00373 170.87221 236.12268
245.0 0.00408 170.85393 235.27852
243.0 0.00412 170.83563 234.48537
225.0 0.00444 170.81735 233.74266
201.0 0.00498 170.79906 232.98230
226.0 0.00442 170.78081 232.33902
238.0 0.00420 170.76256 231.74495
224.0 0.00446 170.74432 231.20018
213.0 0.00469 170.72607 230.70500
220.0 0.00455 170.70787 230.25986
239.0 0.00418 170.68965 229.86502
228.0 0.00439 170.67146 229.52139
237.0 0.00422 170.65327 229.22946
232.0 0.00431 170.63509 228.99017
233.0 0.00429 170.61693 228.80408
234.0 0.00427 170.59875 228.67204
234.0 0.00427 170.58061 228.59442
222.0 0.00450 170.56245 228.57149
208.0 0.00481 170.54436 228.60312
234.0 0.00427 170.52623 228.68840
244.0 0.00410 170.50812 228.82613
214.0 0.00467 170.49002 229.01367
200.0 0.00500 170.47194 229.24710
225.0 0.00444 170.45386 229.52098
241.0 0.00415 170.43579 229.82782
229.0 0.00437 170.41772 230.15799
245.0 0.00408 170.39969 230.49965
238.0 0.00420 170.38167 230.83850
225.0 0.00444 170.36363 231.15967
231.0 0.00433 170.34564 231.44708
238.0 0.00420 170.32765 231.68610
233.0 0.00429 170.30965 231.86449
222.0 0.00450 170.29167 231.97408
216.0 0.00463 170.27373 232.01163
240.0 0.00417 170.25575 231.97914
223.0 0.00448 170.23781 231.88310
199.0 0.00503 170.21991 231.73314
238.0 0.00420 170.20198 231.54045
211.0 0.00474 170.18410 231.31573
261.0 0.00383 170.16620 230.90491
220.0 0.00455 170.14832 230.64207
224.0 0.00446 170.13043 230.36768
209.0 0.00478 170.11258 230.08356
231.0 0.00433 170.09474 229.79010
241.0 0.00415 170.07690 229.48798
232.0 0.00431 170.05911 229.17793
229.0 0.00437 170.04129 228.86234
242.0 0.00413 170.02350 228.54544
225.0 0.00444 170.00574 228.23297
187.0 0.00535 169.98796 227.93193
225.0 0.00444 169.97018 227.56201
226.0 0.00442 169.95242 227.30753
211.0 0.00474 169.93471 227.08710
204.0 0.00490 169.91701 226.90683
219.0 0.00457 169.89931 226.77196
206.0 0.00485 169.88161 226.68611
210.0 0.00476 169.86394 226.65265
202.0 0.00495 169.84627 226.67354
252.0 0.00397 169.82860 226.75017
240.0 0.00417 169.81096 226.88388
222.0 0.00450 169.79335 227.07498
203.0 0.00493 169.77574 227.32413
235.0 0.00426 169.75815 227.63179
205.0 0.00488 169.74055 227.99817
201.0 0.00498 169.72301 228.42377
234.0 0.00427 169.70544 228.90938
201.0 0.00498 169.68790 229.45535
251.0 0.00398 169.67035 230.06319
227.0 0.00441 169.65285 230.73383
240.0 0.00417 169.63533 231.46884
218.0 0.00459 169.61787 232.27000
224.0 0.00446 169.60039 233.13951
217.0 0.00461 169.58295 234.07977
216.0 0.00463 169.56552 235.09384
211.0 0.00474 169.54808 236.18506
260.0 0.00385 169.53069 237.35730
224.0 0.00446 169.51328 238.61519
235.0 0.00426 169.49586 239.96353
240.0 0.00417 169.47850 241.40816
216.0 0.00463 169.46115 242.95569
232.0 0.00431 169.44382 244.61351
244.0 0.00410 169.42650 246.39001
243.0 0.00412 169.40919 248.29492
230.0 0.00435 169.39191 250.33907
268.0 0.00373 169.37460 252.53491
242.0 0.00413 169.35735 254.89687
260.0 0.00385 169.34009 257.44095
257.0 0.00389 169.32286 260.18585
251.0 0.00398 169.30566 263.15222
253.0 0.00395 169.28847 266.36417
255.0 0.00392 169.27129 269.84848
247.0 0.00405 169.25410 273.63605
335.0 0.002985 169.23695 277.76071
306.0 0.003268 169.21980 282.26117
280.0 0.00357 169.20267 287.18002
317.0 0.003155 169.18556 292.56494
318.0 0.003145 169.16849 298.46826
311.0 0.003215 169.15140 305.01981
303.0 0.003300 169.13437 312.16882
318.0 0.003145 169.11731 319.99289
319.0 0.003135 169.10031 328.59604
327.0 0.003058 169.08328 338.05594
381.0 0.002625 169.06631 348.45410
340.0 0.002941 169.04933 359.87521
361.0 0.002770 169.03236 372.40564
415.0 0.002410 169.01543 386.13300
405.0 0.002469 168.99852 401.14331
418.0 0.002392 168.98161 417.51834
397.0 0.002519 168.96472 435.33371
405.0 0.002469 168.94786 454.65408
427.0 0.002342 168.93098 475.52893
456.0 0.002193 168.91415 497.98572
504.0 0.001984 168.89734 522.02185
552.0 0.001812 168.88054 547.59399
596.0 0.001678 168.86374 574.60638
593.0 0.001686 168.84697 602.89386
583.0 0.001715 168.83022 632.26007
677.0 0.001477 168.81348 662.25037
714.0 0.001401 168.79678 692.45532
717.0 0.001395 168.78011 722.29486
720.0 0.001389 168.76343 751.08386
773.0 0.001294 168.74675 778.05878
776.0 0.001289 168.73012 802.42914
828.0 0.001208 168.71349 823.44916
826.0 0.001211 168.69688 840.49799
825.0 0.001212 168.68028 853.15631
864.0 0.001157 168.66373 861.25696
880.0 0.001136 168.64720 864.90094
840.0 0.001190 168.63066 864.42480
830.0 0.001205 168.61415 860.33453
823.0 0.001215 168.59764 853.21649
837.0 0.001195 168.58118 843.64832
766.0 0.001305 168.56473 832.12537
797.0 0.001255 168.54829 819.01239
775.0 0.001290 168.53189 804.52942
750.0 0.001333 168.51549 788.76440
718.0 0.001393 168.49910 771.71344
732.0 0.001366 168.48276 753.36029
671.0 0.001490 168.46642 733.65454
692.0 0.001445 168.45012 712.58435
695.0 0.001439 168.43378 690.30713
666.0 0.001502 168.41751 667.03882
638.0 0.001567 168.40125 643.07428
571.0 0.001751 168.38503 618.75708
612.0 0.001634 168.36880 594.44489
566.0 0.001767 168.35260 570.47723
532.0 0.001880 168.33643 547.15057
526.0 0.001901 168.32028 524.70880
492.0 0.002033 168.30414 503.33484
476.0 0.002101 168.28801 483.14920
416.0 0.002404 168.27193 464.24133
413.0 0.002421 168.25584 446.64038
428.0 0.002336 168.23978 430.34973
410.0 0.002439 168.22375 415.34680
423.0 0.002364 168.20775 401.60675
391.0 0.002558 168.19174 389.04974
376.0 0.002660 168.17578 377.63062
375.0 0.002667 168.15984 367.30432
326.0 0.003067 168.14391 357.96936
352.0 0.002841 168.12801 349.57901
364.0 0.002747 168.11211 342.06702
311.0 0.003215 168.09625 335.37915
320.0 0.003125 168.08041 329.45532
295.0 0.003390 168.06458 324.24274
330.0 0.003030 168.04880 319.69318
292.0 0.003425 168.03299 315.76300
313.0 0.003195 168.01723 312.41461
305.0 0.003279 168.00153 309.61484
319.0 0.003135 167.98579 307.33682
280.0 0.00357 167.97011 305.55917
281.0 0.00356 167.95444 304.26556
271.0 0.00369 167.93880 303.44647
293.0 0.003413 167.92319 303.09729
335.0 0.002985 167.90759 303.21960
305.0 0.003279 167.89201 303.82031
317.0 0.003155 167.87645 304.91159
301.0 0.003322 167.86092 306.54581
286.0 0.003497 167.84541 308.67694
285.0 0.00351 167.82991 311.36627
314.0 0.003185 167.81445 314.64581
339.0 0.002950 167.79903 318.55063
298.0 0.003356 167.78362 323.11935
288.0 0.003472 167.76822 328.39297
331.0 0.003021 167.75285 334.41388
328.0 0.003049 167.73752 341.22498
319.0 0.003135 167.72217 348.86700
332.0 0.003012 167.70689 357.37845
318.0 0.003145 167.69162 366.79080
349.0 0.002865 167.67636 377.12714
394.0 0.002538 167.66113 388.40924
353.0 0.002833 167.64592 400.59821
371.0 0.002695 167.63075 413.66995
384.0 0.002604 167.61560 427.55096
452.0 0.002212 167.60048 442.12500
430.0 0.002326 167.58536 457.22498
448.0 0.002232 167.57028 472.51425
444.0 0.002252 167.55522 487.96634
497.0 0.002012 167.54019 503.11624
496.0 0.002016 167.52519 517.64807
527.0 0.001898 167.51021 531.24207
474.0 0.002110 167.49525 543.63226
531.0 0.001883 167.48030 554.63751
513.0 0.001949 167.46542 564.18469
573.0 0.001745 167.45053 572.30420
531.0 0.001883 167.43567 579.11194
584.0 0.001712 167.42084 584.76501
538.0 0.001859 167.40604 589.36115
588.0 0.001701 167.39127 593.12518
556.0 0.001799 167.37650 596.03741
572.0 0.001748 167.36179 598.05811
585.0 0.001709 167.34706 599.05334
577.0 0.001733 167.33241 598.85834
548.0 0.001825 167.31775 597.28839
579.0 0.001727 167.30312 594.18451
570.0 0.001754 167.28853 589.45178
597.0 0.001675 167.27397 583.08472
591.0 0.001692 167.25941 575.17639
540.0 0.001852 167.24490 565.90625
540.0 0.001852 167.23041 555.51544
509.0 0.001965 167.21591 544.27301
503.0 0.001988 167.20149 532.44263
454.0 0.002203 167.18709 520.25403
503.0 0.001988 167.17268 507.89249
467.0 0.002141 167.15836 495.48724
476.0 0.002101 167.14401 483.12207
458.0 0.002183 167.12971 470.84448
457.0 0.002188 167.11543 458.68054
403.0 0.002481 167.10120 446.64822
450.0 0.002222 167.08698 434.77054
387.0 0.002584 167.07277 423.07889
394.0 0.002538 167.05861 411.61761
383.0 0.002611 167.04446 400.44086
382.0 0.002618 167.03036 389.60678
376.0 0.002660 167.01628 379.17349
381.0 0.002625 167.00224 369.19241
316.0 0.003165 166.98822 359.70663
338.0 0.002959 166.97421 350.74649
333.0 0.003003 166.96025 342.33154
343.0 0.002915 166.94632 334.46957
318.0 0.003145 166.93240 327.15823
354.0 0.002825 166.91852 320.38815
297.0 0.003367 166.90466 314.14264
296.0 0.003378 166.89084 308.40155
300.0 0.003333 166.87704 303.14072
307.0 0.003257 166.86328 298.33511
276.0 0.00362 166.84955 293.95840
255.0 0.00392 166.83585 289.98383
267.0 0.00375 166.82216 286.38580
288.0 0.003472 166.80850 283.13934
305.0 0.003279 166.79488 280.21985
240.0 0.00417 166.78130 277.60510
253.0 0.00395 166.76775 275.27313
276.0 0.00362 166.75423 273.20471
281.0 0.00356 166.74074 271.38074
297.0 0.003367 166.72725 269.78445
272.0 0.00368 166.71381 268.40002
259.0 0.00386 166.70039 267.21283
278.0 0.00360 166.68701 266.21045
261.0 0.00383 166.67366 265.38095
248.0 0.00403 166.66035 264.71399
256.0 0.00391 166.64708 264.20023
288.0 0.003472 166.63382 263.83154
262.0 0.00382 166.62057 263.60046
246.0 0.00407 166.60741 263.50110
290.0 0.003448 166.59422 263.52850
257.0 0.00389 166.58113 263.67792
270.0 0.00370 166.56801 263.94617
255.0 0.00392 166.55492 264.36102
268.0 0.00373 166.54190 264.85904
258.0 0.00388 166.52888 265.47000
250.0 0.00400 166.51591 266.19281
293.0 0.003413 166.50298 267.02731
281.0 0.00356 166.49007 267.97455
280.0 0.00357 166.47719 269.03525
276.0 0.00362 166.46434 270.21127
292.0 0.003425 166.45152 271.50519
281.0 0.00356 166.43875 272.91940
293.0 0.003413 166.42599 274.45789
270.0 0.00370 166.41327 276.12405
333.0 0.003003 166.40059 277.92322
280.0 0.00357 166.38794 279.85992
291.0 0.003436 166.37532 281.94086
286.0 0.003497 166.36276 284.17273
309.0 0.003236 166.35016 286.56274
291.0 0.003436 166.33766 289.11954
293.0 0.003413 166.32516 291.85229
316.0 0.003165 166.31273 294.77200
265.0 0.00377 166.30031 297.90564
318.0 0.003145 166.28790 301.23550
307.0 0.003257 166.27557 304.79187
310.0 0.003226 166.26324 308.59143
295.0 0.003390 166.25096 312.12350
362.0 0.002762 166.23868 316.47046
327.0 0.003058 166.22650 321.12540
344.0 0.002907 166.21431 326.11682
355.0 0.002817 166.20216 331.47681
359.0 0.002786 166.19005 337.24283
352.0 0.002841 166.17798 343.45767
366.0 0.002732 166.16592 350.17120
418.0 0.002392 166.15392 357.44061
405.0 0.002469 166.14195 365.33261
383.0 0.002611 166.12999 373.92307
379.0 0.002639 166.11809 383.03464
401.0 0.002494 166.10622 393.29599
423.0 0.002364 166.09438 404.55380
448.0 0.002232 166.08258 416.93451
470.0 0.002128 166.07082 430.57761
445.0 0.002247 166.05910 445.63763
491.0 0.002037 166.04739 462.28308
530.0 0.001887 166.03574 480.69601
575.0 0.001739 166.02414 501.07077
575.0 0.001739 166.01253 523.61090
596.0 0.001678 166.00098 548.52863
591.0 0.001692 165.98946 576.03894
638.0 0.001567 165.97797 606.35364
622.0 0.001608 165.96654 639.67780
656.0 0.001524 165.95514 676.19409
731.0 0.001368 165.94379 716.05243
789.0 0.001267 165.93245 759.34827
761.0 0.001314 165.92116 806.09753
800.0 0.001250 165.90990 856.19995
892.0 0.001121 165.89867 909.40002
961.0 0.001041 165.88747 965.23999
1029.0 0.000972 165.87634 1023.02106
993.0 0.001007 165.86523 1081.78418
1105.0 0.000905 165.85417 1140.32861
1216.0 0.000822 165.84312 1197.30225
1175.0 0.000851 165.83214 1251.34619
1242.0 0.000805 165.82115 1301.31409
1249.0 0.000801 165.81024 1346.48438
1347.0 0.000742 165.79936 1386.72144
1405.0 0.000712 165.78851 1422.51245
1394.0 0.000717 165.77773 1454.93835
1364.0 0.000733 165.76694 1485.17468
1432.0 0.000698 165.75621 1514.65833
1430.0 0.000699 165.74551 1544.57166
1527.0 0.000655 165.73489 1575.72742
1502.0 0.000666 165.72426 1608.46631
1586.0 0.000631 165.71367 1642.61902
1562.0 0.000640 165.70314 1677.52087
1580.0 0.000633 165.69266 1712.08569
1683.0 0.000594 165.68217 1744.92053
1734.0 0.000577 165.67178 1774.49146
1777.0 0.000563 165.66141 1799.29980
1844.0 0.000542 165.65105 1818.06384
1866.0 0.000536 165.64076 1829.84351
1850.0 0.000541 165.63051 1834.11658
1888.0 0.000530 165.62025 1830.77917
1821.0 0.000549 165.61011 1820.10754
1787.0 0.000560 165.59995 1802.68274
1708.0 0.000585 165.58984 1779.30896
1742.0 0.000574 165.57980 1750.92358
1684.0 0.000594 165.56979 1718.50513
1718.0 0.000582 165.55980 1682.99292
1620.0 0.000617 165.54985 1645.21094
1533.0 0.000652 165.53998 1605.81519
1559.0 0.000641 165.53011 1565.27209
1523.0 0.000657 165.52028 1523.84753
1491.0 0.000671 165.51051 1481.64075
1464.0 0.000683 165.50078 1438.62085
1355.0 0.000738 165.49109 1394.72205
1329.0 0.000752 165.48145 1349.78430
1278.0 0.000782 165.47182 1303.93738
1255.0 0.000797 165.46227 1256.91528
1205.0 0.000830 165.45273 1209.01953
1165.0 0.000858 165.44327 1160.50537
1157.0 0.000864 165.43381 1111.71521
1059.0 0.000944 165.42442 1063.04407
1006.0 0.000994 165.41505 1014.90674
939.0 0.001065 165.40575 967.70074
936.0 0.001068 165.39647 921.78375
878.0 0.001139 165.38725 877.45667
849.0 0.001178 165.37807 834.95459
796.0 0.001256 165.36891 794.44824
789.0 0.001267 165.35982 756.04712
721.0 0.001387 165.35075 719.80792
714.0 0.001401 165.34172 685.74377
593.0 0.001686 165.33275 653.83136
619.0 0.001616 165.32384 624.02100
619.0 0.001616 165.31494 596.24170
553.0 0.001808 165.30611 570.40833
520.0 0.001923 165.29730 546.44049
525.0 0.001905 165.28854 524.20782
540.0 0.001852 165.27983 503.62027
481.0 0.002079 165.27116 484.57343
482.0 0.002075 165.26256 466.96350
482.0 0.002075 165.25397 450.68878
470.0 0.002128 165.24544 435.65134
448.0 0.002232 165.23695 421.78772
432.0 0.002315 165.22853 408.94748
399.0 0.002506 165.22012 397.07672
397.0 0.002519 165.21176 386.09650
402.0 0.002488 165.20346 375.93228
372.0 0.002688 165.19518 366.51498
380.0 0.002632 165.18697 357.78101
340.0 0.002941 165.17880 349.67105
353.0 0.002833 165.17068 342.13052
374.0 0.002674 165.16258 335.10971
323.0 0.003096 165.15456 328.56323
317.0 0.003155 165.14658 322.44913
314.0 0.003185 165.13861 316.72992
308.0 0.003247 165.13072 311.37140
342.0 0.002924 165.12286 306.34296
304.0 0.003289 165.11507 301.61630
321.0 0.003115 165.10730 297.16663
330.0 0.003030 165.09959 292.97125
315.0 0.003175 165.09193 289.00974
297.0 0.003367 165.08430 285.26419
287.0 0.003484 165.07672 281.73349
290.0 0.003448 165.06921 278.37204
285.0 0.00351 165.06171 275.18173
262.0 0.00382 165.05429 272.15082
275.0 0.00364 165.04692 269.26825
258.0 0.00388 165.03958 266.52429
273.0 0.00366 165.03230 263.90979
281.0 0.00356 165.02505 261.41669
274.0 0.00365 165.01787 259.03760
275.0 0.00364 165.01071 256.71240
258.0 0.00388 165.00362 254.54141
287.0 0.003484 164.99658 252.46561
257.0 0.00389 164.98958 250.47957
235.0 0.00426 164.98264 248.57823
236.0 0.00424 164.97572 246.75745
257.0 0.00389 164.96887 245.01254
253.0 0.00395 164.96207 243.33989
238.0 0.00420 164.95529 241.73572
249.0 0.00402 164.94859 240.19658
227.0 0.00441 164.94194 238.71931
245.0 0.00408 164.93535 237.02550
245.0 0.00408 164.92877 235.66397
261.0 0.00383 164.92226 234.35593
237.0 0.00422 164.91580 233.09900
231.0 0.00433 164.90939 231.89061
228.0 0.00439 164.90305 230.72896
235.0 0.00426 164.89671 229.61163
217.0 0.00461 164.89046 228.53709
240.0 0.00417 164.88423 227.50327
236.0 0.00424 164.87810 226.50853
213.0 0.00469 164.87199 225.55139
226.0 0.00442 164.86594 224.68864
234.0 0.00427 164.85994 223.80200
235.0 0.00426 164.85397 222.94870
240.0 0.00417 164.84808 222.12727
195.0 0.00513 164.84221 221.33653
230.0 0.00435 164.83643 220.57547
231.0 0.00433 164.83067 219.90210
186.0 0.00538 164.82497 219.19717
216.0 0.00463 164.81932 218.51886
201.0 0.00498 164.81372 217.86617
242.0 0.00413 164.80817 217.23828
204.0 0.00490 164.80269 216.63443
224.0 0.00446 164.79724 216.05389
218.0 0.00459 164.79187 215.49576
240.0 0.00417 164.78653 214.95964
203.0 0.00493 164.78125 214.44464
229.0 0.00437 164.77605 213.95029
214.0 0.00467 164.77084 213.47592
194.0 0.00515 164.76572 213.02095
203.0 0.00493 164.76065 212.58504
214.0 0.00467 164.75563 212.16774
204.0 0.00490 164.75067 211.76836
212.0 0.00472 164.74576 211.38664
198.0 0.00505 164.74092 211.02213
190.0 0.00526 164.73610 210.67459
221.0 0.00452 164.73135 210.34351
234.0 0.00427 164.72665 210.02873
186.0 0.00538 164.72202 209.72961
196.0 0.00510 164.71742 209.44632
185.0 0.00541 164.71291 209.17839
234.0 0.00427 164.70842 208.92551
197.0 0.00508 164.70401 208.68771
231.0 0.00433 164.69965 208.59082
204.0 0.00490 164.69531 208.38235
193.0 0.00518 164.69107 208.18843
202.0 0.00495 164.68687 208.00879
203.0 0.00493 164.68271 207.84329
240.0 0.00417 164.67863 207.69186
212.0 0.00472 164.67459 207.68195
202.0 0.00495 164.67061 207.55861
239.0 0.00418 164.66670 207.44936
212.0 0.00472 164.66281 207.35382
212.0 0.00472 164.65900 207.27209
200.0 0.00500 164.65526 207.20441
211.0 0.00474 164.65155 207.15076
204.0 0.00490 164.64790 206.88765
210.0 0.00476 164.64432 206.86267
206.0 0.00485 164.64079 206.85172
206.0 0.00485 164.63731 206.85529
206.0 0.00485 164.63391 206.87312
213.0 0.00469 164.63055 206.90556
207.0 0.00483 164.62724 206.95302
201.0 0.00498 164.62401 207.01523
195.0 0.00513 164.62080 206.99954
199.0 0.00503 164.61768 207.09294
189.0 0.00529 164.61461 207.20216
197.0 0.00508 164.61160 207.32759
208.0 0.00481 164.60866 207.35811
220.0 0.00455 164.60574 207.51718
199.0 0.00503 164.60291 207.69356
207.0 0.00483 164.60013 207.88795
193.0 0.00518 164.59740 208.10037
190.0 0.00526 164.59474 208.35779
202.0 0.00495 164.59215 208.60866
234.0 0.00427 164.58958 208.87952
204.0 0.00490 164.58711 209.12445
215.0 0.00465 164.58470 209.43761
195.0 0.00513 164.58231 209.77293
201.0 0.00498 164.57999 210.13145
220.0 0.00455 164.57777 210.51407
226.0 0.00442 164.57558 210.92160
204.0 0.00490 164.57344 211.35536
207.0 0.00483 164.57138 211.81630
214.0 0.00467 164.56935 212.30595
199.0 0.00503 164.56743 212.82538
212.0 0.00472 164.56552 213.37646
225.0 0.00444 164.56371 213.98511
237.0 0.00422 164.56194 214.60425
207.0 0.00483 164.56024 215.26035
215.0 0.00465 164.55859 215.95560
228.0 0.00439 164.55699 216.69217
204.0 0.00490 164.55548 217.47301
203.0 0.00493 164.55403 218.30096
204.0 0.00490 164.55264 219.17943
246.0 0.00407 164.55128 220.11176
249.0 0.00402 164.55002 221.10234
233.0 0.00429 164.54883 222.16885
232.0 0.00431 164.54765 223.28998
224.0 0.00446 164.54657 224.48450
223.0 0.00448 164.54553 225.75896
246.0 0.00407 164.54459 227.12045
239.0 0.00418 164.54367 228.57674
268.0 0.00373 164.54283 230.13681
224.0 0.00446 164.54207 231.81064
240.0 0.00417 164.54135 233.60910
252.0 0.00397 164.54071 235.54420
234.0 0.00427 164.54012 237.62953
237.0 0.00422 164.53960 239.87941
242.0 0.00413 164.53915 242.31012
244.0 0.00410 164.53874 244.93864
249.0 0.00402 164.53839 247.79657
272.0 0.00368 164.53813 250.87906
268.0 0.00373 164.53795 254.22026
284.0 0.00352 164.53780 257.84277
270.0 0.00370 164.53773 261.77075
262.0 0.00382 164.53772 266.02960
283.0 0.00353 164.53778 270.64551
264.0 0.00379 164.53790 275.64520
290.0 0.003448 164.53809 281.05585
266.0 0.00376 164.53835 286.90509
319.0 0.003135 164.53865 293.22034
323.0 0.003096 164.53905 300.02777
344.0 0.002907 164.53949 307.35229
306.0 0.003268 164.54001 315.21671
306.0 0.003268 164.54059 323.44437
330.0 0.003030 164.54123 332.44357
394.0 0.002538 164.54193 341.97391
337.0 0.002967 164.54271 352.14169
381.0 0.002625 164.54358 362.88516
374.0 0.002674 164.54448 374.18118
369.0 0.002710 164.54546 385.99094
401.0 0.002494 164.54648 398.25443
408.0 0.002451 164.54761 410.88733
390.0 0.002564 164.54877 423.77768
451.0 0.002217 164.55003 436.78235
422.0 0.002370 164.55135 449.72653
452.0 0.002212 164.55273 462.30740
475.0 0.002105 164.55415 474.49249
468.0 0.002137 164.55568 485.88000
498.0 0.002008 164.55727 496.34689
513.0 0.001949 164.55894 505.60873
529.0 0.001890 164.56064 513.47968
541.0 0.001848 164.56242 519.83014
505.0 0.001980 164.56430 524.59857
556.0 0.001799 164.56622 527.79926
504.0 0.001984 164.56822 529.51434
564.0 0.001773 164.57028 529.88422
533.0 0.001876 164.57242 529.08789
497.0 0.002012 164.57463 527.31921
516.0 0.001938 164.57690 524.76886
547.0 0.001828 164.57924 521.60461
514.0 0.001946 164.58165 517.96112
522.0 0.001916 164.58414 513.93268
542.0 0.001845 164.58670 509.57437
486.0 0.002058 164.58929 504.91006
517.0 0.001934 164.59201 499.93997
492.0 0.002033 164.59474 494.65601
515.0 0.001942 164.59760 489.05389
479.0 0.002088 164.60051 483.14563
504.0 0.001984 164.60349 476.96783
458.0 0.002183 164.60654 470.58487
477.0 0.002096 164.60965 464.08801
493.0 0.002028 164.61282 457.59143
447.0 0.002237 164.61609 451.22256
491.0 0.002037 164.61945 445.11530
454.0 0.002203 164.62285 439.40140
436.0 0.002294 164.62630 434.20474
446.0 0.002242 164.62985 429.63641
450.0 0.002222 164.63348 425.79312
454.0 0.002203 164.63719 422.75607
410.0 0.002439 164.64093 420.59247
428.0 0.002336 164.64478 419.35574
438.0 0.002283 164.64868 419.08810
415.0 0.002410 164.65266 419.82187
431.0 0.002320 164.65672 421.58066
464.0 0.002155 164.66087 424.38104
460.0 0.002174 164.66507 428.23267
432.0 0.002315 164.66936 433.13861
423.0 0.002364 164.67369 439.09518
433.0 0.002309 164.67810 446.09134
459.0 0.002179 164.68262 454.10754
483.0 0.002070 164.68719 463.11310
479.0 0.002088 164.69185 473.06497
563.0 0.001776 164.69656 483.90381
542.0 0.001845 164.70137 495.55173
542.0 0.001845 164.70624 507.90781
517.0 0.001934 164.71118 520.84552
535.0 0.001869 164.71622 534.20795
609.0 0.001642 164.72133 547.80841
595.0 0.001681 164.72646 561.42670
582.0 0.001718 164.73174 574.81580
618.0 0.001618 164.73703 587.70483
665.0 0.001504 164.74246 599.81097
643.0 0.001555 164.74792 610.85229
651.0 0.001536 164.75348 620.56665
702.0 0.001425 164.75911 628.72894
648.0 0.001543 164.76482 635.16803
684.0 0.001462 164.77060 639.78229
686.0 0.001458 164.77644 642.54297
612.0 0.001634 164.78239 643.28430
670.0 0.001493 164.78841 642.53613
726.0 0.001377 164.79448 640.24384
657.0 0.001522 164.80067 636.59125
668.0 0.001497 164.80692 631.81134
606.0 0.001650 164.81323 626.00110
646.0 0.001548 164.81963 619.35638
598.0 0.001672 164.82611 611.99493
606.0 0.001650 164.83267 603.99805
626.0 0.001597 164.83931 595.41071
583.0 0.001715 164.84601 586.25098
577.0 0.001733 164.85281 576.51880
582.0 0.001718 164.85968 566.10510
577.0 0.001733 164.86662 555.22327
539.0 0.001855 164.87367 543.78760
550.0 0.001818 164.88078 531.84155
505.0 0.001980 164.88795 519.45380
521.0 0.001919 164.89523 506.71692
483.0 0.002070 164.90257 493.74103
475.0 0.002105 164.90999 480.64761
475.0 0.002105 164.91751 467.56122
427.0 0.002342 164.92509 454.60251
484.0 0.002066 164.93277 441.88211
426.0 0.002347 164.94051 429.49649
392.0 0.002551 164.94835 417.54718
425.0 0.002353 164.95624 406.05707
451.0 0.002217 164.96423 395.09506
426.0 0.002347 164.97232 384.69452
367.0 0.002725 164.98047 374.87711
377.0 0.002653 164.98869 365.65298
372.0 0.002688 164.99702 357.02402
363.0 0.002755 165.00542 348.98544
324.0 0.003086 165.01390 341.52734
351.0 0.002849 165.02246 334.63574
365.0 0.002740 165.03110 328.29416
358.0 0.002793 165.03983 322.48486
344.0 0.002907 165.04861 317.18839
352.0 0.002841 165.05751 312.38553
298.0 0.003356 165.06650 308.05704
303.0 0.003300 165.07556 304.18399
300.0 0.003333 165.08470 300.74786
322.0 0.003106 165.09392 297.73148
315.0 0.003175 165.10323 295.11853
291.0 0.003436 165.11259 292.89355
284.0 0.00352 165.12210 291.04211
320.0 0.003125 165.13165 289.55124
285.0 0.00351 165.14130 288.40826
295.0 0.003390 165.15103 287.60187
288.0 0.003472 165.16084 287.12109
306.0 0.003268 165.17073 286.95587
308.0 0.003247 165.18073 287.09610
304.0 0.003289 165.19078 287.53116
276.0 0.00362 165.20093 288.25018
304.0 0.003289 165.21115 289.24115
323.0 0.003096 165.22150 290.49014
289.0 0.003460 165.23190 291.98035
308.0 0.003247 165.24239 293.69199
290.0 0.003448 165.25298 295.59967
297.0 0.003367 165.26364 297.67401
301.0 0.003322 165.27438 299.87833
289.0 0.003460 165.28523 302.16986
334.0 0.002994 165.29614 304.49921
338.0 0.002959 165.30716 306.81119
334.0 0.002994 165.31827 309.04739
324.0 0.003086 165.32945 311.14816
344.0 0.002907 165.34071 313.05716
318.0 0.003145 165.35210 314.72623
341.0 0.002933 165.36354 316.11890
297.0 0.003367 165.37505 317.21420
328.0 0.003049 165.38669 318.00824
303.0 0.003300 165.39839 318.51489
306.0 0.003268 165.41020 318.76273
296.0 0.003378 165.42209 318.79041
327.0 0.003058 165.43407 318.64359
303.0 0.003300 165.44612 318.36887
353.0 0.002833 165.45828 318.00818
320.0 0.003125 165.47054 317.59799
320.0 0.003125 165.48285 317.16422
324.0 0.003086 165.49530 316.72430
356.0 0.002809 165.50778 316.28583
288.0 0.003472 165.52037 315.84949
337.0 0.002967 165.53308 315.41089
293.0 0.003413 165.54587 314.96472
330.0 0.003030 165.55875 314.50647
364.0 0.002747 165.57172 314.03656
329.0 0.003040 165.58476 313.56100
323.0 0.003096 165.59789 313.09326
301.0 0.003322 165.61113 312.65347
301.0 0.003322 165.62445 312.26749
327.0 0.003058 165.63785 311.96472
336.0 0.002976 165.65137 311.77731
324.0 0.003086 165.66496 311.73663
306.0 0.003268 165.67865 311.87366
322.0 0.003106 165.69244 312.21744
339.0 0.002950 165.70633 312.79422
337.0 0.002967 165.72028 313.62833
345.0 0.002899 165.73434 314.74167
330.0 0.003030 165.74847 316.15594
355.0 0.002817 165.76273 317.89084
348.0 0.002874 165.77705 319.96780
346.0 0.002890 165.79150 322.40753
360.0 0.002778 165.80602 325.23373
325.0 0.003077 165.82063 328.47128
382.0 0.002618 165.83534 332.14865
374.0 0.002674 165.85016 336.29724
391.0 0.002558 165.86504 340.95294
355.0 0.002817 165.88002 346.15521
378.0 0.002646 165.89513 351.94873
437.0 0.002288 165.91031 358.38269
398.0 0.002513 165.92557 365.51126
401.0 0.002494 165.94095 373.39359
409.0 0.002445 165.95641 382.09381
472.0 0.002119 165.97198 391.68057
483.0 0.002070 165.98763 402.22687
457.0 0.002188 166.00336 413.80872
461.0 0.002169 166.01921 426.50488
489.0 0.002045 166.03516 440.39532
506.0 0.001976 166.05119 455.55939
507.0 0.001972 166.06734 472.07285
492.0 0.002033 166.08357 490.00424
524.0 0.001908 166.09988 509.41116
554.0 0.001805 166.11632 530.33325
562.0 0.001779 166.13283 552.78473
590.0 0.001695 166.14944 576.74792
633.0 0.001580 166.16615 602.16437
644.0 0.001553 166.18297 628.93097
633.0 0.001580 166.19987 656.90314
650.0 0.001538 166.21687 685.90369
733.0 0.001364 166.23398 715.74786
718.0 0.001393 166.25117 746.26990
794.0 0.001259 166.26851 777.35931
850.0 0.001176 166.28589 808.98004
900.0 0.001111 166.30339 841.17828
877.0 0.001140 166.32097 874.06042
921.0 0.001086 166.33867 907.75641
957.0 0.001045 166.35648 942.37415
970.0 0.001031 166.37434 977.95068
1022.0 0.000978 166.39235 1014.42084
1081.0 0.000925 166.41045 1051.58887
1141.0 0.000876 166.42863 1089.12097
1157.0 0.000864 166.44693 1126.54419
1219.0 0.000820 166.46532 1163.26086
1214.0 0.000824 166.48383 1198.56982
1212.0 0.000825 166.50238 1231.71301
1279.0 0.000782 166.52110 1261.92041
1311.0 0.000763 166.53987 1288.47485
1308.0 0.000765 166.55878 1310.77783
1324.0 0.000755 166.57776 1328.40198
1396.0 0.000716 166.59688 1341.12524
1425.0 0.000702 166.61607 1348.95166
1388.0 0.000720 166.63539 1352.07483
1405.0 0.000712 166.65475 1350.84143
1327.0 0.000754 166.67426 1345.69836
1351.0 0.000740 166.69389 1337.13550
1389.0 0.000720 166.71358 1325.63391
1317.0 0.000759 166.73341 1311.63098
1359.0 0.000736 166.75331 1295.49573
1336.0 0.000749 166.77335 1277.51489
1324.0 0.000755 166.79347 1257.88879
1315.0 0.000760 166.81369 1236.74548
1264.0 0.000791 166.83400 1214.14978
1260.0 0.000794 166.85443 1190.12354
1224.0 0.000817 166.87495 1164.67725
1191.0 0.000840 166.89560 1137.82397
1110.0 0.000901 166.91635 1109.60486
1181.0 0.000847 166.93718 1080.10303
1121.0 0.000892 166.95816 1049.45142
1068.0 0.000936 166.97920 1017.82709
1022.0 0.000978 167.00037 985.44910
996.0 0.001004 167.02162 952.56030
972.0 0.001029 167.04300 919.41632
933.0 0.001072 167.06448 886.27338
903.0 0.001107 167.08604 853.37634
828.0 0.001208 167.10776 820.95233
814.0 0.001229 167.12953 789.20532
736.0 0.001359 167.15144 758.31488
787.0 0.001271 167.17345 728.43256
765.0 0.001307 167.19556 699.68439
719.0 0.001391 167.21776 672.16937
660.0 0.001515 167.24010 645.96167
621.0 0.001610 167.26253 621.11279
627.0 0.001595 167.28508 597.65204
590.0 0.001695 167.30772 575.59143
590.0 0.001695 167.33046 554.92639
544.0 0.001838 167.35335 535.63995
559.0 0.001789 167.37631 517.70367
539.0 0.001855 167.39938 501.08151
520.0 0.001923 167.42261 485.73132
483.0 0.002070 167.44588 471.60699
485.0 0.002062 167.46928 458.65924
480.0 0.002083 167.49280 446.83734
462.0 0.002165 167.51643 436.09073
421.0 0.002375 167.54015 426.36835
445.0 0.002247 167.56400 417.62070
397.0 0.002519 167.58794 409.79913
446.0 0.002242 167.61200 402.85638
407.0 0.002457 167.63618 396.74768
446.0 0.002242 167.66045 391.42865
400.0 0.002500 167.68486 386.85690
412.0 0.002427 167.70937 382.99167
378.0 0.002646 167.73396 379.79156
379.0 0.002639 167.75868 377.21649
411.0 0.002433 167.78354 375.22580
395.0 0.002532 167.80847 373.77713
389.0 0.002571 167.83351 372.82584
460.0 0.002174 167.85872 372.32516
396.0 0.002525 167.88397 372.22336
369.0 0.002710 167.90936 372.46350
369.0 0.002710 167.93488 372.98410
399.0 0.002506 167.96048 373.71585
378.0 0.002646 167.98624 374.58505
373.0 0.002681 168.01207 375.51233
436.0 0.002294 168.03802 376.41461
391.0 0.002558 168.06410 377.20874
425.0 0.002353 168.09027 377.81421
387.0 0.002584 168.11658 378.15735
394.0 0.002538 168.14299 378.17551
382.0 0.002618 168.16949 377.82132
396.0 0.002525 168.19614 377.06525
362.0 0.002762 168.22290 375.89645
406.0 0.002463 168.24977 374.32263
398.0 0.002513 168.27675 372.36813
376.0 0.002660 168.30383 370.06934
374.0 0.002674 168.33104 367.47064
372.0 0.002688 168.35837 364.61942
354.0 0.002825 168.38582 361.56125
354.0 0.002825 168.41336 358.33603
367.0 0.002725 168.44104 354.97565
334.0 0.002994 168.46883 351.50311
357.0 0.002801 168.49675 347.93106
337.0 0.002967 168.52477 344.26422
329.0 0.003040 168.55290 340.50040
352.0 0.002841 168.58116 336.63461
336.0 0.002976 168.60951 332.66040
306.0 0.003268 168.63800 328.57349
332.0 0.003012 168.66663 324.37457
314.0 0.003185 168.69534 320.06949
329.0 0.003040 168.72420 315.67120
290.0 0.003448 168.75314 311.19888
303.0 0.003300 168.78223 306.67728
296.0 0.003378 168.81142 302.13397
288.0 0.003472 168.84073 297.59933
270.0 0.00370 168.87015 293.10254
280.0 0.00357 168.89970 288.67221
267.0 0.00375 168.92938 284.33356
267.0 0.00375 168.95918 280.10822
254.0 0.00394 168.98907 276.01413
263.0 0.00380 169.01910 272.06537
288.0 0.003472 169.04926 268.27167
288.0 0.003472 169.07953 264.64005
241.0 0.00415 169.10992 261.17398
251.0 0.00398 169.14041 257.87466
247.0 0.00405 169.17105 254.74124
234.0 0.00427 169.20181 251.77097
245.0 0.00408 169.23267 248.96002
270.0 0.00370 169.26367 246.30360
227.0 0.00441 169.29478 243.79587
215.0 0.00465 169.32603 241.43103
228.0 0.00439 169.35738 239.20248
225.0 0.00444 169.38884 237.10374
229.0 0.00437 169.42044 235.12778
224.0 0.00446 169.45216 233.26857
243.0 0.00412 169.48402 231.51912
257.0 0.00389 169.51599 229.87338
206.0 0.00485 169.54808 228.32477
204.0 0.00490 169.58031 226.86749
184.0 0.00543 169.61264 225.49556
210.0 0.00476 169.64511 224.20374
203.0 0.00493 169.67767 222.98668
233.0 0.00429 169.71039 221.83917
213.0 0.00469 169.74323 220.75682
200.0 0.00500 169.77620 219.73523
206.0 0.00485 169.80928 218.76999
200.0 0.00500 169.84248 217.66145
191.0 0.00524 169.87581 216.79837
195.0 0.00513 169.90929 215.98090
185.0 0.00541 169.94286 215.20592
204.0 0.00490 169.97656 214.47069
209.0 0.00478 170.01038 213.77243
217.0 0.00461 170.04434 213.10864
195.0 0.00513 170.07843 212.47717
208.0 0.00481 170.11266 211.87599
222.0 0.00450 170.14699 211.30316
198.0 0.00505 170.18146 210.75687
191.0 0.00524 170.21602 210.23560
209.0 0.00478 170.25078 209.73795
207.0 0.00483 170.28560 209.26257
210.0 0.00476 170.32057 208.80817
204.0 0.00490 170.35567 208.37369
178.0 0.00562 170.39093 207.95805
181.0 0.00552 170.42627 207.56038
177.0 0.00565 170.46178 207.17975
225.0 0.00444 170.49739 206.81548
206.0 0.00485 170.53311 206.46669
198.0 0.00505 170.56897 206.13278
200.0 0.00500 170.60497 205.81297
195.0 0.00513 170.64110 205.50694
168.0 0.00595 170.67735 205.21402
190.0 0.00526 170.71376 204.93387
180.0 0.00556 170.75026 204.66579
189.0 0.00529 170.78693 204.40935
191.0 0.00524 170.82370 204.16423
179.0 0.00559 170.86061 203.93007
199.0 0.00503 170.89764 203.70662
190.0 0.00526 170.93481 203.49315
200.0 0.00500 170.97212 203.28978
192.0 0.00521 171.00955 203.09593
217.0 0.00461 171.04713 202.91153
173.0 0.00578 171.08481 202.73610
182.0 0.00549 171.12263 202.56961
189.0 0.00529 171.16060 202.41174
185.0 0.00541 171.19870 202.26219
168.0 0.00595 171.23691 202.12096
197.0 0.00508 171.27527 201.98753
154.0 0.00649 171.31375 201.86209
187.0 0.00535 171.35239 201.74425
175.0 0.00571 171.39114 201.63393
194.0 0.00515 171.43004 201.53087
204.0 0.00490 171.46904 201.43506
179.0 0.00559 171.50822 201.34621
169.0 0.00592 171.54752 201.26439
197.0 0.00508 171.58694 201.18936
205.0 0.00488 171.62648 201.12105
190.0 0.00526 171.66620 201.05934
205.0 0.00488 171.70602 201.00420
196.0 0.00510 171.74600 200.95541
183.0 0.00546 171.78610 200.91307
200.0 0.00500 171.82632 200.87706
202.0 0.00495 171.86671 200.84723
174.0 0.00575 171.90721 200.82344
180.0 0.00556 171.94788 200.80597
178.0 0.00562 171.98865 200.79443
200.0 0.00500 172.02957 200.78903
179.0 0.00559 172.07060 200.78955
161.0 0.00621 172.11180 200.79608
183.0 0.00546 172.15312 200.80852
163.0 0.00613 172.19461 200.82690
186.0 0.00538 172.23621 200.85124
180.0 0.00556 172.27795 200.88150
186.0 0.00538 172.31984 200.91765
191.0 0.00524 172.36186 200.95981
166.0 0.00602 172.40402 201.00784
172.0 0.00581 172.44629 201.06194
215.0 0.00465 172.48872 201.12192
163.0 0.00613 172.53130 201.18797
193.0 0.00518 172.57402 201.26018
180.0 0.00556 172.61687 201.33836
182.0 0.00549 172.65987 201.42279
172.0 0.00581 172.70300 201.51338
142.0 0.00704 172.74628 201.61026
184.0 0.00543 172.78969 201.71339
185.0 0.00541 172.83322 201.82303
178.0 0.00562 172.87692 201.93924
188.0 0.00532 172.92076 202.06207
174.0 0.00575 172.96474 202.19154
169.0 0.00592 173.00887 202.32779
166.0 0.00602 173.05312 202.47104
191.0 0.00524 173.09752 202.62134
174.0 0.00575 173.14207 202.77878
178.0 0.00562 173.18674 202.94363
174.0 0.00575 173.23155 203.11598
192.0 0.00521 173.27655 203.29593
201.0 0.00498 173.32167 203.48369
203.0 0.00493 173.36693 203.67958
181.0 0.00552 173.41232 203.88356
185.0 0.00541 173.45786 204.09596
184.0 0.00543 173.50356 204.31715
202.0 0.00495 173.54938 204.54706
172.0 0.00581 173.59534 204.78633
190.0 0.00526 173.64148 205.03482
209.0 0.00478 173.68773 205.29308
199.0 0.00503 173.73415 205.56143
178.0 0.00562 173.78072 205.84012
178.0 0.00562 173.82742 206.08650
167.0 0.00599 173.87427 206.38690
165.0 0.00606 173.92126 206.69879
179.0 0.00559 173.96837 207.02275
192.0 0.00521 174.01566 207.35893
217.0 0.00461 174.06308 207.70789
180.0 0.00556 174.11067 208.07030
200.0 0.00500 174.15840 208.44653
197.0 0.00508 174.20627 208.83720
216.0 0.00463 174.25429 209.24313
203.0 0.00493 174.30244 209.66483
213.0 0.00469 174.35074 210.10318
201.0 0.00498 174.39923 210.55894
199.0 0.00503 174.44780 211.03304
189.0 0.00529 174.49658 211.44952
204.0 0.00490 174.54549 211.96338
184.0 0.00543 174.59454 212.49889
227.0 0.00441 174.64375 213.05707
207.0 0.00483 174.69310 213.63947
175.0 0.00571 174.74258 214.24754
196.0 0.00510 174.79222 214.88290
185.0 0.00541 174.84206 215.54762
205.0 0.00488 174.89197 216.24362
221.0 0.00452 174.94209 216.97298
192.0 0.00521 174.99234 217.73820
195.0 0.00513 175.04276 218.54213
190.0 0.00526 175.09329 219.38741
215.0 0.00465 175.14403 220.27742
185.0 0.00541 175.19487 221.21561
232.0 0.00431 175.24585 222.20586
180.0 0.00556 175.29703 223.25220
218.0 0.00459 175.34833 224.35928
211.0 0.00474 175.39980 225.53175
206.0 0.00485 175.45142 226.77496
236.0 0.00424 175.50319 228.09448
214.0 0.00467 175.55511 229.49629
217.0 0.00461 175.60716 230.98654
248.0 0.00403 175.65941 232.57220
246.0 0.00407 175.71179 234.26033
225.0 0.00444 175.76433 236.05824
217.0 0.00461 175.81699 237.97379
215.0 0.00465 175.86984 240.01486
227.0 0.00441 175.92284 242.18993
226.0 0.00442 175.97600 244.50725
244.0 0.00410 176.02931 246.97566
232.0 0.00431 176.08276 249.60371
240.0 0.00417 176.13638 252.39998
241.0 0.00415 176.19016 255.37321
259.0 0.00386 176.24408 258.53146
268.0 0.00373 176.29816 261.88263
249.0 0.00402 176.35240 265.43417
282.0 0.00355 176.40680 269.19238
273.0 0.00366 176.46135 273.16238
269.0 0.00372 176.51605 277.34833
256.0 0.00391 176.57092 281.75214
283.0 0.00353 176.62596 286.37323
308.0 0.003247 176.68112 291.20868
287.0 0.003484 176.73648 296.25116
301.0 0.003322 176.79198 301.48932
292.0 0.003425 176.84763 306.90662
298.0 0.003356 176.90344 312.47949
286.0 0.003497 176.95941 318.17838
322.0 0.003106 177.01555 323.96558
326.0 0.003067 177.07184 329.79489
340.0 0.002941 177.12828 335.61267
343.0 0.002915 177.18492 341.35724
385.0 0.002597 177.24168 346.96115
330.0 0.003030 177.29858 352.35324
348.0 0.002874 177.35570 357.46259
354.0 0.002825 177.41295 362.22119
380.0 0.002632 177.47035 366.57022
403.0 0.002481 177.52794 370.46313
361.0 0.002770 177.58565 373.87009
406.0 0.002463 177.64355 376.78040
415.0 0.002410 177.70160 379.20413
382.0 0.002618 177.75984 381.17032
382.0 0.002618 177.81821 382.72430
386.0 0.002591 177.87677 383.92514
405.0 0.002469 177.93546 384.83868
385.0 0.002597 177.99432 385.53464
384.0 0.002604 178.05336 386.07990
405.0 0.002469 178.11255 386.53592
376.0 0.002660 178.17192 386.95618
394.0 0.002538 178.23141 387.38235
374.0 0.002674 178.29114 387.84680
412.0 0.002427 178.35095 388.37170
363.0 0.002755 178.41095 388.97006
403.0 0.002481 178.47115 389.65005
395.0 0.002532 178.53148 390.41653
409.0 0.002445 178.59200 391.27429
366.0 0.002732 178.65268 392.23129
390.0 0.002564 178.71353 393.30103
349.0 0.002865 178.77452 394.50388
424.0 0.002358 178.83569 395.86737
404.0 0.002475 178.89702 397.42740
403.0 0.002481 178.95853 399.22488
425.0 0.002353 179.02020 401.30527
424.0 0.002358 179.08203 403.71594
426.0 0.002347 179.14406 406.50409
390.0 0.002564 179.20621 409.71420
385.0 0.002597 179.26857 413.38724
446.0 0.002242 179.33105 417.55731
442.0 0.002262 179.39374 422.25211
440.0 0.002273 179.45657 427.49130
410.0 0.002439 179.51958 433.28488
473.0 0.002114 179.58278 439.63394
440.0 0.002273 179.64609 446.52783
443.0 0.002257 179.70964 453.94519
453.0 0.002208 179.77332 461.85065
523.0 0.001912 179.83717 470.19574
467.0 0.002141 179.90120 478.91605
459.0 0.002179 179.96539 487.93069
503.0 0.001988 180.02977 497.14252
481.0 0.002079 180.09428 506.43683
504.0 0.001984 180.15903 515.68311
528.0 0.001894 180.22388 524.73700
547.0 0.001828 180.28896 533.44470
524.0 0.001908 180.35417 541.64825
522.0 0.001916 180.41957 549.19073
556.0 0.001799 180.48512 555.92694
566.0 0.001767 180.55086 561.73016
557.0 0.001795 180.61678 566.50067
575.0 0.001739 180.68285 570.17090
571.0 0.001751 180.74913 572.71112
571.0 0.001751 180.81555 574.13037
586.0 0.001706 180.88217 574.47205
582.0 0.001718 180.94894 573.81085
520.0 0.001923 181.01588 572.24353
562.0 0.001779 181.08301 569.88171
574.0 0.001742 181.15028 566.84009
564.0 0.001773 181.21779 563.22943
555.0 0.001802 181.28542 559.14899
573.0 0.001745 181.35326 554.68115
562.0 0.001779 181.42125 549.88776
544.0 0.001838 181.48944 544.81018
545.0 0.001835 181.55779 539.47015
563.0 0.001776 181.62631 533.87195
503.0 0.001988 181.69501 528.00873
524.0 0.001908 181.76389 521.86584
492.0 0.002033 181.83298 515.42847
523.0 0.001912 181.90219 508.68491
494.0 0.002024 181.97160 501.63382
516.0 0.001938 182.04117 494.28540
501.0 0.001996 182.11098 486.66397
472.0 0.002119 182.18089 478.80777
477.0 0.002096 182.25101 470.76788
443.0 0.002257 182.32132 462.60461
488.0 0.002049 182.39178 454.38498
454.0 0.002203 182.46246 446.17877
459.0 0.002179 182.53329 438.05490
427.0 0.002342 182.60431 430.07886
437.0 0.002288 182.67551 422.31094
405.0 0.002469 182.74689 414.80399
398.0 0.002513 182.81845 407.60321
389.0 0.002571 182.89017 400.74673
386.0 0.002591 182.96210 394.26459
400.0 0.002500 183.03421 388.18048
395.0 0.002532 183.10648 382.51196
356.0 0.002809 183.17891 377.27167
396.0 0.002525 183.25157 372.46826
379.0 0.002639 183.32442 368.10706
395.0 0.002532 183.39740 364.19019
371.0 0.002695 183.47061 360.71924
356.0 0.002809 183.54396 357.69354
325.0 0.003077 183.61754 355.11215
390.0 0.002564 183.69125 352.97330
375.0 0.002667 183.76518 351.27539
344.0 0.002907 183.83926 350.01773
384.0 0.002604 183.91360 349.19888
358.0 0.002793 183.98805 348.81870
398.0 0.002513 184.06270 348.87750
369.0 0.002710 184.13756 349.37662
389.0 0.002571 184.21257 350.31757
399.0 0.002506 184.28778 351.70297
355.0 0.002817 184.36317 353.53632
401.0 0.002494 184.43875 355.82153
417.0 0.002398 184.51453 358.56323
374.0 0.002674 184.59048 361.76614
378.0 0.002646 184.66661 365.43515
374.0 0.002674 184.74292 369.34235
372.0 0.002688 184.81946 373.95975
412.0 0.002427 184.89615 379.02679
367.0 0.002725 184.97305 384.60733
408.0 0.002451 185.05011 390.67203
390.0 0.002564 185.12737 397.21982
445.0 0.002247 185.20482 404.24652
459.0 0.002179 185.28244 411.74377
418.0 0.002392 185.36028 419.69913
456.0 0.002193 185.43829 428.09406
461.0 0.002169 185.51651 436.90295
475.0 0.002105 185.59489 446.09323
476.0 0.002101 185.67349 455.62442
488.0 0.002049 185.75224 465.44592
504.0 0.001984 185.83122 475.49963
525.0 0.001905 185.91035 485.60190
535.0 0.001869 185.98970 495.89761
495.0 0.002020 186.06926 506.22134
561.0 0.001783 186.14894 516.47601
522.0 0.001916 186.22890 526.57996
580.0 0.001724 186.30898 536.45538
598.0 0.001672 186.38930 546.02991
576.0 0.001736 186.46977 555.23969
601.0 0.001664 186.55048 564.03033
600.0 0.001667 186.63135 572.35669
639.0 0.001565 186.71239 580.18097
603.0 0.001658 186.79367 587.47162
636.0 0.001572 186.87511 594.20020
664.0 0.001506 186.95679 600.33746
604.0 0.001656 187.03860 605.85480
648.0 0.001543 187.12065 610.71863
656.0 0.001524 187.20290 614.89441
645.0 0.001550 187.28528 618.34790
653.0 0.001531 187.36790 621.04675
659.0 0.001517 187.45071 622.96588
658.0 0.001520 187.53374 624.08911
676.0 0.001479 187.61693 624.41437
669.0 0.001495 187.70035 623.95361
630.0 0.001587 187.78394 622.73560
642.0 0.001558 187.86775 620.80566
665.0 0.001504 187.95172 618.22235
669.0 0.001495 188.03587 615.05817
673.0 0.001486 188.12029 611.39417
633.0 0.001580 188.20485 607.31738
661.0 0.001513 188.28964 602.91803
661.0 0.001513 188.37460 598.28510
660.0 0.001515 188.45981 593.38867
643.0 0.001555 188.54517 588.54211
594.0 0.001684 188.63074 583.70374
641.0 0.001560 188.71651 578.94104
611.0 0.001637 188.80246 574.31573
623.0 0.001605 188.88864 569.88458
608.0 0.001645 188.97498 565.70197
591.0 0.001692 189.06157 561.82202
623.0 0.001605 189.14833 558.30054
582.0 0.001718 189.23531 555.19519
626.0 0.001597 189.32246 552.56854
590.0 0.001695 189.40982 550.48572
575.0 0.001739 189.49739 549.01379
593.0 0.001686 189.58516 548.21869
584.0 0.001712 189.67313 548.16119
605.0 0.001653 189.76129 548.89111
629.0 0.001590 189.84969 550.44122
604.0 0.001656 189.93825 552.81866
512.0 0.001953 190.02707 555.99561
574.0 0.001742 190.11603 559.89966
595.0 0.001681 190.20522 564.40393
539.0 0.001855 190.29460 569.32202
540.0 0.001852 190.38419 574.40778
626.0 0.001597 190.47398 579.36829
537.0 0.001862 190.56398 583.88855
575.0 0.001739 190.65421 587.67194
561.0 0.001783 190.74463 590.48547
545.0 0.001835 190.83524 592.20294
590.0 0.001695 190.92604 592.82892
554.0 0.001805 191.01704 592.49567
545.0 0.001835 191.10831 591.43616
614.0 0.001629 191.19974 589.93750
540.0 0.001852 191.29140 588.29248
573.0 0.001745 191.38324 586.75934
593.0 0.001686 191.47530 585.53583
586.0 0.001706 191.56757 584.74609
572.0 0.001748 191.66000 584.44104
593.0 0.001686 191.75272 584.60565
568.0 0.001761 191.84560 585.16907
582.0 0.001718 191.93871 586.01721
559.0 0.001789 192.03197 587.00470
573.0 0.001745 192.12552 587.96552
603.0 0.001658 192.21922 588.72607
556.0 0.001799 192.31316 589.11707
589.0 0.001698 192.40732 588.99060
581.0 0.001721 192.50163 588.23749
599.0 0.001669 192.59622 586.80438
565.0 0.001770 192.69096 584.70569
579.0 0.001727 192.78596 582.02411
520.0 0.001923 192.88112 578.89978
568.0 0.001761 192.97655 575.50885
585.0 0.001709 193.07214 572.03705
578.0 0.001730 193.16800 568.65527
560.0 0.001786 193.26401 565.50116
560.0 0.001786 193.36024 562.66931
598.0 0.001672 193.45674 560.20911
499.0 0.002004 193.55338 558.12793
529.0 0.001890 193.65030 556.39771
537.0 0.001862 193.74738 554.96503
547.0 0.001828 193.84470 553.75940
583.0 0.001715 193.94221 552.70349
578.0 0.001730 194.03992 551.72137
535.0 0.001869 194.13791 550.74530
569.0 0.001757 194.23607 549.72095
551.0 0.001815 194.33447 548.61102
589.0 0.001698 194.43306 547.39612
547.0 0.001828 194.53189 546.07587
594.0 0.001684 194.63089 544.66626
580.0 0.001724 194.73016 543.19989
574.0 0.001742 194.82961 541.72162
551.0 0.001815 194.92924 540.28644
598.0 0.001672 195.02917 538.95795
561.0 0.001783 195.12927 537.80322
532.0 0.001880 195.22963 536.89136
579.0 0.001727 195.33017 536.29083
575.0 0.001739 195.43091 536.06677
580.0 0.001724 195.53189 536.27899
571.0 0.001751 195.63310 536.98163
582.0 0.001718 195.73453 538.22040
573.0 0.001745 195.83612 540.03448
576.0 0.001736 195.93802 542.45581
545.0 0.001835 196.04005 545.51050
585.0 0.001709 196.14238 549.21826
569.0 0.001757 196.24486 553.59601
624.0 0.001603 196.34761 558.65875
599.0 0.001669 196.45056 564.42035
580.0 0.001724 196.55371 570.89557
599.0 0.001669 196.65714 578.10156
590.0 0.001695 196.76073 586.05725
640.0 0.001563 196.86459 594.78394
652.0 0.001534 196.96863 604.30396
618.0 0.001618 197.07295 614.63879
652.0 0.001534 197.17740 625.80865
626.0 0.001597 197.28217 637.82623
644.0 . . .
